REMARK  Name = 25229652
REMARK  5 active torsions:
REMARK  status: ('A' for Active; 'I' for Inactive)
REMARK    1  A    between atoms: N_2  and  C_4
REMARK    2  A    between atoms: N_2  and  N_16
REMARK    3  A    between atoms: C_3  and  C_15
REMARK    4  A    between atoms: C_17  and  C_18
REMARK    5  A    between atoms: C_21  and  O_24
REMARK                            x       y       z     vdW  Elec       q    Type
REMARK                         _______ _______ _______ _____ _____    ______ ____
ROOT
ATOM      1  O   UNL     1       3.523   1.780   0.474  0.00  0.00    -0.264 OA
ATOM      2  N   UNL     1       1.486   0.709   0.013  0.00  0.00    -0.152 N 
ATOM      3  C   UNL     1       2.316   1.818   0.227  0.00  0.00    +0.344 C 
ENDROOT
BRANCH   2   4
ATOM      4  C   UNL     1       2.008  -0.631   0.038  0.00  0.00    +0.073 C 
ATOM      5  C   UNL     1       1.912  -1.458  -1.081  0.00  0.00    -0.007 C 
ATOM      6  C   UNL     1       3.035  -3.223   0.127  0.00  0.00    -0.022 C 
ATOM      7  C   UNL     1       2.425  -2.754  -1.037  0.00  0.00    -0.007 C 
ATOM      8  C   UNL     1       2.618  -1.100   1.202  0.00  0.00    +0.016 C 
ATOM      9  C   UNL     1       3.131  -2.397   1.246  0.00  0.00    -0.003 C 
ATOM     10  C   UNL     1       1.263  -0.982  -2.340  0.00  0.00    +0.032 C 
ATOM     11  C   UNL     1       3.581  -4.610   0.175  0.00  0.00    +0.031 C 
ENDBRANCH   2   4
BRANCH   3  15
ATOM     12  F   UNL     1       0.300   3.052  -0.083  0.00  0.00    -0.162 F 
ATOM     13  F   UNL     1       1.739   3.831   1.349  0.00  0.00    -0.162 F 
ATOM     14  F   UNL     1       2.155   3.975  -0.781  0.00  0.00    -0.162 F 
ATOM     15  C   UNL     1       1.629   3.162   0.171  0.00  0.00    +0.472 C 
ENDBRANCH   3  15
BRANCH   2  16
ATOM     16  N   UNL     1       0.155   0.952  -0.223  0.00  0.00    -0.170 NA
ATOM     17  C   UNL     1      -0.667   0.018   0.173  0.00  0.00    +0.118 C 
BRANCH  17  18
ATOM     18  C   UNL     1      -2.109   0.122   0.011  0.00  0.00    +0.024 C 
ATOM     19  C   UNL     1      -2.937  -0.915   0.441  0.00  0.00    +0.038 C 
ATOM     20  C   UNL     1      -2.664   1.260  -0.575  0.00  0.00    +0.002 C 
ATOM     21  C   UNL     1      -4.319  -0.814   0.285  0.00  0.00    +0.139 C 
ATOM     22  C   UNL     1      -4.046   1.361  -0.730  0.00  0.00    +0.003 C 
ATOM     23  C   UNL     1      -4.874   0.324  -0.300  0.00  0.00    +0.037 C 
BRANCH  21  24
ATOM     24  O   UNL     1      -5.127  -1.826   0.705  0.00  0.00    -0.471 OA
ATOM     25  C   UNL     1      -6.531  -1.657   0.515  0.00  0.00    +0.252 C 
ENDBRANCH  21  24
ENDBRANCH  17  18
ENDBRANCH   2  16
TORSDOF 5
