REMARK  Name = 41049
REMARK  3 active torsions:
REMARK  status: ('A' for Active; 'I' for Inactive)
REMARK    1  A    between atoms: C_2  and  C_10
REMARK    2  A    between atoms: C_2  and  C_18
REMARK    3  A    between atoms: C_13  and  O_16
REMARK                            x       y       z     vdW  Elec       q    Type
REMARK                         _______ _______ _______ _____ _____    ______ ____
ROOT
ATOM      1  N   UNL     1      -2.662   1.072   0.133  0.00  0.00    +0.386 N 
ATOM      2  C   UNL     1      -0.497  -0.082  -0.573  0.00  0.00    +0.000 C 
ATOM      3  C   UNL     1      -1.274  -1.436  -0.584  0.00  0.00    +0.002 C 
ATOM      4  C   UNL     1      -1.199   0.992   0.315  0.00  0.00    -0.073 C 
ATOM      5  C   UNL     1      -1.914  -1.843   0.746  0.00  0.00    -0.002 C 
ATOM      6  C   UNL     1      -3.310  -1.246   0.914  0.00  0.00    -0.023 C 
ATOM      7  C   UNL     1      -3.361   0.265   1.149  0.00  0.00    -0.077 C 
ATOM      8  C   UNL     1      -3.102   2.468   0.245  0.00  0.00    -0.101 C 
ATOM      9  H   UNL     1      -2.888   0.709  -0.793  0.00  0.00    -0.080 HD
ENDROOT
BRANCH   2  10
ATOM     10  C   UNL     1       0.968  -0.206  -0.080  0.00  0.00    -0.022 C 
ATOM     11  C   UNL     1       1.776   0.925  -0.021  0.00  0.00    +0.032 C 
ATOM     12  C   UNL     1       1.467  -1.449   0.299  0.00  0.00    -0.004 C 
ATOM     13  C   UNL     1       3.095   0.813   0.421  0.00  0.00    +0.133 C 
ATOM     14  C   UNL     1       2.785  -1.561   0.742  0.00  0.00    +0.003 C 
ATOM     15  C   UNL     1       3.599  -0.430   0.802  0.00  0.00    +0.037 C 
BRANCH  13  16
ATOM     16  O   UNL     1       3.889   1.917   0.480  0.00  0.00    -0.506 OA
ATOM     17  H   UNL     1       3.550   2.752   0.224  0.00  0.00    +0.292 HD
ENDBRANCH  13  16
ENDBRANCH   2  10
BRANCH   2  18
ATOM     18  C   UNL     1      -0.485   0.399  -2.052  0.00  0.00    +0.002 C 
ATOM     19  C   UNL     1       0.225  -0.599  -2.937  0.00  0.00    +0.000 C 
ENDBRANCH   2  18
TORSDOF 3
