REMARK  Name = 39214
REMARK  5 active torsions:
REMARK  status: ('A' for Active; 'I' for Inactive)
REMARK    1  A    between atoms: C_1  and  C_5
REMARK    2  A    between atoms: C_1  and  N_13
REMARK    3  A    between atoms: N_14  and  N_18
REMARK    4  A    between atoms: N_14  and  C_19
REMARK    5  A    between atoms: C_19  and  C_21
REMARK                            x       y       z     vdW  Elec       q    Type
REMARK                         _______ _______ _______ _____ _____    ______ ____
ROOT
ATOM      1  C   UNL     1       0.499   0.434   1.626  0.00  0.00    +0.123 C 
ENDROOT
BRANCH   1   5
ATOM      2  N   UNL     1       3.431  -0.850  -0.382  0.00  0.00    -0.340 NA
ATOM      3  N   UNL     1       3.442   1.560  -0.417  0.00  0.00    -0.186 NA
ATOM      4  N   UNL     1       1.739  -2.020   0.798  0.00  0.00    -0.332 N 
ATOM      5  C   UNL     1       1.738   0.379   0.772  0.00  0.00    +0.062 C 
ATOM      6  C   UNL     1       2.321  -0.796   0.383  0.00  0.00    +0.187 C 
ATOM      7  C   UNL     1       2.332   1.539   0.349  0.00  0.00    +0.111 C 
ATOM      8  C   UNL     1       3.932   0.348  -0.741  0.00  0.00    +0.066 C 
ATOM      9  C   UNL     1       5.159   0.330  -1.587  0.00  0.00    +0.129 C 
ATOM     10  H   UNL     1       2.145  -2.875   0.527  0.00  0.00    +0.145 HD
ATOM     11  H   UNL     1       0.929  -2.015   1.357  0.00  0.00    +0.145 HD
ENDBRANCH   1   5
BRANCH   1  13
ATOM     12  O   UNL     1      -0.956  -1.845   0.835  0.00  0.00    -0.251 OA
ATOM     13  N   UNL     1      -0.706   0.441   0.828  0.00  0.00    -0.283 N 
ATOM     14  N   UNL     1      -2.524  -0.567  -0.297  0.00  0.00    -0.163 N 
ATOM     15  C   UNL     1      -1.367  -0.735   0.479  0.00  0.00    +0.321 C 
ATOM     16  H   UNL     1      -1.070   1.302   0.521  0.00  0.00    +0.151 HD
BRANCH  14  18
ATOM     17  O   UNL     1      -4.306  -1.468  -1.410  0.00  0.00    -0.078 OA
ATOM     18  N   UNL     1      -3.313  -1.755  -0.733  0.00  0.00    +0.054 NA
ENDBRANCH  14  18
BRANCH  14  19
ATOM     19  C   UNL     1      -2.982   0.757  -0.701  0.00  0.00    +0.134 C 
BRANCH  19  21
ATOM     20 CL   UNL     1      -4.510   2.929  -0.148  0.00  0.00    -0.112 Cl
ATOM     21  C   UNL     1      -3.931   1.320   0.346  0.00  0.00    +0.118 C 
ENDBRANCH  19  21
ENDBRANCH  14  19
ENDBRANCH   1  13
TORSDOF 5
