REMARK  Name = 4905
REMARK  4 active torsions:
REMARK  status: ('A' for Active; 'I' for Inactive)
REMARK    1  A    between atoms: N_1  and  C_20
REMARK    2  A    between atoms: N_1  and  C_22
REMARK    3  A    between atoms: C_7  and  C_8
REMARK    4  A    between atoms: C_7  and  C_14
REMARK                            x       y       z     vdW  Elec       q    Type
REMARK                         _______ _______ _______ _____ _____    ______ ____
ROOT
ATOM      1  N   UNL     1       2.844   0.673   0.049  0.00  0.00    +0.394 N 
ATOM      2  C   UNL     1       1.680  -0.350   0.177  0.00  0.00    -0.035 C 
ATOM      3  C   UNL     1       2.227   1.966   0.604  0.00  0.00    -0.068 C 
ATOM      4  C   UNL     1       0.768   1.938   0.165  0.00  0.00    -0.002 C 
ATOM      5  C   UNL     1       0.420   0.481   0.122  0.00  0.00    -0.065 C 
ATOM      6  C   UNL     1       1.750  -1.156   1.476  0.00  0.00    -0.018 C 
ATOM      7  C   UNL     1      -0.828   0.005   0.034  0.00  0.00    -0.010 C 
ENDROOT
BRANCH   7   8
ATOM      8  C   UNL     1      -1.024  -1.471   0.000  0.00  0.00    -0.001 C 
ATOM      9  C   UNL     1      -1.034  -2.111  -1.220  0.00  0.00    -0.000 C 
ATOM     10  C   UNL     1      -1.190  -2.144   1.191  0.00  0.00    -0.000 C 
ATOM     11  C   UNL     1      -1.218  -3.493  -1.251  0.00  0.00    -0.000 C 
ATOM     12  C   UNL     1      -1.375  -3.526   1.159  0.00  0.00    -0.000 C 
ATOM     13  C   UNL     1      -1.388  -4.201  -0.061  0.00  0.00    -0.000 C 
ENDBRANCH   7   8
BRANCH   7  14
ATOM     14  C   UNL     1      -1.955   0.977  -0.026  0.00  0.00    -0.001 C 
ATOM     15  C   UNL     1      -2.534   1.392   1.153  0.00  0.00    -0.000 C 
ATOM     16  C   UNL     1      -2.378   1.426  -1.258  0.00  0.00    -0.000 C 
ATOM     17  C   UNL     1      -3.590   2.302   1.097  0.00  0.00    -0.000 C 
ATOM     18  C   UNL     1      -3.434   2.336  -1.314  0.00  0.00    -0.000 C 
ATOM     19  C   UNL     1      -4.040   2.774  -0.136  0.00  0.00    -0.000 C 
ENDBRANCH   7  14
BRANCH   1  20
ATOM     20  C   UNL     1       3.212   0.853  -1.430  0.00  0.00    -0.073 C 
ATOM     21  C   UNL     1       3.842  -0.422  -1.945  0.00  0.00    -0.024 C 
ENDBRANCH   1  20
BRANCH   1  22
ATOM     22  C   UNL     1       4.119   0.320   0.797  0.00  0.00    -0.073 C 
ATOM     23  C   UNL     1       5.127   1.433   0.617  0.00  0.00    -0.024 C 
ENDBRANCH   1  22
TORSDOF 4
