REMARK  Name = 28892
REMARK  12 active torsions:
REMARK  status: ('A' for Active; 'I' for Inactive)
REMARK    1  A    between atoms: O_1  and  C_3
REMARK    2  A    between atoms: O_1  and  C_13
REMARK    3  A    between atoms: C_3  and  C_4
REMARK    4  A    between atoms: C_4  and  C_5
REMARK    5  A    between atoms: C_4  and  C_11
REMARK    6  A    between atoms: C_13  and  C_14
REMARK    7  A    between atoms: C_14  and  O_15
REMARK    8  A    between atoms: O_15  and  C_16
REMARK    9  A    between atoms: C_16  and  C_17
REMARK   10  A    between atoms: C_17  and  N_18
REMARK   11  A    between atoms: N_18  and  C_20
REMARK   12  A    between atoms: N_18  and  C_22
REMARK                            x       y       z     vdW  Elec       q    Type
REMARK                         _______ _______ _______ _____ _____    ______ ____
ROOT
ATOM      1  O   UNL     1       0.497   1.095   0.269  0.00  0.00    -0.446 OA
ENDROOT
BRANCH   1   3
ATOM      2  O   UNL     1       2.395   1.903  -0.755  0.00  0.00    -0.250 OA
ATOM      3  C   UNL     1       1.810   1.044  -0.109  0.00  0.00    +0.321 C 
BRANCH   3   4
ATOM      4  C   UNL     1       2.430  -0.258   0.390  0.00  0.00    +0.121 C 
BRANCH   4   5
ATOM      5  C   UNL     1       3.867  -0.406  -0.087  0.00  0.00    -0.012 C 
ATOM      6  C   UNL     1       4.110  -1.037  -1.290  0.00  0.00    -0.004 C 
ATOM      7  C   UNL     1       4.886   0.096   0.698  0.00  0.00    -0.004 C 
ATOM      8  C   UNL     1       5.427  -1.173  -1.727  0.00  0.00    -0.000 C 
ATOM      9  C   UNL     1       6.203  -0.040   0.261  0.00  0.00    -0.000 C 
ATOM     10  C   UNL     1       6.474  -0.674  -0.952  0.00  0.00    -0.000 C 
ENDBRANCH   4   5
BRANCH   4  11
ATOM     11  C   UNL     1       2.267  -0.365   1.920  0.00  0.00    +0.016 C 
ATOM     12  C   UNL     1       2.743  -1.701   2.478  0.00  0.00    +0.001 C 
ENDBRANCH   4  11
ENDBRANCH   3   4
ENDBRANCH   1   3
BRANCH   1  13
ATOM     13  C   UNL     1      -0.220   2.264  -0.142  0.00  0.00    +0.240 C 
BRANCH  13  14
ATOM     14  C   UNL     1      -1.650   2.168   0.352  0.00  0.00    +0.189 C 
BRANCH  14  15
ATOM     15  O   UNL     1      -2.263   1.019  -0.221  0.00  0.00    -0.352 OA
BRANCH  15  16
ATOM     16  C   UNL     1      -3.602   0.866   0.227  0.00  0.00    +0.120 C 
BRANCH  16  17
ATOM     17  C   UNL     1      -4.195  -0.375  -0.421  0.00  0.00    -0.045 C 
BRANCH  17  18
ATOM     18  N   UNL     1      -5.565  -0.582   0.023  0.00  0.00    +0.389 N 
ATOM     19  H   UNL     1      -5.555  -0.688   1.037  0.00  0.00    -0.080 HD
BRANCH  18  20
ATOM     20  C   UNL     1      -6.400   0.573  -0.317  0.00  0.00    -0.077 C 
ATOM     21  C   UNL     1      -7.817   0.397   0.203  0.00  0.00    -0.025 C 
ENDBRANCH  18  20
BRANCH  18  22
ATOM     22  C   UNL     1      -6.123  -1.801  -0.569  0.00  0.00    -0.077 C 
ATOM     23  C   UNL     1      -5.274  -3.014  -0.230  0.00  0.00    -0.025 C 
ENDBRANCH  18  22
ENDBRANCH  17  18
ENDBRANCH  16  17
ENDBRANCH  15  16
ENDBRANCH  14  15
ENDBRANCH  13  14
ENDBRANCH   1  13
TORSDOF 12
