REMARK  Name = 14687
REMARK  3 active torsions:
REMARK  status: ('A' for Active; 'I' for Inactive)
REMARK    1  A    between atoms: C_6  and  O_19
REMARK    2  A    between atoms: C_6  and  C_23
REMARK    3  A    between atoms: C_18  and  O_21
REMARK                            x       y       z     vdW  Elec       q    Type
REMARK                         _______ _______ _______ _____ _____    ______ ____
ROOT
ATOM      1  C   UNL     1       1.542   0.788   0.112  0.00  0.00    +0.003 C 
ATOM      2  C   UNL     1       2.309  -0.365  -0.574  0.00  0.00    +0.033 C 
ATOM      3  C   UNL     1       0.089   0.900  -0.361  0.00  0.00    +0.001 C 
ATOM      4  C   UNL     1      -0.649  -0.435  -0.046  0.00  0.00    +0.004 C 
ATOM      5  C   UNL     1       1.603  -1.687  -0.221  0.00  0.00    +0.003 C 
ATOM      6  C   UNL     1       3.736  -0.143   0.012  0.00  0.00    +0.142 C 
ATOM      7  C   UNL     1       2.465   1.990  -0.069  0.00  0.00    +0.004 C 
ATOM      8  C   UNL     1       0.112  -1.664  -0.605  0.00  0.00    +0.000 C 
ATOM      9  C   UNL     1      -2.129  -0.381  -0.531  0.00  0.00    +0.018 C 
ATOM     10  C   UNL     1       3.890   1.401  -0.022  0.00  0.00    +0.039 C 
ATOM     11  C   UNL     1      -0.641   2.075   0.303  0.00  0.00    +0.004 C 
ATOM     12  C   UNL     1       2.364  -0.240  -2.126  0.00  0.00    +0.003 C 
ATOM     13  C   UNL     1      -2.824   0.870  -0.009  0.00  0.00    -0.046 C 
ATOM     14  C   UNL     1      -2.082   2.169  -0.191  0.00  0.00    +0.022 C 
ATOM     15  C   UNL     1      -2.882  -1.676  -0.151  0.00  0.00    +0.007 C 
ATOM     16  C   UNL     1      -4.393  -1.507  -0.246  0.00  0.00    +0.034 C 
ATOM     17  C   UNL     1      -4.042   0.844   0.561  0.00  0.00    -0.006 C 
ATOM     18  C   UNL     1      -4.873  -0.398   0.686  0.00  0.00    +0.132 C 
ENDROOT
BRANCH   6  19
ATOM     19  O   UNL     1       4.732  -0.759  -0.793  0.00  0.00    -0.375 OA
ATOM     20  H   UNL     1       4.649  -0.446  -1.707  0.00  0.00    +0.211 HD
ENDBRANCH   6  19
BRANCH  18  21
ATOM     21  O   UNL     1      -6.229  -0.107   0.356  0.00  0.00    -0.380 OA
ATOM     22  H   UNL     1      -6.762  -0.913   0.439  0.00  0.00    +0.211 HD
ENDBRANCH  18  21
BRANCH   6  23
ATOM     23  C   UNL     1       3.888  -0.637   1.395  0.00  0.00    -0.053 C 
ATOM     24  C   UNL     1       4.012  -1.040   2.519  0.00  0.00    -0.012 C 
ENDBRANCH   6  23
TORSDOF 3
