REMARK  Name = 44205191
REMARK  4 active torsions:
REMARK  status: ('A' for Active; 'I' for Inactive)
REMARK    1  A    between atoms: C_2  and  N_17
REMARK    2  A    between atoms: C_3  and  N_8
REMARK    3  A    between atoms: C_18  and  C_21
REMARK    4  A    between atoms: C_21  and  O_22
REMARK                            x       y       z     vdW  Elec       q    Type
REMARK                         _______ _______ _______ _____ _____    ______ ____
ROOT
ATOM      1  F   UNL     1       1.475  -2.178   0.538  0.00  0.00    -0.203 F 
ATOM      2  C   UNL     1      -1.294   0.038  -0.263  0.00  0.00    +0.059 C 
ATOM      3  C   UNL     1       1.489   0.116  -0.076  0.00  0.00    +0.077 C 
ATOM      4  C   UNL     1      -0.587  -1.109   0.098  0.00  0.00    +0.046 C 
ATOM      5  C   UNL     1      -0.610   1.224  -0.530  0.00  0.00    +0.016 C 
ATOM      6  C   UNL     1       0.804  -1.070   0.192  0.00  0.00    +0.155 C 
ATOM      7  C   UNL     1       0.781   1.262  -0.437  0.00  0.00    +0.018 C 
ENDROOT
BRANCH   3   8
ATOM      8  N   UNL     1       2.900   0.158   0.018  0.00  0.00    -0.288 N 
ATOM      9  N   UNL     1       5.625   0.261   0.328  0.00  0.00    -0.199 NA
ATOM     10  N   UNL     1       4.917   1.411   0.510  0.00  0.00    -0.124 NA
ATOM     11  C   UNL     1       3.645  -1.090  -0.179  0.00  0.00    +0.111 C 
ATOM     12  C   UNL     1       5.081  -0.750  -0.590  0.00  0.00    +0.112 C 
ATOM     13  C   UNL     1       3.633   1.280   0.362  0.00  0.00    +0.202 C 
ATOM     14  C   UNL     1       7.053   0.458   0.097  0.00  0.00    +0.109 C 
ENDBRANCH   3   8
BRANCH   2  17
ATOM     15  O   UNL     1      -4.856  -0.714  -0.334  0.00  0.00    -0.434 OA
ATOM     16  O   UNL     1      -3.260  -2.240   0.181  0.00  0.00    -0.226 OA
ATOM     17  N   UNL     1      -2.714  -0.002  -0.359  0.00  0.00    -0.221 N 
ATOM     18  C   UNL     1      -4.912   0.712  -0.480  0.00  0.00    +0.220 C 
ATOM     19  C   UNL     1      -3.495   1.109  -0.833  0.00  0.00    +0.148 C 
ATOM     20  C   UNL     1      -3.548  -1.093  -0.128  0.00  0.00    +0.409 C 
BRANCH  18  21
ATOM     21  C   UNL     1      -5.398   1.321   0.828  0.00  0.00    +0.183 C 
BRANCH  21  22
ATOM     22  O   UNL     1      -6.731   0.898   1.058  0.00  0.00    -0.378 OA
ATOM     23  H   UNL     1      -7.052   1.280   1.889  0.00  0.00    +0.211 HD
ENDBRANCH  21  22
ENDBRANCH  18  21
ENDBRANCH   2  17
TORSDOF 4
