REMARK  Name = 11115
REMARK  8 active torsions:
REMARK  status: ('A' for Active; 'I' for Inactive)
REMARK    1  A    between atoms: C_2  and  C_3
REMARK    2  A    between atoms: C_2  and  O_12
REMARK    3  A    between atoms: C_6  and  N_9
REMARK    4  A    between atoms: O_12  and  C_13
REMARK    5  A    between atoms: C_13  and  C_14
REMARK    6  A    between atoms: C_14  and  N_15
REMARK    7  A    between atoms: N_15  and  C_18
REMARK    8  A    between atoms: C_18  and  C_19
REMARK                            x       y       z     vdW  Elec       q    Type
REMARK                         _______ _______ _______ _____ _____    ______ ____
ROOT
ATOM      1  O   UNL     1       1.216  -2.046  -0.761  0.00  0.00    -0.245 OA
ATOM      2  C   UNL     1       1.242  -0.876  -0.413  0.00  0.00    +0.341 C 
ENDROOT
BRANCH   2   3
ATOM      3  C   UNL     1       2.501  -0.119  -0.194  0.00  0.00    +0.077 C 
ATOM      4  C   UNL     1       3.625  -0.801   0.227  0.00  0.00    +0.021 C 
ATOM      5  C   UNL     1       2.508   1.242  -0.418  0.00  0.00    +0.007 C 
ATOM      6  C   UNL     1       4.807  -0.089   0.432  0.00  0.00    +0.042 C 
ATOM      7  C   UNL     1       3.690   1.953  -0.214  0.00  0.00    +0.001 C 
ATOM      8  C   UNL     1       4.840   1.288   0.211  0.00  0.00    +0.014 C 
BRANCH   6   9
ATOM      9  N   UNL     1       5.970  -0.762   0.861  0.00  0.00    -0.357 N 
ATOM     10  H   UNL     1       5.948  -1.734   1.016  0.00  0.00    +0.142 HD
ATOM     11  H   UNL     1       6.805  -0.260   1.004  0.00  0.00    +0.142 HD
ENDBRANCH   6   9
ENDBRANCH   2   3
BRANCH   2  12
ATOM     12  O   UNL     1       0.158  -0.089  -0.171  0.00  0.00    -0.448 OA
BRANCH  12  13
ATOM     13  C   UNL     1      -1.112  -0.704  -0.347  0.00  0.00    +0.186 C 
BRANCH  13  14
ATOM     14  C   UNL     1      -2.196   0.315  -0.036  0.00  0.00    -0.033 C 
BRANCH  14  15
ATOM     15  N   UNL     1      -3.518  -0.268  -0.220  0.00  0.00    +0.386 N 
ATOM     16  H   UNL     1      -3.604  -0.604  -1.179  0.00  0.00    -0.084 HD
ATOM     17  H   UNL     1      -3.629  -1.039   0.439  0.00  0.00    -0.084 HD
BRANCH  15  18
ATOM     18  C   UNL     1      -4.561   0.720   0.037  0.00  0.00    -0.082 C 
BRANCH  18  19
ATOM     19  C   UNL     1      -5.974   0.124  -0.079  0.00  0.00    -0.021 C 
ATOM     20  C   UNL     1      -6.124  -1.045   0.899  0.00  0.00    -0.002 C 
ATOM     21  C   UNL     1      -7.071   1.159   0.186  0.00  0.00    -0.002 C 
ENDBRANCH  18  19
ENDBRANCH  15  18
ENDBRANCH  14  15
ENDBRANCH  13  14
ENDBRANCH  12  13
ENDBRANCH   2  12
TORSDOF 8
