REMARK  Name = 6433122
REMARK  5 active torsions:
REMARK  status: ('A' for Active; 'I' for Inactive)
REMARK    1  A    between atoms: N_2  and  C_22
REMARK    2  A    between atoms: C_8  and  C_11
REMARK    3  A    between atoms: C_16  and  C_21
REMARK    4  A    between atoms: C_22  and  C_23
REMARK    5  A    between atoms: C_23  and  C_25
REMARK                            x       y       z     vdW  Elec       q    Type
REMARK                         _______ _______ _______ _____ _____    ______ ____
ROOT
ATOM      1  O   UNL     1       2.532   2.486  -1.847  0.00  0.00    -0.270 OA
ATOM      2  N   UNL     1      -1.637   1.101   0.533  0.00  0.00    +0.389 N 
ATOM      3  N   UNL     1       1.035   1.864  -0.162  0.00  0.00    -0.280 N 
ATOM      4  C   UNL     1      -1.330   1.598  -0.816  0.00  0.00    -0.055 C 
ATOM      5  C   UNL     1      -0.488   0.367   1.083  0.00  0.00    -0.055 C 
ATOM      6  C   UNL     1      -0.112   2.519  -0.786  0.00  0.00    +0.071 C 
ATOM      7  C   UNL     1       0.756   1.255   1.144  0.00  0.00    +0.071 C 
ATOM      8  C   UNL     1       2.285   1.919  -0.783  0.00  0.00    +0.250 C 
ATOM      9  H   UNL     1      -1.827   1.901   1.136  0.00  0.00    -0.080 HD
ENDROOT
BRANCH   8  11
ATOM     10  N   UNL     1       3.136  -0.994  -1.217  0.00  0.00    -0.311 N 
ATOM     11  C   UNL     1       3.417   1.256  -0.123  0.00  0.00    +0.067 C 
ATOM     12  C   UNL     1       3.735  -0.078  -0.381  0.00  0.00    +0.053 C 
ATOM     13  C   UNL     1       4.808  -0.725   0.236  0.00  0.00    +0.024 C 
ATOM     14  C   UNL     1       4.210   1.955   0.786  0.00  0.00    +0.006 C 
ATOM     15  C   UNL     1       5.598  -0.004   1.153  0.00  0.00    +0.002 C 
ATOM     16  C   UNL     1       4.832  -2.059  -0.260  0.00  0.00    +0.084 C 
ATOM     17  C   UNL     1       5.287   1.335   1.417  0.00  0.00    +0.000 C 
ATOM     18  C   UNL     1       3.792  -2.194  -1.151  0.00  0.00    +0.072 C 
ATOM     19  H   UNL     1       2.351  -0.812  -1.782  0.00  0.00    +0.152 HD
BRANCH  16  21
ATOM     20  N   UNL     1       6.496  -3.950   0.355  0.00  0.00    -0.191 NA
ATOM     21  C   UNL     1       5.746  -3.098   0.078  0.00  0.00    +0.102 C 
ENDBRANCH  16  21
ENDBRANCH   8  11
BRANCH   2  22
ATOM     22  C   UNL     1      -2.826   0.250   0.509  0.00  0.00    -0.072 C 
BRANCH  22  23
ATOM     23  C   UNL     1      -4.053   1.036   0.044  0.00  0.00    +0.004 C 
BRANCH  23  25
ATOM     24  F   UNL     1      -8.669  -2.169   0.014  0.00  0.00    -0.204 F 
ATOM     25  C   UNL     1      -5.291   0.176   0.036  0.00  0.00    -0.024 C 
ATOM     26  C   UNL     1      -5.621  -0.531  -1.110  0.00  0.00    -0.002 C 
ATOM     27  C   UNL     1      -6.079   0.107   1.175  0.00  0.00    -0.002 C 
ATOM     28  C   UNL     1      -6.767  -1.327  -1.117  0.00  0.00    +0.029 C 
ATOM     29  C   UNL     1      -7.224  -0.689   1.168  0.00  0.00    +0.029 C 
ATOM     30  C   UNL     1      -7.569  -1.406   0.022  0.00  0.00    +0.140 C 
ENDBRANCH  23  25
ENDBRANCH  22  23
ENDBRANCH   2  22
TORSDOF 5
