REMARK  Name = 121515
REMARK  5 active torsions:
REMARK  status: ('A' for Active; 'I' for Inactive)
REMARK    1  A    between atoms: C_1  and  C_3
REMARK    2  A    between atoms: C_1  and  C_17
REMARK    3  A    between atoms: C_1  and  O_25
REMARK    4  A    between atoms: C_10  and  O_12
REMARK    5  A    between atoms: C_16  and  C_23
REMARK                            x       y       z     vdW  Elec       q    Type
REMARK                         _______ _______ _______ _____ _____    ______ ____
ROOT
ATOM      1  C   UNL     1       0.340  -0.309   1.411  0.00  0.00    +0.114 C 
ENDROOT
BRANCH   1   3
ATOM      2  N   UNL     1      -2.459  -2.750  -0.712  0.00  0.00    -0.244 NA
ATOM      3  C   UNL     1      -0.671  -1.139   0.661  0.00  0.00    +0.005 C 
ATOM      4  C   UNL     1      -1.873  -0.599   0.203  0.00  0.00    +0.019 C 
ATOM      5  C   UNL     1      -0.356  -2.467   0.440  0.00  0.00    +0.019 C 
ATOM      6  C   UNL     1      -2.754  -1.455  -0.490  0.00  0.00    +0.081 C 
ATOM      7  C   UNL     1      -2.213   0.748   0.416  0.00  0.00    +0.038 C 
ATOM      8  C   UNL     1      -1.281  -3.226  -0.248  0.00  0.00    +0.099 C 
ATOM      9  C   UNL     1      -3.956  -0.924  -0.951  0.00  0.00    +0.022 C 
ATOM     10  C   UNL     1      -3.421   1.252  -0.055  0.00  0.00    +0.139 C 
ATOM     11  C   UNL     1      -4.294   0.415  -0.739  0.00  0.00    +0.038 C 
BRANCH  10  12
ATOM     12  O   UNL     1      -3.746   2.556   0.153  0.00  0.00    -0.471 OA
ATOM     13  C   UNL     1      -5.002   3.003  -0.359  0.00  0.00    +0.252 C 
ENDBRANCH  10  12
ENDBRANCH   1   3
BRANCH   1  17
ATOM     14  N   UNL     1       1.590   0.222  -0.694  0.00  0.00    +0.390 N 
ATOM     15  C   UNL     1       3.479   1.486   0.564  0.00  0.00    -0.006 C 
ATOM     16  C   UNL     1       4.045   0.730  -0.661  0.00  0.00    -0.021 C 
ATOM     17  C   UNL     1       1.695  -0.282   0.701  0.00  0.00    -0.026 C 
ATOM     18  C   UNL     1       2.748   0.512   1.504  0.00  0.00    -0.018 C 
ATOM     19  C   UNL     1       2.892  -0.023  -1.364  0.00  0.00    -0.077 C 
ATOM     20  C   UNL     1       2.414   2.466   0.038  0.00  0.00    -0.023 C 
ATOM     21  C   UNL     1       1.329   1.679  -0.711  0.00  0.00    -0.077 C 
ATOM     22  H   UNL     1       0.823  -0.255  -1.168  0.00  0.00    -0.079 HD
BRANCH  16  23
ATOM     23  C   UNL     1       5.194  -0.209  -0.298  0.00  0.00    -0.002 C 
ATOM     24  C   UNL     1       5.795  -0.850  -1.534  0.00  0.00    -0.000 C 
ENDBRANCH  16  23
ENDBRANCH   1  17
BRANCH   1  25
ATOM     25  O   UNL     1       0.506  -0.835   2.724  0.00  0.00    -0.382 OA
ATOM     26  H   UNL     1       1.156  -0.301   3.207  0.00  0.00    +0.211 HD
ENDBRANCH   1  25
TORSDOF 5
