REMARK  Name = 11954041
REMARK  4 active torsions:
REMARK  status: ('A' for Active; 'I' for Inactive)
REMARK    1  A    between atoms: C_5  and  O_19
REMARK    2  A    between atoms: C_5  and  C_25
REMARK    3  A    between atoms: C_8  and  O_21
REMARK    4  A    between atoms: C_18  and  O_23
REMARK                            x       y       z     vdW  Elec       q    Type
REMARK                         _______ _______ _______ _____ _____    ______ ____
ROOT
ATOM      1  C   UNL     1      -2.258  -0.364   0.326  0.00  0.00    +0.036 C 
ATOM      2  C   UNL     1      -1.526   0.994   0.241  0.00  0.00    +0.004 C 
ATOM      3  C   UNL     1      -0.016   0.897   0.508  0.00  0.00    +0.007 C 
ATOM      4  C   UNL     1       0.617  -0.065  -0.547  0.00  0.00    +0.049 C 
ATOM      5  C   UNL     1      -3.728   0.097   0.067  0.00  0.00    +0.142 C 
ATOM      6  C   UNL     1      -1.633  -1.320  -0.717  0.00  0.00    +0.033 C 
ATOM      7  C   UNL     1      -2.383   1.908   1.114  0.00  0.00    +0.004 C 
ATOM      8  C   UNL     1      -0.099  -1.445  -0.580  0.00  0.00    +0.119 C 
ATOM      9  C   UNL     1      -3.829   1.415   0.883  0.00  0.00    +0.039 C 
ATOM     10  C   UNL     1       0.638   2.297   0.527  0.00  0.00    +0.005 C 
ATOM     11  C   UNL     1      -2.189  -1.018   1.739  0.00  0.00    +0.003 C 
ATOM     12  C   UNL     1       2.131  -0.095  -0.365  0.00  0.00    -0.024 C 
ATOM     13  C   UNL     1       1.983   2.405  -0.188  0.00  0.00    +0.026 C 
ATOM     14  C   UNL     1       2.784   1.135  -0.147  0.00  0.00    -0.023 C 
ATOM     15  C   UNL     1       2.909  -1.258  -0.451  0.00  0.00    -0.001 C 
ATOM     16  C   UNL     1       4.176   1.181   0.007  0.00  0.00    +0.032 C 
ATOM     17  C   UNL     1       4.295  -1.206  -0.284  0.00  0.00    +0.036 C 
ATOM     18  C   UNL     1       4.928   0.011  -0.050  0.00  0.00    +0.133 C 
ENDROOT
BRANCH   5  19
ATOM     19  O   UNL     1      -4.664  -0.859   0.547  0.00  0.00    -0.375 OA
ATOM     20  H   UNL     1      -4.486  -1.045   1.482  0.00  0.00    +0.211 HD
ENDBRANCH   5  19
BRANCH   8  21
ATOM     21  O   UNL     1       0.216  -2.195   0.591  0.00  0.00    -0.353 OA
ATOM     22  C   UNL     1      -0.339  -3.500   0.535  0.00  0.00    +0.174 C 
ENDBRANCH   8  21
BRANCH  18  23
ATOM     23  O   UNL     1       6.278   0.057   0.115  0.00  0.00    -0.506 OA
ATOM     24  H   UNL     1       6.703   0.877   0.273  0.00  0.00    +0.292 HD
ENDBRANCH  18  23
BRANCH   5  25
ATOM     25  C   UNL     1      -4.024   0.358  -1.356  0.00  0.00    -0.053 C 
ATOM     26  C   UNL     1      -4.265   0.570  -2.513  0.00  0.00    -0.012 C 
ENDBRANCH   5  25
TORSDOF 4
