REMARK  Name = 4117
REMARK  4 active torsions:
REMARK  status: ('A' for Active; 'I' for Inactive)
REMARK    1  A    between atoms: C_1  and  C_9
REMARK    2  A    between atoms: C_2  and  O_7
REMARK    3  A    between atoms: C_9  and  C_10
REMARK    4  A    between atoms: C_10  and  N_12
REMARK                            x       y       z     vdW  Elec       q    Type
REMARK                         _______ _______ _______ _____ _____    ______ ____
ROOT
ATOM      1  C   UNL     1       0.362   0.337  -0.446  0.00  0.00    +0.010 C 
ATOM      2  C   UNL     1       1.388  -0.540  -0.132  0.00  0.00    +0.135 C 
ATOM      3  C   UNL     1       0.536   1.710  -0.353  0.00  0.00    -0.001 C 
ATOM      4  C   UNL     1       2.619  -0.033   0.286  0.00  0.00    +0.037 C 
ATOM      5  C   UNL     1       1.767   2.217   0.065  0.00  0.00    -0.000 C 
ATOM      6  C   UNL     1       2.808   1.345   0.384  0.00  0.00    +0.003 C 
ENDROOT
BRANCH   2   7
ATOM      7  O   UNL     1       1.220  -1.889  -0.222  0.00  0.00    -0.472 OA
ATOM      8  C   UNL     1       2.337  -2.706   0.123  0.00  0.00    +0.252 C 
ENDBRANCH   2   7
BRANCH   1   9
ATOM      9  C   UNL     1      -0.977  -0.193  -0.900  0.00  0.00    +0.008 C 
BRANCH   9  10
ATOM     10  C   UNL     1      -2.146   0.220   0.014  0.00  0.00    -0.058 C 
ATOM     11  C   UNL     1      -1.985  -0.299   1.442  0.00  0.00    -0.023 C 
BRANCH  10  12
ATOM     12  N   UNL     1      -3.401  -0.307  -0.530  0.00  0.00    +0.384 N 
ATOM     13  C   UNL     1      -4.531   0.138   0.268  0.00  0.00    -0.106 C 
ATOM     14  H   UNL     1      -3.367  -1.327  -0.524  0.00  0.00    -0.085 HD
ATOM     15  H   UNL     1      -3.516   0.036  -1.484  0.00  0.00    -0.085 HD
ENDBRANCH  10  12
ENDBRANCH   9  10
ENDBRANCH   1   9
TORSDOF 4
