REMARK  Name = 71447
REMARK  7 active torsions:
REMARK  status: ('A' for Active; 'I' for Inactive)
REMARK    1  A    between atoms: C_5  and  C_27
REMARK    2  A    between atoms: C_7  and  N_12
REMARK    3  A    between atoms: C_13  and  C_15
REMARK    4  A    between atoms: C_15  and  C_16
REMARK    5  A    between atoms: C_15  and  N_22
REMARK    6  A    between atoms: C_27  and  O_28
REMARK    7  A    between atoms: O_28  and  C_31
REMARK                            x       y       z     vdW  Elec       q    Type
REMARK                         _______ _______ _______ _____ _____    ______ ____
ROOT
ATOM      1  S   UNL     1       0.655   3.115   1.278  0.00  0.00    -0.118 S 
ATOM      2  O   UNL     1       0.263  -0.585  -1.083  0.00  0.00    -0.273 OA
ATOM      3  N   UNL     1      -0.626   1.050   0.369  0.00  0.00    -0.260 N 
ATOM      4  C   UNL     1       0.149   1.380   1.569  0.00  0.00    +0.151 C 
ATOM      5  C   UNL     1      -1.150   2.126  -0.448  0.00  0.00    +0.185 C 
ATOM      6  C   UNL     1      -0.903   3.447   0.312  0.00  0.00    +0.068 C 
ATOM      7  C   UNL     1       1.144   0.290   1.147  0.00  0.00    +0.178 C 
ATOM      8  C   UNL     1       0.220   0.071  -0.067  0.00  0.00    +0.247 C 
ATOM      9  C   UNL     1      -0.651   4.607  -0.653  0.00  0.00    +0.013 C 
ATOM     10  C   UNL     1      -2.006   3.824   1.310  0.00  0.00    +0.013 C 
ENDROOT
BRANCH   7  12
ATOM     11  O   UNL     1       3.166  -1.277  -0.197  0.00  0.00    -0.277 OA
ATOM     12  N   UNL     1       2.506   0.713   0.793  0.00  0.00    -0.298 N 
ATOM     13  C   UNL     1       3.416  -0.120   0.140  0.00  0.00    +0.206 C 
ATOM     14  H   UNL     1       2.789   1.627   1.028  0.00  0.00    +0.150 HD
BRANCH  13  15
ATOM     15  C   UNL     1       4.769   0.543  -0.096  0.00  0.00    +0.036 C 
BRANCH  15  16
ATOM     16  C   UNL     1       5.881  -0.484  -0.098  0.00  0.00    -0.034 C 
ATOM     17  C   UNL     1       6.513  -0.796   1.093  0.00  0.00    -0.006 C 
ATOM     18  C   UNL     1       6.241  -1.087  -1.290  0.00  0.00    -0.006 C 
ATOM     19  C   UNL     1       7.539  -1.743   1.091  0.00  0.00    -0.000 C 
ATOM     20  C   UNL     1       7.266  -2.034  -1.292  0.00  0.00    -0.000 C 
ATOM     21  C   UNL     1       7.915  -2.361  -0.101  0.00  0.00    -0.000 C 
ENDBRANCH  15  16
BRANCH  15  22
ATOM     22  N   UNL     1       4.690   1.283  -1.359  0.00  0.00    +0.390 N 
ATOM     23  H   UNL     1       3.929   1.960  -1.309  0.00  0.00    -0.088 HD
ATOM     24  H   UNL     1       4.516   0.631  -2.124  0.00  0.00    -0.088 HD
ATOM     25  H   UNL     1       5.570   1.772  -1.522  0.00  0.00    -0.088 HD
ENDBRANCH  15  22
ENDBRANCH  13  15
ENDBRANCH   7  12
BRANCH   5  27
ATOM     26  O   UNL     1      -3.305   2.482  -1.454  0.00  0.00    -0.248 OA
ATOM     27  C   UNL     1      -2.584   1.809  -0.730  0.00  0.00    +0.339 C 
BRANCH  27  28
ATOM     28  O   UNL     1      -2.940   0.676  -0.060  0.00  0.00    -0.409 OA
BRANCH  28  31
ATOM     29  O   UNL     1      -4.549  -0.169  -1.604  0.00  0.00    -0.407 OA
ATOM     30  O   UNL     1      -5.190  -2.103  -2.700  0.00  0.00    -0.245 OA
ATOM     31  C   UNL     1      -4.296   0.255  -0.241  0.00  0.00    +0.370 C 
ATOM     32  C   UNL     1      -4.560  -0.978   0.530  0.00  0.00    +0.068 C 
ATOM     33  C   UNL     1      -4.930  -1.993  -0.328  0.00  0.00    +0.079 C 
ATOM     34  C   UNL     1      -4.920  -1.484  -1.690  0.00  0.00    +0.344 C 
ATOM     35  C   UNL     1      -4.494  -1.204   1.894  0.00  0.00    +0.003 C 
ATOM     36  C   UNL     1      -5.244  -3.266   0.111  0.00  0.00    +0.006 C 
ATOM     37  C   UNL     1      -4.806  -2.481   2.370  0.00  0.00    -0.000 C 
ATOM     38  C   UNL     1      -5.178  -3.506   1.484  0.00  0.00    +0.000 C 
ENDBRANCH  28  31
ENDBRANCH  27  28
ENDBRANCH   5  27
TORSDOF 7
