REMARK  Name = 16666733
REMARK  6 active torsions:
REMARK  status: ('A' for Active; 'I' for Inactive)
REMARK    1  A    between atoms: C_2  and  C_13
REMARK    2  A    between atoms: C_3  and  O_7
REMARK    3  A    between atoms: C_4  and  O_9
REMARK    4  A    between atoms: C_5  and  O_11
REMARK    5  A    between atoms: C_13  and  C_14
REMARK    6  A    between atoms: C_14  and  O_16
REMARK                            x       y       z     vdW  Elec       q    Type
REMARK                         _______ _______ _______ _____ _____    ______ ____
ROOT
ATOM      1  O   UNL     1       0.200   1.148   0.474  0.00  0.00    -0.351 OA
ATOM      2  C   UNL     1       0.468  -0.122  -0.127  0.00  0.00    +0.147 C 
ATOM      3  C   UNL     1      -0.658  -1.112   0.193  0.00  0.00    +0.167 C 
ATOM      4  C   UNL     1      -2.017  -0.545  -0.226  0.00  0.00    +0.169 C 
ATOM      5  C   UNL     1      -2.206   0.875   0.306  0.00  0.00    +0.169 C 
ATOM      6  C   UNL     1      -0.997   1.738  -0.024  0.00  0.00    +0.174 C 
ENDROOT
BRANCH   3   7
ATOM      7  O   UNL     1      -0.424  -2.333  -0.503  0.00  0.00    -0.379 OA
ATOM      8  H   UNL     1       0.437  -2.695  -0.240  0.00  0.00    +0.211 HD
ENDBRANCH   3   7
BRANCH   4   9
ATOM      9  O   UNL     1      -3.057  -1.383   0.283  0.00  0.00    -0.379 OA
ATOM     10  H   UNL     1      -2.938  -2.285  -0.054  0.00  0.00    +0.211 HD
ENDBRANCH   4   9
BRANCH   5  11
ATOM     11  O   UNL     1      -3.361   1.464  -0.280  0.00  0.00    -0.379 OA
ATOM     12  H   UNL     1      -4.140   0.921  -0.076  0.00  0.00    +0.211 HD
ENDBRANCH   5  11
BRANCH   2  13
ATOM     13  C   UNL     1       1.813  -0.608   0.404  0.00  0.00    +0.061 C 
BRANCH  13  14
ATOM     14  C   UNL     1       2.936   0.393   0.133  0.00  0.00    +0.113 C 
ATOM     15  C   UNL     1       4.273  -0.133   0.638  0.00  0.00    +0.032 C 
BRANCH  14  16
ATOM     16  O   UNL     1       3.031   0.620  -1.270  0.00  0.00    -0.384 OA
ATOM     17  H   UNL     1       2.183   0.956  -1.602  0.00  0.00    +0.210 HD
ENDBRANCH  14  16
ENDBRANCH  13  14
ENDBRANCH   2  13
TORSDOF 6
