REMARK  Name = 26001
REMARK  4 active torsions:
REMARK  status: ('A' for Active; 'I' for Inactive)
REMARK    1  A    between atoms: C_1  and  N_2
REMARK    2  A    between atoms: C_1  and  C_6
REMARK    3  A    between atoms: C_6  and  O_7
REMARK    4  A    between atoms: O_7  and  N_10
REMARK                            x       y       z     vdW  Elec       q    Type
REMARK                         _______ _______ _______ _____ _____    ______ ____
ROOT
ATOM      1  C   UNL     1      -2.050   0.567   0.006  0.00  0.00    -0.035 C 
ENDROOT
BRANCH   1   2
ATOM      2  N   UNL     1      -3.219  -0.300  -0.008  0.00  0.00    +0.383 N 
ATOM      3  H   UNL     1      -4.065   0.270  -0.007  0.00  0.00    -0.089 HD
ATOM      4  H   UNL     1      -3.210  -0.896   0.820  0.00  0.00    -0.089 HD
ATOM      5  H   UNL     1      -3.202  -0.881  -0.846  0.00  0.00    -0.089 HD
ENDBRANCH   1   2
BRANCH   1   6
ATOM      6  C   UNL     1      -0.772  -0.256   0.005  0.00  0.00    +0.220 C 
BRANCH   6   7
ATOM      7  O   UNL     1       0.341   0.629   0.001  0.00  0.00    -0.338 OA
BRANCH   7  10
ATOM      8  O   UNL     1       1.488  -1.264   0.002  0.00  0.00    -0.090 OA
ATOM      9  O   UNL     1       2.614   0.660  -0.004  0.00  0.00    -0.090 OA
ATOM     10  N   UNL     1       1.597  -0.037  -0.001  0.00  0.00    +0.218 N 
ENDBRANCH   7  10
ENDBRANCH   6   7
ENDBRANCH   1   6
TORSDOF 4
