REMARK  Name = 58521
REMARK  7 active torsions:
REMARK  status: ('A' for Active; 'I' for Inactive)
REMARK    1  A    between atoms: N_3  and  C_25
REMARK    2  A    between atoms: C_5  and  C_9
REMARK    3  A    between atoms: C_5  and  C_17
REMARK    4  A    between atoms: C_14  and  O_15
REMARK    5  A    between atoms: C_22  and  O_23
REMARK    6  A    between atoms: C_25  and  C_26
REMARK    7  A    between atoms: C_26  and  N_27
REMARK                            x       y       z     vdW  Elec       q    Type
REMARK                         _______ _______ _______ _____ _____    ______ ____
ROOT
ATOM      1  O   UNL     1       0.472  -0.500  -1.375  0.00  0.00    -0.272 OA
ATOM      2  O   UNL     1       1.178  -0.809   3.153  0.00  0.00    -0.252 OA
ATOM      3  N   UNL     1       1.174  -0.803   0.817  0.00  0.00    -0.215 N 
ATOM      4  N   UNL     1      -0.667  -0.170   1.887  0.00  0.00    -0.277 N 
ATOM      5  C   UNL     1      -1.065  -0.035   0.488  0.00  0.00    +0.166 C 
ATOM      6  C   UNL     1       0.268  -0.470  -0.166  0.00  0.00    +0.256 C 
ATOM      7  C   UNL     1       0.637  -0.622   2.071  0.00  0.00    +0.310 C 
ATOM      8  H   UNL     1      -1.270   0.041   2.636  0.00  0.00    +0.152 HD
ENDROOT
BRANCH   5   9
ATOM      9  C   UNL     1      -1.362   1.413   0.076  0.00  0.00    +0.006 C 
ATOM     10  C   UNL     1      -1.311   2.435   1.026  0.00  0.00    +0.001 C 
ATOM     11  C   UNL     1      -1.684   1.713  -1.249  0.00  0.00    +0.001 C 
ATOM     12  C   UNL     1      -1.580   3.752   0.652  0.00  0.00    +0.037 C 
ATOM     13  C   UNL     1      -1.953   3.029  -1.623  0.00  0.00    +0.037 C 
ATOM     14  C   UNL     1      -1.901   4.049  -0.673  0.00  0.00    +0.139 C 
BRANCH  14  15
ATOM     15  O   UNL     1      -2.165   5.333  -1.038  0.00  0.00    -0.471 OA
ATOM     16  C   UNL     1      -2.095   6.327  -0.017  0.00  0.00    +0.252 C 
ENDBRANCH  14  15
ENDBRANCH   5   9
BRANCH   5  17
ATOM     17  C   UNL     1      -2.237  -0.988   0.234  0.00  0.00    +0.006 C 
ATOM     18  C   UNL     1      -2.080  -2.080  -0.621  0.00  0.00    +0.001 C 
ATOM     19  C   UNL     1      -3.467  -0.768   0.859  0.00  0.00    +0.001 C 
ATOM     20  C   UNL     1      -3.147  -2.949  -0.851  0.00  0.00    +0.037 C 
ATOM     21  C   UNL     1      -4.534  -1.636   0.629  0.00  0.00    +0.037 C 
ATOM     22  C   UNL     1      -4.374  -2.727  -0.226  0.00  0.00    +0.139 C 
BRANCH  22  23
ATOM     23  O   UNL     1      -5.417  -3.573  -0.451  0.00  0.00    -0.471 OA
ATOM     24  C   UNL     1      -5.185  -4.667  -1.336  0.00  0.00    +0.252 C 
ENDBRANCH  22  23
ENDBRANCH   5  17
BRANCH   3  25
ATOM     25  C   UNL     1       2.524  -1.259   0.551  0.00  0.00    +0.080 C 
BRANCH  25  26
ATOM     26  C   UNL     1       3.489  -0.088   0.436  0.00  0.00    -0.055 C 
BRANCH  26  27
ATOM     27  N   UNL     1       4.848  -0.570   0.196  0.00  0.00    +0.388 N 
ATOM     28  C   UNL     1       4.915  -1.315  -1.069  0.00  0.00    -0.077 C 
ATOM     29  C   UNL     1       5.800   0.550   0.204  0.00  0.00    -0.077 C 
ATOM     30  C   UNL     1       6.319  -1.869  -1.311  0.00  0.00    -0.023 C 
ATOM     31  C   UNL     1       7.234   0.057   0.004  0.00  0.00    -0.023 C 
ATOM     32  C   UNL     1       7.366  -0.761  -1.276  0.00  0.00    -0.004 C 
ATOM     33  H   UNL     1       5.107  -1.207   0.950  0.00  0.00    -0.080 HD
ENDBRANCH  26  27
ENDBRANCH  25  26
ENDBRANCH   3  25
TORSDOF 7
