REMARK  Name = 5343
REMARK  3 active torsions:
REMARK  status: ('A' for Active; 'I' for Inactive)
REMARK    1  A    between atoms: S_1  and  N_4
REMARK    2  A    between atoms: S_1  and  C_14
REMARK    3  A    between atoms: C_19  and  N_20
REMARK                            x       y       z     vdW  Elec       q    Type
REMARK                         _______ _______ _______ _____ _____    ______ ____
ROOT
ATOM      1  S   UNL     1      -0.701   2.280   0.143  0.00  0.00    +0.075 S 
ATOM      2  O   UNL     1      -1.545   3.172   0.930  0.00  0.00    -0.150 OA
ATOM      3  O   UNL     1      -0.217   2.734  -1.155  0.00  0.00    -0.150 OA
ENDROOT
BRANCH   1   4
ATOM      4  N   UNL     1       0.634   1.806   1.123  0.00  0.00    -0.191 N 
ATOM      5  N   UNL     1       2.154   0.894  -0.433  0.00  0.00    -0.331 NA
ATOM      6  N   UNL     1       2.973  -1.361  -0.210  0.00  0.00    -0.352 NA
ATOM      7  C   UNL     1       1.434   0.694   0.684  0.00  0.00    +0.194 C 
ATOM      8  C   UNL     1       1.423  -0.477   1.405  0.00  0.00    +0.132 C 
ATOM      9  C   UNL     1       2.222  -1.484   0.904  0.00  0.00    +0.108 C 
ATOM     10  C   UNL     1       2.892  -0.164  -0.820  0.00  0.00    +0.115 C 
ATOM     11  C   UNL     1       2.282  -2.796   1.612  0.00  0.00    +0.063 C 
ATOM     12  C   UNL     1       3.708   0.010  -2.057  0.00  0.00    +0.143 C 
ATOM     13  H   UNL     1       0.844   2.282   1.959  0.00  0.00    +0.176 HD
ENDBRANCH   1   4
BRANCH   1  14
ATOM     14  C   UNL     1      -1.571   0.782  -0.077  0.00  0.00    +0.125 C 
ATOM     15  C   UNL     1      -2.566   0.413   0.829  0.00  0.00    +0.021 C 
ATOM     16  C   UNL     1      -1.271  -0.046  -1.159  0.00  0.00    +0.021 C 
ATOM     17  C   UNL     1      -3.260  -0.783   0.653  0.00  0.00    +0.015 C 
ATOM     18  C   UNL     1      -1.966  -1.242  -1.335  0.00  0.00    +0.015 C 
ATOM     19  C   UNL     1      -2.961  -1.611  -0.429  0.00  0.00    +0.042 C 
BRANCH  19  20
ATOM     20  N   UNL     1      -3.664  -2.821  -0.608  0.00  0.00    -0.357 N 
ATOM     21  H   UNL     1      -4.366  -3.081   0.032  0.00  0.00    +0.142 HD
ATOM     22  H   UNL     1      -3.453  -3.405  -1.372  0.00  0.00    +0.142 HD
ENDBRANCH  19  20
ENDBRANCH   1  14
TORSDOF 3
