REMARK  Name = 28688
REMARK  2 active torsions:
REMARK  status: ('A' for Active; 'I' for Inactive)
REMARK    1  A    between atoms: C_2  and  C_11
REMARK    2  A    between atoms: C_11  and  C_14
REMARK                            x       y       z     vdW  Elec       q    Type
REMARK                         _______ _______ _______ _____ _____    ______ ____
ROOT
ATOM      1  S   UNL     1       1.744   2.164   0.736  0.00  0.00    -0.092 S 
ATOM      2  C   UNL     1       0.079   0.743  -0.592  0.00  0.00    -0.012 A 
ATOM      3  C   UNL     1       1.196  -0.122  -0.341  0.00  0.00    +0.003 A 
ATOM      4  C   UNL     1       0.248   2.001  -0.065  0.00  0.00    +0.004 A 
ATOM      5  C   UNL     1       2.193   0.536   0.386  0.00  0.00    +0.029 A 
ATOM      6  C   UNL     1       1.416  -1.472  -0.707  0.00  0.00    +0.000 C 
ATOM      7  C   UNL     1      -0.673   3.159  -0.113  0.00  0.00    +0.038 C 
ATOM      8  C   UNL     1       3.389  -0.113   0.751  0.00  0.00    +0.006 C 
ATOM      9  C   UNL     1       2.601  -2.119  -0.345  0.00  0.00    +0.000 C 
ATOM     10  C   UNL     1       3.576  -1.444   0.376  0.00  0.00    +0.001 C 
ENDROOT
BRANCH   2  11
ATOM     11  C   UNL     1      -1.133   0.325  -1.342  0.00  0.00    +0.088 C 
BRANCH  11  14
ATOM     12  N   UNL     1      -2.167  -1.568  -0.096  0.00  0.00    -0.299 N 
ATOM     13  N   UNL     1      -3.127   0.488   0.081  0.00  0.00    -0.232 NA
ATOM     14  C   UNL     1      -2.178  -0.249  -0.437  0.00  0.00    +0.113 C 
ATOM     15  C   UNL     1      -3.242  -1.851   0.806  0.00  0.00    +0.084 C 
ATOM     16  C   UNL     1      -3.923  -0.477   0.901  0.00  0.00    +0.116 C 
ATOM     17  H   UNL     1      -1.515  -2.229  -0.421  0.00  0.00    +0.153 HD
ENDBRANCH  11  14
ENDBRANCH   2  11
TORSDOF 2
