REMARK  Name = 42553
REMARK  4 active torsions:
REMARK  status: ('A' for Active; 'I' for Inactive)
REMARK    1  A    between atoms: C_1  and  C_4
REMARK    2  A    between atoms: C_1  and  C_11
REMARK    3  A    between atoms: C_1  and  C_18
REMARK    4  A    between atoms: C_1  and  O_25
REMARK                            x       y       z     vdW  Elec       q    Type
REMARK                         _______ _______ _______ _____ _____    ______ ____
ROOT
ATOM      1  C   UNL     1      -0.047   0.014  -0.354  0.00  0.00    +0.123 C 
ENDROOT
BRANCH   1   4
ATOM      2  N   UNL     1       3.482   1.105  -0.232  0.00  0.00    +0.387 N 
ATOM      3  C   UNL     1       2.181  -1.090   0.269  0.00  0.00    -0.003 C 
ATOM      4  C   UNL     1       1.262   0.144   0.422  0.00  0.00    +0.012 C 
ATOM      5  C   UNL     1       2.051   1.405   0.003  0.00  0.00    -0.074 C 
ATOM      6  C   UNL     1       2.788  -1.115  -1.143  0.00  0.00    -0.023 C 
ATOM      7  C   UNL     1       3.350  -0.901   1.253  0.00  0.00    -0.023 C 
ATOM      8  C   UNL     1       3.582   0.180  -1.381  0.00  0.00    -0.077 C 
ATOM      9  C   UNL     1       4.041   0.442   0.966  0.00  0.00    -0.077 C 
ATOM     10  H   UNL     1       3.996   1.966  -0.420  0.00  0.00    -0.080 HD
ENDBRANCH   1   4
BRANCH   1  11
ATOM     11  C   UNL     1      -0.909   1.266  -0.119  0.00  0.00    +0.002 C 
ATOM     12  C   UNL     1      -2.053   1.443  -0.856  0.00  0.00    -0.023 C 
ATOM     13  C   UNL     1      -0.481   2.159   0.833  0.00  0.00    -0.002 C 
ATOM     14  C   UNL     1      -2.820   2.585  -0.626  0.00  0.00    -0.004 C 
ATOM     15  C   UNL     1      -2.505   0.462  -1.888  0.00  0.00    +0.031 C 
ATOM     16  C   UNL     1      -1.248   3.301   1.062  0.00  0.00    -0.000 C 
ATOM     17  C   UNL     1      -2.417   3.514   0.333  0.00  0.00    -0.000 C 
ENDBRANCH   1  11
BRANCH   1  18
ATOM     18  C   UNL     1      -0.857  -1.263  -0.074  0.00  0.00    +0.002 C 
ATOM     19  C   UNL     1      -1.384  -1.465   1.177  0.00  0.00    -0.023 C 
ATOM     20  C   UNL     1      -1.014  -2.152  -1.110  0.00  0.00    -0.002 C 
ATOM     21  C   UNL     1      -2.115  -2.630   1.409  0.00  0.00    -0.004 C 
ATOM     22  C   UNL     1      -1.203  -0.489   2.293  0.00  0.00    +0.031 C 
ATOM     23  C   UNL     1      -1.745  -3.317  -0.878  0.00  0.00    -0.000 C 
ATOM     24  C   UNL     1      -2.295  -3.556   0.381  0.00  0.00    -0.000 C 
ENDBRANCH   1  18
BRANCH   1  25
ATOM     25  O   UNL     1       0.355  -0.045  -1.740  0.00  0.00    -0.379 OA
ATOM     26  H   UNL     1       0.872   0.746  -1.961  0.00  0.00    +0.211 HD
ENDBRANCH   1  25
TORSDOF 4
