REMARK  Name = 8754
REMARK  13 active torsions:
REMARK  status: ('A' for Active; 'I' for Inactive)
REMARK    1  A    between atoms: C_1  and  N_2
REMARK    2  A    between atoms: C_1  and  C_12
REMARK    3  A    between atoms: N_2  and  C_5
REMARK    4  A    between atoms: C_5  and  C_6
REMARK    5  A    between atoms: C_12  and  C_13
REMARK    6  A    between atoms: C_13  and  C_14
REMARK    7  A    between atoms: C_14  and  C_15
REMARK    8  A    between atoms: C_15  and  C_16
REMARK    9  A    between atoms: C_16  and  C_17
REMARK   10  A    between atoms: C_17  and  C_18
REMARK   11  A    between atoms: C_18  and  C_19
REMARK   12  A    between atoms: C_19  and  C_20
REMARK   13  A    between atoms: C_20  and  C_21
REMARK                            x       y       z     vdW  Elec       q    Type
REMARK                         _______ _______ _______ _____ _____    ______ ____
ROOT
ATOM      1  C   UNL     1       3.043  -1.253   0.217  0.00  0.00    -0.073 C 
ENDROOT
BRANCH   1   2
ATOM      2  N   UNL     1       3.750  -0.578  -0.895  0.00  0.00    +0.390 N 
ATOM      3  C   UNL     1       2.813  -0.368  -2.093  0.00  0.00    -0.095 C 
ATOM      4  C   UNL     1       4.948  -1.415  -1.371  0.00  0.00    -0.095 C 
BRANCH   2   5
ATOM      5  C   UNL     1       4.276   0.797  -0.456  0.00  0.00    -0.046 C 
BRANCH   5   6
ATOM      6  C   UNL     1       3.192   1.712   0.033  0.00  0.00    -0.043 C 
ATOM      7  C   UNL     1       2.533   2.554  -0.863  0.00  0.00    -0.006 C 
ATOM      8  C   UNL     1       2.842   1.719   1.383  0.00  0.00    -0.006 C 
ATOM      9  C   UNL     1       1.525   3.404  -0.409  0.00  0.00    -0.000 C 
ATOM     10  C   UNL     1       1.834   2.570   1.837  0.00  0.00    -0.000 C 
ATOM     11  C   UNL     1       1.176   3.412   0.942  0.00  0.00    -0.000 C 
ENDBRANCH   5   6
ENDBRANCH   2   5
ENDBRANCH   1   2
BRANCH   1  12
ATOM     12  C   UNL     1       2.530  -2.619  -0.222  0.00  0.00    -0.022 C 
BRANCH  12  13
ATOM     13  C   UNL     1       1.731  -3.401   0.828  0.00  0.00    -0.002 C 
BRANCH  13  14
ATOM     14  C   UNL     1       0.492  -2.693   1.385  0.00  0.00    -0.000 C 
BRANCH  14  15
ATOM     15  C   UNL     1      -0.509  -2.278   0.303  0.00  0.00    -0.000 C 
BRANCH  15  16
ATOM     16  C   UNL     1      -1.765  -1.659   0.923  0.00  0.00    -0.000 C 
BRANCH  16  17
ATOM     17  C   UNL     1      -2.816  -1.249  -0.113  0.00  0.00    +0.000 C 
BRANCH  17  18
ATOM     18  C   UNL     1      -4.060  -0.608   0.505  0.00  0.00    +0.000 C 
BRANCH  18  19
ATOM     19  C   UNL     1      -5.106  -0.285  -0.566  0.00  0.00    +0.000 C 
BRANCH  19  20
ATOM     20  C   UNL     1      -6.367   0.321   0.054  0.00  0.00    +0.000 C 
BRANCH  20  21
ATOM     21  C   UNL     1      -7.398   0.674  -1.018  0.00  0.00    +0.000 C 
ATOM     22  C   UNL     1      -8.666   1.245  -0.404  0.00  0.00    +0.000 C 
ENDBRANCH  20  21
ENDBRANCH  19  20
ENDBRANCH  18  19
ENDBRANCH  17  18
ENDBRANCH  16  17
ENDBRANCH  15  16
ENDBRANCH  14  15
ENDBRANCH  13  14
ENDBRANCH  12  13
ENDBRANCH   1  12
TORSDOF 13
