REMARK  Name = 2515
REMARK  7 active torsions:
REMARK  status: ('A' for Active; 'I' for Inactive)
REMARK    1  A    between atoms: N_1  and  C_17
REMARK    2  A    between atoms: N_1  and  C_19
REMARK    3  A    between atoms: N_4  and  N_11
REMARK    4  A    between atoms: C_12  and  O_14
REMARK    5  A    between atoms: O_14  and  C_15
REMARK    6  A    between atoms: C_19  and  C_20
REMARK    7  A    between atoms: C_20  and  O_22
REMARK                            x       y       z     vdW  Elec       q    Type
REMARK                         _______ _______ _______ _____ _____    ______ ____
ROOT
ATOM      1  N   UNL     1      -2.943   0.701   0.227  0.00  0.00    -0.289 N 
ATOM      2  N   UNL     1      -1.539  -1.159   0.734  0.00  0.00    -0.132 NA
ATOM      3  N   UNL     1      -0.299  -1.698   0.881  0.00  0.00    -0.130 NA
ATOM      4  N   UNL     1       2.075  -1.483   0.822  0.00  0.00    -0.244 N 
ATOM      5  C   UNL     1      -1.666   0.144   0.377  0.00  0.00    +0.154 C 
ATOM      6  C   UNL     1      -0.564   0.955   0.155  0.00  0.00    +0.039 C 
ATOM      7  C   UNL     1       0.698   0.406   0.305  0.00  0.00    +0.040 C 
ATOM      8  C   UNL     1       0.785  -0.923   0.668  0.00  0.00    +0.166 C 
ATOM      9  H   UNL     1       2.193  -2.459   0.873  0.00  0.00    +0.172 HD
ENDROOT
BRANCH   4  11
ATOM     10  O   UNL     1       3.807  -1.115  -1.277  0.00  0.00    -0.225 OA
ATOM     11  N   UNL     1       3.147  -0.654   0.897  0.00  0.00    -0.200 N 
ATOM     12  C   UNL     1       3.959  -0.534  -0.207  0.00  0.00    +0.418 C 
ATOM     13  H   UNL     1       3.338  -0.152   1.722  0.00  0.00    +0.176 HD
BRANCH  12  14
ATOM     14  O   UNL     1       4.974   0.340   0.063  0.00  0.00    -0.434 OA
BRANCH  14  15
ATOM     15  C   UNL     1       5.903   0.566  -1.004  0.00  0.00    +0.210 C 
ATOM     16  C   UNL     1       6.955   1.552  -0.541  0.00  0.00    +0.051 C 
ENDBRANCH  14  15
ENDBRANCH  12  14
ENDBRANCH   4  11
BRANCH   1  17
ATOM     17  C   UNL     1      -3.091   2.105  -0.156  0.00  0.00    +0.092 C 
ATOM     18  C   UNL     1      -2.918   2.998   1.058  0.00  0.00    +0.023 C 
ENDBRANCH   1  17
BRANCH   1  19
ATOM     19  C   UNL     1      -4.137  -0.088   0.429  0.00  0.00    +0.121 C 
BRANCH  19  20
ATOM     20  C   UNL     1      -4.542  -0.762  -0.880  0.00  0.00    +0.130 C 
ATOM     21  C   UNL     1      -5.799  -1.602  -0.701  0.00  0.00    +0.034 C 
BRANCH  20  22
ATOM     22  O   UNL     1      -4.804   0.250  -1.850  0.00  0.00    -0.383 OA
ATOM     23  H   UNL     1      -4.010   0.793  -1.974  0.00  0.00    +0.210 HD
ENDBRANCH  20  22
ENDBRANCH  19  20
ENDBRANCH   1  19
TORSDOF 7
