REMARK  Name = 10239
REMARK  4 active torsions:
REMARK  status: ('A' for Active; 'I' for Inactive)
REMARK    1  A    between atoms: C_3  and  C_20
REMARK    2  A    between atoms: C_4  and  C_11
REMARK    3  A    between atoms: C_6  and  O_17
REMARK    4  A    between atoms: C_20  and  O_21
REMARK                            x       y       z     vdW  Elec       q    Type
REMARK                         _______ _______ _______ _____ _____    ______ ____
ROOT
ATOM      1  N   UNL     1      -0.183  -1.370   0.004  0.00  0.00    -0.403 NA
ATOM      2  C   UNL     1       1.952  -0.253  -0.016  0.00  0.00    +0.035 C 
ATOM      3  C   UNL     1       1.296   0.986  -0.030  0.00  0.00    +0.114 C 
ATOM      4  C   UNL     1      -0.777  -0.155  -0.009  0.00  0.00    +0.165 C 
ATOM      5  C   UNL     1       1.162  -1.422   0.001  0.00  0.00    +0.114 C 
ATOM      6  C   UNL     1      -0.090   1.042  -0.026  0.00  0.00    +0.170 C 
ATOM      7  C   UNL     1       3.354  -0.344  -0.020  0.00  0.00    +0.002 C 
ATOM      8  C   UNL     1       1.814  -2.652   0.014  0.00  0.00    +0.085 C 
ATOM      9  C   UNL     1       3.979  -1.587  -0.006  0.00  0.00    -0.004 C 
ATOM     10  C   UNL     1       3.208  -2.743   0.011  0.00  0.00    -0.019 C 
ENDROOT
BRANCH   4  11
ATOM     11  C   UNL     1      -2.222  -0.206  -0.003  0.00  0.00    +0.033 C 
ATOM     12  C   UNL     1      -2.925  -0.245  -1.208  0.00  0.00    +0.003 C 
ATOM     13  C   UNL     1      -2.915  -0.216   1.208  0.00  0.00    +0.003 C 
ATOM     14  C   UNL     1      -4.319  -0.293  -1.202  0.00  0.00    +0.000 C 
ATOM     15  C   UNL     1      -4.309  -0.265   1.214  0.00  0.00    +0.000 C 
ATOM     16  C   UNL     1      -5.011  -0.304   0.009  0.00  0.00    +0.000 C 
ENDBRANCH   4  11
BRANCH   6  17
ATOM     17  O   UNL     1      -0.746   2.233  -0.039  0.00  0.00    -0.503 OA
ATOM     18  H   UNL     1      -0.261   3.035  -0.050  0.00  0.00    +0.292 HD
ENDBRANCH   6  17
BRANCH   3  20
ATOM     19  O   UNL     1       2.394   2.844  -1.062  0.00  0.00    -0.245 OA
ATOM     20  C   UNL     1       2.038   2.246  -0.047  0.00  0.00    +0.341 C 
BRANCH  20  21
ATOM     21  O   UNL     1       2.299   2.704   1.205  0.00  0.00    -0.477 OA
ATOM     22  H   UNL     1       2.010   2.217   1.952  0.00  0.00    +0.295 HD
ENDBRANCH  20  21
ENDBRANCH   3  20
TORSDOF 4
