REMARK  Name = 71919
REMARK  6 active torsions:
REMARK  status: ('A' for Active; 'I' for Inactive)
REMARK    1  A    between atoms: N_1  and  C_15
REMARK    2  A    between atoms: N_2  and  C_9
REMARK    3  A    between atoms: C_15  and  C_16
REMARK    4  A    between atoms: C_16  and  C_17
REMARK    5  A    between atoms: C_17  and  N_20
REMARK    6  A    between atoms: C_21  and  C_24
REMARK                            x       y       z     vdW  Elec       q    Type
REMARK                         _______ _______ _______ _____ _____    ______ ____
ROOT
ATOM      1  N   UNL     1       0.188   1.195  -0.869  0.00  0.00    +0.389 N 
ATOM      2  N   UNL     1       2.870   0.316  -0.428  0.00  0.00    -0.312 N 
ATOM      3  C   UNL     1       0.822   0.250  -1.797  0.00  0.00    -0.055 C 
ATOM      4  C   UNL     1       1.195   2.120  -0.333  0.00  0.00    -0.055 C 
ATOM      5  C   UNL     1       1.905  -0.570  -1.091  0.00  0.00    +0.068 C 
ATOM      6  C   UNL     1       2.292   1.363   0.420  0.00  0.00    +0.068 C 
ATOM      7  H   UNL     1      -0.223   0.672  -0.095  0.00  0.00    -0.080 HD
ENDROOT
BRANCH   2   9
ATOM      8  F   UNL     1       7.900  -1.726   0.759  0.00  0.00    -0.204 F 
ATOM      9  C   UNL     1       4.136  -0.199  -0.129  0.00  0.00    +0.048 C 
ATOM     10  C   UNL     1       4.605  -0.248   1.200  0.00  0.00    +0.017 C 
ATOM     11  C   UNL     1       4.982  -0.683  -1.147  0.00  0.00    +0.017 C 
ATOM     12  C   UNL     1       5.868  -0.760   1.498  0.00  0.00    +0.031 C 
ATOM     13  C   UNL     1       6.245  -1.196  -0.849  0.00  0.00    +0.031 C 
ATOM     14  C   UNL     1       6.688  -1.234   0.473  0.00  0.00    +0.140 C 
ENDBRANCH   2   9
BRANCH   1  15
ATOM     15  C   UNL     1      -0.881   1.934  -1.539  0.00  0.00    -0.076 C 
BRANCH  15  16
ATOM     16  C   UNL     1      -1.553   2.899  -0.559  0.00  0.00    -0.003 C 
BRANCH  16  17
ATOM     17  C   UNL     1      -2.179   2.174   0.641  0.00  0.00    +0.070 C 
ATOM     18  C   UNL     1      -2.790   3.172   1.619  0.00  0.00    +0.021 C 
BRANCH  17  20
ATOM     19  O   UNL     1      -2.880  -0.282   1.953  0.00  0.00    -0.270 OA
ATOM     20  N   UNL     1      -3.185   1.228   0.219  0.00  0.00    -0.303 N 
ATOM     21  C   UNL     1      -3.453   0.063   0.923  0.00  0.00    +0.247 C 
ATOM     22  H   UNL     1      -3.700   1.417  -0.598  0.00  0.00    +0.150 HD
BRANCH  21  24
ATOM     23  N   UNL     1      -6.186  -2.473   0.697  0.00  0.00    -0.242 NA
ATOM     24  C   UNL     1      -4.498  -0.818   0.344  0.00  0.00    +0.072 C 
ATOM     25  C   UNL     1      -4.737  -0.798  -1.009  0.00  0.00    +0.008 C 
ATOM     26  C   UNL     1      -5.221  -1.646   1.160  0.00  0.00    +0.103 C 
ATOM     27  C   UNL     1      -5.722  -1.635  -1.522  0.00  0.00    +0.021 C 
ATOM     28  C   UNL     1      -6.412  -2.445  -0.635  0.00  0.00    +0.099 C 
ENDBRANCH  21  24
ENDBRANCH  17  20
ENDBRANCH  16  17
ENDBRANCH  15  16
ENDBRANCH   1  15
TORSDOF 6
