7186
  -OEChem-10061700203D

 24 24  0     1  0  0  0  0  0999 V2000
   -0.4094    2.8887    0.0380 O   0  0  0  0  0  0  0  0  0  0  0  0
    2.0202    0.2322   -0.5915 O   0  0  0  0  0  0  0  0  0  0  0  0
    2.2136   -0.7274    1.4921 O   0  0  0  0  0  0  0  0  0  0  0  0
    2.8383   -1.8638   -0.4066 N   0  0  0  0  0  0  0  0  0  0  0  0
    0.0857    1.6807   -0.5531 C   0  0  2  0  0  0  0  0  0  0  0  0
   -0.8706    0.5672   -0.2887 C   0  0  0  0  0  0  0  0  0  0  0  0
    1.4960    1.4148   -0.0045 C   0  0  0  0  0  0  0  0  0  0  0  0
   -1.0071   -0.4690   -1.2125 C   0  0  0  0  0  0  0  0  0  0  0  0
   -1.6284    0.5617    0.8826 C   0  0  0  0  0  0  0  0  0  0  0  0
   -1.9013   -1.5105   -0.9653 C   0  0  0  0  0  0  0  0  0  0  0  0
   -2.5225   -0.4801    1.1297 C   0  0  0  0  0  0  0  0  0  0  0  0
   -2.6590   -1.5161    0.2058 C   0  0  0  0  0  0  0  0  0  0  0  0
    2.3443   -0.7784    0.2738 C   0  0  0  0  0  0  0  0  0  0  0  0
    0.1379    1.8544   -1.6352 H   0  0  0  0  0  0  0  0  0  0  0  0
    2.1558    2.2463   -0.2793 H   0  0  0  0  0  0  0  0  0  0  0  0
    1.4807    1.3978    1.0923 H   0  0  0  0  0  0  0  0  0  0  0  0
   -0.4231   -0.4776   -2.1289 H   0  0  0  0  0  0  0  0  0  0  0  0
   -1.5320    1.3487    1.6256 H   0  0  0  0  0  0  0  0  0  0  0  0
   -2.0072   -2.3176   -1.6843 H   0  0  0  0  0  0  0  0  0  0  0  0
   -3.1101   -0.4865    2.0431 H   0  0  0  0  0  0  0  0  0  0  0  0
   -3.3544   -2.3277    0.3988 H   0  0  0  0  0  0  0  0  0  0  0  0
    0.2142    3.6004   -0.1865 H   0  0  0  0  0  0  0  0  0  0  0  0
    2.9263   -1.8583   -1.4172 H   0  0  0  0  0  0  0  0  0  0  0  0
    3.1289   -2.7050    0.0801 H   0  0  0  0  0  0  0  0  0  0  0  0
  1  5  1  0  0  0  0
  1 22  1  0  0  0  0
  2  7  1  0  0  0  0
  2 13  1  0  0  0  0
  3 13  2  0  0  0  0
  4 13  1  0  0  0  0
  4 23  1  0  0  0  0
  4 24  1  0  0  0  0
  5  6  1  0  0  0  0
  5  7  1  0  0  0  0
  5 14  1  0  0  0  0
  6  8  2  0  0  0  0
  6  9  1  0  0  0  0
  7 15  1  0  0  0  0
  7 16  1  0  0  0  0
  8 10  1  0  0  0  0
  8 17  1  0  0  0  0
  9 11  2  0  0  0  0
  9 18  1  0  0  0  0
 10 12  2  0  0  0  0
 10 19  1  0  0  0  0
 11 12  1  0  0  0  0
 11 20  1  0  0  0  0
 12 21  1  0  0  0  0
M  END
> <DATABASE_ID>
DB13357

> <DATABASE_NAME>
drugbank

> <ORIGINAL_SOURCE>
PUBCHEM

> <ORIGINAL_SOURCE_URL>
https://pubchem.ncbi.nlm.nih.gov/rest/pug/compound/inchikey/OCSOHUROTFFTFO-UHFFFAOYSA-N/SDF?record_type=3d

> <SMILES>
NC(=O)OCC(O)C1=CC=CC=C1

> <INCHI_IDENTIFIER>
InChI=1S/C9H11NO3/c10-9(12)13-6-8(11)7-4-2-1-3-5-7/h1-5,8,11H,6H2,(H2,10,12)

> <INCHI_KEY>
OCSOHUROTFFTFO-UHFFFAOYSA-N

> <FORMULA>
C9H11NO3

> <MOLECULAR_WEIGHT>
181.191

> <EXACT_MASS>
181.073893218

> <JCHEM_ACCEPTOR_COUNT>
2

> <JCHEM_ATOM_COUNT>
24

> <JCHEM_AVERAGE_POLARIZABILITY>
18.35329776701265

> <JCHEM_BIOAVAILABILITY>
1

> <JCHEM_DONOR_COUNT>
2

> <JCHEM_FORMAL_CHARGE>
0

> <JCHEM_GHOSE_FILTER>
1

> <JCHEM_IUPAC>
2-hydroxy-2-phenylethyl carbamate

> <ALOGPS_LOGP>
0.34

> <JCHEM_LOGP>
0.6831409833333332

> <ALOGPS_LOGS>
-1.49

> <JCHEM_MDDR_LIKE_RULE>
0

> <JCHEM_NUMBER_OF_RINGS>
1

> <JCHEM_PHYSIOLOGICAL_CHARGE>
0

> <JCHEM_PKA>
15.552056613094212

> <JCHEM_PKA_STRONGEST_ACIDIC>
13.662096621340655

> <JCHEM_PKA_STRONGEST_BASIC>
-3.37980033687575

> <JCHEM_POLAR_SURFACE_AREA>
72.55

> <JCHEM_REFRACTIVITY>
46.6646

> <JCHEM_ROTATABLE_BOND_COUNT>
4

> <JCHEM_RULE_OF_FIVE>
1

> <ALOGPS_SOLUBILITY>
5.83e+00 g/l

> <JCHEM_TRADITIONAL_IUPAC>
styramate

> <JCHEM_VEBER_RULE>
0

> <DRUGBANK_ID>
DB13357

> <DRUG_GROUPS>
experimental

> <GENERIC_NAME>
Styramate

$$$$
