REMARK  Name = 6918726
REMARK  9 active torsions:
REMARK  status: ('A' for Active; 'I' for Inactive)
REMARK    1  A    between atoms: C_2  and  O_17
REMARK    2  A    between atoms: C_3  and  O_19
REMARK    3  A    between atoms: C_4  and  N_8
REMARK    4  A    between atoms: C_5  and  C_30
REMARK    5  A    between atoms: O_19  and  C_21
REMARK    6  A    between atoms: C_21  and  C_22
REMARK    7  A    between atoms: C_22  and  N_23
REMARK    8  A    between atoms: C_22  and  C_27
REMARK    9  A    between atoms: C_30  and  O_31
REMARK                            x       y       z     vdW  Elec       q    Type
REMARK                         _______ _______ _______ _____ _____    ______ ____
ROOT
ATOM      1  O   UNL     1      -0.364   0.953   0.852  0.00  0.00    -0.331 OA
ATOM      2  C   UNL     1      -0.332   0.102  -1.353  0.00  0.00    +0.171 C 
ATOM      3  C   UNL     1       1.037   0.723  -1.072  0.00  0.00    +0.226 C 
ATOM      4  C   UNL     1      -0.840  -0.147   0.065  0.00  0.00    +0.235 C 
ATOM      5  C   UNL     1       0.850   1.455   0.259  0.00  0.00    +0.189 C 
ATOM      6  C   UNL     1      -1.223   1.040  -2.174  0.00  0.00    +0.038 C 
ENDROOT
BRANCH   4   8
ATOM      7  O   UNL     1      -2.339  -2.529   0.007  0.00  0.00    -0.193 OA
ATOM      8  N   UNL     1      -2.267  -0.230   0.184  0.00  0.00    -0.178 N 
ATOM      9  N   UNL     1      -4.331  -1.473   0.267  0.00  0.00    -0.306 NA
ATOM     10  N   UNL     1      -6.369  -0.385   0.532  0.00  0.00    -0.332 N 
ATOM     11  C   UNL     1      -2.989   0.942   0.339  0.00  0.00    +0.083 C 
ATOM     12  C   UNL     1      -2.952  -1.469   0.146  0.00  0.00    +0.276 C 
ATOM     13  C   UNL     1      -4.315   0.960   0.456  0.00  0.00    +0.065 C 
ATOM     14  C   UNL     1      -4.999  -0.359   0.413  0.00  0.00    +0.193 C 
ATOM     15  H   UNL     1      -6.849  -1.245   0.507  0.00  0.00    +0.145 HD
ATOM     16  H   UNL     1      -6.870   0.455   0.642  0.00  0.00    +0.145 HD
ENDBRANCH   4   8
BRANCH   2  17
ATOM     17  O   UNL     1      -0.218  -1.125  -2.062  0.00  0.00    -0.379 OA
ATOM     18  H   UNL     1       0.344  -1.736  -1.560  0.00  0.00    +0.211 HD
ENDBRANCH   2  17
BRANCH   3  19
ATOM     19  O   UNL     1       2.022  -0.299  -0.889  0.00  0.00    -0.448 OA
BRANCH  19  21
ATOM     20  O   UNL     1       3.605   1.298  -0.385  0.00  0.00    -0.252 OA
ATOM     21  C   UNL     1       3.282   0.128  -0.542  0.00  0.00    +0.296 C 
BRANCH  21  22
ATOM     22  C   UNL     1       4.210  -1.067  -0.379  0.00  0.00    +0.036 C 
BRANCH  22  23
ATOM     23  N   UNL     1       5.546  -0.681  -0.835  0.00  0.00    +0.389 N 
ATOM     24  H   UNL     1       5.491  -0.332  -1.792  0.00  0.00    -0.088 HD
ATOM     25  H   UNL     1       6.164  -1.492  -0.804  0.00  0.00    -0.088 HD
ATOM     26  H   UNL     1       5.914   0.051  -0.228  0.00  0.00    -0.088 HD
ENDBRANCH  22  23
BRANCH  22  27
ATOM     27  C   UNL     1       4.200  -1.610   1.069  0.00  0.00    -0.010 C 
ATOM     28  C   UNL     1       4.685  -0.594   2.109  0.00  0.00    -0.002 C 
ATOM     29  C   UNL     1       2.811  -2.126   1.459  0.00  0.00    -0.002 C 
ENDBRANCH  22  27
ENDBRANCH  21  22
ENDBRANCH  19  21
ENDBRANCH   3  19
BRANCH   5  30
ATOM     30  C   UNL     1       0.736   2.965   0.123  0.00  0.00    +0.171 C 
BRANCH  30  31
ATOM     31  O   UNL     1       0.556   3.528   1.412  0.00  0.00    -0.379 OA
ATOM     32  H   UNL     1       0.482   4.492   1.336  0.00  0.00    +0.211 HD
ENDBRANCH  30  31
ENDBRANCH   5  30
TORSDOF 9
