REMARK  Name = 4979271
REMARK  2 active torsions:
REMARK  status: ('A' for Active; 'I' for Inactive)
REMARK    1  A    between atoms: C_5  and  N_17
REMARK    2  A    between atoms: C_15  and  C_26
REMARK                            x       y       z     vdW  Elec       q    Type
REMARK                         _______ _______ _______ _____ _____    ______ ____
ROOT
ATOM      1  S   UNL     1      -1.188   2.277  -0.078  0.00  0.00    -0.109 S 
ATOM      2  F   UNL     1      -1.651  -2.789   0.032  0.00  0.00    -0.203 F 
ATOM      3  O   UNL     1       3.336  -2.302  -0.021  0.00  0.00    -0.286 OA
ATOM      4  N   UNL     1       1.910   1.519   0.045  0.00  0.00    -0.284 N 
ATOM      5  C   UNL     1      -1.303  -0.440   0.012  0.00  0.00    +0.082 C 
ATOM      6  C   UNL     1      -0.426   0.659  -0.002  0.00  0.00    +0.055 C 
ATOM      7  C   UNL     1       0.971   0.460   0.024  0.00  0.00    +0.062 C 
ATOM      8  C   UNL     1      -0.813  -1.743   0.024  0.00  0.00    +0.154 C 
ATOM      9  C   UNL     1       1.439  -0.878   0.014  0.00  0.00    +0.056 C 
ATOM     10  C   UNL     1       1.433   2.891   0.253  0.00  0.00    +0.108 C 
ATOM     11  C   UNL     1       0.247   3.225  -0.629  0.00  0.00    +0.084 C 
ATOM     12  C   UNL     1       0.557  -1.966   0.018  0.00  0.00    +0.035 C 
ATOM     13  C   UNL     1       3.264   1.228   0.040  0.00  0.00    +0.075 C 
ATOM     14  C   UNL     1       2.900  -1.158  -0.001  0.00  0.00    +0.204 C 
ATOM     15  C   UNL     1       3.808   0.010   0.011  0.00  0.00    +0.133 C 
ENDROOT
BRANCH   5  17
ATOM     16  N   UNL     1      -5.529  -0.130   0.094  0.00  0.00    +0.388 N 
ATOM     17  N   UNL     1      -2.693  -0.279   0.004  0.00  0.00    -0.310 N 
ATOM     18  C   UNL     1      -4.813  -0.110  -1.232  0.00  0.00    -0.056 C 
ATOM     19  C   UNL     1      -4.703   0.541   1.163  0.00  0.00    -0.056 C 
ATOM     20  C   UNL     1      -3.481  -0.838  -1.098  0.00  0.00    +0.068 C 
ATOM     21  C   UNL     1      -3.375  -0.190   1.303  0.00  0.00    +0.068 C 
ATOM     22  C   UNL     1      -6.906   0.464  -0.004  0.00  0.00    -0.101 C 
ATOM     23  H   UNL     1      -5.651  -1.105   0.365  0.00  0.00    -0.080 HD
ENDBRANCH   5  17
BRANCH  15  26
ATOM     24  O   UNL     1       5.752  -1.306  -0.018  0.00  0.00    -0.240 OA
ATOM     25  O   UNL     1       5.949   0.973   0.038  0.00  0.00    -0.240 OA
ATOM     26  C   UNL     1       5.314  -0.120   0.010  0.00  0.00    +0.392 C 
ENDBRANCH  15  26
TORSDOF 2
