REMARK  Name = 4770
REMARK  5 active torsions:
REMARK  status: ('A' for Active; 'I' for Inactive)
REMARK    1  A    between atoms: C_1  and  C_2
REMARK    2  A    between atoms: C_1  and  C_9
REMARK    3  A    between atoms: C_2  and  C_3
REMARK    4  A    between atoms: C_9  and  O_10
REMARK    5  A    between atoms: O_10  and  C_13
REMARK                            x       y       z     vdW  Elec       q    Type
REMARK                         _______ _______ _______ _____ _____    ______ ____
ROOT
ATOM      1  C   UNL     1       0.584  -0.035   0.058  0.00  0.00    +0.052 C 
ENDROOT
BRANCH   1   2
ATOM      2  C   UNL     1      -0.498   0.054  -1.025  0.00  0.00    +0.030 C 
BRANCH   2   3
ATOM      3  C   UNL     1      -1.875   0.026  -0.452  0.00  0.00    -0.022 C 
ATOM      4  C   UNL     1      -2.530  -1.192  -0.272  0.00  0.00    -0.004 C 
ATOM      5  C   UNL     1      -2.507   1.217  -0.097  0.00  0.00    -0.004 C 
ATOM      6  C   UNL     1      -3.818  -1.219   0.263  0.00  0.00    -0.000 C 
ATOM      7  C   UNL     1      -3.795   1.191   0.439  0.00  0.00    -0.000 C 
ATOM      8  C   UNL     1      -4.450  -0.027   0.619  0.00  0.00    -0.000 C 
ENDBRANCH   2   3
ENDBRANCH   1   2
BRANCH   1   9
ATOM      9  C   UNL     1       1.987   0.044  -0.525  0.00  0.00    +0.210 C 
BRANCH   9  10
ATOM     10  O   UNL     1       2.931  -0.060   0.532  0.00  0.00    -0.435 OA
BRANCH  10  13
ATOM     11  O   UNL     1       4.658   0.123  -0.980  0.00  0.00    -0.227 OA
ATOM     12  N   UNL     1       5.063  -0.116   1.271  0.00  0.00    -0.295 N 
ATOM     13  C   UNL     1       4.250  -0.006   0.170  0.00  0.00    +0.398 C 
ATOM     14  H   UNL     1       4.668  -0.217   2.166  0.00  0.00    +0.148 HD
ATOM     15  H   UNL     1       6.042  -0.093   1.164  0.00  0.00    +0.148 HD
ENDBRANCH  10  13
ENDBRANCH   9  10
ENDBRANCH   1   9
TORSDOF 5
