REMARK  Name = 46944259
REMARK  8 active torsions:
REMARK  status: ('A' for Active; 'I' for Inactive)
REMARK    1  A    between atoms: C_5  and  O_22
REMARK    2  A    between atoms: C_6  and  C_11
REMARK    3  A    between atoms: C_12  and  C_15
REMARK    4  A    between atoms: N_13  and  C_18
REMARK    5  A    between atoms: C_18  and  C_19
REMARK    6  A    between atoms: C_19  and  O_20
REMARK    7  A    between atoms: O_22  and  C_23
REMARK    8  A    between atoms: C_23  and  C_28
REMARK                            x       y       z     vdW  Elec       q    Type
REMARK                         _______ _______ _______ _____ _____    ______ ____
ROOT
ATOM      1  N   UNL     1      -0.035  -4.409  -0.063  0.00  0.00    -0.276 N 
ATOM      2  N   UNL     1      -1.176  -3.705   0.015  0.00  0.00    -0.173 NA
ATOM      3  C   UNL     1       0.655  -2.332   0.074  0.00  0.00    +0.039 A 
ATOM      4  C   UNL     1       1.100  -3.645  -0.033  0.00  0.00    +0.076 A 
ATOM      5  C   UNL     1       2.955  -1.611   0.073  0.00  0.00    +0.139 C 
ATOM      6  C   UNL     1      -0.752  -2.441   0.099  0.00  0.00    +0.102 A 
ATOM      7  C   UNL     1       1.594  -1.289   0.130  0.00  0.00    +0.040 C 
ATOM      8  C   UNL     1       2.453  -3.988  -0.091  0.00  0.00    +0.022 C 
ATOM      9  C   UNL     1       3.376  -2.938  -0.035  0.00  0.00    +0.038 C 
ATOM     10  H   UNL     1      -0.016  -5.391  -0.136  0.00  0.00    +0.189 HD
ENDROOT
BRANCH   6  11
ATOM     11  C   UNL     1      -1.639  -1.338   0.202  0.00  0.00    +0.021 C 
ATOM     12  C   UNL     1      -3.011  -1.397   0.266  0.00  0.00    +0.005 C 
BRANCH  12  15
ATOM     13  N   UNL     1      -5.723   0.983   0.565  0.00  0.00    -0.208 N 
ATOM     14  N   UNL     1      -4.724   1.882   0.576  0.00  0.00    -0.176 NA
ATOM     15  C   UNL     1      -3.930  -0.252   0.390  0.00  0.00    +0.037 C 
ATOM     16  C   UNL     1      -5.301  -0.309   0.455  0.00  0.00    +0.086 C 
ATOM     17  C   UNL     1      -3.631   1.122   0.469  0.00  0.00    +0.119 C 
BRANCH  13  18
ATOM     18  C   UNL     1      -7.091   1.433   0.662  0.00  0.00    +0.148 C 
BRANCH  18  19
ATOM     19  C   UNL     1      -7.611   1.998  -0.656  0.00  0.00    +0.161 C 
BRANCH  19  20
ATOM     20  O   UNL     1      -7.513   1.010  -1.674  0.00  0.00    -0.380 OA
ATOM     21  H   UNL     1      -7.844   1.374  -2.510  0.00  0.00    +0.211 HD
ENDBRANCH  19  20
ENDBRANCH  18  19
ENDBRANCH  13  18
ENDBRANCH  12  15
ENDBRANCH   6  11
BRANCH   5  22
ATOM     22  O   UNL     1       3.883  -0.613   0.125  0.00  0.00    -0.475 OA
BRANCH  22  23
ATOM     23  C   UNL     1       3.831   0.372  -0.904  0.00  0.00    +0.190 C 
ATOM     24  C   UNL     1       5.133   0.345  -1.698  0.00  0.00    +0.052 C 
BRANCH  23  28
ATOM     25 CL   UNL     1       2.166   2.379  -2.537  0.00  0.00    -0.081 Cl
ATOM     26 CL   UNL     1       5.008   0.905   1.887  0.00  0.00    -0.081 Cl
ATOM     27  N   UNL     1       3.089   4.229   0.858  0.00  0.00    -0.241 NA
ATOM     28  C   UNL     1       3.571   1.725  -0.286  0.00  0.00    +0.041 C 
ATOM     29  C   UNL     1       2.825   2.675  -0.975  0.00  0.00    +0.077 C 
ATOM     30  C   UNL     1       4.076   2.025   0.974  0.00  0.00    +0.077 C 
ATOM     31  C   UNL     1       2.614   3.901  -0.365  0.00  0.00    +0.110 C 
ATOM     32  C   UNL     1       3.809   3.280   1.497  0.00  0.00    +0.110 C 
ENDBRANCH  23  28
ENDBRANCH  22  23
ENDBRANCH   5  22
TORSDOF 8
