REMARK  Name = 70374
REMARK  3 active torsions:
REMARK  status: ('A' for Active; 'I' for Inactive)
REMARK    1  A    between atoms: N_2  and  C_11
REMARK    2  A    between atoms: C_3  and  C_7
REMARK    3  A    between atoms: C_11  and  N_13
REMARK                            x       y       z     vdW  Elec       q    Type
REMARK                         _______ _______ _______ _____ _____    ______ ____
ROOT
ATOM      1  O   UNL     1       1.154  -2.191   0.613  0.00  0.00    -0.269 OA
ATOM      2  N   UNL     1      -0.037  -0.522  -0.466  0.00  0.00    -0.320 N 
ATOM      3  C   UNL     1       1.102  -1.079   0.093  0.00  0.00    +0.263 C 
ATOM      4  H   UNL     1       0.016   0.377  -0.862  0.00  0.00    +0.147 HD
ENDROOT
BRANCH   3   7
ATOM      5  N   UNL     1       2.188   0.930  -0.582  0.00  0.00    -0.236 NA
ATOM      6  N   UNL     1       4.624   0.028   0.476  0.00  0.00    -0.239 NA
ATOM      7  C   UNL     1       2.333  -0.251   0.017  0.00  0.00    +0.153 C 
ATOM      8  C   UNL     1       3.501  -0.714   0.538  0.00  0.00    +0.123 C 
ATOM      9  C   UNL     1       3.311   1.673  -0.644  0.00  0.00    +0.120 C 
ATOM     10  C   UNL     1       4.508   1.229  -0.125  0.00  0.00    +0.120 C 
ENDBRANCH   3   7
BRANCH   2  11
ATOM     11  C   UNL     1      -1.302  -1.223  -0.484  0.00  0.00    +0.016 C 
BRANCH  11  13
ATOM     12  O   UNL     1      -4.719   0.929   0.658  0.00  0.00    -0.358 OA
ATOM     13  N   UNL     1      -2.384  -0.242  -0.474  0.00  0.00    +0.402 N 
ATOM     14  C   UNL     1      -2.317   0.597   0.731  0.00  0.00    -0.042 C 
ATOM     15  C   UNL     1      -3.692  -0.907  -0.551  0.00  0.00    -0.042 C 
ATOM     16  C   UNL     1      -3.463   1.605   0.726  0.00  0.00    +0.120 C 
ATOM     17  C   UNL     1      -4.806   0.137  -0.527  0.00  0.00    +0.120 C 
ATOM     18  H   UNL     1      -2.273   0.355  -1.293  0.00  0.00    -0.077 HD
ENDBRANCH  11  13
ENDBRANCH   2  11
TORSDOF 3
