REMARK  Name = 3747
REMARK  3 active torsions:
REMARK  status: ('A' for Active; 'I' for Inactive)
REMARK    1  A    between atoms: C_5  and  C_12
REMARK    2  A    between atoms: C_6  and  O_18
REMARK    3  A    between atoms: O_18  and  C_19
REMARK                            x       y       z     vdW  Elec       q    Type
REMARK                         _______ _______ _______ _____ _____    ______ ____
ROOT
ATOM      1  O   UNL     1       0.218   1.634   0.262  0.00  0.00    -0.450 OA
ATOM      2  O   UNL     1      -1.466  -2.061  -0.137  0.00  0.00    -0.286 OA
ATOM      3  C   UNL     1       0.487  -0.775   0.136  0.00  0.00    +0.074 C 
ATOM      4  C   UNL     1       1.008   0.513   0.258  0.00  0.00    +0.151 C 
ATOM      5  C   UNL     1      -1.793   0.292   0.032  0.00  0.00    +0.077 C 
ATOM      6  C   UNL     1       3.238  -0.402   0.382  0.00  0.00    +0.141 C 
ATOM      7  C   UNL     1      -0.971  -0.950   0.002  0.00  0.00    +0.202 C 
ATOM      8  C   UNL     1       2.385   0.702   0.381  0.00  0.00    +0.074 C 
ATOM      9  C   UNL     1       1.340  -1.881   0.136  0.00  0.00    +0.009 C 
ATOM     10  C   UNL     1       2.717  -1.690   0.260  0.00  0.00    +0.037 C 
ATOM     11  C   UNL     1      -1.140   1.457   0.158  0.00  0.00    +0.183 C 
ENDROOT
BRANCH   5  12
ATOM     12  C   UNL     1      -3.262   0.256  -0.052  0.00  0.00    +0.006 C 
ATOM     13  C   UNL     1      -3.894   0.332  -1.295  0.00  0.00    +0.000 C 
ATOM     14  C   UNL     1      -4.028   0.146   1.110  0.00  0.00    +0.000 C 
ATOM     15  C   UNL     1      -5.287   0.298  -1.375  0.00  0.00    +0.000 C 
ATOM     16  C   UNL     1      -5.421   0.112   1.030  0.00  0.00    +0.000 C 
ATOM     17  C   UNL     1      -6.050   0.188  -0.213  0.00  0.00    +0.000 C 
ENDBRANCH   5  12
BRANCH   6  18
ATOM     18  O   UNL     1       4.582  -0.221   0.503  0.00  0.00    -0.479 OA
BRANCH  18  19
ATOM     19  C   UNL     1       5.225   0.561  -0.502  0.00  0.00    +0.166 C 
ATOM     20  C   UNL     1       5.855   1.786   0.143  0.00  0.00    +0.047 C 
ATOM     21  C   UNL     1       6.258  -0.296  -1.218  0.00  0.00    +0.047 C 
ENDBRANCH  18  19
ENDBRANCH   6  18
TORSDOF 3
