REMARK  Name = 66753191
REMARK  12 active torsions:
REMARK  status: ('A' for Active; 'I' for Inactive)
REMARK    1  A    between atoms: C_1  and  N_6
REMARK    2  A    between atoms: C_1  and  N_18
REMARK    3  A    between atoms: C_2  and  N_5
REMARK    4  A    between atoms: N_6  and  C_8
REMARK    5  A    between atoms: C_8  and  C_11
REMARK    6  A    between atoms: N_18  and  C_20
REMARK    7  A    between atoms: C_20  and  C_21
REMARK    8  A    between atoms: C_21  and  S_22
REMARK    9  A    between atoms: S_22  and  C_23
REMARK   10  A    between atoms: C_23  and  C_26
REMARK   11  A    between atoms: C_25  and  C_29
REMARK   12  A    between atoms: C_29  and  N_30
REMARK                            x       y       z     vdW  Elec       q    Type
REMARK                         _______ _______ _______ _____ _____    ______ ____
ROOT
ATOM      1  C   UNL     1       3.051   0.925  -0.102  0.00  0.00    +0.118 C 
ATOM      2  C   UNL     1       2.974   1.545   1.096  0.00  0.00    +0.194 C 
ENDROOT
BRANCH   2   5
ATOM      3  O   UNL     1       3.262  -0.144   2.591  0.00  0.00    -0.126 OA
ATOM      4  O   UNL     1       4.478   1.681   2.796  0.00  0.00    -0.126 OA
ATOM      5  N   UNL     1       3.614   0.991   2.235  0.00  0.00    +0.062 N 
ENDBRANCH   2   5
BRANCH   1   6
ATOM      6  N   UNL     1       2.403   1.512  -1.194  0.00  0.00    -0.317 N 
ATOM      7  H   UNL     1       2.480   1.029  -2.048  0.00  0.00    +0.148 HD
BRANCH   6   8
ATOM      8  C   UNL     1       1.635   2.734  -1.232  0.00  0.00    +0.115 C 
BRANCH   8  11
ATOM      9  O   UNL     1      -2.752   2.457   1.039  0.00  0.00    -0.435 OA
ATOM     10  O   UNL     1      -3.859   1.644  -0.941  0.00  0.00    -0.435 OA
ATOM     11  C   UNL     1       0.162   2.432  -1.190  0.00  0.00    +0.001 C 
ATOM     12  C   UNL     1      -1.900   2.333  -0.015  0.00  0.00    +0.176 C 
ATOM     13  C   UNL     1      -0.552   2.625  -0.005  0.00  0.00    +0.038 C 
ATOM     14  C   UNL     1      -2.532   1.869  -1.146  0.00  0.00    +0.176 C 
ATOM     15  C   UNL     1      -0.483   1.958  -2.345  0.00  0.00    +0.001 C 
ATOM     16  C   UNL     1      -1.850   1.670  -2.329  0.00  0.00    +0.040 C 
ATOM     17  C   UNL     1      -3.991   2.019   0.445  0.00  0.00    +0.429 C 
ENDBRANCH   8  11
ENDBRANCH   6   8
ENDBRANCH   1   6
BRANCH   1  18
ATOM     18  N   UNL     1       3.751  -0.270  -0.280  0.00  0.00    -0.319 N 
ATOM     19  H   UNL     1       4.191  -0.648   0.515  0.00  0.00    +0.148 HD
BRANCH  18  20
ATOM     20  C   UNL     1       3.893  -1.009  -1.513  0.00  0.00    +0.100 C 
BRANCH  20  21
ATOM     21  C   UNL     1       2.650  -1.838  -1.811  0.00  0.00    +0.079 C 
BRANCH  21  22
ATOM     22  S   UNL     1       2.327  -3.085  -0.526  0.00  0.00    -0.130 S 
BRANCH  22  23
ATOM     23  C   UNL     1       0.890  -3.873  -1.287  0.00  0.00    +0.122 C 
BRANCH  23  26
ATOM     24  O   UNL     1      -0.930  -3.180   0.170  0.00  0.00    -0.463 OA
ATOM     25  C   UNL     1      -2.046  -2.404   0.153  0.00  0.00    +0.102 C 
ATOM     26  C   UNL     1      -0.373  -3.087  -1.066  0.00  0.00    +0.133 C 
ATOM     27  C   UNL     1      -2.206  -1.816  -1.081  0.00  0.00    +0.034 C 
ATOM     28  C   UNL     1      -1.120  -2.260  -1.872  0.00  0.00    +0.037 C 
BRANCH  25  29
ATOM     29  C   UNL     1      -2.821  -2.351   1.400  0.00  0.00    -0.011 C 
BRANCH  29  30
ATOM     30  N   UNL     1      -2.605  -1.105   2.118  0.00  0.00    +0.389 N 
ATOM     31  C   UNL     1      -1.347  -1.149   2.868  0.00  0.00    -0.100 C 
ATOM     32  C   UNL     1      -3.722  -0.826   3.023  0.00  0.00    -0.100 C 
ATOM     33  H   UNL     1      -2.547  -0.352   1.431  0.00  0.00    -0.079 HD
ENDBRANCH  29  30
ENDBRANCH  25  29
ENDBRANCH  23  26
ENDBRANCH  22  23
ENDBRANCH  21  22
ENDBRANCH  20  21
ENDBRANCH  18  20
ENDBRANCH   1  18
TORSDOF 12
