REMARK  Name = 6433427
REMARK  6 active torsions:
REMARK  status: ('A' for Active; 'I' for Inactive)
REMARK    1  A    between atoms: N_1  and  C_2
REMARK    2  A    between atoms: N_1  and  N_5
REMARK    3  A    between atoms: C_2  and  C_13
REMARK    4  A    between atoms: C_6  and  C_9
REMARK    5  A    between atoms: C_9  and  S_10
REMARK    6  A    between atoms: C_15  and  N_19
REMARK                            x       y       z     vdW  Elec       q    Type
REMARK                         _______ _______ _______ _____ _____    ______ ____
ROOT
ATOM      1  N   UNL     1       0.339   0.922  -0.234  0.00  0.00    -0.117 NA
ENDROOT
BRANCH   1   4
ATOM      2  O   UNL     1       3.647   0.790   0.920  0.00  0.00    -0.435 OA
ATOM      3  O   UNL     1       2.532   2.681   0.268  0.00  0.00    -0.225 OA
ATOM      4  N   UNL     1       1.553   0.564   0.204  0.00  0.00    -0.169 N 
ATOM      5  C   UNL     1       3.399  -0.631   0.817  0.00  0.00    +0.203 C 
ATOM      6  C   UNL     1       1.899  -0.754   0.616  0.00  0.00    +0.161 C 
ATOM      7  C   UNL     1       2.556   1.470   0.434  0.00  0.00    +0.420 C 
BRANCH   5   8
ATOM      8  C   UNL     1       4.204  -1.180  -0.353  0.00  0.00    +0.103 C 
BRANCH   8   9
ATOM      9  S   UNL     1       5.979  -1.008  -0.035  0.00  0.00    -0.135 S 
ATOM     10  C   UNL     1       6.596  -1.735  -1.571  0.00  0.00    +0.069 C 
ENDBRANCH   8   9
ENDBRANCH   5   8
ENDBRANCH   1   4
BRANCH   1  11
ATOM     11  C   UNL     1      -0.609   0.138   0.167  0.00  0.00    +0.176 C 
BRANCH  11  13
ATOM     12  O   UNL     1      -2.898  -0.521   0.273  0.00  0.00    -0.436 OA
ATOM     13  C   UNL     1      -1.998   0.358  -0.202  0.00  0.00    +0.144 C 
ATOM     14  C   UNL     1      -2.563   1.325  -0.965  0.00  0.00    +0.040 C 
ATOM     15  C   UNL     1      -4.100  -0.103  -0.206  0.00  0.00    +0.289 C 
ATOM     16  C   UNL     1      -3.947   1.028  -0.973  0.00  0.00    +0.066 C 
BRANCH  15  19
ATOM     17  O   UNL     1      -6.359  -0.566  -0.231  0.00  0.00    -0.123 OA
ATOM     18  O   UNL     1      -5.032  -1.897   0.903  0.00  0.00    -0.123 OA
ATOM     19  N   UNL     1      -5.198  -0.880   0.167  0.00  0.00    +0.093 N 
ENDBRANCH  15  19
ENDBRANCH  11  13
ENDBRANCH   1  11
TORSDOF 6
