REMARK  Name = 76959818
REMARK  5 active torsions:
REMARK  status: ('A' for Active; 'I' for Inactive)
REMARK    1  A    between atoms: N_1  and  C_27
REMARK    2  A    between atoms: C_10  and  O_21
REMARK    3  A    between atoms: C_12  and  O_23
REMARK    4  A    between atoms: C_13  and  C_25
REMARK    5  A    between atoms: C_27  and  C_28
REMARK                            x       y       z     vdW  Elec       q    Type
REMARK                         _______ _______ _______ _____ _____    ______ ____
ROOT
ATOM      1  N   UNL     1      -1.376  -0.924  -0.032  0.00  0.00    +0.411 N 
ATOM      2  N   UNL     1       1.843  -1.125  -1.076  0.00  0.00    -0.309 N 
ATOM      3  C   UNL     1      -1.048   0.146   1.041  0.00  0.00    -0.048 C 
ATOM      4  C   UNL     1      -1.263   1.546   0.382  0.00  0.00    +0.009 C 
ATOM      5  C   UNL     1       1.018   0.778   0.142  0.00  0.00    +0.057 C 
ATOM      6  C   UNL     1      -0.659  -0.551  -1.368  0.00  0.00    -0.032 C 
ATOM      7  C   UNL     1      -2.174   1.396  -0.861  0.00  0.00    -0.001 C 
ATOM      8  C   UNL     1       0.799  -0.090  -1.139  0.00  0.00    +0.061 C 
ATOM      9  C   UNL     1       0.425   0.106   1.383  0.00  0.00    -0.012 C 
ATOM     10  C   UNL     1       0.177   2.060   0.059  0.00  0.00    +0.114 C 
ATOM     11  C   UNL     1      -1.445   0.633  -1.979  0.00  0.00    -0.019 C 
ATOM     12  C   UNL     1      -2.942  -0.915  -0.217  0.00  0.00    +0.063 C 
ATOM     13  C   UNL     1      -3.409   0.532  -0.523  0.00  0.00    +0.008 C 
ATOM     14  C   UNL     1       2.511   0.726   0.197  0.00  0.00    -0.006 C 
ATOM     15  C   UNL     1       2.932  -0.441  -0.485  0.00  0.00    +0.044 C 
ATOM     16  C   UNL     1       3.416   1.560   0.831  0.00  0.00    -0.003 C 
ATOM     17  C   UNL     1       2.070  -2.074  -2.143  0.00  0.00    +0.112 C 
ATOM     18  C   UNL     1       4.276  -0.780  -0.514  0.00  0.00    +0.014 C 
ATOM     19  C   UNL     1       4.769   1.221   0.784  0.00  0.00    -0.000 C 
ATOM     20  C   UNL     1       5.195   0.060   0.121  0.00  0.00    +0.001 C 
ENDROOT
BRANCH  10  21
ATOM     21  O   UNL     1       0.534   2.988   1.080  0.00  0.00    -0.384 OA
ATOM     22  H   UNL     1      -0.014   3.784   0.999  0.00  0.00    +0.210 HD
ENDBRANCH  10  21
BRANCH  12  23
ATOM     23  O   UNL     1      -3.453  -1.768  -1.245  0.00  0.00    -0.404 OA
ATOM     24  H   UNL     1      -3.174  -2.682  -1.076  0.00  0.00    +0.208 HD
ENDBRANCH  12  23
BRANCH  13  25
ATOM     25  C   UNL     1      -4.262   1.115   0.607  0.00  0.00    +0.000 C 
ATOM     26  C   UNL     1      -4.736   2.514   0.272  0.00  0.00    +0.000 C 
ENDBRANCH  13  25
BRANCH   1  27
ATOM     27  C   UNL     1      -0.991  -2.337   0.409  0.00  0.00    -0.069 C 
BRANCH  27  28
ATOM     28  C   UNL     1      -1.308  -2.501   1.887  0.00  0.00    -0.022 C 
ATOM     29  C   UNL     1      -0.900  -3.877   2.388  0.00  0.00    -0.002 C 
ENDBRANCH  27  28
ENDBRANCH   1  27
TORSDOF 5
