REMARK  Name = 10444661
REMARK  3 active torsions:
REMARK  status: ('A' for Active; 'I' for Inactive)
REMARK    1  A    between atoms: O_1  and  C_6
REMARK    2  A    between atoms: O_1  and  C_12
REMARK    3  A    between atoms: C_12  and  C_14
REMARK                            x       y       z     vdW  Elec       q    Type
REMARK                         _______ _______ _______ _____ _____    ______ ____
ROOT
ATOM      1  O   UNL     1       0.026  -0.305  -0.843  0.00  0.00    -0.449 OA
ENDROOT
BRANCH   1   6
ATOM      2  C   UNL     1       2.382   0.998   0.770  0.00  0.00    +0.003 C 
ATOM      3  C   UNL     1       3.296  -0.249   0.776  0.00  0.00    +0.000 C 
ATOM      4  C   UNL     1       2.662  -1.477   0.104  0.00  0.00    +0.004 C 
ATOM      5  C   UNL     1       1.869   1.277  -0.665  0.00  0.00    +0.044 C 
ATOM      6  C   UNL     1       1.289   0.059  -1.391  0.00  0.00    +0.169 C 
ATOM      7  C   UNL     1       2.226  -1.146  -1.330  0.00  0.00    +0.044 C 
ATOM      8  C   UNL     1       3.205   2.216   1.240  0.00  0.00    +0.000 C 
ATOM      9  C   UNL     1       1.217   0.822   1.762  0.00  0.00    +0.000 C 
ATOM     10  C   UNL     1       3.643  -2.651   0.104  0.00  0.00    +0.000 C 
ENDBRANCH   1   6
BRANCH   1  12
ATOM     11  O   UNL     1      -0.811   1.785  -1.325  0.00  0.00    -0.245 OA
ATOM     12  C   UNL     1      -0.937   0.656  -0.875  0.00  0.00    +0.343 C 
BRANCH  12  14
ATOM     13  N   UNL     1      -3.381  -1.643   0.766  0.00  0.00    -0.242 NA
ATOM     14  C   UNL     1      -2.199   0.154  -0.276  0.00  0.00    +0.095 C 
ATOM     15  C   UNL     1      -3.299   0.975  -0.209  0.00  0.00    +0.010 C 
ATOM     16  C   UNL     1      -2.264  -1.125   0.209  0.00  0.00    +0.105 C 
ATOM     17  C   UNL     1      -4.467   0.478   0.357  0.00  0.00    +0.021 C 
ATOM     18  C   UNL     1      -4.457  -0.826   0.826  0.00  0.00    +0.099 C 
ENDBRANCH  12  14
ENDBRANCH   1  12
TORSDOF 3
