REMARK  Name = 7902
REMARK  3 active torsions:
REMARK  status: ('A' for Active; 'I' for Inactive)
REMARK    1  A    between atoms: N_1  and  C_5
REMARK    2  A    between atoms: C_5  and  C_6
REMARK    3  A    between atoms: C_6  and  O_7
REMARK                            x       y       z     vdW  Elec       q    Type
REMARK                         _______ _______ _______ _____ _____    ______ ____
ROOT
ATOM      1  N   UNL     1      -1.006   0.011  -0.318  0.00  0.00    +0.386 N 
ATOM      2  C   UNL     1      -2.107   0.892   0.072  0.00  0.00    -0.101 C 
ATOM      3  C   UNL     1      -1.219  -1.336   0.210  0.00  0.00    -0.101 C 
ATOM      4  H   UNL     1      -0.980  -0.042  -1.336  0.00  0.00    -0.080 HD
ENDROOT
BRANCH   1   5
ATOM      5  C   UNL     1       0.270   0.548   0.151  0.00  0.00    -0.045 C 
BRANCH   5   6
ATOM      6  C   UNL     1       1.422  -0.342  -0.289  0.00  0.00    +0.115 C 
BRANCH   6   7
ATOM      7  O   UNL     1       2.640   0.227   0.173  0.00  0.00    -0.384 OA
ATOM      8  H   UNL     1       3.383  -0.334  -0.102  0.00  0.00    +0.210 HD
ENDBRANCH   6   7
ENDBRANCH   5   6
ENDBRANCH   1   5
TORSDOF 3
