REMARK  Name = 102669
REMARK  6 active torsions:
REMARK  status: ('A' for Active; 'I' for Inactive)
REMARK    1  A    between atoms: C_4  and  C_10
REMARK    2  A    between atoms: C_4  and  C_16
REMARK    3  A    between atoms: C_16  and  C_17
REMARK    4  A    between atoms: C_17  and  N_18
REMARK    5  A    between atoms: N_18  and  C_20
REMARK    6  A    between atoms: N_18  and  C_22
REMARK                            x       y       z     vdW  Elec       q    Type
REMARK                         _______ _______ _______ _____ _____    ______ ____
ROOT
ATOM      1  O   UNL     1       0.216   0.585   2.160  0.00  0.00    -0.274 OA
ATOM      2  O   UNL     1      -2.303   3.846   0.124  0.00  0.00    -0.275 OA
ATOM      3  N   UNL     1      -1.029   2.189   1.092  0.00  0.00    -0.255 N 
ATOM      4  C   UNL     1      -0.401   0.126  -0.148  0.00  0.00    +0.086 C 
ATOM      5  C   UNL     1      -0.447   1.099  -1.348  0.00  0.00    +0.022 C 
ATOM      6  C   UNL     1      -0.347   0.973   1.135  0.00  0.00    +0.231 C 
ATOM      7  C   UNL     1      -1.659   2.015  -1.273  0.00  0.00    +0.086 C 
ATOM      8  C   UNL     1      -1.690   2.783   0.024  0.00  0.00    +0.228 C 
ATOM      9  H   UNL     1      -1.043   2.696   1.935  0.00  0.00    +0.158 HD
ENDROOT
BRANCH   4  10
ATOM     10  C   UNL     1      -1.578  -0.865  -0.159  0.00  0.00    -0.015 C 
ATOM     11  C   UNL     1      -2.448  -0.914   0.926  0.00  0.00    -0.004 C 
ATOM     12  C   UNL     1      -1.763  -1.704  -1.252  0.00  0.00    -0.004 C 
ATOM     13  C   UNL     1      -3.515  -1.813   0.916  0.00  0.00    -0.000 C 
ATOM     14  C   UNL     1      -2.830  -2.603  -1.262  0.00  0.00    -0.000 C 
ATOM     15  C   UNL     1      -3.706  -2.657  -0.178  0.00  0.00    -0.000 C 
ENDBRANCH   4  10
BRANCH   4  16
ATOM     16  C   UNL     1       0.919  -0.677  -0.220  0.00  0.00    -0.010 C 
BRANCH  16  17
ATOM     17  C   UNL     1       2.124   0.252  -0.172  0.00  0.00    -0.077 C 
BRANCH  17  18
ATOM     18  N   UNL     1       3.354  -0.526  -0.260  0.00  0.00    +0.387 N 
ATOM     19  H   UNL     1       3.335  -1.054  -1.132  0.00  0.00    -0.080 HD
BRANCH  18  20
ATOM     20  C   UNL     1       3.446  -1.472   0.854  0.00  0.00    -0.077 C 
ATOM     21  C   UNL     1       4.690  -2.336   0.740  0.00  0.00    -0.025 C 
ENDBRANCH  18  20
BRANCH  18  22
ATOM     22  C   UNL     1       4.522   0.355  -0.275  0.00  0.00    -0.077 C 
ATOM     23  C   UNL     1       4.447   1.346  -1.424  0.00  0.00    -0.025 C 
ENDBRANCH  18  22
ENDBRANCH  17  18
ENDBRANCH  16  17
ENDBRANCH   4  16
TORSDOF 6
