REMARK  Name = 2292
REMARK  8 active torsions:
REMARK  status: ('A' for Active; 'I' for Inactive)
REMARK    1  A    between atoms: C_1  and  C_2
REMARK    2  A    between atoms: C_1  and  O_10
REMARK    3  A    between atoms: C_1  and  C_12
REMARK    4  A    between atoms: C_7  and  O_8
REMARK    5  A    between atoms: C_12  and  N_13
REMARK    6  A    between atoms: N_13  and  C_16
REMARK    7  A    between atoms: C_16  and  C_17
REMARK    8  A    between atoms: C_17  and  C_18
REMARK                            x       y       z     vdW  Elec       q    Type
REMARK                         _______ _______ _______ _____ _____    ______ ____
ROOT
ATOM      1  C   UNL     1       0.257  -1.045   0.000  0.00  0.00    +0.112 C 
ENDROOT
BRANCH   1   2
ATOM      2  C   UNL     1       1.653  -0.463  -0.036  0.00  0.00    +0.002 C 
ATOM      3  C   UNL     1       2.533  -0.877  -1.020  0.00  0.00    +0.001 C 
ATOM      4  C   UNL     1       2.020   0.472   0.917  0.00  0.00    +0.001 C 
ATOM      5  C   UNL     1       3.820  -0.341  -1.054  0.00  0.00    +0.036 C 
ATOM      6  C   UNL     1       3.307   1.009   0.884  0.00  0.00    +0.036 C 
ATOM      7  C   UNL     1       4.207   0.602  -0.101  0.00  0.00    +0.134 C 
BRANCH   7   8
ATOM      8  O   UNL     1       5.463   1.126  -0.134  0.00  0.00    -0.506 OA
ATOM      9  H   UNL     1       6.067   0.853  -0.796  0.00  0.00    +0.292 HD
ENDBRANCH   7   8
ENDBRANCH   1   2
BRANCH   1  10
ATOM     10  O   UNL     1       0.109  -1.774   1.218  0.00  0.00    -0.382 OA
ATOM     11  H   UNL     1      -0.781  -2.156   1.260  0.00  0.00    +0.211 HD
ENDBRANCH   1  10
BRANCH   1  12
ATOM     12  C   UNL     1      -0.811   0.051  -0.097  0.00  0.00    -0.047 C 
BRANCH  12  13
ATOM     13  N   UNL     1      -2.148  -0.525  -0.061  0.00  0.00    +0.386 N 
ATOM     14  H   UNL     1      -2.263  -1.050   0.805  0.00  0.00    -0.084 HD
ATOM     15  H   UNL     1      -2.260  -1.139  -0.868  0.00  0.00    -0.084 HD
BRANCH  13  16
ATOM     16  C   UNL     1      -3.165   0.518  -0.125  0.00  0.00    -0.082 C 
BRANCH  16  17
ATOM     17  C   UNL     1      -4.562  -0.100  -0.098  0.00  0.00    -0.023 C 
BRANCH  17  18
ATOM     18  C   UNL     1      -5.645   0.978  -0.142  0.00  0.00    -0.002 C 
ATOM     19  C   UNL     1      -7.038   0.370  -0.151  0.00  0.00    -0.000 C 
ENDBRANCH  17  18
ENDBRANCH  16  17
ENDBRANCH  13  16
ENDBRANCH  12  13
ENDBRANCH   1  12
TORSDOF 8
