REMARK  Name = 42884
REMARK  5 active torsions:
REMARK  status: ('A' for Active; 'I' for Inactive)
REMARK    1  A    between atoms: N_2  and  C_5
REMARK    2  A    between atoms: N_2  and  C_12
REMARK    3  A    between atoms: C_3  and  C_21
REMARK    4  A    between atoms: N_11  and  C_18
REMARK    5  A    between atoms: C_21  and  C_22
REMARK                            x       y       z     vdW  Elec       q    Type
REMARK                         _______ _______ _______ _____ _____    ______ ____
ROOT
ATOM      1  O   UNL     1       1.480  -2.008  -0.263  0.00  0.00    -0.274 OA
ATOM      2  N   UNL     1      -0.001  -0.160  -0.295  0.00  0.00    -0.260 N 
ATOM      3  C   UNL     1       1.276  -0.793  -0.204  0.00  0.00    +0.234 C 
ENDROOT
BRANCH   2   5
ATOM      4 CL   UNL     1      -0.392   5.679   0.496  0.00  0.00    -0.082 Cl
ATOM      5  C   UNL     1      -0.098   1.285  -0.099  0.00  0.00    +0.054 C 
ATOM      6  C   UNL     1       0.029   2.080  -1.198  0.00  0.00    +0.016 C 
ATOM      7  C   UNL     1      -0.308   1.737   1.169  0.00  0.00    +0.016 C 
ATOM      8  C   UNL     1      -0.063   3.459  -1.011  0.00  0.00    +0.013 C 
ATOM      9  C   UNL     1      -0.401   3.116   1.357  0.00  0.00    +0.013 C 
ATOM     10  C   UNL     1      -0.278   3.978   0.266  0.00  0.00    +0.058 C 
ENDBRANCH   2   5
BRANCH   2  12
ATOM     11  N   UNL     1      -4.091  -1.192   0.070  0.00  0.00    +0.388 N 
ATOM     12  C   UNL     1      -1.231  -0.891  -0.469  0.00  0.00    +0.076 C 
ATOM     13  C   UNL     1      -2.288  -0.032  -1.163  0.00  0.00    -0.003 C 
ATOM     14  C   UNL     1      -1.760  -1.396   0.873  0.00  0.00    -0.003 C 
ATOM     15  C   UNL     1      -3.626  -0.766  -1.258  0.00  0.00    -0.076 C 
ATOM     16  C   UNL     1      -3.116  -2.084   0.713  0.00  0.00    -0.076 C 
ATOM     17  H   UNL     1      -4.187  -0.360   0.652  0.00  0.00    -0.080 HD
BRANCH  11  18
ATOM     18  C   UNL     1      -5.395  -1.847  -0.031  0.00  0.00    -0.058 C 
ATOM     19  C   UNL     1      -6.420  -0.895  -0.641  0.00  0.00    -0.023 C 
ATOM     20  C   UNL     1      -5.837  -2.315   1.353  0.00  0.00    -0.023 C 
ENDBRANCH  11  18
ENDBRANCH   2  12
BRANCH   3  21
ATOM     21  C   UNL     1       2.458   0.162  -0.068  0.00  0.00    +0.112 C 
BRANCH  21  22
ATOM     22  C   UNL     1       3.792  -0.542   0.002  0.00  0.00    -0.013 C 
ATOM     23  C   UNL     1       4.298  -0.915   1.237  0.00  0.00    -0.004 C 
ATOM     24  C   UNL     1       4.485  -0.803  -1.169  0.00  0.00    -0.004 C 
ATOM     25  C   UNL     1       5.530  -1.566   1.303  0.00  0.00    -0.000 C 
ATOM     26  C   UNL     1       5.717  -1.454  -1.103  0.00  0.00    -0.000 C 
ATOM     27  C   UNL     1       6.239  -1.835   0.133  0.00  0.00    -0.000 C 
ENDBRANCH  21  22
ENDBRANCH   3  21
TORSDOF 5
