REMARK  Name = 3084726
REMARK  9 active torsions:
REMARK  status: ('A' for Active; 'I' for Inactive)
REMARK    1  A    between atoms: N_3  and  C_21
REMARK    2  A    between atoms: C_5  and  C_9
REMARK    3  A    between atoms: C_5  and  C_15
REMARK    4  A    between atoms: C_21  and  C_22
REMARK    5  A    between atoms: C_22  and  C_23
REMARK    6  A    between atoms: C_23  and  CA_24
REMARK    7  A    between atoms: CA_24  and  N_25
REMARK    8  A    between atoms: CA_24  and  C_30
REMARK    9  A    between atoms: C_30  and  O_31
REMARK                            x       y       z     vdW  Elec       q    Type
REMARK                         _______ _______ _______ _____ _____    ______ ____
ROOT
ATOM      1  O   UNL     1      -0.368  -0.648   1.789  0.00  0.00    -0.272 OA
ATOM      2  O   UNL     1       0.810  -1.385  -2.589  0.00  0.00    -0.252 OA
ATOM      3  N   UNL     1       0.560  -1.156  -0.278  0.00  0.00    -0.212 N 
ATOM      4  N   UNL     1      -1.047  -0.385  -1.605  0.00  0.00    -0.277 N 
ATOM      5  C   UNL     1      -1.562  -0.057  -0.278  0.00  0.00    +0.166 C 
ATOM      6  C   UNL     1      -0.403  -0.642   0.563  0.00  0.00    +0.256 C 
ATOM      7  C   UNL     1       0.192  -1.022  -1.597  0.00  0.00    +0.310 C 
ATOM      8  H   UNL     1      -1.534  -0.174  -2.434  0.00  0.00    +0.152 HD
ENDROOT
BRANCH   5   9
ATOM      9  C   UNL     1      -2.852  -0.807   0.077  0.00  0.00    +0.006 C 
ATOM     10  C   UNL     1      -3.427  -0.654   1.341  0.00  0.00    -0.002 C 
ATOM     11  C   UNL     1      -3.457  -1.646  -0.862  0.00  0.00    -0.002 C 
ATOM     12  C   UNL     1      -4.600  -1.337   1.664  0.00  0.00    -0.000 C 
ATOM     13  C   UNL     1      -4.630  -2.328  -0.539  0.00  0.00    -0.000 C 
ATOM     14  C   UNL     1      -5.201  -2.174   0.724  0.00  0.00    -0.000 C 
ENDBRANCH   5   9
BRANCH   5  15
ATOM     15  C   UNL     1      -1.705   1.466  -0.189  0.00  0.00    +0.006 C 
ATOM     16  C   UNL     1      -2.641   2.131  -0.984  0.00  0.00    -0.002 C 
ATOM     17  C   UNL     1      -0.899   2.196   0.688  0.00  0.00    -0.002 C 
ATOM     18  C   UNL     1      -2.771   3.517  -0.903  0.00  0.00    -0.000 C 
ATOM     19  C   UNL     1      -1.029   3.583   0.769  0.00  0.00    -0.000 C 
ATOM     20  C   UNL     1      -1.965   4.243  -0.026  0.00  0.00    -0.000 C 
ENDBRANCH   5  15
BRANCH   3  21
ATOM     21  C   UNL     1       1.786  -1.778   0.181  0.00  0.00    +0.102 C 
BRANCH  21  22
ATOM     22  C   UNL     1       2.922  -0.774   0.363  0.00  0.00    +0.020 C 
BRANCH  22  23
ATOM     23  C   UNL     1       4.224  -1.444   0.830  0.00  0.00    -0.009 C 
BRANCH  23  24
ATOM     24  CA  UNL     1       5.417  -0.487   0.975  0.00  0.00    +0.036 C 
BRANCH  24  25
ATOM     25  N   UNL     1       5.179   0.515   2.013  0.00  0.00    +0.389 N 
ATOM     26  H1  UNL     1       4.971   0.048   2.896  0.00  0.00    -0.088 HD
ATOM     27  H2  UNL     1       4.390   1.102   1.745  0.00  0.00    -0.088 HD
ATOM     28  H3  UNL     1       6.012   1.095   2.124  0.00  0.00    -0.088 HD
ENDBRANCH  24  25
BRANCH  24  30
ATOM     29  OXT UNL     1       5.696   1.453  -0.481  0.00  0.00    -0.253 OA
ATOM     30  C   UNL     1       5.724   0.240  -0.322  0.00  0.00    +0.293 C 
BRANCH  30  31
ATOM     31  O   UNL     1       6.044  -0.623  -1.323  0.00  0.00    -0.482 OA
ATOM     32  H   UNL     1       6.054  -1.545  -1.161  0.00  0.00    +0.295 HD
ENDBRANCH  30  31
ENDBRANCH  24  30
ENDBRANCH  23  24
ENDBRANCH  22  23
ENDBRANCH  21  22
ENDBRANCH   3  21
TORSDOF 9
