REMARK  Name = 10610
REMARK  7 active torsions:
REMARK  status: ('A' for Active; 'I' for Inactive)
REMARK    1  A    between atoms: C_10  and  O_17
REMARK    2  A    between atoms: O_17  and  C_18
REMARK    3  A    between atoms: C_18  and  C_19
REMARK    4  A    between atoms: C_19  and  O_20
REMARK    5  A    between atoms: O_20  and  C_21
REMARK    6  A    between atoms: C_21  and  C_22
REMARK    7  A    between atoms: C_22  and  N_23
REMARK                            x       y       z     vdW  Elec       q    Type
REMARK                         _______ _______ _______ _____ _____    ______ ____
ROOT
ATOM      1  S   UNL     1       3.495  -1.839   1.182  0.00  0.00    -0.084 S 
ATOM      2  O   UNL     1       1.310   2.742   0.190  0.00  0.00    -0.225 OA
ATOM      3  N   UNL     1       1.668   0.416   0.026  0.00  0.00    -0.203 N 
ATOM      4  C   UNL     1       3.083   0.510  -0.261  0.00  0.00    +0.067 C 
ATOM      5  C   UNL     1       1.108  -0.915   0.090  0.00  0.00    +0.067 C 
ATOM      6  C   UNL     1       3.999  -0.458   0.186  0.00  0.00    +0.044 C 
ATOM      7  C   UNL     1       1.838  -2.014   0.572  0.00  0.00    +0.044 C 
ATOM      8  C   UNL     1       3.590   1.581  -1.023  0.00  0.00    +0.016 C 
ATOM      9  C   UNL     1      -0.194  -1.159  -0.391  0.00  0.00    +0.016 C 
ATOM     10  C   UNL     1       0.890   1.587   0.232  0.00  0.00    +0.413 C 
ATOM     11  C   UNL     1       5.370  -0.333  -0.096  0.00  0.00    +0.008 C 
ATOM     12  C   UNL     1       1.258  -3.292   0.621  0.00  0.00    +0.008 C 
ATOM     13  C   UNL     1       4.954   1.697  -1.308  0.00  0.00    +0.001 C 
ATOM     14  C   UNL     1      -0.764  -2.433  -0.349  0.00  0.00    +0.001 C 
ATOM     15  C   UNL     1       5.845   0.743  -0.840  0.00  0.00    +0.001 C 
ATOM     16  C   UNL     1      -0.040  -3.500   0.165  0.00  0.00    +0.001 C 
ENDROOT
BRANCH  10  17
ATOM     17  O   UNL     1      -0.404   1.317   0.609  0.00  0.00    -0.431 OA
BRANCH  17  18
ATOM     18  C   UNL     1      -1.223   2.445   0.945  0.00  0.00    +0.242 C 
BRANCH  18  19
ATOM     19  C   UNL     1      -2.605   1.955   1.332  0.00  0.00    +0.189 C 
BRANCH  19  20
ATOM     20  O   UNL     1      -3.182   1.271   0.226  0.00  0.00    -0.352 OA
BRANCH  20  21
ATOM     21  C   UNL     1      -4.473   0.770   0.540  0.00  0.00    +0.120 C 
BRANCH  21  22
ATOM     22  C   UNL     1      -5.030   0.054  -0.680  0.00  0.00    -0.045 C 
BRANCH  22  23
ATOM     23  N   UNL     1      -6.348  -0.493  -0.398  0.00  0.00    +0.386 N 
ATOM     24  C   UNL     1      -7.278   0.570  -0.010  0.00  0.00    -0.101 C 
ATOM     25  C   UNL     1      -6.867  -1.219  -1.560  0.00  0.00    -0.101 C 
ATOM     26  H   UNL     1      -6.259  -1.147   0.380  0.00  0.00    -0.080 HD
ENDBRANCH  22  23
ENDBRANCH  21  22
ENDBRANCH  20  21
ENDBRANCH  19  20
ENDBRANCH  18  19
ENDBRANCH  17  18
ENDBRANCH  10  17
TORSDOF 7
