REMARK  Name = 5775429
REMARK  2 active torsions:
REMARK  status: ('A' for Active; 'I' for Inactive)
REMARK    1  A    between atoms: N_2  and  C_7
REMARK    2  A    between atoms: N_2  and  N_14
REMARK                            x       y       z     vdW  Elec       q    Type
REMARK                         _______ _______ _______ _____ _____    ______ ____
ROOT
ATOM      1  O   UNL     1      -0.189  -2.228   0.199  0.00  0.00    -0.285 OA
ATOM      2  C   UNL     1      -1.776  -0.478   0.025  0.00  0.00    +0.037 C 
ATOM      3  C   UNL     1      -1.944   0.911  -0.031  0.00  0.00    -0.015 C 
ATOM      4  C   UNL     1      -0.413  -1.029   0.145  0.00  0.00    +0.211 C 
ATOM      5  C   UNL     1      -0.793   1.815   0.026  0.00  0.00    +0.054 C 
ATOM      6  C   UNL     1       0.748  -0.073   0.202  0.00  0.00    +0.122 C 
ATOM      7  C   UNL     1      -2.877  -1.338  -0.029  0.00  0.00    +0.003 C 
ATOM      8  C   UNL     1      -3.240   1.431  -0.145  0.00  0.00    -0.004 C 
ATOM      9  C   UNL     1       0.464   1.375   0.134  0.00  0.00    -0.000 C 
ATOM     10  C   UNL     1      -4.161  -0.806  -0.142  0.00  0.00    +0.000 C 
ATOM     11  C   UNL     1      -4.342   0.575  -0.200  0.00  0.00    -0.000 C 
ENDROOT
BRANCH   6  12
ATOM     12  N   UNL     1       1.932  -0.577   0.306  0.00  0.00    -0.144 NA
BRANCH  12  14
ATOM     13  O   UNL     1       4.468  -1.048  -0.651  0.00  0.00    -0.251 OA
ATOM     14  N   UNL     1       2.911   0.352   0.350  0.00  0.00    -0.200 N 
ATOM     15  N   UNL     1       5.051   1.086  -0.037  0.00  0.00    -0.312 N 
ATOM     16  C   UNL     1       4.162   0.034  -0.154  0.00  0.00    +0.315 C 
ATOM     17  H   UNL     1       2.739   1.242   0.735  0.00  0.00    +0.176 HD
ATOM     18  H   UNL     1       5.976   0.987  -0.359  0.00  0.00    +0.147 HD
ATOM     19  H   UNL     1       4.760   1.935   0.369  0.00  0.00    +0.147 HD
ENDBRANCH  12  14
ENDBRANCH   6  12
TORSDOF 2
