REMARK  Name = 34055
REMARK  6 active torsions:
REMARK  status: ('A' for Active; 'I' for Inactive)
REMARK    1  A    between atoms: C_1  and  C_2
REMARK    2  A    between atoms: C_1  and  C_8
REMARK    3  A    between atoms: C_1  and  C_14
REMARK    4  A    between atoms: C_14  and  C_15
REMARK    5  A    between atoms: C_15  and  N_17
REMARK    6  A    between atoms: N_17  and  C_20
REMARK                            x       y       z     vdW  Elec       q    Type
REMARK                         _______ _______ _______ _____ _____    ______ ____
ROOT
ATOM      1  C   UNL     1       0.525   0.144   0.526  0.00  0.00    +0.043 C 
ENDROOT
BRANCH   1   2
ATOM      2  C   UNL     1       1.021  -1.266   0.238  0.00  0.00    -0.019 C 
ATOM      3  C   UNL     1       1.830  -1.890   1.165  0.00  0.00    -0.004 C 
ATOM      4  C   UNL     1       0.646  -1.877  -0.941  0.00  0.00    -0.004 C 
ATOM      5  C   UNL     1       2.285  -3.182   0.902  0.00  0.00    -0.000 C 
ATOM      6  C   UNL     1       1.101  -3.169  -1.204  0.00  0.00    -0.000 C 
ATOM      7  C   UNL     1       1.920  -3.822  -0.282  0.00  0.00    -0.000 C 
ENDBRANCH   1   2
BRANCH   1   8
ATOM      8  C   UNL     1       1.591   1.185   0.187  0.00  0.00    -0.019 C 
ATOM      9  C   UNL     1       2.358   1.002  -0.942  0.00  0.00    -0.004 C 
ATOM     10  C   UNL     1       1.746   2.268   1.023  0.00  0.00    -0.004 C 
ATOM     11  C   UNL     1       3.331   1.952  -1.252  0.00  0.00    -0.000 C 
ATOM     12  C   UNL     1       2.720   3.219   0.713  0.00  0.00    -0.000 C 
ATOM     13  C   UNL     1       3.512   3.060  -0.424  0.00  0.00    -0.000 C 
ENDBRANCH   1   8
BRANCH   1  14
ATOM     14  C   UNL     1      -0.858   0.460  -0.108  0.00  0.00    -0.012 C 
BRANCH  14  15
ATOM     15  C   UNL     1      -2.024  -0.408   0.393  0.00  0.00    -0.054 C 
ATOM     16  C   UNL     1      -2.167  -0.324   1.909  0.00  0.00    -0.022 C 
BRANCH  15  17
ATOM     17  N   UNL     1      -3.304   0.055  -0.211  0.00  0.00    +0.388 N 
ATOM     18  C   UNL     1      -3.231  -0.004  -1.741  0.00  0.00    -0.096 C 
ATOM     19  C   UNL     1      -4.469  -0.829   0.249  0.00  0.00    -0.096 C 
BRANCH  17  20
ATOM     20  C   UNL     1      -3.605   1.500   0.201  0.00  0.00    -0.073 C 
ATOM     21  C   UNL     1      -4.926   1.926  -0.401  0.00  0.00    -0.024 C 
ENDBRANCH  17  20
ENDBRANCH  15  17
ENDBRANCH  14  15
ENDBRANCH   1  14
TORSDOF 6
