REMARK  Name = 5324
REMARK  4 active torsions:
REMARK  status: ('A' for Active; 'I' for Inactive)
REMARK    1  A    between atoms: S_1  and  N_4
REMARK    2  A    between atoms: S_1  and  C_12
REMARK    3  A    between atoms: N_4  and  C_7
REMARK    4  A    between atoms: C_15  and  N_18
REMARK                            x       y       z     vdW  Elec       q    Type
REMARK                         _______ _______ _______ _____ _____    ______ ____
ROOT
ATOM      1  S   UNL     1       1.066   0.772   0.009  0.00  0.00    +0.103 S 
ATOM      2  O   UNL     1       1.353   1.436   1.277  0.00  0.00    -0.146 OA
ATOM      3  O   UNL     1       1.306   1.484  -1.241  0.00  0.00    -0.146 OA
ENDROOT
BRANCH   1   4
ATOM      4  C   UNL     1      -0.625   0.339   0.005  0.00  0.00    +0.129 C 
ATOM      5  C   UNL     1      -1.302   0.180  -1.205  0.00  0.00    +0.022 C 
ATOM      6  C   UNL     1      -1.300   0.150   1.211  0.00  0.00    +0.022 C 
ATOM      7  C   UNL     1      -3.327  -0.355  -0.003  0.00  0.00    +0.042 C 
ATOM      8  C   UNL     1      -2.652  -0.166  -1.209  0.00  0.00    +0.015 C 
ATOM      9  C   UNL     1      -2.651  -0.197   1.207  0.00  0.00    +0.015 C 
BRANCH   7  10
ATOM     10  N   UNL     1      -4.693  -0.707  -0.006  0.00  0.00    -0.357 N 
ATOM     11  H   UNL     1      -5.171  -0.818  -0.860  0.00  0.00    +0.142 HD
ATOM     12  H   UNL     1      -5.169  -0.840   0.845  0.00  0.00    +0.142 HD
ENDBRANCH   7  10
ENDBRANCH   1   4
BRANCH   1  13
ATOM     13  N   UNL     1       1.845  -0.667  -0.010  0.00  0.00    -0.093 NA
BRANCH  13  16
ATOM     14  N   UNL     1       3.908  -1.900  -0.027  0.00  0.00    -0.369 N 
ATOM     15  N   UNL     1       3.924   0.382   0.003  0.00  0.00    -0.369 N 
ATOM     16  C   UNL     1       3.148  -0.752  -0.012  0.00  0.00    +0.212 C 
ATOM     17  H   UNL     1       3.469  -2.781  -0.038  0.00  0.00    +0.159 HD
ATOM     18  H   UNL     1       4.891  -1.840  -0.026  0.00  0.00    +0.159 HD
ATOM     19  H   UNL     1       3.498   1.270   0.014  0.00  0.00    +0.159 HD
ATOM     20  H   UNL     1       4.906   0.307   0.001  0.00  0.00    +0.159 HD
ENDBRANCH  13  16
ENDBRANCH   1  13
TORSDOF 4
