REMARK  Name = 92400
REMARK  9 active torsions:
REMARK  status: ('A' for Active; 'I' for Inactive)
REMARK    1  A    between atoms: C_3  and  C_9
REMARK    2  A    between atoms: C_4  and  S_24
REMARK    3  A    between atoms: C_7  and  C_12
REMARK    4  A    between atoms: C_9  and  O_10
REMARK    5  A    between atoms: C_12  and  C_14
REMARK    6  A    between atoms: C_14  and  S_15
REMARK    7  A    between atoms: S_15  and  C_17
REMARK    8  A    between atoms: C_17  and  C_18
REMARK    9  A    between atoms: S_24  and  C_25
REMARK                            x       y       z     vdW  Elec       q    Type
REMARK                         _______ _______ _______ _____ _____    ______ ____
ROOT
ATOM      1  O   UNL     1      -1.635   3.067   1.713  0.00  0.00    -0.275 OA
ATOM      2  N   UNL     1       0.077   2.159   0.453  0.00  0.00    -0.271 N 
ATOM      3  C   UNL     1       0.703   1.790  -0.813  0.00  0.00    +0.175 C 
ATOM      4  C   UNL     1       2.325   1.570   0.982  0.00  0.00    +0.074 C 
ATOM      5  C   UNL     1       2.205   1.801  -0.528  0.00  0.00    +0.044 C 
ATOM      6  C   UNL     1       1.054   2.205   1.536  0.00  0.00    +0.105 C 
ATOM      7  C   UNL     1      -1.220   2.608   0.646  0.00  0.00    +0.226 C 
ENDROOT
BRANCH   3   9
ATOM      8  O   UNL     1      -0.109  -0.459  -0.457  0.00  0.00    -0.248 OA
ATOM      9  C   UNL     1       0.240   0.425  -1.225  0.00  0.00    +0.332 C 
BRANCH   9  10
ATOM     10  O   UNL     1       0.264   0.298  -2.575  0.00  0.00    -0.479 OA
ATOM     11  H   UNL     1       0.543   1.017  -3.108  0.00  0.00    +0.295 HD
ENDBRANCH   9  10
ENDBRANCH   3   9
BRANCH   7  12
ATOM     12  C   UNL     1      -2.143   2.508  -0.542  0.00  0.00    +0.088 C 
ATOM     13  C   UNL     1      -1.972   3.780  -1.365  0.00  0.00    +0.010 C 
BRANCH  12  14
ATOM     14  C   UNL     1      -3.593   2.341  -0.093  0.00  0.00    +0.074 C 
BRANCH  14  15
ATOM     15  S   UNL     1      -3.821   0.846   0.921  0.00  0.00    -0.072 S 
BRANCH  15  17
ATOM     16  O   UNL     1      -4.316  -0.162  -1.459  0.00  0.00    -0.280 OA
ATOM     17  C   UNL     1      -3.868  -0.381  -0.341  0.00  0.00    +0.221 C 
BRANCH  17  18
ATOM     18  C   UNL     1      -3.371  -1.735   0.014  0.00  0.00    +0.045 C 
ATOM     19  C   UNL     1      -2.824  -2.557  -0.971  0.00  0.00    +0.004 C 
ATOM     20  C   UNL     1      -3.450  -2.184   1.332  0.00  0.00    +0.004 C 
ATOM     21  C   UNL     1      -2.356  -3.828  -0.639  0.00  0.00    +0.000 C 
ATOM     22  C   UNL     1      -2.982  -3.455   1.665  0.00  0.00    +0.000 C 
ATOM     23  C   UNL     1      -2.435  -4.277   0.679  0.00  0.00    +0.000 C 
ENDBRANCH  17  18
ENDBRANCH  15  17
ENDBRANCH  14  15
ENDBRANCH  12  14
ENDBRANCH   7  12
BRANCH   4  24
ATOM     24  S   UNL     1       2.426  -0.203   1.400  0.00  0.00    -0.113 S 
BRANCH  24  25
ATOM     25  C   UNL     1       3.947  -0.665   0.583  0.00  0.00    +0.025 C 
ATOM     26  C   UNL     1       5.145  -0.044   0.934  0.00  0.00    +0.006 C 
ATOM     27  C   UNL     1       3.936  -1.648  -0.407  0.00  0.00    +0.006 C 
ATOM     28  C   UNL     1       6.332  -0.404   0.296  0.00  0.00    +0.001 C 
ATOM     29  C   UNL     1       5.123  -2.009  -1.045  0.00  0.00    +0.001 C 
ATOM     30  C   UNL     1       6.321  -1.387  -0.693  0.00  0.00    +0.000 C 
ENDBRANCH  24  25
ENDBRANCH   4  24
TORSDOF 9
