REMARK  Name = 71819
REMARK  9 active torsions:
REMARK  status: ('A' for Active; 'I' for Inactive)
REMARK    1  A    between atoms: C_1  and  C_17
REMARK    2  A    between atoms: C_4  and  O_7
REMARK    3  A    between atoms: O_7  and  C_8
REMARK    4  A    between atoms: C_11  and  N_16
REMARK    5  A    between atoms: C_17  and  N_19
REMARK    6  A    between atoms: N_19  and  C_24
REMARK    7  A    between atoms: C_20  and  C_23
REMARK    8  A    between atoms: C_24  and  C_25
REMARK    9  A    between atoms: C_25  and  O_26
REMARK                            x       y       z     vdW  Elec       q    Type
REMARK                         _______ _______ _______ _____ _____    ______ ____
ROOT
ATOM      1  C   UNL     1      -1.525  -0.021   0.312  0.00  0.00    -0.002 C 
ATOM      2  C   UNL     1      -0.462  -0.543   1.038  0.00  0.00    +0.001 C 
ATOM      3  C   UNL     1      -1.407   0.211  -1.053  0.00  0.00    +0.001 C 
ATOM      4  C   UNL     1       0.866  -0.606  -0.979  0.00  0.00    +0.145 C 
ATOM      5  C   UNL     1       0.738  -0.836   0.391  0.00  0.00    +0.037 C 
ATOM      6  C   UNL     1      -0.207  -0.083  -1.701  0.00  0.00    +0.037 C 
ENDROOT
BRANCH   4   7
ATOM      7  O   UNL     1       2.037  -0.892  -1.612  0.00  0.00    -0.453 OA
BRANCH   7   8
ATOM      8  C   UNL     1       3.213  -0.494  -0.999  0.00  0.00    +0.145 C 
ATOM      9  C   UNL     1       3.297   0.778  -0.463  0.00  0.00    +0.039 C 
ATOM     10  C   UNL     1       4.273  -1.381  -0.936  0.00  0.00    +0.039 C 
ATOM     11  C   UNL     1       5.562   0.299   0.228  0.00  0.00    +0.143 C 
ATOM     12  C   UNL     1       4.482   1.178   0.155  0.00  0.00    +0.027 C 
ATOM     13  C   UNL     1       5.457  -0.981  -0.318  0.00  0.00    +0.027 C 
BRANCH  11  16
ATOM     14  O   UNL     1       6.842   1.862   1.339  0.00  0.00    -0.126 OA
ATOM     15  O   UNL     1       7.728  -0.100   0.911  0.00  0.00    -0.126 OA
ATOM     16  N   UNL     1       6.768   0.707   0.856  0.00  0.00    +0.058 N 
ENDBRANCH  11  16
ENDBRANCH   7   8
ENDBRANCH   4   7
BRANCH   1  17
ATOM     17  C   UNL     1      -2.817   0.294   1.009  0.00  0.00    +0.120 C 
BRANCH  17  19
ATOM     18  O   UNL     1      -5.966   0.199  -0.861  0.00  0.00    -0.272 OA
ATOM     19  N   UNL     1      -3.974  -0.180   0.256  0.00  0.00    -0.271 N 
ATOM     20  C   UNL     1      -5.001   0.638  -0.227  0.00  0.00    +0.256 C 
BRANCH  20  23
ATOM     21 CL   UNL     1      -5.718   2.988  -1.245  0.00  0.00    -0.087 Cl
ATOM     22 CL   UNL     1      -5.654   2.472   1.625  0.00  0.00    -0.087 Cl
ATOM     23  C   UNL     1      -4.885   2.124   0.059  0.00  0.00    +0.234 C 
ENDBRANCH  20  23
BRANCH  19  24
ATOM     24  C   UNL     1      -4.048  -1.622   0.057  0.00  0.00    +0.125 C 
BRANCH  24  25
ATOM     25  C   UNL     1      -4.760  -2.308   1.208  0.00  0.00    +0.159 C 
BRANCH  25  26
ATOM     26  O   UNL     1      -4.837  -3.704   0.951  0.00  0.00    -0.380 OA
ATOM     27  H   UNL     1      -5.292  -4.144   1.686  0.00  0.00    +0.211 HD
ENDBRANCH  25  26
ENDBRANCH  24  25
ENDBRANCH  19  24
ENDBRANCH  17  19
ENDBRANCH   1  17
TORSDOF 9
