REMARK  Name = 36920
REMARK  7 active torsions:
REMARK  status: ('A' for Active; 'I' for Inactive)
REMARK    1  A    between atoms: C_1  and  O_2
REMARK    2  A    between atoms: C_1  and  C_13
REMARK    3  A    between atoms: O_2  and  C_9
REMARK    4  A    between atoms: C_13  and  O_14
REMARK    5  A    between atoms: C_13  and  C_16
REMARK    6  A    between atoms: C_16  and  N_17
REMARK    7  A    between atoms: N_17  and  C_20
REMARK                            x       y       z     vdW  Elec       q    Type
REMARK                         _______ _______ _______ _____ _____    ______ ____
ROOT
ATOM      1  C   UNL     1       0.855   0.242   0.432  0.00  0.00    +0.232 C 
ENDROOT
BRANCH   1   2
ATOM      2  O   UNL     1      -0.377   0.065   1.126  0.00  0.00    -0.472 OA
BRANCH   2   9
ATOM      3  S   UNL     1      -2.544  -1.813   0.391  0.00  0.00    -0.111 S 
ATOM      4  C   UNL     1      -4.973  -0.025  -0.807  0.00  0.00    +0.028 C 
ATOM      5  C   UNL     1      -5.194  -1.425  -0.246  0.00  0.00    +0.017 C 
ATOM      6  C   UNL     1      -3.720   0.657  -0.319  0.00  0.00    -0.014 C 
ATOM      7  C   UNL     1      -2.610  -0.036   0.192  0.00  0.00    +0.055 C 
ATOM      8  C   UNL     1      -4.013  -2.332  -0.539  0.00  0.00    +0.063 C 
ATOM      9  C   UNL     1      -1.476   0.686   0.602  0.00  0.00    +0.144 C 
ATOM     10  C   UNL     1      -3.655   2.058  -0.435  0.00  0.00    -0.004 C 
ATOM     11  C   UNL     1      -1.433   2.076   0.491  0.00  0.00    +0.037 C 
ATOM     12  C   UNL     1      -2.522   2.763  -0.030  0.00  0.00    +0.003 C 
ENDBRANCH   2   9
ENDBRANCH   1   2
BRANCH   1  13
ATOM     13  C   UNL     1       1.728  -0.991   0.654  0.00  0.00    +0.133 C 
BRANCH  13  14
ATOM     14  O   UNL     1       1.022  -2.143   0.184  0.00  0.00    -0.383 OA
ATOM     15  H   UNL     1       1.566  -2.934   0.319  0.00  0.00    +0.210 HD
ENDBRANCH  13  14
BRANCH  13  16
ATOM     16  C   UNL     1       3.070  -0.922  -0.079  0.00  0.00    -0.048 C 
BRANCH  16  17
ATOM     17  N   UNL     1       3.889   0.191   0.382  0.00  0.00    +0.388 N 
ATOM     18  H   UNL     1       3.389   1.065   0.215  0.00  0.00    -0.084 HD
ATOM     19  H   UNL     1       4.071   0.070   1.379  0.00  0.00    -0.084 HD
BRANCH  17  20
ATOM     20  C   UNL     1       5.162   0.228  -0.323  0.00  0.00    -0.046 C 
ATOM     21  C   UNL     1       5.982   1.408   0.210  0.00  0.00    -0.022 C 
ATOM     22  C   UNL     1       5.903  -1.088  -0.061  0.00  0.00    -0.022 C 
ATOM     23  C   UNL     1       4.907   0.399  -1.825  0.00  0.00    -0.022 C 
ENDBRANCH  17  20
ENDBRANCH  16  17
ENDBRANCH  13  16
ENDBRANCH   1  13
TORSDOF 7
