REMARK  Name = 16639
REMARK  4 active torsions:
REMARK  status: ('A' for Active; 'I' for Inactive)
REMARK    1  A    between atoms: N_3  and  C_9
REMARK    2  A    between atoms: C_5  and  C_15
REMARK    3  A    between atoms: C_15  and  C_16
REMARK    4  A    between atoms: C_16  and  C_17
REMARK                            x       y       z     vdW  Elec       q    Type
REMARK                         _______ _______ _______ _____ _____    ______ ____
ROOT
ATOM      1  O   UNL     1       0.169  -0.470   2.159  0.00  0.00    -0.272 OA
ATOM      2  O   UNL     1       2.165   2.576  -0.875  0.00  0.00    -0.273 OA
ATOM      3  N   UNL     1      -0.517   0.616   0.178  0.00  0.00    -0.186 N 
ATOM      4  N   UNL     1       0.094   1.509  -0.692  0.00  0.00    -0.226 N 
ATOM      5  C   UNL     1       1.627   1.093   0.981  0.00  0.00    +0.156 C 
ATOM      6  C   UNL     1       0.358   0.294   1.225  0.00  0.00    +0.253 C 
ATOM      7  C   UNL     1       1.379   1.837  -0.305  0.00  0.00    +0.247 C 
ATOM      8  H   UNL     1      -0.342   1.870  -1.497  0.00  0.00    +0.173 HD
ENDROOT
BRANCH   3   9
ATOM      9  C   UNL     1      -1.793   0.114  -0.025  0.00  0.00    +0.073 C 
ATOM     10  C   UNL     1      -2.336  -0.818   0.866  0.00  0.00    +0.017 C 
ATOM     11  C   UNL     1      -2.550   0.533  -1.125  0.00  0.00    +0.017 C 
ATOM     12  C   UNL     1      -3.619  -1.325   0.661  0.00  0.00    +0.001 C 
ATOM     13  C   UNL     1      -3.834   0.026  -1.331  0.00  0.00    +0.001 C 
ATOM     14  C   UNL     1      -4.368  -0.902  -0.438  0.00  0.00    +0.000 C 
ENDBRANCH   3   9
BRANCH   5  15
ATOM     15  C   UNL     1       2.841   0.185   0.875  0.00  0.00    +0.018 C 
BRANCH  15  16
ATOM     16  C   UNL     1       2.683  -0.833  -0.254  0.00  0.00    +0.001 C 
BRANCH  16  17
ATOM     17  C   UNL     1       3.921  -1.722  -0.379  0.00  0.00    +0.000 C 
ATOM     18  C   UNL     1       3.781  -2.714  -1.523  0.00  0.00    +0.000 C 
ENDBRANCH  16  17
ENDBRANCH  15  16
ENDBRANCH   5  15
TORSDOF 4
