REMARK  Name = 93154
REMARK  1 active torsions:
REMARK  status: ('A' for Active; 'I' for Inactive)
REMARK    1  A    between atoms: N_1  and  C_18
REMARK                            x       y       z     vdW  Elec       q    Type
REMARK                         _______ _______ _______ _____ _____    ______ ____
ROOT
ATOM      1  N   UNL     1      -0.164  -0.014   0.411  0.00  0.00    -0.291 N 
ATOM      2  C   UNL     1       0.194   1.359   0.396  0.00  0.00    +0.047 C 
ATOM      3  C   UNL     1      -1.464  -0.584   0.323  0.00  0.00    +0.047 C 
ATOM      4  C   UNL     1      -0.272   2.232  -0.600  0.00  0.00    -0.008 C 
ATOM      5  C   UNL     1      -2.561   0.029  -0.331  0.00  0.00    -0.008 C 
ATOM      6  C   UNL     1      -1.176   1.727  -1.687  0.00  0.00    +0.032 C 
ATOM      7  C   UNL     1      -2.521   1.334  -1.099  0.00  0.00    +0.032 C 
ATOM      8  C   UNL     1       1.048   1.890   1.387  0.00  0.00    +0.015 C 
ATOM      9  C   UNL     1      -1.724  -1.826   0.962  0.00  0.00    +0.015 C 
ATOM     10  C   UNL     1       0.110   3.586  -0.594  0.00  0.00    -0.003 C 
ATOM     11  C   UNL     1      -3.836  -0.587  -0.292  0.00  0.00    -0.003 C 
ATOM     12  C   UNL     1       1.422   3.235   1.388  0.00  0.00    +0.001 C 
ATOM     13  C   UNL     1      -2.985  -2.428   0.972  0.00  0.00    +0.001 C 
ATOM     14  C   UNL     1       0.953   4.084   0.395  0.00  0.00    -0.000 C 
ATOM     15  C   UNL     1      -4.047  -1.803   0.347  0.00  0.00    -0.000 C 
ENDROOT
BRANCH   1  18
ATOM     16  N   UNL     1       1.962  -2.714  -0.713  0.00  0.00    +0.388 N 
ATOM     17  C   UNL     1       2.291  -0.310   0.227  0.00  0.00    +0.012 C 
ATOM     18  C   UNL     1       0.959  -0.919   0.707  0.00  0.00    +0.056 C 
ATOM     19  C   UNL     1       3.409  -1.250   0.710  0.00  0.00    -0.021 C 
ATOM     20  C   UNL     1       2.333  -0.318  -1.312  0.00  0.00    -0.021 C 
ATOM     21  C   UNL     1       0.753  -2.288   0.031  0.00  0.00    -0.057 C 
ATOM     22  C   UNL     1       3.130  -2.673   0.195  0.00  0.00    -0.077 C 
ATOM     23  C   UNL     1       2.187  -1.761  -1.822  0.00  0.00    -0.077 C 
ATOM     24  H   UNL     1       1.839  -3.660  -1.073  0.00  0.00    -0.080 HD
ENDBRANCH   1  18
TORSDOF 1
