REMARK  Name = 51712
REMARK  7 active torsions:
REMARK  status: ('A' for Active; 'I' for Inactive)
REMARK    1  A    between atoms: N_2  and  C_5
REMARK    2  A    between atoms: C_3  and  C_15
REMARK    3  A    between atoms: C_5  and  C_6
REMARK    4  A    between atoms: C_6  and  N_7
REMARK    5  A    between atoms: N_7  and  C_9
REMARK    6  A    between atoms: N_7  and  C_12
REMARK    7  A    between atoms: C_15  and  N_17
REMARK                            x       y       z     vdW  Elec       q    Type
REMARK                         _______ _______ _______ _____ _____    ______ ____
ROOT
ATOM      1  O   UNL     1      -1.340   0.209   1.098  0.00  0.00    -0.273 OA
ATOM      2  N   UNL     1      -0.056   1.169  -0.585  0.00  0.00    -0.305 N 
ATOM      3  C   UNL     1      -1.230   0.677  -0.033  0.00  0.00    +0.243 C 
ATOM      4  H   UNL     1      -0.083   1.521  -1.504  0.00  0.00    +0.149 HD
ENDROOT
BRANCH   2   5
ATOM      5  C   UNL     1       1.205   1.188   0.120  0.00  0.00    +0.067 C 
BRANCH   5   6
ATOM      6  C   UNL     1       1.989  -0.095  -0.115  0.00  0.00    -0.056 C 
BRANCH   6   7
ATOM      7  N   UNL     1       3.268  -0.042   0.581  0.00  0.00    +0.391 N 
ATOM      8  H   UNL     1       3.082   0.091   1.575  0.00  0.00    -0.079 HD
BRANCH   7   9
ATOM      9  C   UNL     1       4.002  -1.297   0.408  0.00  0.00    -0.058 C 
ATOM     10  C   UNL     1       4.268  -1.554  -1.072  0.00  0.00    -0.023 C 
ATOM     11  C   UNL     1       3.206  -2.441   1.029  0.00  0.00    -0.023 C 
ENDBRANCH   7   9
BRANCH   7  12
ATOM     12  C   UNL     1       4.070   1.085   0.102  0.00  0.00    -0.058 C 
ATOM     13  C   UNL     1       4.340   0.945  -1.393  0.00  0.00    -0.023 C 
ATOM     14  C   UNL     1       5.375   1.151   0.890  0.00  0.00    -0.023 C 
ENDBRANCH   7  12
ENDBRANCH   6   7
ENDBRANCH   5   6
ENDBRANCH   2   5
BRANCH   3  15
ATOM     15  C   UNL     1      -2.399   0.836  -0.981  0.00  0.00    +0.179 C 
BRANCH  15  17
ATOM     16  O   UNL     1      -3.650  -1.887  -1.045  0.00  0.00    -0.275 OA
ATOM     17  N   UNL     1      -3.608   0.360  -0.344  0.00  0.00    -0.271 N 
ATOM     18  C   UNL     1      -4.361   1.191   0.564  0.00  0.00    +0.094 C 
ATOM     19  C   UNL     1      -5.679   0.454   0.693  0.00  0.00    +0.031 C 
ATOM     20  C   UNL     1      -5.299  -1.010   0.500  0.00  0.00    +0.087 C 
ATOM     21  C   UNL     1      -4.099  -0.941  -0.416  0.00  0.00    +0.226 C 
ENDBRANCH  15  17
ENDBRANCH   3  15
TORSDOF 7
