REMARK  Name = 9862937
REMARK  6 active torsions:
REMARK  status: ('A' for Active; 'I' for Inactive)
REMARK    1  A    between atoms: C_3  and  S_12
REMARK    2  A    between atoms: C_8  and  O_22
REMARK    3  A    between atoms: S_12  and  C_13
REMARK    4  A    between atoms: C_13  and  C_14
REMARK    5  A    between atoms: C_14  and  N_16
REMARK    6  A    between atoms: O_22  and  C_23
REMARK                            x       y       z     vdW  Elec       q    Type
REMARK                         _______ _______ _______ _____ _____    ______ ____
ROOT
ATOM      1  N   UNL     1       1.603  -1.587  -0.372  0.00  0.00    -0.309 N 
ATOM      2  N   UNL     1       0.454   0.258   0.093  0.00  0.00    -0.309 N 
ATOM      3  C   UNL     1       0.409  -1.004  -0.163  0.00  0.00    +0.195 C 
ATOM      4  C   UNL     1       2.541  -0.595  -0.240  0.00  0.00    +0.063 C 
ATOM      5  C   UNL     1       1.799   0.546   0.051  0.00  0.00    +0.060 C 
ATOM      6  C   UNL     1       3.932  -0.599  -0.345  0.00  0.00    +0.052 C 
ATOM      7  C   UNL     1       2.468   1.766   0.250  0.00  0.00    +0.019 C 
ATOM      8  C   UNL     1       4.582   0.623  -0.144  0.00  0.00    +0.140 C 
ATOM      9  C   UNL     1       3.865   1.786   0.149  0.00  0.00    +0.038 C 
ATOM     10  H   UNL     1       1.770  -2.535  -0.580  0.00  0.00    +0.149 HD
ATOM     11  H   UNL     1      -0.295   0.870   0.275  0.00  0.00    +0.149 HD
ENDROOT
BRANCH   3  12
ATOM     12  S   UNL     1      -1.054  -1.990  -0.255  0.00  0.00    -0.104 S 
BRANCH  12  13
ATOM     13  C   UNL     1      -2.305  -0.722   0.100  0.00  0.00    +0.038 C 
BRANCH  13  14
ATOM     14  C   UNL     1      -3.700  -1.334   0.079  0.00  0.00    -0.065 C 
BRANCH  14  16
ATOM     15  O   UNL     1      -7.019   1.209  -0.284  0.00  0.00    -0.358 OA
ATOM     16  N   UNL     1      -4.698  -0.305   0.365  0.00  0.00    +0.391 N 
ATOM     17  C   UNL     1      -6.043  -0.890   0.442  0.00  0.00    -0.045 C 
ATOM     18  C   UNL     1      -4.666   0.751  -0.657  0.00  0.00    -0.045 C 
ATOM     19  C   UNL     1      -7.068   0.204   0.729  0.00  0.00    +0.119 C 
ATOM     20  C   UNL     1      -5.723   1.806  -0.344  0.00  0.00    +0.119 C 
ATOM     21  H   UNL     1      -4.470   0.110   1.268  0.00  0.00    -0.079 HD
ENDBRANCH  14  16
ENDBRANCH  13  14
ENDBRANCH  12  13
ENDBRANCH   3  12
BRANCH   8  22
ATOM     22  O   UNL     1       5.942   0.679  -0.233  0.00  0.00    -0.475 OA
BRANCH  22  23
ATOM     23  C   UNL     1       6.662  -0.499   0.121  0.00  0.00    +0.206 C 
ATOM     24  C   UNL     1       8.020  -0.104   0.660  0.00  0.00    +0.051 C 
ENDBRANCH  22  23
ENDBRANCH   8  22
TORSDOF 6
