REMARK  Name = 71339
REMARK  5 active torsions:
REMARK  status: ('A' for Active; 'I' for Inactive)
REMARK    1  A    between atoms: C_4  and  C_13
REMARK    2  A    between atoms: C_7  and  S_17
REMARK    3  A    between atoms: C_8  and  C_12
REMARK    4  A    between atoms: C_13  and  O_15
REMARK    5  A    between atoms: S_17  and  C_21
REMARK                            x       y       z     vdW  Elec       q    Type
REMARK                         _______ _______ _______ _____ _____    ______ ____
ROOT
ATOM      1  O   UNL     1      -3.612   2.096  -0.480  0.00  0.00    -0.274 OA
ATOM      2  N   UNL     1      -1.937   0.626   0.291  0.00  0.00    -0.254 N 
ATOM      3  C   UNL     1      -2.218  -0.822   0.319  0.00  0.00    +0.095 C 
ATOM      4  C   UNL     1      -3.667  -0.436  -0.122  0.00  0.00    +0.123 C 
ATOM      5  C   UNL     1      -1.085  -1.432  -0.529  0.00  0.00    +0.049 C 
ATOM      6  C   UNL     1      -3.166   1.026  -0.133  0.00  0.00    +0.233 C 
ATOM      7  C   UNL     1      -0.182  -0.236  -0.778  0.00  0.00    +0.025 C 
ATOM      8  C   UNL     1      -0.743   0.890  -0.317  0.00  0.00    +0.136 C 
ATOM      9  C   UNL     1      -1.557  -2.133  -1.792  0.00  0.00    +0.007 C 
ENDROOT
BRANCH   8  12
ATOM     10  O   UNL     1      -0.587   2.914  -1.495  0.00  0.00    -0.239 OA
ATOM     11  O   UNL     1       0.556   2.678   0.472  0.00  0.00    -0.239 OA
ATOM     12  C   UNL     1      -0.205   2.300  -0.461  0.00  0.00    +0.401 C 
ENDBRANCH   8  12
BRANCH   4  13
ATOM     13  C   UNL     1      -4.872  -0.676   0.752  0.00  0.00    +0.121 C 
ATOM     14  C   UNL     1      -5.301  -2.140   0.759  0.00  0.00    +0.032 C 
BRANCH  13  15
ATOM     15  O   UNL     1      -4.581  -0.281   2.094  0.00  0.00    -0.384 OA
ATOM     16  H   UNL     1      -4.306   0.649   2.105  0.00  0.00    +0.210 HD
ENDBRANCH  13  15
ENDBRANCH   4  13
BRANCH   7  17
ATOM     17  S   UNL     1       1.339  -0.369  -1.567  0.00  0.00    -0.114 S 
BRANCH  17  21
ATOM     18  N   UNL     1       4.386  -0.811  -0.129  0.00  0.00    -0.179 NA
ATOM     19  N   UNL     1       3.654  -0.285   0.942  0.00  0.00    -0.231 N 
ATOM     20  N   UNL     1       5.608   0.729   1.000  0.00  0.00    -0.233 NA
ATOM     21  C   UNL     1       2.201  -1.502  -0.414  0.00  0.00    +0.091 C 
ATOM     22  C   UNL     1       3.662  -1.752  -0.911  0.00  0.00    +0.107 C 
ATOM     23  C   UNL     1       2.321  -0.838   0.992  0.00  0.00    +0.123 C 
ATOM     24  C   UNL     1       5.584  -0.181  -0.088  0.00  0.00    +0.219 C 
ATOM     25  C   UNL     1       4.401   0.635   1.597  0.00  0.00    +0.175 C 
ENDBRANCH  17  21
ENDBRANCH   7  17
TORSDOF 5
