58521
  -OEChem-10061700183D

 60 63  0     0  0  0  0  0  0999 V2000
    0.4720   -0.4996   -1.3754 O   0  0  0  0  0  0  0  0  0  0  0  0
    1.1781   -0.8089    3.1530 O   0  0  0  0  0  0  0  0  0  0  0  0
   -2.1653    5.3331   -1.0383 O   0  0  0  0  0  0  0  0  0  0  0  0
   -5.4165   -3.5726   -0.4509 O   0  0  0  0  0  0  0  0  0  0  0  0
    4.8484   -0.5702    0.1964 N   0  0  0  0  0  0  0  0  0  0  0  0
    1.1743   -0.8034    0.8168 N   0  0  0  0  0  0  0  0  0  0  0  0
   -0.6673   -0.1698    1.8868 N   0  0  0  0  0  0  0  0  0  0  0  0
   -1.0648   -0.0348    0.4876 C   0  0  0  0  0  0  0  0  0  0  0  0
    4.9145   -1.3147   -1.0690 C   0  0  0  0  0  0  0  0  0  0  0  0
    5.8002    0.5496    0.2042 C   0  0  0  0  0  0  0  0  0  0  0  0
    3.4886   -0.0877    0.4357 C   0  0  0  0  0  0  0  0  0  0  0  0
    6.3194   -1.8686   -1.3107 C   0  0  0  0  0  0  0  0  0  0  0  0
    7.2343    0.0566    0.0042 C   0  0  0  0  0  0  0  0  0  0  0  0
    7.3660   -0.7606   -1.2757 C   0  0  0  0  0  0  0  0  0  0  0  0
    2.5244   -1.2591    0.5511 C   0  0  0  0  0  0  0  0  0  0  0  0
    0.2677   -0.4705   -0.1664 C   0  0  0  0  0  0  0  0  0  0  0  0
    0.6375   -0.6220    2.0708 C   0  0  0  0  0  0  0  0  0  0  0  0
   -1.3619    1.4125    0.0763 C   0  0  0  0  0  0  0  0  0  0  0  0
   -2.2374   -0.9877    0.2345 C   0  0  0  0  0  0  0  0  0  0  0  0
   -1.3110    2.4354    1.0258 C   0  0  0  0  0  0  0  0  0  0  0  0
   -2.0801   -2.0804   -0.6211 C   0  0  0  0  0  0  0  0  0  0  0  0
   -1.6836    1.7128   -1.2492 C   0  0  0  0  0  0  0  0  0  0  0  0
   -3.4670   -0.7677    0.8588 C   0  0  0  0  0  0  0  0  0  0  0  0
   -1.5804    3.7519    0.6519 C   0  0  0  0  0  0  0  0  0  0  0  0
   -3.1473   -2.9486   -0.8511 C   0  0  0  0  0  0  0  0  0  0  0  0
   -1.9529    3.0294   -1.6232 C   0  0  0  0  0  0  0  0  0  0  0  0
   -4.5342   -1.6360    0.6288 C   0  0  0  0  0  0  0  0  0  0  0  0
   -1.9013    4.0489   -0.6727 C   0  0  0  0  0  0  0  0  0  0  0  0
   -4.3744   -2.7265   -0.2262 C   0  0  0  0  0  0  0  0  0  0  0  0
   -2.0950    6.3266   -0.0167 C   0  0  0  0  0  0  0  0  0  0  0  0
   -5.1850   -4.6674   -1.3360 C   0  0  0  0  0  0  0  0  0  0  0  0
    4.6146   -0.6822   -1.9148 H   0  0  0  0  0  0  0  0  0  0  0  0
    4.2650   -2.1936   -1.0651 H   0  0  0  0  0  0  0  0  0  0  0  0
    5.5502    1.2801   -0.5766 H   0  0  0  0  0  0  0  0  0  0  0  0
    5.7515    1.0725    1.1670 H   0  0  0  0  0  0  0  0  0  0  0  0
    3.4585    0.4821    1.3736 H   0  0  0  0  0  0  0  0  0  0  0  0
    3.1626    0.5971   -0.3586 H   0  0  0  0  0  0  0  0  0  0  0  0
    6.5565   -2.6188   -0.5454 H   0  0  0  0  0  0  0  0  0  0  0  0
    6.3555   -2.3788   -2.2801 H   0  0  0  0  0  0  0  0  0  0  0  0
    7.5346   -0.5576    0.8626 H   0  0  0  0  0  0  0  0  0  0  0  0
    7.9182    0.9120   -0.0314 H   0  0  0  0  0  0  0  0  0  0  0  0
    8.3714   -1.1901   -1.3465 H   0  0  0  0  0  0  0  0  0  0  0  0
    7.2332   -0.1042   -2.1445 H   0  0  0  0  0  0  0  0  0  0  0  0
    2.4584   -1.8430   -0.3698 H   0  0  0  0  0  0  0  0  0  0  0  0
    2.8308   -1.9248    1.3666 H   0  0  0  0  0  0  0  0  0  0  0  0
   -1.2868    0.0309    2.6665 H   0  0  0  0  0  0  0  0  0  0  0  0
   -1.0659    2.2489    2.0668 H   0  0  0  0  0  0  0  0  0  0  0  0
   -1.1457   -2.3057   -1.1222 H   0  0  0  0  0  0  0  0  0  0  0  0
   -1.7353    0.9334   -2.0046 H   0  0  0  0  0  0  0  0  0  0  0  0
   -3.6099    0.0753    1.5297 H   0  0  0  0  0  0  0  0  0  0  0  0
   -1.5231    4.4951    1.4399 H   0  0  0  0  0  0  0  0  0  0  0  0
   -2.9546   -3.7771   -1.5243 H   0  0  0  0  0  0  0  0  0  0  0  0
   -2.2039    3.2545   -2.6561 H   0  0  0  0  0  0  0  0  0  0  0  0
   -5.4877   -1.4580    1.1187 H   0  0  0  0  0  0  0  0  0  0  0  0
   -1.0827    6.4118    0.3928 H   0  0  0  0  0  0  0  0  0  0  0  0
   -2.3329    7.2879   -0.4837 H   0  0  0  0  0  0  0  0  0  0  0  0
   -2.8451    6.1558    0.7629 H   0  0  0  0  0  0  0  0  0  0  0  0
   -6.1189   -5.2354   -1.3988 H   0  0  0  0  0  0  0  0  0  0  0  0
   -4.9513   -4.3231   -2.3492 H   0  0  0  0  0  0  0  0  0  0  0  0
   -4.4225   -5.3483   -0.9429 H   0  0  0  0  0  0  0  0  0  0  0  0
  1 16  2  0  0  0  0
  2 17  2  0  0  0  0
  3 28  1  0  0  0  0
  3 30  1  0  0  0  0
  4 29  1  0  0  0  0
  4 31  1  0  0  0  0
  5  9  1  0  0  0  0
  5 10  1  0  0  0  0
  5 11  1  0  0  0  0
  6 15  1  0  0  0  0
  6 16  1  0  0  0  0
  6 17  1  0  0  0  0
  7  8  1  0  0  0  0
  7 17  1  0  0  0  0
  7 46  1  0  0  0  0
  8 16  1  0  0  0  0
  8 18  1  0  0  0  0
  8 19  1  0  0  0  0
  9 12  1  0  0  0  0
  9 32  1  0  0  0  0
  9 33  1  0  0  0  0
 10 13  1  0  0  0  0
 10 34  1  0  0  0  0
 10 35  1  0  0  0  0
 11 15  1  0  0  0  0
 11 36  1  0  0  0  0
 11 37  1  0  0  0  0
 12 14  1  0  0  0  0
 12 38  1  0  0  0  0
 12 39  1  0  0  0  0
 13 14  1  0  0  0  0
 13 40  1  0  0  0  0
 13 41  1  0  0  0  0
 14 42  1  0  0  0  0
 14 43  1  0  0  0  0
 15 44  1  0  0  0  0
 15 45  1  0  0  0  0
 18 20  2  0  0  0  0
 18 22  1  0  0  0  0
 19 21  2  0  0  0  0
 19 23  1  0  0  0  0
 20 24  1  0  0  0  0
 20 47  1  0  0  0  0
 21 25  1  0  0  0  0
 21 48  1  0  0  0  0
 22 26  2  0  0  0  0
 22 49  1  0  0  0  0
 23 27  2  0  0  0  0
 23 50  1  0  0  0  0
 24 28  2  0  0  0  0
 24 51  1  0  0  0  0
 25 29  2  0  0  0  0
 25 52  1  0  0  0  0
 26 28  1  0  0  0  0
 26 53  1  0  0  0  0
 27 29  1  0  0  0  0
 27 54  1  0  0  0  0
 30 55  1  0  0  0  0
 30 56  1  0  0  0  0
 30 57  1  0  0  0  0
 31 58  1  0  0  0  0
 31 59  1  0  0  0  0
 31 60  1  0  0  0  0
M  END
> <DATABASE_ID>
DB13276

> <DATABASE_NAME>
drugbank

> <ORIGINAL_SOURCE>
PUBCHEM

> <ORIGINAL_SOURCE_URL>
https://pubchem.ncbi.nlm.nih.gov/rest/pug/compound/inchikey/HVYGXNYMNHSBGD-UHFFFAOYSA-N/SDF?record_type=3d

> <SMILES>
COC1=CC=C(C=C1)C1(NC(=O)N(CCN2CCCCC2)C1=O)C1=CC=C(OC)C=C1

> <INCHI_IDENTIFIER>
InChI=1S/C24H29N3O4/c1-30-20-10-6-18(7-11-20)24(19-8-12-21(31-2)13-9-19)22(28)27(23(29)25-24)17-16-26-14-4-3-5-15-26/h6-13H,3-5,14-17H2,1-2H3,(H,25,29)

> <INCHI_KEY>
HVYGXNYMNHSBGD-UHFFFAOYSA-N

> <FORMULA>
C24H29N3O4

> <MOLECULAR_WEIGHT>
423.513

> <EXACT_MASS>
423.215806426

> <JCHEM_ACCEPTOR_COUNT>
5

> <JCHEM_ATOM_COUNT>
60

> <JCHEM_AVERAGE_POLARIZABILITY>
46.50528044579498

> <JCHEM_BIOAVAILABILITY>
1

> <JCHEM_DONOR_COUNT>
1

> <JCHEM_FORMAL_CHARGE>
0

> <JCHEM_GHOSE_FILTER>
1

> <JCHEM_IUPAC>
5,5-bis(4-methoxyphenyl)-3-[2-(piperidin-1-yl)ethyl]imidazolidine-2,4-dione

> <ALOGPS_LOGP>
3.21

> <JCHEM_LOGP>
2.9252645689999994

> <ALOGPS_LOGS>
-4.07

> <JCHEM_MDDR_LIKE_RULE>
1

> <JCHEM_NUMBER_OF_RINGS>
4

> <JCHEM_PHYSIOLOGICAL_CHARGE>
1

> <JCHEM_PKA_STRONGEST_ACIDIC>
10.610463873599986

> <JCHEM_PKA_STRONGEST_BASIC>
8.30653938561875

> <JCHEM_POLAR_SURFACE_AREA>
71.11

> <JCHEM_REFRACTIVITY>
118.16649999999998

> <JCHEM_ROTATABLE_BOND_COUNT>
7

> <JCHEM_RULE_OF_FIVE>
1

> <ALOGPS_SOLUBILITY>
3.57e-02 g/l

> <JCHEM_TRADITIONAL_IUPAC>
idanpramine

> <JCHEM_VEBER_RULE>
0

> <DRUGBANK_ID>
DB13276

> <DRUG_GROUPS>
experimental

> <GENERIC_NAME>
Idanpramine

$$$$
