REMARK  Name = 3932
REMARK  5 active torsions:
REMARK  status: ('A' for Active; 'I' for Inactive)
REMARK    1  A    between atoms: N_2  and  C_11
REMARK    2  A    between atoms: C_3  and  C_17
REMARK    3  A    between atoms: C_3  and  C_24
REMARK    4  A    between atoms: C_17  and  C_19
REMARK    5  A    between atoms: C_24  and  C_26
REMARK                            x       y       z     vdW  Elec       q    Type
REMARK                         _______ _______ _______ _____ _____    ______ ____
ROOT
ATOM      1  O   UNL     1      -0.108  -0.528   2.295  0.00  0.00    -0.274 OA
ATOM      2  N   UNL     1       0.035  -0.711  -0.074  0.00  0.00    -0.237 N 
ATOM      3  C   UNL     1      -0.110   1.467   0.882  0.00  0.00    +0.098 C 
ATOM      4  C   UNL     1      -0.038   1.511  -0.622  0.00  0.00    +0.000 C 
ATOM      5  C   UNL     1      -0.081  -0.048   1.170  0.00  0.00    +0.237 C 
ATOM      6  C   UNL     1       0.032   0.214  -1.142  0.00  0.00    +0.055 C 
ATOM      7  C   UNL     1      -0.068   2.624  -1.452  0.00  0.00    -0.003 C 
ATOM      8  C   UNL     1       0.009   0.013  -2.515  0.00  0.00    +0.015 C 
ATOM      9  C   UNL     1      -0.050   2.425  -2.831  0.00  0.00    -0.000 C 
ATOM     10  C   UNL     1      -0.021   1.128  -3.358  0.00  0.00    +0.001 C 
ENDROOT
BRANCH   2  11
ATOM     11  C   UNL     1       0.147  -2.118  -0.224  0.00  0.00    +0.058 C 
ATOM     12  C   UNL     1       0.859  -2.658  -1.300  0.00  0.00    +0.015 C 
ATOM     13  C   UNL     1      -0.454  -2.977   0.702  0.00  0.00    +0.015 C 
ATOM     14  C   UNL     1       0.969  -4.041  -1.449  0.00  0.00    +0.001 C 
ATOM     15  C   UNL     1      -0.344  -4.360   0.554  0.00  0.00    +0.001 C 
ATOM     16  C   UNL     1       0.367  -4.892  -0.521  0.00  0.00    +0.000 C 
ENDBRANCH   2  11
BRANCH   3  17
ATOM     17  C   UNL     1      -1.416   2.061   1.411  0.00  0.00    +0.040 C 
BRANCH  17  19
ATOM     18  N   UNL     1      -4.820  -0.149   0.033  0.00  0.00    -0.242 NA
ATOM     19  C   UNL     1      -2.610   1.286   0.928  0.00  0.00    -0.018 C 
ATOM     20  C   UNL     1      -3.223   1.642  -0.261  0.00  0.00    +0.016 C 
ATOM     21  C   UNL     1      -3.086   0.222   1.676  0.00  0.00    +0.016 C 
ATOM     22  C   UNL     1      -4.320   0.896  -0.663  0.00  0.00    +0.099 C 
ATOM     23  C   UNL     1      -4.188  -0.460   1.187  0.00  0.00    +0.099 C 
ENDBRANCH  17  19
ENDBRANCH   3  17
BRANCH   3  24
ATOM     24  C   UNL     1       1.108   2.133   1.525  0.00  0.00    +0.040 C 
BRANCH  24  26
ATOM     25  N   UNL     1       4.762   0.282   0.262  0.00  0.00    -0.242 NA
ATOM     26  C   UNL     1       2.390   1.484   1.082  0.00  0.00    -0.018 C 
ATOM     27  C   UNL     1       2.905   0.421   1.804  0.00  0.00    +0.016 C 
ATOM     28  C   UNL     1       3.044   1.955  -0.044  0.00  0.00    +0.016 C 
ATOM     29  C   UNL     1       4.088  -0.142   1.355  0.00  0.00    +0.099 C 
ATOM     30  C   UNL     1       4.221   1.322  -0.410  0.00  0.00    +0.099 C 
ENDBRANCH  24  26
ENDBRANCH   3  24
TORSDOF 5
