REMARK  Name = 16039797
REMARK  8 active torsions:
REMARK  status: ('A' for Active; 'I' for Inactive)
REMARK    1  A    between atoms: C_1  and  O_18
REMARK    2  A    between atoms: C_2  and  O_24
REMARK    3  A    between atoms: C_4  and  C_11
REMARK    4  A    between atoms: O_18  and  C_19
REMARK    5  A    between atoms: C_19  and  C_21
REMARK    6  A    between atoms: C_21  and  O_22
REMARK    7  A    between atoms: O_24  and  C_30
REMARK    8  A    between atoms: C_27  and  C_36
REMARK                            x       y       z     vdW  Elec       q    Type
REMARK                         _______ _______ _______ _____ _____    ______ ____
ROOT
ATOM      1  C   UNL     1       0.913  -2.350   1.016  0.00  0.00    +0.142 C 
ATOM      2  C   UNL     1      -0.413  -0.513   1.854  0.00  0.00    +0.150 C 
ATOM      3  C   UNL     1      -0.292  -1.862   1.520  0.00  0.00    +0.074 C 
ATOM      4  C   UNL     1       1.877  -0.141   1.179  0.00  0.00    +0.060 C 
ATOM      5  C   UNL     1       1.998  -1.490   0.846  0.00  0.00    +0.042 C 
ATOM      6  C   UNL     1       0.672   0.347   1.683  0.00  0.00    +0.042 C 
ENDROOT
BRANCH   4  11
ATOM      7  O   UNL     1       3.108   1.752   1.736  0.00  0.00    -0.270 OA
ATOM      8  N   UNL     1       3.925   0.395   0.005  0.00  0.00    -0.268 N 
ATOM      9  N   UNL     1       5.874   0.543  -1.367  0.00  0.00    -0.252 NA
ATOM     10  N   UNL     1       6.596   2.890  -0.013  0.00  0.00    -0.269 NA
ATOM     11  C   UNL     1       3.008   0.756   1.002  0.00  0.00    +0.251 C 
ATOM     12  C   UNL     1       5.120   1.054  -0.374  0.00  0.00    +0.131 C 
ATOM     13  C   UNL     1       5.475   2.207   0.291  0.00  0.00    +0.185 C 
ATOM     14  C   UNL     1       7.350   2.379  -1.007  0.00  0.00    +0.057 C 
ATOM     15  C   UNL     1       6.995   1.226  -1.672  0.00  0.00    +0.167 C 
ATOM     16  C   UNL     1       8.596   3.108  -1.371  0.00  0.00    +0.049 C 
ATOM     17  H   UNL     1       3.710  -0.424  -0.497  0.00  0.00    +0.156 HD
ENDBRANCH   4  11
BRANCH   1  18
ATOM     18  O   UNL     1       1.031  -3.667   0.692  0.00  0.00    -0.476 OA
BRANCH  18  19
ATOM     19  C   UNL     1       1.353  -3.976  -0.663  0.00  0.00    +0.195 C 
ATOM     20  C   UNL     1       2.669  -4.738  -0.695  0.00  0.00    +0.050 C 
BRANCH  19  21
ATOM     21  C   UNL     1       0.215  -4.804  -1.248  0.00  0.00    +0.185 C 
BRANCH  21  22
ATOM     22  O   UNL     1      -0.981  -4.032  -1.218  0.00  0.00    -0.347 OA
ATOM     23  C   UNL     1      -2.083  -4.763  -1.734  0.00  0.00    +0.174 C 
ENDBRANCH  21  22
ENDBRANCH  19  21
ENDBRANCH  18  19
ENDBRANCH   1  18
BRANCH   2  24
ATOM     24  O   UNL     1      -1.608  -0.029   2.353  0.00  0.00    -0.438 OA
BRANCH  24  30
ATOM     25  N   UNL     1      -4.663   1.401   1.033  0.00  0.00    -0.258 NA
ATOM     26  N   UNL     1      -2.201   0.392   0.146  0.00  0.00    -0.233 NA
ATOM     27  C   UNL     1      -4.339   1.357  -0.274  0.00  0.00    +0.132 C 
ATOM     28  C   UNL     1      -3.130   0.861  -0.710  0.00  0.00    +0.178 C 
ATOM     29  C   UNL     1      -3.734   0.932   1.890  0.00  0.00    +0.210 C 
ATOM     30  C   UNL     1      -2.525   0.437   1.454  0.00  0.00    +0.226 C 
BRANCH  27  36
ATOM     31  O   UNL     1      -4.960   2.350  -2.284  0.00  0.00    -0.269 OA
ATOM     32  N   UNL     1      -6.663   1.747  -0.857  0.00  0.00    -0.275 N 
ATOM     33  C   UNL     1      -8.602   1.127  -0.666  0.00  0.00    +0.043 C 
ATOM     34  C   UNL     1      -7.366   1.111   0.241  0.00  0.00    +0.096 C 
ATOM     35  C   UNL     1      -7.870   2.127  -1.568  0.00  0.00    +0.096 C 
ATOM     36  C   UNL     1      -5.348   1.867  -1.223  0.00  0.00    +0.264 C 
ENDBRANCH  27  36
ENDBRANCH  24  30
ENDBRANCH   2  24
TORSDOF 8
