REMARK  Name = 7232
REMARK  3 active torsions:
REMARK  status: ('A' for Active; 'I' for Inactive)
REMARK    1  A    between atoms: S_1  and  C_4
REMARK    2  A    between atoms: S_1  and  N_11
REMARK    3  A    between atoms: N_11  and  C_13
REMARK                            x       y       z     vdW  Elec       q    Type
REMARK                         _______ _______ _______ _____ _____    ______ ____
ROOT
ATOM      1  S   UNL     1       0.717   1.633  -0.328  0.00  0.00    -0.003 S 
ENDROOT
BRANCH   1   4
ATOM      2  S   UNL     1      -2.281   2.080  -0.238  0.00  0.00    -0.046 S 
ATOM      3  N   UNL     1      -1.173  -0.241  -0.041  0.00  0.00    -0.391 NA
ATOM      4  C   UNL     1      -0.941   1.034  -0.188  0.00  0.00    +0.201 C 
ATOM      5  C   UNL     1      -3.320   0.717  -0.045  0.00  0.00    +0.058 C 
ATOM      6  C   UNL     1      -2.543  -0.442   0.044  0.00  0.00    +0.121 C 
ATOM      7  C   UNL     1      -4.722   0.676   0.024  0.00  0.00    +0.008 C 
ATOM      8  C   UNL     1      -3.194  -1.684   0.206  0.00  0.00    +0.085 C 
ATOM      9  C   UNL     1      -5.341  -0.566   0.185  0.00  0.00    -0.004 C 
ATOM     10  C   UNL     1      -4.589  -1.732   0.275  0.00  0.00    -0.019 C 
ENDBRANCH   1   4
BRANCH   1  11
ATOM     11  N   UNL     1       1.512   0.188  -0.210  0.00  0.00    -0.248 NA
ATOM     12  H   UNL     1       1.092  -0.439  -0.896  0.00  0.00    +0.136 HD
BRANCH  11  13
ATOM     13  C   UNL     1       2.980   0.141  -0.425  0.00  0.00    +0.064 C 
ATOM     14  C   UNL     1       3.678   0.877   0.719  0.00  0.00    +0.017 C 
ATOM     15  C   UNL     1       3.428  -1.319  -0.505  0.00  0.00    +0.017 C 
ATOM     16  C   UNL     1       5.197   0.763   0.612  0.00  0.00    +0.001 C 
ATOM     17  C   UNL     1       4.946  -1.433  -0.611  0.00  0.00    +0.001 C 
ATOM     18  C   UNL     1       5.647  -0.693   0.525  0.00  0.00    +0.000 C 
ENDBRANCH  11  13
ENDBRANCH   1  11
TORSDOF 3
