REMARK  Name = 441407
REMARK  8 active torsions:
REMARK  status: ('A' for Active; 'I' for Inactive)
REMARK    1  A    between atoms: C_6  and  O_21
REMARK    2  A    between atoms: C_6  and  C_26
REMARK    3  A    between atoms: C_9  and  O_23
REMARK    4  A    between atoms: C_26  and  C_27
REMARK    5  A    between atoms: C_27  and  O_28
REMARK    6  A    between atoms: O_28  and  P_29
REMARK    7  A    between atoms: P_29  and  O_31
REMARK    8  A    between atoms: P_29  and  O_33
REMARK                            x       y       z     vdW  Elec       q    Type
REMARK                         _______ _______ _______ _____ _____    ______ ____
ROOT
ATOM      1  O   UNL     1      -6.947   1.643  -1.373  0.00  0.00    -0.291 OA
ATOM      2  C   UNL     1       0.960  -0.861   0.241  0.00  0.00    +0.031 C 
ATOM      3  C   UNL     1      -0.218  -1.716  -0.277  0.00  0.00    +0.003 C 
ATOM      4  C   UNL     1      -1.574  -1.326   0.329  0.00  0.00    +0.003 C 
ATOM      5  C   UNL     1      -1.873   0.167  -0.025  0.00  0.00    +0.030 C 
ATOM      6  C   UNL     1       2.130  -1.559  -0.506  0.00  0.00    +0.141 C 
ATOM      7  C   UNL     1       0.679   0.602  -0.158  0.00  0.00    +0.032 C 
ATOM      8  C   UNL     1      -3.304   0.641   0.463  0.00  0.00    +0.018 C 
ATOM      9  C   UNL     1      -0.689   1.115   0.342  0.00  0.00    +0.111 C 
ATOM     10  C   UNL     1       0.282  -3.148  -0.106  0.00  0.00    +0.003 C 
ATOM     11  C   UNL     1       1.790  -3.064  -0.424  0.00  0.00    +0.034 C 
ATOM     12  C   UNL     1      -2.685  -2.237  -0.217  0.00  0.00    +0.004 C 
ATOM     13  C   UNL     1       1.177  -0.982   1.774  0.00  0.00    +0.003 C 
ATOM     14  C   UNL     1      -4.356  -0.377   0.004  0.00  0.00    -0.042 C 
ATOM     15  C   UNL     1      -4.056  -1.827   0.297  0.00  0.00    +0.022 C 
ATOM     16  C   UNL     1      -3.594   2.031  -0.176  0.00  0.00    +0.012 C 
ATOM     17  C   UNL     1      -3.425   0.760   1.999  0.00  0.00    +0.004 C 
ATOM     18  C   UNL     1      -5.060   2.429  -0.125  0.00  0.00    +0.069 C 
ATOM     19  C   UNL     1      -5.512  -0.048  -0.596  0.00  0.00    +0.029 C 
ATOM     20  C   UNL     1      -5.910   1.368  -0.773  0.00  0.00    +0.173 C 
ENDROOT
BRANCH   6  21
ATOM     21  O   UNL     1       2.178  -1.162  -1.874  0.00  0.00    -0.380 OA
ATOM     22  H   UNL     1       1.326  -1.354  -2.296  0.00  0.00    +0.211 HD
ENDBRANCH   6  21
BRANCH   9  23
ATOM     23  O   UNL     1      -0.623   1.344   1.743  0.00  0.00    -0.384 OA
ATOM     24  H   UNL     1      -1.482   1.666   2.059  0.00  0.00    +0.210 HD
ENDBRANCH   9  23
BRANCH   6  26
ATOM     25  O   UNL     1       4.223  -2.089   0.503  0.00  0.00    -0.291 OA
ATOM     26  C   UNL     1       3.485  -1.220   0.041  0.00  0.00    +0.205 C 
BRANCH  26  27
ATOM     27  C   UNL     1       3.883   0.240  -0.009  0.00  0.00    +0.220 C 
BRANCH  27  28
ATOM     28  O   UNL     1       5.281   0.371  -0.152  0.00  0.00    -0.265 OA
BRANCH  28  29
ATOM     29  P   UNL     1       5.919   1.860  -0.227  0.00  0.00    +0.473 P 
ATOM     30  O   UNL     1       7.411   1.901  -0.379  0.00  0.00    -0.227 OA
BRANCH  29  31
ATOM     31  O   UNL     1       5.338   2.591   1.093  0.00  0.00    -0.303 OA
ATOM     32  H   UNL     1       4.371   2.514   1.106  0.00  0.00    +0.222 HD
ENDBRANCH  29  31
BRANCH  29  33
ATOM     33  O   UNL     1       5.090   2.553  -1.431  0.00  0.00    -0.303 OA
ATOM     34  H   UNL     1       4.140   2.481  -1.252  0.00  0.00    +0.222 HD
ENDBRANCH  29  33
ENDBRANCH  28  29
ENDBRANCH  27  28
ENDBRANCH  26  27
ENDBRANCH   6  26
TORSDOF 8
