REMARK  Name = 93009
REMARK  2 active torsions:
REMARK  status: ('A' for Active; 'I' for Inactive)
REMARK    1  A    between atoms: C_4  and  O_11
REMARK    2  A    between atoms: O_11  and  C_13
REMARK                            x       y       z     vdW  Elec       q    Type
REMARK                         _______ _______ _______ _____ _____    ______ ____
ROOT
ATOM      1  C   UNL     1       0.800   0.687  -0.435  0.00  0.00    +0.037 C 
ATOM      2  C   UNL     1       1.910  -0.386  -0.221  0.00  0.00    +0.003 C 
ATOM      3  C   UNL     1       1.212  -0.908   1.063  0.00  0.00    +0.004 C 
ATOM      4  C   UNL     1      -0.496  -0.177  -0.475  0.00  0.00    +0.169 C 
ATOM      5  C   UNL     1       0.811   1.465   0.911  0.00  0.00    +0.003 C 
ATOM      6  C   UNL     1      -0.220  -1.256   0.589  0.00  0.00    +0.044 C 
ATOM      7  C   UNL     1       1.083   0.356   1.942  0.00  0.00    +0.000 C 
ATOM      8  C   UNL     1       0.945   1.602  -1.637  0.00  0.00    +0.004 C 
ATOM      9  C   UNL     1       2.038  -1.440  -1.340  0.00  0.00    +0.000 C 
ATOM     10  C   UNL     1       3.333   0.161   0.013  0.00  0.00    +0.000 C 
ENDROOT
BRANCH   4  11
ATOM     11  O   UNL     1      -1.659   0.574  -0.174  0.00  0.00    -0.452 OA
BRANCH  11  13
ATOM     12  O   UNL     1      -2.955  -1.334  -0.315  0.00  0.00    -0.250 OA
ATOM     13  C   UNL     1      -2.832  -0.131  -0.124  0.00  0.00    +0.317 C 
ATOM     14  C   UNL     1      -3.970   0.787   0.203  0.00  0.00    +0.121 C 
ENDBRANCH  11  13
ENDBRANCH   4  11
TORSDOF 2
