REMARK  Name = 69046
REMARK  5 active torsions:
REMARK  status: ('A' for Active; 'I' for Inactive)
REMARK    1  A    between atoms: C_1  and  C_3
REMARK    2  A    between atoms: C_1  and  C_8
REMARK    3  A    between atoms: C_1  and  C_16
REMARK    4  A    between atoms: C_13  and  O_14
REMARK    5  A    between atoms: C_21  and  O_22
REMARK                            x       y       z     vdW  Elec       q    Type
REMARK                         _______ _______ _______ _____ _____    ______ ____
ROOT
ATOM      1  C   UNL     1       0.013   0.292   0.704  0.00  0.00    +0.085 C 
ENDROOT
BRANCH   1   3
ATOM      2  N   UNL     1      -0.689   1.951  -0.914  0.00  0.00    -0.248 NA
ATOM      3  C   UNL     1      -0.104   1.770   0.265  0.00  0.00    +0.067 C 
ATOM      4  C   UNL     1       0.391   2.714   1.109  0.00  0.00    +0.015 C 
ATOM      5  C   UNL     1       0.270   4.033   0.685  0.00  0.00    +0.003 C 
ATOM      6  C   UNL     1      -0.789   3.245  -1.293  0.00  0.00    +0.098 C 
ATOM      7  C   UNL     1      -0.330   4.312  -0.538  0.00  0.00    +0.021 C 
ENDBRANCH   1   3
BRANCH   1   8
ATOM      8  C   UNL     1       1.308  -0.373   0.384  0.00  0.00    -0.013 C 
ATOM      9  C   UNL     1       1.863  -1.286   1.280  0.00  0.00    -0.000 C 
ATOM     10  C   UNL     1       1.966  -0.081  -0.811  0.00  0.00    -0.000 C 
ATOM     11  C   UNL     1       3.076  -1.908   0.981  0.00  0.00    +0.036 C 
ATOM     12  C   UNL     1       3.178  -0.703  -1.110  0.00  0.00    +0.036 C 
ATOM     13  C   UNL     1       3.733  -1.616  -0.214  0.00  0.00    +0.134 C 
BRANCH  13  14
ATOM     14  O   UNL     1       4.916  -2.224  -0.505  0.00  0.00    -0.506 OA
ATOM     15  H   UNL     1       5.288  -2.837   0.097  0.00  0.00    +0.292 HD
ENDBRANCH  13  14
ENDBRANCH   1   8
BRANCH   1  16
ATOM     16  C   UNL     1      -1.256  -0.525   0.371  0.00  0.00    -0.013 C 
ATOM     17  C   UNL     1      -2.334  -0.407   1.206  0.00  0.00    -0.000 C 
ATOM     18  C   UNL     1      -1.234  -1.324  -0.740  0.00  0.00    -0.000 C 
ATOM     19  C   UNL     1      -3.479  -1.145   0.906  0.00  0.00    +0.036 C 
ATOM     20  C   UNL     1      -2.378  -2.062  -1.040  0.00  0.00    +0.036 C 
ATOM     21  C   UNL     1      -3.501  -1.973  -0.217  0.00  0.00    +0.134 C 
BRANCH  21  22
ATOM     22  O   UNL     1      -4.619  -2.692  -0.510  0.00  0.00    -0.506 OA
ATOM     23  H   UNL     1      -5.373  -2.632   0.043  0.00  0.00    +0.292 HD
ENDBRANCH  21  22
ENDBRANCH   1  16
TORSDOF 5
