REMARK  Name = 6662
REMARK  4 active torsions:
REMARK  status: ('A' for Active; 'I' for Inactive)
REMARK    1  A    between atoms: S_1  and  C_4
REMARK    2  A    between atoms: S_1  and  N_14
REMARK    3  A    between atoms: C_9  and  N_10
REMARK    4  A    between atoms: N_14  and  C_19
REMARK                            x       y       z     vdW  Elec       q    Type
REMARK                         _______ _______ _______ _____ _____    ______ ____
ROOT
ATOM      1  S   UNL     1      -0.330  -1.005   1.264  0.00  0.00    +0.085 S 
ATOM      2  O   UNL     1       0.187  -0.160   2.334  0.00  0.00    -0.149 OA
ATOM      3  O   UNL     1      -0.659  -2.397   1.543  0.00  0.00    -0.149 OA
ENDROOT
BRANCH   1   4
ATOM      4  C   UNL     1      -1.748  -0.203   0.636  0.00  0.00    +0.126 C 
ATOM      5  C   UNL     1      -2.751  -0.946   0.013  0.00  0.00    +0.021 C 
ATOM      6  C   UNL     1      -1.877   1.181   0.755  0.00  0.00    +0.021 C 
ATOM      7  C   UNL     1      -3.883  -0.306  -0.490  0.00  0.00    +0.015 C 
ATOM      8  C   UNL     1      -3.009   1.821   0.252  0.00  0.00    +0.015 C 
ATOM      9  C   UNL     1      -4.012   1.078  -0.370  0.00  0.00    +0.042 C 
BRANCH   9  10
ATOM     10  N   UNL     1      -5.158   1.726  -0.877  0.00  0.00    -0.357 N 
ATOM     11  H   UNL     1      -5.866   1.203  -1.317  0.00  0.00    +0.142 HD
ATOM     12  H   UNL     1      -5.249   2.703  -0.792  0.00  0.00    +0.142 HD
ENDBRANCH   9  10
ENDBRANCH   1   4
BRANCH   1  14
ATOM     13  O   UNL     1       0.088  -3.002  -1.066  0.00  0.00    -0.273 OA
ATOM     14  N   UNL     1       0.743  -0.972  -0.092  0.00  0.00    -0.103 N 
ATOM     15  C   UNL     1       0.813  -2.009  -1.096  0.00  0.00    +0.251 C 
ATOM     16  C   UNL     1       1.805  -1.828  -2.217  0.00  0.00    +0.097 C 
BRANCH  14  19
ATOM     17  O   UNL     1       1.316   1.304  -0.910  0.00  0.00    -0.337 OA
ATOM     18  N   UNL     1       2.386   2.188  -0.845  0.00  0.00    -0.080 NA
ATOM     19  C   UNL     1       1.647   0.194  -0.234  0.00  0.00    +0.250 A 
ATOM     20  C   UNL     1       2.891   0.278   0.289  0.00  0.00    +0.048 A 
ATOM     21  C   UNL     1       3.315   1.553  -0.124  0.00  0.00    +0.098 A 
ATOM     22  C   UNL     1       3.633  -0.709   1.092  0.00  0.00    +0.037 C 
ATOM     23  C   UNL     1       4.603   2.213   0.145  0.00  0.00    +0.055 C 
ENDBRANCH  14  19
ENDBRANCH   1  14
TORSDOF 4
