REMARK  Name = 7175
REMARK  5 active torsions:
REMARK  status: ('A' for Active; 'I' for Inactive)
REMARK    1  A    between atoms: C_1  and  C_8
REMARK    2  A    between atoms: C_6  and  O_13
REMARK    3  A    between atoms: C_8  and  O_9
REMARK    4  A    between atoms: O_9  and  C_10
REMARK    5  A    between atoms: C_10  and  C_11
REMARK                            x       y       z     vdW  Elec       q    Type
REMARK                         _______ _______ _______ _____ _____    ______ ____
ROOT
ATOM      1  C   UNL     1       0.594   0.395   0.001  0.00  0.00    +0.076 C 
ATOM      2  C   UNL     1       1.637   1.321  -0.001  0.00  0.00    +0.010 C 
ATOM      3  C   UNL     1       0.874  -0.971   0.001  0.00  0.00    +0.010 C 
ATOM      4  C   UNL     1       2.961   0.880  -0.002  0.00  0.00    +0.037 C 
ATOM      5  C   UNL     1       2.197  -1.412   0.001  0.00  0.00    +0.037 C 
ATOM      6  C   UNL     1       3.241  -0.486  -0.001  0.00  0.00    +0.134 C 
ENDROOT
BRANCH   1   8
ATOM      7  O   UNL     1      -1.105   2.045   0.000  0.00  0.00    -0.245 OA
ATOM      8  C   UNL     1      -0.786   0.854   0.001  0.00  0.00    +0.341 C 
BRANCH   8   9
ATOM      9  O   UNL     1      -1.702  -0.168   0.003  0.00  0.00    -0.445 OA
BRANCH   9  10
ATOM     10  C   UNL     1      -3.082   0.214   0.003  0.00  0.00    +0.209 C 
BRANCH  10  11
ATOM     11  C   UNL     1      -3.940  -1.042   0.005  0.00  0.00    +0.047 C 
ATOM     12  C   UNL     1      -5.422  -0.714  -0.009  0.00  0.00    +0.004 C 
ENDBRANCH  10  11
ENDBRANCH   9  10
ENDBRANCH   8   9
ENDBRANCH   1   8
BRANCH   6  13
ATOM     13  O   UNL     1       4.532  -0.916  -0.002  0.00  0.00    -0.506 OA
ATOM     14  H   UNL     1       5.233  -0.294  -0.003  0.00  0.00    +0.292 HD
ENDBRANCH   6  13
TORSDOF 5
