REMARK  Name = 7184
REMARK  6 active torsions:
REMARK  status: ('A' for Active; 'I' for Inactive)
REMARK    1  A    between atoms: C_1  and  C_8
REMARK    2  A    between atoms: C_6  and  O_14
REMARK    3  A    between atoms: C_8  and  O_9
REMARK    4  A    between atoms: O_9  and  C_10
REMARK    5  A    between atoms: C_10  and  C_11
REMARK    6  A    between atoms: C_11  and  C_12
REMARK                            x       y       z     vdW  Elec       q    Type
REMARK                         _______ _______ _______ _____ _____    ______ ____
ROOT
ATOM      1  C   UNL     1      -1.093   0.451  -0.081  0.00  0.00    +0.076 C 
ATOM      2  C   UNL     1      -2.137   1.210   0.408  0.00  0.00    +0.010 C 
ATOM      3  C   UNL     1      -1.263  -0.856  -0.490  0.00  0.00    +0.010 C 
ATOM      4  C   UNL     1      -3.406   0.636   0.493  0.00  0.00    +0.037 C 
ATOM      5  C   UNL     1      -2.532  -1.430  -0.405  0.00  0.00    +0.037 C 
ATOM      6  C   UNL     1      -3.603  -0.684   0.086  0.00  0.00    +0.134 C 
ENDROOT
BRANCH   1   8
ATOM      7  O   UNL     1       0.440   2.256  -0.357  0.00  0.00    -0.245 OA
ATOM      8  C   UNL     1       0.257   1.063  -0.171  0.00  0.00    +0.341 C 
BRANCH   8   9
ATOM      9  O   UNL     1       1.226   0.119  -0.019  0.00  0.00    -0.445 OA
BRANCH   9  10
ATOM     10  C   UNL     1       2.567   0.584  -0.086  0.00  0.00    +0.209 C 
BRANCH  10  11
ATOM     11  C   UNL     1       3.508  -0.598   0.103  0.00  0.00    +0.047 C 
BRANCH  11  12
ATOM     12  C   UNL     1       4.971  -0.166   0.060  0.00  0.00    +0.004 C 
ATOM     13  C   UNL     1       5.906  -1.342   0.292  0.00  0.00    +0.000 C 
ENDBRANCH  11  12
ENDBRANCH  10  11
ENDBRANCH   9  10
ENDBRANCH   8   9
ENDBRANCH   1   8
BRANCH   6  14
ATOM     14  O   UNL     1      -4.841  -1.243   0.167  0.00  0.00    -0.506 OA
ATOM     15  H   UNL     1      -5.561  -0.742   0.497  0.00  0.00    +0.292 HD
ENDBRANCH   6  14
TORSDOF 6
