REMARK  Name = 87055263
REMARK  9 active torsions:
REMARK  status: ('A' for Active; 'I' for Inactive)
REMARK    1  A    between atoms: C_2  and  C_12
REMARK    2  A    between atoms: C_3  and  C_28
REMARK    3  A    between atoms: C_10  and  O_36
REMARK    4  A    between atoms: C_13  and  O_18
REMARK    5  A    between atoms: O_18  and  C_19
REMARK    6  A    between atoms: C_19  and  C_20
REMARK    7  A    between atoms: C_20  and  N_21
REMARK    8  A    between atoms: C_22  and  C_27
REMARK    9  A    between atoms: C_31  and  O_34
REMARK                            x       y       z     vdW  Elec       q    Type
REMARK                         _______ _______ _______ _____ _____    ______ ____
ROOT
ATOM      1  O   UNL     1       3.196  -1.030  -1.530  0.00  0.00    -0.470 OA
ATOM      2  C   UNL     1       2.231   0.019  -1.353  0.00  0.00    +0.139 C 
ATOM      3  C   UNL     1       2.572   1.083  -0.325  0.00  0.00    +0.030 C 
ATOM      4  C   UNL     1       3.604   0.963   0.536  0.00  0.00    -0.019 C 
ATOM      5  C   UNL     1       4.387  -0.290   0.465  0.00  0.00    +0.021 C 
ATOM      6  C   UNL     1       4.144  -1.206  -0.564  0.00  0.00    +0.210 C 
ATOM      7  C   UNL     1       3.992   2.005   1.552  0.00  0.00    +0.031 C 
ATOM      8  C   UNL     1       5.395  -0.602   1.395  0.00  0.00    +0.036 C 
ATOM      9  C   UNL     1       4.893  -2.385  -0.673  0.00  0.00    +0.024 C 
ATOM     10  C   UNL     1       6.136  -1.782   1.292  0.00  0.00    +0.133 C 
ATOM     11  C   UNL     1       5.887  -2.674   0.256  0.00  0.00    +0.036 C 
ENDROOT
BRANCH   2  12
ATOM     12  C   UNL     1       0.928  -0.652  -1.045  0.00  0.00    +0.034 C 
ATOM     13  C   UNL     1      -1.498  -1.902  -0.470  0.00  0.00    +0.138 C 
ATOM     14  C   UNL     1       0.768  -1.345   0.155  0.00  0.00    +0.006 C 
ATOM     15  C   UNL     1      -0.125  -0.583  -1.957  0.00  0.00    +0.006 C 
ATOM     16  C   UNL     1      -0.445  -1.971   0.442  0.00  0.00    +0.037 C 
ATOM     17  C   UNL     1      -1.338  -1.208  -1.670  0.00  0.00    +0.037 C 
BRANCH  13  18
ATOM     18  O   UNL     1      -2.682  -2.513  -0.190  0.00  0.00    -0.478 OA
BRANCH  18  19
ATOM     19  C   UNL     1      -3.861  -1.926  -0.739  0.00  0.00    +0.183 C 
BRANCH  19  20
ATOM     20  C   UNL     1      -5.032  -2.226   0.183  0.00  0.00    -0.029 C 
BRANCH  20  21
ATOM     21  N   UNL     1      -6.259  -1.629  -0.331  0.00  0.00    +0.389 N 
ATOM     22  C   UNL     1      -7.785  -0.357   0.346  0.00  0.00    -0.006 C 
ATOM     23  C   UNL     1      -6.296  -0.173  -0.036  0.00  0.00    -0.076 C 
ATOM     24  C   UNL     1      -7.377  -1.824   0.627  0.00  0.00    -0.076 C 
ATOM     25  H   UNL     1      -6.310  -1.980  -1.287  0.00  0.00    -0.080 HD
BRANCH  22  27
ATOM     26  F   UNL     1      -8.532   1.718   1.087  0.00  0.00    -0.235 F 
ATOM     27  C   UNL     1      -8.299   0.451   1.519  0.00  0.00    +0.189 C 
ENDBRANCH  22  27
ENDBRANCH  20  21
ENDBRANCH  19  20
ENDBRANCH  18  19
ENDBRANCH  13  18
ENDBRANCH   2  12
BRANCH   3  28
ATOM     28  C   UNL     1       1.735   2.278  -0.360  0.00  0.00    +0.006 C 
ATOM     29  C   UNL     1       0.595   2.356   0.440  0.00  0.00    +0.037 C 
ATOM     30  C   UNL     1       2.074   3.343  -1.195  0.00  0.00    +0.000 C 
ATOM     31  C   UNL     1      -0.205   3.498   0.406  0.00  0.00    +0.134 C 
ATOM     32  C   UNL     1       1.274   4.485  -1.230  0.00  0.00    +0.003 C 
ATOM     33  C   UNL     1       0.135   4.563  -0.429  0.00  0.00    +0.037 C 
BRANCH  31  34
ATOM     34  O   UNL     1      -1.317   3.575   1.187  0.00  0.00    -0.506 OA
ATOM     35  H   UNL     1      -1.545   2.860   1.748  0.00  0.00    +0.292 HD
ENDBRANCH  31  34
ENDBRANCH   3  28
BRANCH  10  36
ATOM     36  O   UNL     1       7.106  -2.057   2.207  0.00  0.00    -0.506 OA
ATOM     37  H   UNL     1       7.274  -1.457   2.906  0.00  0.00    +0.292 HD
ENDBRANCH  10  36
TORSDOF 9
