REMARK  Name = 121596705
REMARK  9 active torsions:
REMARK  status: ('A' for Active; 'I' for Inactive)
REMARK    1  A    between atoms: C_1  and  N_3
REMARK    2  A    between atoms: C_1  and  C_16
REMARK    3  A    between atoms: N_4  and  C_8
REMARK    4  A    between atoms: C_8  and  C_10
REMARK    5  A    between atoms: C_10  and  C_12
REMARK    6  A    between atoms: C_16  and  N_17
REMARK    7  A    between atoms: C_16  and  C_21
REMARK    8  A    between atoms: C_21  and  C_22
REMARK    9  A    between atoms: C_27  and  O_28
REMARK                            x       y       z     vdW  Elec       q    Type
REMARK                         _______ _______ _______ _____ _____    ______ ____
ROOT
ATOM      1  C   UNL     1      -2.511   1.165  -0.785  0.00  0.00    +0.071 C 
ENDROOT
BRANCH   1   3
ATOM      2  O   UNL     1      -0.408   2.910   0.141  0.00  0.00    -0.253 OA
ATOM      3  N   UNL     1      -1.148   1.194  -1.238  0.00  0.00    -0.291 N 
ATOM      4  N   UNL     1       1.048   1.889  -1.349  0.00  0.00    -0.290 N 
ATOM      5  C   UNL     1      -0.188   2.075  -0.735  0.00  0.00    +0.301 C 
ATOM      6  H   UNL     1      -0.876   0.559  -1.940  0.00  0.00    +0.151 HD
ATOM      7  H   UNL     1       1.131   1.194  -2.041  0.00  0.00    +0.151 HD
BRANCH   4   8
ATOM      8  C   UNL     1       2.215   2.671  -1.013  0.00  0.00    +0.077 C 
ATOM      9  C   UNL     1       1.961   4.138  -1.345  0.00  0.00    +0.022 C 
BRANCH   8  10
ATOM     10  C   UNL     1       2.590   2.507   0.469  0.00  0.00    +0.046 C 
BRANCH  10  12
ATOM     11  S   UNL     1       3.822  -1.307   0.927  0.00  0.00    -0.086 S 
ATOM     12  C   UNL     1       2.850   1.070   0.856  0.00  0.00    -0.014 C 
ATOM     13  C   UNL     1       2.157   0.391   1.899  0.00  0.00    +0.003 C 
ATOM     14  C   UNL     1       3.784   0.263   0.244  0.00  0.00    +0.031 C 
ATOM     15  C   UNL     1       2.587  -0.909   2.045  0.00  0.00    +0.035 C 
ENDBRANCH  10  12
ENDBRANCH   8  10
ENDBRANCH   4   8
ENDBRANCH   1   3
BRANCH   1  16
ATOM     16  C   UNL     1      -2.729   0.206   0.394  0.00  0.00    -0.034 C 
BRANCH  16  17
ATOM     17  N   UNL     1      -3.955   0.604   1.100  0.00  0.00    +0.387 N 
ATOM     18  C   UNL     1      -3.680   1.721   1.999  0.00  0.00    -0.101 C 
ATOM     19  C   UNL     1      -4.997   0.957   0.140  0.00  0.00    -0.101 C 
ATOM     20  H   UNL     1      -4.286  -0.184   1.657  0.00  0.00    -0.080 HD
ENDBRANCH  16  17
BRANCH  16  21
ATOM     21  C   UNL     1      -2.896  -1.269  -0.029  0.00  0.00    +0.007 C 
BRANCH  21  22
ATOM     22  C   UNL     1      -1.603  -2.014  -0.259  0.00  0.00    -0.024 C 
ATOM     23  C   UNL     1      -1.020  -2.023  -1.526  0.00  0.00    -0.001 C 
ATOM     24  C   UNL     1      -0.992  -2.692   0.795  0.00  0.00    -0.001 C 
ATOM     25  C   UNL     1       0.175  -2.712  -1.738  0.00  0.00    +0.036 C 
ATOM     26  C   UNL     1       0.202  -3.381   0.583  0.00  0.00    +0.036 C 
ATOM     27  C   UNL     1       0.786  -3.391  -0.684  0.00  0.00    +0.134 C 
BRANCH  27  28
ATOM     28  O   UNL     1       1.952  -4.061  -0.891  0.00  0.00    -0.506 OA
ATOM     29  H   UNL     1       2.343  -4.068  -1.742  0.00  0.00    +0.292 HD
ENDBRANCH  27  28
ENDBRANCH  21  22
ENDBRANCH  16  21
ENDBRANCH   1  16
TORSDOF 9
