REMARK  Name = 11808
REMARK  0 active torsions:
REMARK  status: ('A' for Active; 'I' for Inactive)
REMARK                            x       y       z     vdW  Elec       q    Type
REMARK                         _______ _______ _______ _____ _____    ______ ____
ROOT
ATOM      1 BR   UNL     1       4.511   0.081   0.000  0.00  0.00    -0.037 Br
ATOM      2  O   UNL     1      -0.720   2.723  -0.001  0.00  0.00    -0.265 OA
ATOM      3  O   UNL     1      -2.865  -1.454  -0.002  0.00  0.00    -0.246 OA
ATOM      4  N   UNL     1      -0.538  -1.411   0.000  0.00  0.00    -0.266 N 
ATOM      5  N   UNL     1      -1.821   0.643   0.001  0.00  0.00    -0.246 N 
ATOM      6  N   UNL     1       1.829   1.171   0.000  0.00  0.00    -0.304 N 
ATOM      7  N   UNL     1       1.897  -1.058   0.000  0.00  0.00    -0.295 N 
ATOM      8  C   UNL     1       0.601  -0.618   0.000  0.00  0.00    +0.132 A 
ATOM      9  C   UNL     1       0.530   0.749   0.000  0.00  0.00    +0.134 A 
ATOM     10  C   UNL     1      -0.685   1.496   0.000  0.00  0.00    +0.280 A 
ATOM     11  C   UNL     1      -1.816  -0.799   0.000  0.00  0.00    +0.335 A 
ATOM     12  C   UNL     1      -0.411  -2.863   0.001  0.00  0.00    +0.136 C 
ATOM     13  C   UNL     1      -3.127   1.293   0.002  0.00  0.00    +0.138 C 
ATOM     14  C   UNL     1       2.614   0.047   0.000  0.00  0.00    +0.205 C 
ATOM     15  H   UNL     1       2.141   2.104   0.000  0.00  0.00    +0.149 HD
ATOM     16  H   UNL     1       2.220  -1.988   0.000  0.00  0.00    +0.150 HD
ENDROOT
TORSDOF 0
