REMARK  Name = 64783
REMARK  0 active torsions:
REMARK  status: ('A' for Active; 'I' for Inactive)
REMARK                            x       y       z     vdW  Elec       q    Type
REMARK                         _______ _______ _______ _____ _____    ______ ____
ROOT
ATOM      1 CL   UNL     1      -1.095  -3.088   0.000  0.00  0.00    -0.060 Cl
ATOM      2  S   UNL     1      -1.476   0.973   0.000  0.00  0.00    +0.101 S 
ATOM      3  O   UNL     1      -1.800   1.594   1.268  0.00  0.00    -0.146 OA
ATOM      4  O   UNL     1      -1.800   1.594  -1.268  0.00  0.00    -0.146 OA
ATOM      5  N   UNL     1      -1.919  -0.619   0.001  0.00  0.00    -0.116 NA
ATOM      6  C   UNL     1       0.232   0.652   0.000  0.00  0.00    +0.131 C 
ATOM      7  C   UNL     1       0.429  -0.719   0.000  0.00  0.00    +0.049 C 
ATOM      8  C   UNL     1       1.262   1.564   0.000  0.00  0.00    +0.021 C 
ATOM      9  C   UNL     1      -0.871  -1.396   0.000  0.00  0.00    +0.161 C 
ATOM     10  C   UNL     1       1.704  -1.249   0.000  0.00  0.00    +0.004 C 
ATOM     11  C   UNL     1       2.557   1.043   0.000  0.00  0.00    +0.001 C 
ATOM     12  C   UNL     1       2.776  -0.349   0.000  0.00  0.00    +0.000 C 
ENDROOT
TORSDOF 0
