REMARK  Name = 20317278
REMARK  2 active torsions:
REMARK  status: ('A' for Active; 'I' for Inactive)
REMARK    1  A    between atoms: C_8  and  C_16
REMARK    2  A    between atoms: C_13  and  N_24
REMARK                            x       y       z     vdW  Elec       q    Type
REMARK                         _______ _______ _______ _____ _____    ______ ____
ROOT
ATOM      1  N   UNL     1       2.393  -0.253  -0.038  0.00  0.00    -0.279 N 
ATOM      2  N   UNL     1       0.281  -2.067   1.214  0.00  0.00    -0.262 NA
ATOM      3  N   UNL     1       3.673  -1.979   0.451  0.00  0.00    -0.131 NA
ATOM      4  N   UNL     1       4.319  -1.221  -0.494  0.00  0.00    -0.133 NA
ATOM      5  C   UNL     1       1.314   0.658  -0.013  0.00  0.00    +0.068 C 
ATOM      6  C   UNL     1       0.025   0.271   0.402  0.00  0.00    +0.035 C 
ATOM      7  C   UNL     1       2.537  -1.381   0.739  0.00  0.00    +0.172 A 
ATOM      8  C   UNL     1      -0.395  -1.157   0.600  0.00  0.00    +0.078 C 
ATOM      9  C   UNL     1       1.571  -1.749   1.797  0.00  0.00    +0.191 C 
ATOM     10  C   UNL     1       3.559  -0.182  -0.757  0.00  0.00    +0.147 A 
ATOM     11  C   UNL     1       1.556   1.992  -0.379  0.00  0.00    +0.019 C 
ATOM     12  C   UNL     1      -0.974   1.253   0.527  0.00  0.00    +0.027 C 
ATOM     13  C   UNL     1      -0.712   2.582   0.195  0.00  0.00    +0.143 C 
ATOM     14  C   UNL     1       0.545   2.947  -0.273  0.00  0.00    +0.026 C 
ATOM     15  C   UNL     1       3.877   0.795  -1.819  0.00  0.00    +0.074 C 
ENDROOT
BRANCH   8  16
ATOM     16  C   UNL     1      -1.698  -1.595   0.014  0.00  0.00    +0.017 C 
ATOM     17  C   UNL     1      -1.908  -1.508  -1.362  0.00  0.00    +0.001 C 
ATOM     18  C   UNL     1      -2.704  -2.090   0.843  0.00  0.00    +0.001 C 
ATOM     19  C   UNL     1      -3.124  -1.917  -1.909  0.00  0.00    +0.000 C 
ATOM     20  C   UNL     1      -3.920  -2.499   0.296  0.00  0.00    +0.000 C 
ATOM     21  C   UNL     1      -4.130  -2.412  -1.080  0.00  0.00    +0.000 C 
ENDBRANCH   8  16
BRANCH  13  24
ATOM     22  O   UNL     1      -1.485   4.745  -0.007  0.00  0.00    -0.126 OA
ATOM     23  O   UNL     1      -2.864   3.209   0.738  0.00  0.00    -0.126 OA
ATOM     24  N   UNL     1      -1.736   3.559   0.315  0.00  0.00    +0.058 N 
ENDBRANCH  13  24
TORSDOF 2
