REMARK  Name = 89670174
REMARK  4 active torsions:
REMARK  status: ('A' for Active; 'I' for Inactive)
REMARK    1  A    between atoms: C_3  and  C_13
REMARK    2  A    between atoms: C_9  and  O_26
REMARK    3  A    between atoms: C_18  and  C_25
REMARK    4  A    between atoms: O_26  and  C_30
REMARK                            x       y       z     vdW  Elec       q    Type
REMARK                         _______ _______ _______ _____ _____    ______ ____
ROOT
ATOM      1  O   UNL     1       0.063  -4.228   0.431  0.00  0.00    -0.479 OA
ATOM      2  C   UNL     1      -0.217  -1.821   0.755  0.00  0.00    +0.072 C 
ATOM      3  C   UNL     1      -1.287  -2.161  -0.271  0.00  0.00    +0.085 C 
ATOM      4  C   UNL     1      -0.912  -3.177   0.786  0.00  0.00    +0.174 C 
ATOM      5  C   UNL     1       1.198  -2.204   0.517  0.00  0.00    +0.018 C 
ATOM      6  C   UNL     1       1.292  -3.592   0.350  0.00  0.00    +0.135 C 
ATOM      7  C   UNL     1       2.346  -1.430   0.445  0.00  0.00    +0.036 C 
ATOM      8  C   UNL     1       2.488  -4.239   0.108  0.00  0.00    +0.040 C 
ATOM      9  C   UNL     1       3.570  -2.063   0.204  0.00  0.00    +0.145 C 
ATOM     10  C   UNL     1       3.640  -3.457   0.037  0.00  0.00    +0.041 C 
ENDROOT
BRANCH   3  13
ATOM     11  N   UNL     1      -2.791  -0.109  -0.204  0.00  0.00    -0.318 N 
ATOM     12  N   UNL     1      -3.780  -2.099  -0.149  0.00  0.00    -0.318 N 
ATOM     13  C   UNL     1      -2.630  -1.467  -0.208  0.00  0.00    +0.148 C 
ATOM     14  C   UNL     1      -4.136   0.152  -0.139  0.00  0.00    +0.059 C 
ATOM     15  C   UNL     1      -4.732  -1.105  -0.106  0.00  0.00    +0.059 C 
ATOM     16  C   UNL     1      -4.860   1.345  -0.107  0.00  0.00    +0.019 C 
ATOM     17  C   UNL     1      -6.132  -1.198  -0.037  0.00  0.00    +0.016 C 
ATOM     18  C   UNL     1      -6.253   1.234  -0.038  0.00  0.00    +0.073 C 
ATOM     19  C   UNL     1      -6.879  -0.014  -0.004  0.00  0.00    +0.005 C 
ATOM     20  H   UNL     1      -2.071   0.561  -0.241  0.00  0.00    +0.148 HD
ATOM     21  H   UNL     1      -3.930  -3.072  -0.139  0.00  0.00    +0.148 HD
BRANCH  18  25
ATOM     22  F   UNL     1      -6.816   3.279   1.066  0.00  0.00    -0.166 F 
ATOM     23  F   UNL     1      -6.920   3.271  -1.100  0.00  0.00    -0.166 F 
ATOM     24  F   UNL     1      -8.419   2.207   0.061  0.00  0.00    -0.166 F 
ATOM     25  C   UNL     1      -7.083   2.474  -0.004  0.00  0.00    +0.419 C 
ENDBRANCH  18  25
ENDBRANCH   3  13
BRANCH   9  26
ATOM     26  O   UNL     1       4.727  -1.308   0.127  0.00  0.00    -0.454 OA
BRANCH  26  30
ATOM     27  O   UNL     1       5.664   4.799   1.541  0.00  0.00    -0.275 OA
ATOM     28  N   UNL     1       5.204   3.468  -0.273  0.00  0.00    -0.270 N 
ATOM     29  N   UNL     1       4.651   2.157  -2.163  0.00  0.00    -0.229 NA
ATOM     30  C   UNL     1       4.686  -0.159  -0.604  0.00  0.00    +0.146 C 
ATOM     31  C   UNL     1       4.949   1.081  -0.019  0.00  0.00    +0.045 C 
ATOM     32  C   UNL     1       5.366   1.198   1.415  0.00  0.00    +0.042 C 
ATOM     33  C   UNL     1       4.389  -0.236  -1.960  0.00  0.00    +0.058 C 
ATOM     34  C   UNL     1       4.917   2.210  -0.836  0.00  0.00    +0.133 C 
ATOM     35  C   UNL     1       4.965   2.549   1.986  0.00  0.00    +0.090 C 
ATOM     36  C   UNL     1       5.345   3.703   1.080  0.00  0.00    +0.227 C 
ATOM     37  C   UNL     1       4.388   0.940  -2.688  0.00  0.00    +0.103 C 
ATOM     38  H   UNL     1       5.311   4.232  -0.885  0.00  0.00    +0.156 HD
ENDBRANCH  26  30
ENDBRANCH   9  26
TORSDOF 4
