REMARK  Name = 33498
REMARK  3 active torsions:
REMARK  status: ('A' for Active; 'I' for Inactive)
REMARK    1  A    between atoms: CA_5  and  N_11
REMARK    2  A    between atoms: CA_7  and  C_16
REMARK    3  A    between atoms: C_16  and  O_17
REMARK                            x       y       z     vdW  Elec       q    Type
REMARK                         _______ _______ _______ _____ _____    ______ ____
ROOT
ATOM      1  S   UNL     1       1.265   2.234  -0.349  0.00  0.00    -0.118 S 
ATOM      2  O   UNL     1       1.256  -2.406  -0.066  0.00  0.00    -0.277 OA
ATOM      3  N   UNL     1       0.454  -0.215   0.277  0.00  0.00    -0.249 N 
ATOM      4  C   UNL     1       1.382   0.799   0.743  0.00  0.00    +0.117 C 
ATOM      5  CA  UNL     1       2.502  -0.216   0.425  0.00  0.00    +0.043 C 
ATOM      6  C   UNL     1       1.345  -1.227   0.186  0.00  0.00    +0.212 C 
ATOM      7  CA  UNL     1      -0.868   0.011   0.065  0.00  0.00    +0.123 C 
ATOM      8  C   UNL     1      -1.367   1.267  -0.010  0.00  0.00    -0.013 C 
ATOM      9  C   UNL     1      -0.496   2.521   0.034  0.00  0.00    +0.082 C 
ATOM     10  C   UNL     1      -2.832   1.600  -0.162  0.00  0.00    +0.029 C 
ENDROOT
BRANCH   5  11
ATOM     11  N   UNL     1       3.235   0.051  -0.808  0.00  0.00    +0.389 N 
ATOM     12  H1  UNL     1       3.986   0.716  -0.620  0.00  0.00    -0.088 HD
ATOM     13  H2  UNL     1       2.600   0.443  -1.503  0.00  0.00    -0.088 HD
ATOM     14  H3  UNL     1       3.632  -0.819  -1.162  0.00  0.00    -0.088 HD
ENDBRANCH   5  11
BRANCH   7  16
ATOM     15  OXT UNL     1      -1.910  -1.693  -1.225  0.00  0.00    -0.244 OA
ATOM     16  C   UNL     1      -1.721  -1.168  -0.146  0.00  0.00    +0.351 C 
BRANCH  16  17
ATOM     17  O   UNL     1      -2.244  -1.558   1.034  0.00  0.00    -0.476 OA
ATOM     18  H   UNL     1      -2.037  -1.086   1.817  0.00  0.00    +0.295 HD
ENDBRANCH  16  17
ENDBRANCH   7  16
TORSDOF 3
