REMARK  Name = 4553
REMARK  5 active torsions:
REMARK  status: ('A' for Active; 'I' for Inactive)
REMARK    1  A    between atoms: C_1  and  O_16
REMARK    2  A    between atoms: C_2  and  N_10
REMARK    3  A    between atoms: C_5  and  N_9
REMARK    4  A    between atoms: N_10  and  S_12
REMARK    5  A    between atoms: O_16  and  C_17
REMARK                            x       y       z     vdW  Elec       q    Type
REMARK                         _______ _______ _______ _____ _____    ______ ____
ROOT
ATOM      1  C   UNL     1      -0.201  -0.116   0.128  0.00  0.00    +0.154 C 
ATOM      2  C   UNL     1      -1.203   0.615  -0.502  0.00  0.00    +0.098 C 
ATOM      3  C   UNL     1      -0.345  -1.485   0.330  0.00  0.00    +0.062 C 
ATOM      4  C   UNL     1      -2.363  -0.030  -0.933  0.00  0.00    +0.021 C 
ATOM      5  C   UNL     1      -1.505  -2.129  -0.102  0.00  0.00    +0.146 C 
ATOM      6  C   UNL     1      -2.513  -1.402  -0.733  0.00  0.00    +0.026 C 
ENDROOT
BRANCH   5   9
ATOM      7  O   UNL     1      -2.709  -4.087  -0.293  0.00  0.00    -0.126 OA
ATOM      8  O   UNL     1      -0.739  -4.162   0.672  0.00  0.00    -0.126 OA
ATOM      9  N   UNL     1      -1.658  -3.526   0.102  0.00  0.00    +0.058 N 
ENDBRANCH   5   9
BRANCH   2  10
ATOM     10  N   UNL     1      -1.063   2.022  -0.715  0.00  0.00    -0.216 N 
ATOM     11  H   UNL     1      -0.421   2.372  -1.374  0.00  0.00    +0.173 HD
BRANCH  10  12
ATOM     12  S   UNL     1      -2.048   3.085   0.213  0.00  0.00    +0.056 S 
ATOM     13  O   UNL     1      -1.929   4.421  -0.343  0.00  0.00    -0.154 OA
ATOM     14  O   UNL     1      -3.353   2.503   0.458  0.00  0.00    -0.154 OA
ATOM     15  C   UNL     1      -1.152   3.084   1.750  0.00  0.00    +0.200 C 
ENDBRANCH  10  12
ENDBRANCH   2  10
BRANCH   1  16
ATOM     16  O   UNL     1       0.946   0.499   0.556  0.00  0.00    -0.478 OA
BRANCH  16  17
ATOM     17  C   UNL     1       2.169   0.036  -0.005  0.00  0.00    +0.166 C 
ATOM     18  C   UNL     1       2.851   1.176  -0.761  0.00  0.00    +0.044 C 
ATOM     19  C   UNL     1       3.063  -0.519   1.103  0.00  0.00    +0.044 C 
ATOM     20  C   UNL     1       4.215   0.756  -1.298  0.00  0.00    +0.004 C 
ATOM     21  C   UNL     1       4.428  -0.939   0.565  0.00  0.00    +0.004 C 
ATOM     22  C   UNL     1       5.108   0.199  -0.192  0.00  0.00    +0.000 C 
ENDBRANCH  16  17
ENDBRANCH   1  16
TORSDOF 5
