REMARK  Name = 102333
REMARK  5 active torsions:
REMARK  status: ('A' for Active; 'I' for Inactive)
REMARK    1  A    between atoms: C_8  and  C_30
REMARK    2  A    between atoms: C_13  and  O_27
REMARK    3  A    between atoms: C_30  and  C_31
REMARK    4  A    between atoms: C_31  and  O_32
REMARK    5  A    between atoms: O_32  and  C_34
REMARK                            x       y       z     vdW  Elec       q    Type
REMARK                         _______ _______ _______ _____ _____    ______ ____
ROOT
ATOM      1  F   UNL     1       4.886  -2.340  -0.785  0.00  0.00    -0.233 F 
ATOM      2  O   UNL     1      -2.179  -1.014   1.146  0.00  0.00    -0.330 OA
ATOM      3  O   UNL     1      -2.267  -3.185   0.251  0.00  0.00    -0.334 OA
ATOM      4  O   UNL     1       6.191   0.940   2.615  0.00  0.00    -0.291 OA
ATOM      5  C   UNL     1      -0.918  -0.068  -0.764  0.00  0.00    +0.034 C 
ATOM      6  C   UNL     1       0.194  -1.117  -0.536  0.00  0.00    +0.005 C 
ATOM      7  C   UNL     1       1.578  -0.649  -1.005  0.00  0.00    +0.006 C 
ATOM      8  C   UNL     1      -2.144  -0.880  -0.272  0.00  0.00    +0.174 C 
ATOM      9  C   UNL     1       1.966   0.641  -0.190  0.00  0.00    +0.031 C 
ATOM     10  C   UNL     1      -0.397  -2.403  -1.118  0.00  0.00    +0.033 C 
ATOM     11  C   UNL     1      -1.905  -2.296  -0.802  0.00  0.00    +0.149 C 
ATOM     12  C   UNL     1      -0.558   1.177   0.070  0.00  0.00    +0.032 C 
ATOM     13  C   UNL     1       0.853   1.729  -0.239  0.00  0.00    +0.111 C 
ATOM     14  C   UNL     1       3.428   1.124  -0.533  0.00  0.00    +0.020 C 
ATOM     15  C   UNL     1       2.623  -1.767  -0.829  0.00  0.00    +0.040 C 
ATOM     16  C   UNL     1      -1.113   0.307  -2.259  0.00  0.00    +0.003 C 
ATOM     17  C   UNL     1       4.335  -0.082  -0.244  0.00  0.00    -0.010 C 
ATOM     18  C   UNL     1       4.054  -1.301  -1.088  0.00  0.00    +0.179 C 
ATOM     19  C   UNL     1      -2.452  -2.391   1.424  0.00  0.00    +0.188 C 
ATOM     20  C   UNL     1       3.881   2.349   0.310  0.00  0.00    +0.012 C 
ATOM     21  C   UNL     1       3.599   1.556  -2.012  0.00  0.00    +0.004 C 
ATOM     22  C   UNL     1       4.226   2.003   1.746  0.00  0.00    +0.069 C 
ATOM     23  C   UNL     1       5.228  -0.134   0.758  0.00  0.00    +0.032 C 
ATOM     24  C   UNL     1      -1.497  -2.874   2.509  0.00  0.00    +0.061 C 
ATOM     25  C   UNL     1      -3.900  -2.534   1.885  0.00  0.00    +0.061 C 
ATOM     26  C   UNL     1       5.310   0.956   1.760  0.00  0.00    +0.173 C 
ENDROOT
BRANCH  13  27
ATOM     27  O   UNL     1       0.842   2.397  -1.492  0.00  0.00    -0.384 OA
ATOM     28  H   UNL     1       1.728   2.743  -1.683  0.00  0.00    +0.210 HD
ENDBRANCH  13  27
BRANCH   8  30
ATOM     29  O   UNL     1      -4.263  -0.908  -1.363  0.00  0.00    -0.290 OA
ATOM     30  C   UNL     1      -3.463  -0.284  -0.669  0.00  0.00    +0.221 C 
BRANCH  30  31
ATOM     31  C   UNL     1      -3.743   1.117  -0.168  0.00  0.00    +0.275 C 
BRANCH  31  32
ATOM     32  O   UNL     1      -5.128   1.308   0.030  0.00  0.00    -0.440 OA
BRANCH  32  34
ATOM     33  O   UNL     1      -4.758   3.478   0.730  0.00  0.00    -0.250 OA
ATOM     34  C   UNL     1      -5.510   2.544   0.486  0.00  0.00    +0.318 C 
ATOM     35  C   UNL     1      -6.998   2.601   0.648  0.00  0.00    +0.121 C 
ENDBRANCH  32  34
ENDBRANCH  31  32
ENDBRANCH  30  31
ENDBRANCH   8  30
TORSDOF 5
