REMARK  Name = 66645351
REMARK  11 active torsions:
REMARK  status: ('A' for Active; 'I' for Inactive)
REMARK    1  A    between atoms: C_2  and  C_4
REMARK    2  A    between atoms: C_2  and  C_18
REMARK    3  A    between atoms: C_3  and  C_5
REMARK    4  A    between atoms: C_6  and  O_11
REMARK    5  A    between atoms: C_8  and  O_13
REMARK    6  A    between atoms: O_13  and  S_14
REMARK    7  A    between atoms: C_18  and  C_20
REMARK    8  A    between atoms: C_20  and  C_22
REMARK    9  A    between atoms: C_21  and  C_23
REMARK   10  A    between atoms: C_25  and  O_29
REMARK   11  A    between atoms: C_27  and  O_31
REMARK                            x       y       z     vdW  Elec       q    Type
REMARK                         _______ _______ _______ _____ _____    ______ ____
ROOT
ATOM      1  O   UNL     1       0.182  -2.462   0.093  0.00  0.00    -0.291 OA
ATOM      2  C   UNL     1       0.020  -1.260   0.287  0.00  0.00    +0.181 C 
ENDROOT
BRANCH   2   4
ATOM      3  C   UNL     1      -2.434  -1.433   0.314  0.00  0.00    +0.003 C 
ATOM      4  C   UNL     1      -1.343  -0.659   0.392  0.00  0.00    +0.038 C 
BRANCH   3   5
ATOM      5  C   UNL     1      -3.820  -0.940   0.414  0.00  0.00    +0.003 C 
ATOM      6  C   UNL     1      -5.409   0.875   0.281  0.00  0.00    +0.175 C 
ATOM      7  C   UNL     1      -4.098   0.407   0.186  0.00  0.00    +0.040 C 
ATOM      8  C   UNL     1      -6.442  -0.006   0.604  0.00  0.00    +0.209 C 
ATOM      9  C   UNL     1      -4.852  -1.821   0.737  0.00  0.00    +0.003 C 
ATOM     10  C   UNL     1      -6.163  -1.354   0.832  0.00  0.00    +0.043 C 
BRANCH   6  11
ATOM     11  O   UNL     1      -5.669   2.193   0.055  0.00  0.00    -0.468 OA
ATOM     12  C   UNL     1      -4.558   3.026  -0.270  0.00  0.00    +0.253 C 
ENDBRANCH   6  11
BRANCH   8  13
ATOM     13  O   UNL     1      -7.726   0.438   0.700  0.00  0.00    -0.319 OA
BRANCH  13  14
ATOM     14  S   UNL     1      -8.676   0.418  -0.641  0.00  0.00    +0.282 S 
ATOM     15  O   UNL     1     -10.055   1.144  -0.154  0.00  0.00    -0.012 OA
ATOM     16  O   UNL     1      -8.070   1.253  -1.662  0.00  0.00    -0.105 OA
ATOM     17  O   UNL     1      -8.996  -0.967  -0.934  0.00  0.00    -0.105 OA
ENDBRANCH  13  14
ENDBRANCH   8  13
ENDBRANCH   3   5
ENDBRANCH   2   4
BRANCH   2  18
ATOM     18  C   UNL     1       1.177  -0.287   0.389  0.00  0.00    +0.138 C 
BRANCH  18  20
ATOM     19  O   UNL     1       2.386  -1.387  -1.382  0.00  0.00    -0.291 OA
ATOM     20  C   UNL     1       2.423  -0.674  -0.383  0.00  0.00    +0.181 C 
BRANCH  20  22
ATOM     21  C   UNL     1       4.873  -0.456  -0.434  0.00  0.00    +0.003 C 
ATOM     22  C   UNL     1       3.713  -0.169   0.174  0.00  0.00    +0.038 C 
BRANCH  21  23
ATOM     23  C   UNL     1       6.197  -0.014   0.037  0.00  0.00    +0.003 C 
ATOM     24  C   UNL     1       7.279   0.008  -0.843  0.00  0.00    +0.040 C 
ATOM     25  C   UNL     1       8.533   0.426  -0.398  0.00  0.00    +0.172 C 
ATOM     26  C   UNL     1       6.370   0.381   1.364  0.00  0.00    +0.003 C 
ATOM     27  C   UNL     1       8.705   0.821   0.929  0.00  0.00    +0.168 C 
ATOM     28  C   UNL     1       7.624   0.798   1.810  0.00  0.00    +0.040 C 
BRANCH  25  29
ATOM     29  O   UNL     1       9.582   0.444  -1.267  0.00  0.00    -0.468 OA
ATOM     30  C   UNL     1       9.321   0.025  -2.605  0.00  0.00    +0.253 C 
ENDBRANCH  25  29
BRANCH  27  31
ATOM     31  O   UNL     1       9.925   1.231   1.377  0.00  0.00    -0.503 OA
ATOM     32  H   UNL     1      10.657   1.249   0.792  0.00  0.00    +0.292 HD
ENDBRANCH  27  31
ENDBRANCH  21  23
ENDBRANCH  20  22
ENDBRANCH  18  20
ENDBRANCH   2  18
TORSDOF 11
