REMARK  Name = 136256
REMARK  3 active torsions:
REMARK  status: ('A' for Active; 'I' for Inactive)
REMARK    1  A    between atoms: C_1  and  C_5
REMARK    2  A    between atoms: C_1  and  O_6
REMARK    3  A    between atoms: O_6  and  C_8
REMARK                            x       y       z     vdW  Elec       q    Type
REMARK                         _______ _______ _______ _____ _____    ______ ____
ROOT
ATOM      1  C   UNL     1      -0.275   0.661   0.004  0.00  0.00    +0.311 C 
ENDROOT
BRANCH   1   5
ATOM      2  F   UNL     1      -1.780  -0.776  -1.090  0.00  0.00    -0.166 F 
ATOM      3  F   UNL     1      -2.619   0.923  -0.010  0.00  0.00    -0.166 F 
ATOM      4  F   UNL     1      -1.797  -0.776   1.091  0.00  0.00    -0.166 F 
ATOM      5  C   UNL     1      -1.630   0.004   0.003  0.00  0.00    +0.438 C 
ENDBRANCH   1   5
BRANCH   1   6
ATOM      6  O   UNL     1       0.736  -0.352   0.000  0.00  0.00    -0.439 OA
BRANCH   6   8
ATOM      7  O   UNL     1       2.378   1.274   0.004  0.00  0.00    -0.250 OA
ATOM      8  C   UNL     1       2.022   0.103   0.001  0.00  0.00    +0.318 C 
ATOM      9  C   UNL     1       2.965  -1.062  -0.003  0.00  0.00    +0.121 C 
ENDBRANCH   6   8
ENDBRANCH   1   6
TORSDOF 3
