REMARK  Name = 26391
REMARK  6 active torsions:
REMARK  status: ('A' for Active; 'I' for Inactive)
REMARK    1  A    between atoms: C_4  and  C_13
REMARK    2  A    between atoms: C_4  and  C_23
REMARK    3  A    between atoms: C_18  and  O_19
REMARK    4  A    between atoms: O_19  and  C_21
REMARK    5  A    between atoms: C_28  and  O_29
REMARK    6  A    between atoms: O_29  and  C_31
REMARK                            x       y       z     vdW  Elec       q    Type
REMARK                         _______ _______ _______ _____ _____    ______ ____
ROOT
ATOM      1  O   UNL     1      -0.438  -1.774  -0.784  0.00  0.00    -0.464 OA
ATOM      2  O   UNL     1      -0.020  -1.290   2.785  0.00  0.00    -0.270 OA
ATOM      3  N   UNL     1      -1.547  -2.566   1.671  0.00  0.00    -0.278 N 
ATOM      4  C   UNL     1      -0.201  -0.942   0.367  0.00  0.00    +0.238 C 
ATOM      5  C   UNL     1      -0.549  -1.620   1.722  0.00  0.00    +0.271 C 
ATOM      6  C   UNL     1      -1.522  -2.599  -0.734  0.00  0.00    +0.153 C 
ATOM      7  C   UNL     1      -2.087  -3.012   0.465  0.00  0.00    +0.085 C 
ATOM      8  C   UNL     1      -2.021  -3.082  -1.943  0.00  0.00    +0.038 C 
ATOM      9  C   UNL     1      -3.161  -3.905   0.469  0.00  0.00    +0.018 C 
ATOM     10  C   UNL     1      -3.101  -3.964  -1.946  0.00  0.00    +0.003 C 
ATOM     11  C   UNL     1      -3.671  -4.375  -0.741  0.00  0.00    +0.001 C 
ATOM     12  H   UNL     1      -1.891  -2.942   2.513  0.00  0.00    +0.155 HD
ENDROOT
BRANCH   4  13
ATOM     13  C   UNL     1       1.318  -0.652   0.387  0.00  0.00    +0.026 C 
ATOM     14  C   UNL     1       1.780   0.589   0.816  0.00  0.00    +0.003 C 
ATOM     15  C   UNL     1       2.215  -1.634  -0.024  0.00  0.00    +0.003 C 
ATOM     16  C   UNL     1       3.150   0.850   0.835  0.00  0.00    +0.037 C 
ATOM     17  C   UNL     1       3.585  -1.372  -0.005  0.00  0.00    +0.037 C 
ATOM     18  C   UNL     1       4.052  -0.130   0.424  0.00  0.00    +0.148 C 
BRANCH  18  19
ATOM     19  O   UNL     1       5.389   0.126   0.442  0.00  0.00    -0.424 OA
BRANCH  19  21
ATOM     20  O   UNL     1       5.225   0.921  -1.754  0.00  0.00    -0.250 OA
ATOM     21  C   UNL     1       5.884   0.674  -0.753  0.00  0.00    +0.322 C 
ATOM     22  C   UNL     1       7.359   0.918  -0.633  0.00  0.00    +0.122 C 
ENDBRANCH  19  21
ENDBRANCH  18  19
ENDBRANCH   4  13
BRANCH   4  23
ATOM     23  C   UNL     1      -1.029   0.340   0.119  0.00  0.00    +0.026 C 
ATOM     24  C   UNL     1      -0.845   1.068  -1.053  0.00  0.00    +0.003 C 
ATOM     25  C   UNL     1      -1.956   0.761   1.070  0.00  0.00    +0.003 C 
ATOM     26  C   UNL     1      -1.592   2.224  -1.277  0.00  0.00    +0.037 C 
ATOM     27  C   UNL     1      -2.703   1.917   0.846  0.00  0.00    +0.037 C 
ATOM     28  C   UNL     1      -2.521   2.649  -0.328  0.00  0.00    +0.148 C 
BRANCH  28  29
ATOM     29  O   UNL     1      -3.249   3.778  -0.546  0.00  0.00    -0.424 OA
BRANCH  29  31
ATOM     30  O   UNL     1      -1.571   5.018   0.515  0.00  0.00    -0.250 OA
ATOM     31  C   UNL     1      -2.648   4.951  -0.061  0.00  0.00    +0.322 C 
ATOM     32  C   UNL     1      -3.525   6.134  -0.349  0.00  0.00    +0.122 C 
ENDBRANCH  29  31
ENDBRANCH  28  29
ENDBRANCH   4  23
TORSDOF 6
