REMARK  Name = 9865808
REMARK  5 active torsions:
REMARK  status: ('A' for Active; 'I' for Inactive)
REMARK    1  A    between atoms: N_1  and  C_13
REMARK    2  A    between atoms: C_3  and  C_7
REMARK    3  A    between atoms: C_5  and  C_28
REMARK    4  A    between atoms: C_16  and  S_19
REMARK    5  A    between atoms: S_19  and  N_22
REMARK                            x       y       z     vdW  Elec       q    Type
REMARK                         _______ _______ _______ _____ _____    ______ ____
ROOT
ATOM      1  N   UNL     1      -1.073  -0.606   0.001  0.00  0.00    -0.190 N 
ATOM      2  N   UNL     1      -1.934  -1.637   0.023  0.00  0.00    -0.170 NA
ATOM      3  C   UNL     1      -1.676   0.619  -0.006  0.00  0.00    +0.075 C 
ATOM      4  C   UNL     1      -3.028   0.368   0.011  0.00  0.00    +0.041 C 
ATOM      5  C   UNL     1      -3.127  -1.036   0.029  0.00  0.00    +0.172 C 
ENDROOT
BRANCH   3   7
ATOM      6 CL   UNL     1       1.222   5.818  -0.100  0.00  0.00    -0.082 Cl
ATOM      7  C   UNL     1      -0.974   1.879  -0.029  0.00  0.00    +0.016 C 
ATOM      8  C   UNL     1      -0.621   2.502   1.168  0.00  0.00    +0.002 C 
ATOM      9  C   UNL     1      -0.648   2.474  -1.248  0.00  0.00    +0.002 C 
ATOM     10  C   UNL     1       0.058   3.720   1.146  0.00  0.00    +0.011 C 
ATOM     11  C   UNL     1       0.031   3.692  -1.270  0.00  0.00    +0.011 C 
ATOM     12  C   UNL     1       0.384   4.315  -0.073  0.00  0.00    +0.058 C 
ENDBRANCH   3   7
BRANCH   1  13
ATOM     13  C   UNL     1       0.300  -0.858  -0.012  0.00  0.00    +0.074 C 
ATOM     14  C   UNL     1       1.168   0.055   0.572  0.00  0.00    +0.018 C 
ATOM     15  C   UNL     1       0.777  -2.017  -0.609  0.00  0.00    +0.018 C 
ATOM     16  C   UNL     1       3.031  -1.358  -0.038  0.00  0.00    +0.122 C 
ATOM     17  C   UNL     1       2.540  -0.197   0.558  0.00  0.00    +0.021 C 
ATOM     18  C   UNL     1       2.149  -2.268  -0.622  0.00  0.00    +0.021 C 
BRANCH  16  19
ATOM     19  S   UNL     1       4.748  -1.673  -0.054  0.00  0.00    +0.057 S 
ATOM     20  O   UNL     1       5.042  -2.563  -1.169  0.00  0.00    -0.153 OA
ATOM     21  O   UNL     1       5.452  -0.404   0.064  0.00  0.00    -0.153 OA
BRANCH  19  22
ATOM     22  N   UNL     1       4.933  -2.541   1.407  0.00  0.00    -0.203 NA
ATOM     23  H   UNL     1       5.913  -2.796   1.529  0.00  0.00    +0.144 HD
ATOM     24  H   UNL     1       4.363  -3.386   1.374  0.00  0.00    +0.144 HD
ENDBRANCH  19  22
ENDBRANCH  16  19
ENDBRANCH   1  13
BRANCH   5  28
ATOM     25  F   UNL     1      -5.499  -1.101   0.059  0.00  0.00    -0.164 F 
ATOM     26  F   UNL     1      -4.474  -2.686  -1.020  0.00  0.00    -0.164 F 
ATOM     27  F   UNL     1      -4.425  -2.647   1.159  0.00  0.00    -0.164 F 
ATOM     28  C   UNL     1      -4.355  -1.849   0.054  0.00  0.00    +0.436 C 
ENDBRANCH   5  28
TORSDOF 5
