REMARK  Name = 7347
REMARK  4 active torsions:
REMARK  status: ('A' for Active; 'I' for Inactive)
REMARK    1  A    between atoms: S_1  and  C_3
REMARK    2  A    between atoms: S_1  and  C_8
REMARK    3  A    between atoms: C_3  and  N_4
REMARK    4  A    between atoms: C_8  and  N_9
REMARK                            x       y       z     vdW  Elec       q    Type
REMARK                         _______ _______ _______ _____ _____    ______ ____
ROOT
ATOM      1  S   UNL     1       0.000   0.001   1.190  0.00  0.00    -0.044 S 
ENDROOT
BRANCH   1   3
ATOM      2  S   UNL     1      -0.813   1.814  -1.039  0.00  0.00    -0.028 S 
ATOM      3  C   UNL     1      -1.227   0.570   0.030  0.00  0.00    +0.117 C 
BRANCH   3   4
ATOM      4  N   UNL     1      -2.491  -0.052   0.105  0.00  0.00    -0.294 N 
ATOM      5  C   UNL     1      -3.632   0.301  -0.745  0.00  0.00    +0.113 C 
ATOM      6  C   UNL     1      -2.779  -1.129   1.055  0.00  0.00    +0.113 C 
ENDBRANCH   3   4
ENDBRANCH   1   3
BRANCH   1   8
ATOM      7  S   UNL     1       0.813  -1.814  -1.039  0.00  0.00    -0.028 S 
ATOM      8  C   UNL     1       1.227  -0.569   0.030  0.00  0.00    +0.117 C 
BRANCH   8   9
ATOM      9  N   UNL     1       2.490   0.053   0.104  0.00  0.00    -0.294 N 
ATOM     10  C   UNL     1       3.631  -0.302  -0.746  0.00  0.00    +0.113 C 
ATOM     11  C   UNL     1       2.780   1.129   1.056  0.00  0.00    +0.113 C 
ENDBRANCH   8   9
ENDBRANCH   1   8
TORSDOF 4
