REMARK  Name = 61948
REMARK  5 active torsions:
REMARK  status: ('A' for Active; 'I' for Inactive)
REMARK    1  A    between atoms: C_2  and  C_4
REMARK    2  A    between atoms: C_2  and  C_6
REMARK    3  A    between atoms: C_2  and  C_7
REMARK    4  A    between atoms: C_7  and  C_8
REMARK    5  A    between atoms: C_8  and  C_10
REMARK                            x       y       z     vdW  Elec       q    Type
REMARK                         _______ _______ _______ _____ _____    ______ ____
ROOT
ATOM      1 BR   UNL     1      -0.918   1.532  -1.852  0.00  0.00    -0.066 Br
ATOM      2  C   UNL     1      -0.915   0.147  -0.413  0.00  0.00    +0.138 C 
ENDROOT
BRANCH   2   4
ATOM      3 BR   UNL     1      -2.205  -2.348   0.401  0.00  0.00    -0.079 Br
ATOM      4  C   UNL     1      -1.936  -0.900  -0.883  0.00  0.00    +0.092 C 
ENDBRANCH   2   4
BRANCH   2   6
ATOM      5  N   UNL     1      -1.698   1.329   1.808  0.00  0.00    -0.195 NA
ATOM      6  C   UNL     1      -1.353   0.806   0.830  0.00  0.00    +0.083 C 
ENDBRANCH   2   6
BRANCH   2   7
ATOM      7  C   UNL     1       0.517  -0.428  -0.309  0.00  0.00    +0.042 C 
BRANCH   7   8
ATOM      8  C   UNL     1       1.628   0.584   0.021  0.00  0.00    +0.107 C 
BRANCH   8  10
ATOM      9  N   UNL     1       3.953  -0.628   0.249  0.00  0.00    -0.196 NA
ATOM     10  C   UNL     1       2.928  -0.095   0.148  0.00  0.00    +0.073 C 
ENDBRANCH   8  10
ENDBRANCH   7   8
ENDBRANCH   2   7
TORSDOF 5
