REMARK  Name = 56960912
REMARK  4 active torsions:
REMARK  status: ('A' for Active; 'I' for Inactive)
REMARK    1  A    between atoms: C_2  and  C_12
REMARK    2  A    between atoms: C_9  and  O_22
REMARK    3  A    between atoms: C_15  and  C_19
REMARK    4  A    between atoms: C_19  and  O_20
REMARK                            x       y       z     vdW  Elec       q    Type
REMARK                         _______ _______ _______ _____ _____    ______ ____
ROOT
ATOM      1  N   UNL     1       1.023   0.420  -0.511  0.00  0.00    -0.406 NA
ATOM      2  C   UNL     1       0.281  -0.176   0.451  0.00  0.00    +0.131 C 
ATOM      3  C   UNL     1       3.000  -0.293   0.667  0.00  0.00    +0.099 C 
ATOM      4  C   UNL     1       2.364   0.364  -0.407  0.00  0.00    +0.117 C 
ATOM      5  C   UNL     1       0.813  -0.842   1.537  0.00  0.00    +0.028 C 
ATOM      6  C   UNL     1       2.195  -0.898   1.641  0.00  0.00    -0.012 C 
ATOM      7  C   UNL     1       4.403  -0.332   0.744  0.00  0.00    +0.022 C 
ATOM      8  C   UNL     1       3.165   0.964  -1.374  0.00  0.00    +0.031 C 
ATOM      9  C   UNL     1       5.179   0.276  -0.238  0.00  0.00    +0.130 C 
ATOM     10  C   UNL     1       4.559   0.925  -1.298  0.00  0.00    +0.039 C 
ENDROOT
BRANCH   2  12
ATOM     11 CL   UNL     1      -1.105  -2.407  -1.162  0.00  0.00    -0.082 Cl
ATOM     12  C   UNL     1      -1.147  -0.073   0.268  0.00  0.00    +0.040 C 
ATOM     13  C   UNL     1      -1.869  -1.030  -0.445  0.00  0.00    +0.060 C 
ATOM     14  C   UNL     1      -1.805   1.022   0.829  0.00  0.00    +0.004 C 
ATOM     15  C   UNL     1      -3.907   0.203  -0.037  0.00  0.00    +0.076 C 
ATOM     16  C   UNL     1      -3.249  -0.892  -0.598  0.00  0.00    +0.018 C 
ATOM     17  C   UNL     1      -3.185   1.160   0.677  0.00  0.00    +0.007 C 
BRANCH  15  19
ATOM     18  O   UNL     1      -6.080  -0.438  -0.804  0.00  0.00    -0.245 OA
ATOM     19  C   UNL     1      -5.345   0.346  -0.195  0.00  0.00    +0.338 C 
BRANCH  19  20
ATOM     20  O   UNL     1      -5.827   1.465   0.413  0.00  0.00    -0.477 OA
ATOM     21  H   UNL     1      -5.242   2.040   0.867  0.00  0.00    +0.295 HD
ENDBRANCH  19  20
ENDBRANCH  15  19
ENDBRANCH   2  12
BRANCH   9  22
ATOM     22  O   UNL     1       6.537   0.236  -0.159  0.00  0.00    -0.506 OA
ATOM     23  H   UNL     1       6.952  -0.202   0.557  0.00  0.00    +0.292 HD
ENDBRANCH   9  22
TORSDOF 4
