REMARK  Name = 44537841
REMARK  8 active torsions:
REMARK  status: ('A' for Active; 'I' for Inactive)
REMARK    1  A    between atoms: C_4  and  C_12
REMARK    2  A    between atoms: C_4  and  O_18
REMARK    3  A    between atoms: C_10  and  C_20
REMARK    4  A    between atoms: C_20  and  N_22
REMARK    5  A    between atoms: C_20  and  C_33
REMARK    6  A    between atoms: N_23  and  C_27
REMARK    7  A    between atoms: C_27  and  C_28
REMARK    8  A    between atoms: C_28  and  O_31
REMARK                            x       y       z     vdW  Elec       q    Type
REMARK                         _______ _______ _______ _____ _____    ______ ____
ROOT
ATOM      1  O   UNL     1      -1.167  -0.847  -2.033  0.00  0.00    -0.273 OA
ATOM      2  N   UNL     1       0.244  -0.867  -0.186  0.00  0.00    -0.278 N 
ATOM      3  C   UNL     1       2.614  -1.329  -0.865  0.00  0.00    +0.045 C 
ATOM      4  C   UNL     1       3.087  -0.771   0.542  0.00  0.00    +0.110 C 
ATOM      5  C   UNL     1       1.152  -1.857  -0.767  0.00  0.00    +0.096 C 
ATOM      6  C   UNL     1       2.022   0.194   1.137  0.00  0.00    +0.053 C 
ATOM      7  C   UNL     1       0.615  -0.406   1.152  0.00  0.00    +0.096 C 
ATOM      8  C   UNL     1       2.655  -0.246  -1.970  0.00  0.00    +0.004 C 
ATOM      9  C   UNL     1       3.487  -2.513  -1.340  0.00  0.00    +0.004 C 
ATOM     10  C   UNL     1      -0.875  -0.444  -0.904  0.00  0.00    +0.244 C 
ENDROOT
BRANCH   4  12
ATOM     11 CL   UNL     1       8.593   1.731   0.414  0.00  0.00    -0.082 Cl
ATOM     12  C   UNL     1       4.488  -0.135   0.509  0.00  0.00    +0.002 C 
ATOM     13  C   UNL     1       4.624   1.245   0.364  0.00  0.00    -0.001 C 
ATOM     14  C   UNL     1       5.622  -0.939   0.623  0.00  0.00    -0.001 C 
ATOM     15  C   UNL     1       5.893   1.822   0.334  0.00  0.00    +0.011 C 
ATOM     16  C   UNL     1       6.892  -0.362   0.593  0.00  0.00    +0.011 C 
ATOM     17  C   UNL     1       7.027   1.018   0.449  0.00  0.00    +0.058 C 
ENDBRANCH   4  12
BRANCH   4  18
ATOM     18  O   UNL     1       3.174  -1.863   1.483  0.00  0.00    -0.383 OA
ATOM     19  H   UNL     1       2.312  -2.304   1.546  0.00  0.00    +0.211 HD
ENDBRANCH   4  18
BRANCH  10  20
ATOM     20  C   UNL     1      -1.763   0.575  -0.235  0.00  0.00    +0.150 C 
BRANCH  20  22
ATOM     21  O   UNL     1      -3.909  -0.435   1.389  0.00  0.00    -0.253 OA
ATOM     22  N   UNL     1      -3.070   0.185  -0.684  0.00  0.00    -0.283 N 
ATOM     23  N   UNL     1      -5.231  -0.601  -0.512  0.00  0.00    -0.287 N 
ATOM     24  C   UNL     1      -4.059  -0.297   0.176  0.00  0.00    +0.301 C 
ATOM     25  H   UNL     1      -3.279   0.262  -1.643  0.00  0.00    +0.151 HD
ATOM     26  H   UNL     1      -5.253  -0.456  -1.486  0.00  0.00    +0.151 HD
BRANCH  23  27
ATOM     27  C   UNL     1      -6.415  -1.119   0.133  0.00  0.00    +0.118 C 
BRANCH  27  28
ATOM     28  C   UNL     1      -7.372  -0.016   0.609  0.00  0.00    +0.106 C 
ATOM     29  C   UNL     1      -8.584  -0.642   1.304  0.00  0.00    +0.031 C 
ATOM     30  C   UNL     1      -7.837   0.880  -0.540  0.00  0.00    +0.031 C 
BRANCH  28  31
ATOM     31  O   UNL     1      -6.699   0.811   1.561  0.00  0.00    -0.385 OA
ATOM     32  H   UNL     1      -6.393   0.266   2.303  0.00  0.00    +0.210 HD
ENDBRANCH  28  31
ENDBRANCH  27  28
ENDBRANCH  23  27
ENDBRANCH  20  22
BRANCH  20  33
ATOM     33  C   UNL     1      -1.396   2.006  -0.644  0.00  0.00    +0.027 C 
ATOM     34  C   UNL     1      -1.517   2.200  -2.159  0.00  0.00    +0.002 C 
ATOM     35  C   UNL     1      -2.295   3.024   0.067  0.00  0.00    +0.002 C 
ENDBRANCH  20  33
ENDBRANCH  10  20
TORSDOF 8
