REMARK  Name = 9838389
REMARK  6 active torsions:
REMARK  status: ('A' for Active; 'I' for Inactive)
REMARK    1  A    between atoms: C_1  and  C_11
REMARK    2  A    between atoms: C_4  and  N_9
REMARK    3  A    between atoms: C_5  and  O_19
REMARK    4  A    between atoms: C_6  and  O_21
REMARK    5  A    between atoms: C_11  and  C_12
REMARK    6  A    between atoms: C_12  and  C_13
REMARK                            x       y       z     vdW  Elec       q    Type
REMARK                         _______ _______ _______ _____ _____    ______ ____
ROOT
ATOM      1  C   UNL     1       0.595  -0.115   0.016  0.00  0.00    +0.040 C 
ATOM      2  C   UNL     1       1.558   0.893   0.007  0.00  0.00    +0.030 C 
ATOM      3  C   UNL     1       0.987  -1.454   0.015  0.00  0.00    +0.043 C 
ATOM      4  C   UNL     1       2.914   0.563  -0.003  0.00  0.00    +0.179 C 
ATOM      5  C   UNL     1       2.342  -1.784   0.004  0.00  0.00    +0.169 C 
ATOM      6  C   UNL     1       3.306  -0.775  -0.004  0.00  0.00    +0.190 C 
ENDROOT
BRANCH   4   9
ATOM      7  O   UNL     1       3.490   2.796  -0.010  0.00  0.00    -0.126 OA
ATOM      8  O   UNL     1       5.098   1.303  -0.021  0.00  0.00    -0.126 OA
ATOM      9  N   UNL     1       3.881   1.605  -0.012  0.00  0.00    +0.061 N 
ENDBRANCH   4   9
BRANCH   1  11
ATOM     10  O   UNL     1      -1.182   1.423   0.026  0.00  0.00    -0.291 OA
ATOM     11  C   UNL     1      -0.818   0.228   0.026  0.00  0.00    +0.178 C 
BRANCH  11  12
ATOM     12  C   UNL     1      -1.879  -0.886   0.036  0.00  0.00    +0.095 C 
BRANCH  12  13
ATOM     13  C   UNL     1      -3.303  -0.388   0.011  0.00  0.00    -0.014 C 
ATOM     14  C   UNL     1      -3.957  -0.140   1.208  0.00  0.00    -0.004 C 
ATOM     15  C   UNL     1      -3.931  -0.186  -1.208  0.00  0.00    -0.004 C 
ATOM     16  C   UNL     1      -5.274   0.321   1.185  0.00  0.00    -0.000 C 
ATOM     17  C   UNL     1      -5.248   0.275  -1.231  0.00  0.00    -0.000 C 
ATOM     18  C   UNL     1      -5.919   0.528  -0.034  0.00  0.00    -0.000 C 
ENDBRANCH  12  13
ENDBRANCH  11  12
ENDBRANCH   1  11
BRANCH   5  19
ATOM     19  O   UNL     1       2.711  -3.096   0.003  0.00  0.00    -0.503 OA
ATOM     20  H   UNL     1       2.056  -3.766   0.009  0.00  0.00    +0.292 HD
ENDBRANCH   5  19
BRANCH   6  21
ATOM     21  O   UNL     1       4.629  -1.110  -0.015  0.00  0.00    -0.502 OA
ATOM     22  H   UNL     1       5.282  -0.439  -0.021  0.00  0.00    +0.292 HD
ENDBRANCH   6  21
TORSDOF 6
