REMARK  Name = 76685198
REMARK  3 active torsions:
REMARK  status: ('A' for Active; 'I' for Inactive)
REMARK    1  A    between atoms: S_1  and  C_5
REMARK    2  A    between atoms: S_1  and  N_10
REMARK    3  A    between atoms: N_10  and  O_12
REMARK                            x       y       z     vdW  Elec       q    Type
REMARK                         _______ _______ _______ _____ _____    ______ ____
ROOT
ATOM      1  S   UNL     1       1.474   0.216  -0.376  0.00  0.00    +0.114 S 
ATOM      2  O   UNL     1       2.067   1.528  -0.215  0.00  0.00    -0.148 OA
ATOM      3  O   UNL     1       1.618  -0.518  -1.616  0.00  0.00    -0.148 OA
ENDROOT
BRANCH   1   5
ATOM      4  O   UNL     1      -1.072  -0.714  -0.240  0.00  0.00    -0.440 OA
ATOM      5  C   UNL     1      -0.267   0.368  -0.074  0.00  0.00    +0.269 C 
ATOM      6  C   UNL     1      -2.335  -0.308   0.058  0.00  0.00    +0.125 C 
ATOM      7  C   UNL     1      -1.002   1.460   0.327  0.00  0.00    +0.061 C 
ATOM      8  C   UNL     1      -2.344   1.021   0.412  0.00  0.00    +0.038 C 
ATOM      9  C   UNL     1      -3.389  -1.326  -0.055  0.00  0.00    +0.073 C 
ENDBRANCH   1   5
BRANCH   1  10
ATOM     10  N   UNL     1       1.919  -0.769   0.955  0.00  0.00    -0.068 NA
ATOM     11  H   UNL     1       1.433  -1.666   0.915  0.00  0.00    +0.181 HD
BRANCH  10  12
ATOM     12  O   UNL     1       3.331  -0.957   0.825  0.00  0.00    -0.294 OA
ATOM     13  H   UNL     1       3.652  -1.512   1.553  0.00  0.00    +0.238 HD
ENDBRANCH  10  12
ENDBRANCH   1  10
TORSDOF 3
