REMARK  Name = 7888
REMARK  7 active torsions:
REMARK  status: ('A' for Active; 'I' for Inactive)
REMARK    1  A    between atoms: C_1  and  C_2
REMARK    2  A    between atoms: C_1  and  C_8
REMARK    3  A    between atoms: C_2  and  C_3
REMARK    4  A    between atoms: C_3  and  C_5
REMARK    5  A    between atoms: C_5  and  C_7
REMARK    6  A    between atoms: C_8  and  C_9
REMARK    7  A    between atoms: C_9  and  O_12
REMARK                            x       y       z     vdW  Elec       q    Type
REMARK                         _______ _______ _______ _____ _____    ______ ____
ROOT
ATOM      1  C   UNL     1      -0.714  -0.072  -0.193  0.00  0.00    +0.002 C 
ENDROOT
BRANCH   1   2
ATOM      2  C   UNL     1       0.584   0.571   0.312  0.00  0.00    +0.001 C 
BRANCH   2   3
ATOM      3  C   UNL     1       1.860  -0.048  -0.298  0.00  0.00    +0.008 C 
ATOM      4  C   UNL     1       2.008  -1.526   0.082  0.00  0.00    +0.000 C 
BRANCH   3   5
ATOM      5  C   UNL     1       3.088   0.754   0.169  0.00  0.00    +0.072 C 
BRANCH   5   7
ATOM      6  O   UNL     1       5.368  -0.090   0.258  0.00  0.00    -0.288 OA
ATOM      7  C   UNL     1       4.399   0.264  -0.405  0.00  0.00    +0.207 C 
ENDBRANCH   5   7
ENDBRANCH   3   5
ENDBRANCH   2   3
ENDBRANCH   1   2
BRANCH   1   8
ATOM      8  C   UNL     1      -1.940   0.635   0.393  0.00  0.00    +0.027 C 
BRANCH   8   9
ATOM      9  C   UNL     1      -3.304   0.027   0.007  0.00  0.00    +0.088 C 
ATOM     10  C   UNL     1      -3.574   0.100  -1.497  0.00  0.00    +0.029 C 
ATOM     11  C   UNL     1      -3.458  -1.411   0.504  0.00  0.00    +0.029 C 
BRANCH   9  12
ATOM     12  O   UNL     1      -4.317   0.797   0.667  0.00  0.00    -0.387 OA
ATOM     13  H   UNL     1      -4.258   1.722   0.381  0.00  0.00    +0.210 HD
ENDBRANCH   9  12
ENDBRANCH   8   9
ENDBRANCH   1   8
TORSDOF 7
