REMARK  Name = 6585
REMARK  2 active torsions:
REMARK  status: ('A' for Active; 'I' for Inactive)
REMARK    1  A    between atoms: O_1  and  C_4
REMARK    2  A    between atoms: O_1  and  O_5
REMARK                            x       y       z     vdW  Elec       q    Type
REMARK                         _______ _______ _______ _____ _____    ______ ____
ROOT
ATOM      1  O   UNL     1       0.592   0.806   0.000  0.00  0.00    -0.299 OA
ENDROOT
BRANCH   1   4
ATOM      2  O   UNL     1      -0.284  -1.334   0.000  0.00  0.00    -0.247 OA
ATOM      3  C   UNL     1      -1.736   0.585   0.000  0.00  0.00    +0.125 C 
ATOM      4  C   UNL     1      -0.412  -0.117   0.000  0.00  0.00    +0.352 C 
ENDBRANCH   1   4
BRANCH   1   5
ATOM      5  O   UNL     1       1.840   0.061   0.000  0.00  0.00    -0.198 OA
ATOM      6  H   UNL     1       2.587   0.680   0.000  0.00  0.00    +0.268 HD
ENDBRANCH   1   5
TORSDOF 2
