REMARK  Name = 57394020
REMARK  9 active torsions:
REMARK  status: ('A' for Active; 'I' for Inactive)
REMARK    1  A    between atoms: N_1  and  C_3
REMARK    2  A    between atoms: N_1  and  C_14
REMARK    3  A    between atoms: N_1  and  C_22
REMARK    4  A    between atoms: C_3  and  C_6
REMARK    5  A    between atoms: C_10  and  O_11
REMARK    6  A    between atoms: O_11  and  C_12
REMARK    7  A    between atoms: C_14  and  C_16
REMARK    8  A    between atoms: C_22  and  C_24
REMARK    9  A    between atoms: C_27  and  N_30
REMARK                            x       y       z     vdW  Elec       q    Type
REMARK                         _______ _______ _______ _____ _____    ______ ____
ROOT
ATOM      1  N   UNL     1       1.024   0.432  -1.656  0.00  0.00    +0.393 N 
ATOM      2  H   UNL     1       0.690   0.351  -0.696  0.00  0.00    -0.079 HD
ENDROOT
BRANCH   1   3
ATOM      3  C   UNL     1      -0.087   0.875  -2.489  0.00  0.00    -0.075 C 
BRANCH   3   6
ATOM      4  O   UNL     1      -4.642   2.878   0.859  0.00  0.00    -0.226 OA
ATOM      5  N   UNL     1      -2.806   2.170  -0.351  0.00  0.00    -0.246 N 
ATOM      6  C   UNL     1      -0.939   1.904  -1.768  0.00  0.00    +0.001 C 
ATOM      7  C   UNL     1      -2.136   2.385  -2.593  0.00  0.00    +0.021 C 
ATOM      8  C   UNL     1      -1.600   1.363  -0.502  0.00  0.00    +0.095 C 
ATOM      9  C   UNL     1      -3.059   2.974  -1.536  0.00  0.00    +0.097 C 
ATOM     10  C   UNL     1      -3.629   2.189   0.762  0.00  0.00    +0.405 C 
BRANCH  10  11
ATOM     11  O   UNL     1      -3.183   1.346   1.744  0.00  0.00    -0.435 OA
BRANCH  11  12
ATOM     12  C   UNL     1      -3.975   1.297   2.936  0.00  0.00    +0.210 C 
ATOM     13  C   UNL     1      -3.343   0.324   3.908  0.00  0.00    +0.051 C 
ENDBRANCH  11  12
ENDBRANCH  10  11
ENDBRANCH   3   6
ENDBRANCH   1   3
BRANCH   1  14
ATOM     14  C   UNL     1       2.114   1.408  -1.689  0.00  0.00    -0.049 C 
BRANCH  14  16
ATOM     15 CL   UNL     1       5.674   0.960   3.140  0.00  0.00    -0.082 Cl
ATOM     16  C   UNL     1       3.005   1.295  -0.480  0.00  0.00    -0.043 C 
ATOM     17  C   UNL     1       4.356   1.629  -0.576  0.00  0.00    -0.005 C 
ATOM     18  C   UNL     1       2.479   0.857   0.735  0.00  0.00    -0.005 C 
ATOM     19  C   UNL     1       5.181   1.524   0.543  0.00  0.00    +0.011 C 
ATOM     20  C   UNL     1       3.305   0.752   1.855  0.00  0.00    +0.011 C 
ATOM     21  C   UNL     1       4.656   1.086   1.759  0.00  0.00    +0.058 C 
ENDBRANCH  14  16
ENDBRANCH   1  14
BRANCH   1  22
ATOM     22  C   UNL     1       1.505  -0.880  -2.093  0.00  0.00    -0.043 C 
BRANCH  22  24
ATOM     23  S   UNL     1       0.656  -2.503   0.001  0.00  0.00    -0.070 S 
ATOM     24  C   UNL     1       0.599  -1.991  -1.633  0.00  0.00    -0.012 C 
ATOM     25  C   UNL     1      -0.323  -2.705  -2.366  0.00  0.00    +0.002 C 
ATOM     26  C   UNL     1      -0.992  -3.684  -1.577  0.00  0.00    +0.031 C 
ATOM     27  C   UNL     1      -0.555  -3.683  -0.270  0.00  0.00    +0.172 C 
BRANCH  27  30
ATOM     28  O   UNL     1      -1.865  -5.366   0.607  0.00  0.00    -0.126 OA
ATOM     29  O   UNL     1      -0.448  -4.343   1.936  0.00  0.00    -0.126 OA
ATOM     30  N   UNL     1      -0.971  -4.493   0.796  0.00  0.00    +0.064 N 
ENDBRANCH  27  30
ENDBRANCH  22  24
ENDBRANCH   1  22
TORSDOF 9
