REMARK  Name = 71535003
REMARK  6 active torsions:
REMARK  status: ('A' for Active; 'I' for Inactive)
REMARK    1  A    between atoms: N_5  and  C_16
REMARK    2  A    between atoms: C_6  and  O_20
REMARK    3  A    between atoms: O_20  and  C_21
REMARK    4  A    between atoms: C_21  and  C_24
REMARK    5  A    between atoms: C_25  and  O_29
REMARK    6  A    between atoms: C_28  and  C_31
REMARK                            x       y       z     vdW  Elec       q    Type
REMARK                         _______ _______ _______ _____ _____    ______ ____
ROOT
ATOM      1 CL   UNL     1       2.616   4.178  -0.145  0.00  0.00    -0.085 Cl
ATOM      2  N   UNL     1       1.741  -0.537  -0.112  0.00  0.00    -0.294 NA
ATOM      3  N   UNL     1       5.212   1.398   0.618  0.00  0.00    -0.289 N 
ATOM      4  N   UNL     1       4.099  -0.735   0.462  0.00  0.00    -0.316 NA
ATOM      5  N   UNL     1       2.740  -2.625   0.234  0.00  0.00    -0.235 N 
ATOM      6  C   UNL     1       1.822   0.813  -0.161  0.00  0.00    +0.277 C 
ATOM      7  C   UNL     1       3.042   1.437   0.098  0.00  0.00    +0.191 C 
ATOM      8  C   UNL     1       4.115   0.608   0.397  0.00  0.00    +0.189 C 
ATOM      9  C   UNL     1       3.524   2.770   0.145  0.00  0.00    +0.068 C 
ATOM     10  C   UNL     1       2.868  -1.218   0.193  0.00  0.00    +0.207 C 
ATOM     11  C   UNL     1       4.863   2.716   0.467  0.00  0.00    +0.072 C 
ATOM     12  H   UNL     1       6.111   1.071   0.849  0.00  0.00    +0.154 HD
ATOM     13  H   UNL     1       3.577  -3.093   0.457  0.00  0.00    +0.166 HD
ENDROOT
BRANCH   5  16
ATOM     14  N   UNL     1      -0.326  -4.314  -0.412  0.00  0.00    -0.207 N 
ATOM     15  N   UNL     1       0.424  -5.404  -0.178  0.00  0.00    -0.175 NA
ATOM     16  C   UNL     1       1.650  -3.487   0.017  0.00  0.00    +0.095 C 
ATOM     17  C   UNL     1       0.362  -3.140  -0.307  0.00  0.00    +0.101 C 
ATOM     18  C   UNL     1       1.630  -4.893   0.083  0.00  0.00    +0.134 C 
ATOM     19  C   UNL     1      -1.724  -4.461  -0.738  0.00  0.00    +0.140 C 
ENDBRANCH   5  16
BRANCH   6  20
ATOM     20  O   UNL     1       0.681   1.512  -0.469  0.00  0.00    -0.454 OA
BRANCH  20  21
ATOM     21  C   UNL     1      -0.491   0.755  -0.710  0.00  0.00    +0.212 C 
BRANCH  21  24
ATOM     22  O   UNL     1      -5.125  -0.749  -0.715  0.00  0.00    -0.270 OA
ATOM     23  N   UNL     1      -3.589   0.839  -0.026  0.00  0.00    -0.273 N 
ATOM     24  C   UNL     1      -1.631   1.719  -1.036  0.00  0.00    +0.092 C 
ATOM     25  C   UNL     1      -2.006   2.590   0.167  0.00  0.00    +0.140 C 
ATOM     26  C   UNL     1      -2.933   0.969  -1.321  0.00  0.00    +0.100 C 
ATOM     27  C   UNL     1      -2.978   1.727   0.966  0.00  0.00    +0.123 C 
ATOM     28  C   UNL     1      -4.649  -0.028   0.161  0.00  0.00    +0.249 C 
BRANCH  25  29
ATOM     29  O   UNL     1      -2.683   3.755  -0.301  0.00  0.00    -0.352 OA
ATOM     30  C   UNL     1      -1.766   4.785  -0.638  0.00  0.00    +0.174 C 
ENDBRANCH  25  29
BRANCH  28  31
ATOM     31  C   UNL     1      -5.231  -0.079   1.516  0.00  0.00    +0.058 C 
ATOM     32  C   UNL     1      -6.257  -0.901   1.747  0.00  0.00    +0.005 C 
ENDBRANCH  28  31
ENDBRANCH  21  24
ENDBRANCH  20  21
ENDBRANCH   6  20
TORSDOF 6
