REMARK  Name = 3395
REMARK  7 active torsions:
REMARK  status: ('A' for Active; 'I' for Inactive)
REMARK    1  A    between atoms: C_2  and  C_14
REMARK    2  A    between atoms: C_5  and  C_8
REMARK    3  A    between atoms: C_14  and  C_17
REMARK    4  A    between atoms: C_17  and  O_18
REMARK    5  A    between atoms: O_18  and  C_19
REMARK    6  A    between atoms: C_19  and  O_21
REMARK    7  A    between atoms: O_21  and  C_23
REMARK                            x       y       z     vdW  Elec       q    Type
REMARK                         _______ _______ _______ _____ _____    ______ ____
ROOT
ATOM      1  F   UNL     1      -1.874   1.005   2.063  0.00  0.00    -0.204 F 
ATOM      2  C   UNL     1       0.588   1.568  -0.521  0.00  0.00    -0.010 C 
ATOM      3  C   UNL     1      -0.008   1.556   0.725  0.00  0.00    +0.026 C 
ATOM      4  C   UNL     1      -0.045   1.065  -1.641  0.00  0.00    -0.004 C 
ATOM      5  C   UNL     1      -1.948   0.505  -0.261  0.00  0.00    +0.027 C 
ATOM      6  C   UNL     1      -1.289   1.019   0.856  0.00  0.00    +0.140 C 
ATOM      7  C   UNL     1      -1.326   0.528  -1.509  0.00  0.00    +0.002 C 
ENDROOT
BRANCH   5   8
ATOM      8  C   UNL     1      -3.276  -0.053  -0.130  0.00  0.00    +0.002 C 
ATOM      9  C   UNL     1      -3.438  -1.410   0.152  0.00  0.00    +0.000 C 
ATOM     10  C   UNL     1      -4.395   0.765  -0.285  0.00  0.00    +0.000 C 
ATOM     11  C   UNL     1      -4.718  -1.948   0.278  0.00  0.00    +0.000 C 
ATOM     12  C   UNL     1      -5.676   0.226  -0.159  0.00  0.00    +0.000 C 
ATOM     13  C   UNL     1      -5.837  -1.130   0.123  0.00  0.00    +0.000 C 
ENDBRANCH   5   8
BRANCH   2  14
ATOM     14  C   UNL     1       1.983   2.153  -0.664  0.00  0.00    +0.121 C 
ATOM     15  C   UNL     1       2.031   3.636  -0.285  0.00  0.00    +0.016 C 
BRANCH  14  17
ATOM     16  O   UNL     1       3.738   1.823   1.001  0.00  0.00    -0.250 OA
ATOM     17  C   UNL     1       3.012   1.361   0.131  0.00  0.00    +0.323 C 
BRANCH  17  18
ATOM     18  O   UNL     1       2.979   0.052  -0.263  0.00  0.00    -0.413 OA
BRANCH  18  19
ATOM     19  C   UNL     1       3.872  -0.864   0.400  0.00  0.00    +0.345 C 
ATOM     20  C   UNL     1       5.308  -0.426   0.148  0.00  0.00    +0.100 C 
BRANCH  19  21
ATOM     21  O   UNL     1       3.734  -2.196  -0.137  0.00  0.00    -0.414 OA
BRANCH  21  23
ATOM     22  O   UNL     1       1.532  -2.294   0.556  0.00  0.00    -0.250 OA
ATOM     23  C   UNL     1       2.513  -2.784   0.014  0.00  0.00    +0.320 C 
ATOM     24  C   UNL     1       2.539  -4.154  -0.593  0.00  0.00    +0.121 C 
ENDBRANCH  21  23
ENDBRANCH  19  21
ENDBRANCH  18  19
ENDBRANCH  17  18
ENDBRANCH  14  17
ENDBRANCH   2  14
TORSDOF 7
