REMARK  Name = 61437
REMARK  0 active torsions:
REMARK  status: ('A' for Active; 'I' for Inactive)
REMARK                            x       y       z     vdW  Elec       q    Type
REMARK                         _______ _______ _______ _____ _____    ______ ____
ROOT
ATOM      1 CL   UNL     1       0.758  -1.487   0.140  0.00  0.00    +0.013 Cl
ATOM      2 CL   UNL     1       0.909   1.400   0.140  0.00  0.00    +0.013 Cl
ATOM      3 CL   UNL     1      -1.667   0.087   0.140  0.00  0.00    +0.013 Cl
ATOM      4  N   UNL     1       0.000   0.000  -0.420  0.00  0.00    -0.038 NA
ENDROOT
TORSDOF 0
