REMARK  Name = 16124
REMARK  6 active torsions:
REMARK  status: ('A' for Active; 'I' for Inactive)
REMARK    1  A    between atoms: C_1  and  P_2
REMARK    2  A    between atoms: C_1  and  P_8
REMARK    3  A    between atoms: P_2  and  O_4
REMARK    4  A    between atoms: P_2  and  O_6
REMARK    5  A    between atoms: P_8  and  O_10
REMARK    6  A    between atoms: P_8  and  O_12
REMARK                            x       y       z     vdW  Elec       q    Type
REMARK                         _______ _______ _______ _____ _____    ______ ____
ROOT
ATOM      1  C   UNL     1       0.009   0.316  -0.857  0.00  0.00    +0.230 C 
ENDROOT
BRANCH   1   2
ATOM      2  P   UNL     1       1.636   0.042  -0.120  0.00  0.00    +0.349 P 
ATOM      3  O   UNL     1       2.788   0.381  -1.018  0.00  0.00    -0.258 OA
BRANCH   2   4
ATOM      4  O   UNL     1       1.567  -1.495   0.370  0.00  0.00    -0.323 OA
ATOM      5  H   UNL     1       2.408  -1.740   0.785  0.00  0.00    +0.220 HD
ENDBRANCH   2   4
BRANCH   2   6
ATOM      6  O   UNL     1       1.561   0.883   1.257  0.00  0.00    -0.323 OA
ATOM      7  H   UNL     1       2.401   0.798   1.734  0.00  0.00    +0.220 HD
ENDBRANCH   2   6
ENDBRANCH   1   2
BRANCH   1   8
ATOM      8  P   UNL     1      -1.559  -0.075  -0.047  0.00  0.00    +0.349 P 
ATOM      9  O   UNL     1      -1.698  -1.507   0.375  0.00  0.00    -0.258 OA
BRANCH   8  10
ATOM     10  O   UNL     1      -1.640   1.010   1.147  0.00  0.00    -0.323 OA
ATOM     11  H   UNL     1      -2.460   0.880   1.648  0.00  0.00    +0.220 HD
ENDBRANCH   8  10
BRANCH   8  12
ATOM     12  O   UNL     1      -2.663   0.445  -1.106  0.00  0.00    -0.323 OA
ATOM     13  H   UNL     1      -3.552   0.277  -0.756  0.00  0.00    +0.220 HD
ENDBRANCH   8  12
ENDBRANCH   1   8
TORSDOF 6
