REMARK  Name = 46188928
REMARK  3 active torsions:
REMARK  status: ('A' for Active; 'I' for Inactive)
REMARK    1  A    between atoms: C_5  and  C_28
REMARK    2  A    between atoms: C_12  and  N_17
REMARK    3  A    between atoms: C_18  and  O_24
REMARK                            x       y       z     vdW  Elec       q    Type
REMARK                         _______ _______ _______ _____ _____    ______ ____
ROOT
ATOM      1  N   UNL     1       3.094  -0.561  -0.829  0.00  0.00    -0.281 N 
ATOM      2  N   UNL     1       0.937  -1.216  -0.360  0.00  0.00    -0.372 NA
ATOM      3  N   UNL     1       0.516  -3.497   0.270  0.00  0.00    -0.163 N 
ATOM      4  N   UNL     1      -0.513  -4.314   0.619  0.00  0.00    -0.173 NA
ATOM      5  C   UNL     1       2.720   0.788  -1.264  0.00  0.00    +0.100 C 
ATOM      6  C   UNL     1       4.004   1.334  -1.907  0.00  0.00    +0.026 C 
ATOM      7  C   UNL     1       5.121   0.587  -1.192  0.00  0.00    +0.024 C 
ATOM      8  C   UNL     1       4.526  -0.799  -0.970  0.00  0.00    +0.093 C 
ATOM      9  C   UNL     1       2.212  -1.516  -0.465  0.00  0.00    +0.186 C 
ATOM     10  C   UNL     1       2.751  -2.895  -0.194  0.00  0.00    +0.066 C 
ATOM     11  C   UNL     1       0.075  -2.204   0.008  0.00  0.00    +0.208 C 
ATOM     12  C   UNL     1      -1.288  -2.212   0.202  0.00  0.00    +0.186 C 
ATOM     13  C   UNL     1       1.860  -3.824   0.164  0.00  0.00    +0.096 C 
ATOM     14  C   UNL     1      -1.589  -3.529   0.574  0.00  0.00    +0.120 C 
ENDROOT
BRANCH  12  17
ATOM     15  O   UNL     1      -4.227  -2.051   0.631  0.00  0.00    -0.253 OA
ATOM     16  N   UNL     1      -4.132   0.160   0.023  0.00  0.00    -0.262 N 
ATOM     17  N   UNL     1      -2.171  -1.115   0.051  0.00  0.00    -0.278 N 
ATOM     18  C   UNL     1      -4.597   2.352  -0.739  0.00  0.00    +0.132 C 
ATOM     19  C   UNL     1      -5.717   1.897   0.190  0.00  0.00    +0.053 C 
ATOM     20  C   UNL     1      -3.462   1.383  -0.429  0.00  0.00    +0.124 C 
ATOM     21  C   UNL     1      -5.561   0.383   0.198  0.00  0.00    +0.098 C 
ATOM     22  C   UNL     1      -3.550  -1.090   0.262  0.00  0.00    +0.305 C 
ATOM     23  H   UNL     1      -1.762  -0.267  -0.239  0.00  0.00    +0.152 HD
BRANCH  18  24
ATOM     24  O   UNL     1      -4.990   2.190  -2.097  0.00  0.00    -0.383 OA
ATOM     25  H   UNL     1      -5.712   2.805  -2.300  0.00  0.00    +0.210 HD
ENDBRANCH  18  24
ENDBRANCH  12  17
BRANCH   5  28
ATOM     26  F   UNL     1       0.885   2.921  -1.649  0.00  0.00    -0.204 F 
ATOM     27  F   UNL     1       2.605   2.022   3.465  0.00  0.00    -0.204 F 
ATOM     28  C   UNL     1       2.213   1.664  -0.135  0.00  0.00    +0.025 C 
ATOM     29  C   UNL     1       1.311   2.695  -0.398  0.00  0.00    +0.138 C 
ATOM     30  C   UNL     1       2.650   1.437   1.170  0.00  0.00    +0.029 C 
ATOM     31  C   UNL     1       2.185   2.240   2.212  0.00  0.00    +0.140 C 
ATOM     32  C   UNL     1       0.847   3.499   0.643  0.00  0.00    +0.032 C 
ATOM     33  C   UNL     1       1.284   3.272   1.948  0.00  0.00    +0.032 C 
ENDBRANCH   5  28
TORSDOF 3
