REMARK  Name = 118572065
REMARK  6 active torsions:
REMARK  status: ('A' for Active; 'I' for Inactive)
REMARK    1  A    between atoms: N_4  and  C_21
REMARK    2  A    between atoms: C_5  and  C_14
REMARK    3  A    between atoms: C_14  and  C_16
REMARK    4  A    between atoms: C_14  and  O_19
REMARK    5  A    between atoms: C_21  and  C_24
REMARK    6  A    between atoms: C_25  and  O_31
REMARK                            x       y       z     vdW  Elec       q    Type
REMARK                         _______ _______ _______ _____ _____    ______ ____
ROOT
ATOM      1 CL   UNL     1       2.523   0.631  -2.269  0.00  0.00    -0.082 Cl
ATOM      2 CL   UNL     1       1.767  -2.120   3.300  0.00  0.00    -0.083 Cl
ATOM      3  O   UNL     1      -0.137   0.663  -2.052  0.00  0.00    -0.270 OA
ATOM      4  N   UNL     1      -1.481  -0.716  -0.744  0.00  0.00    -0.271 N 
ATOM      5  C   UNL     1       3.308  -0.395   0.062  0.00  0.00    +0.016 C 
ATOM      6  C   UNL     1       0.914  -0.455  -0.280  0.00  0.00    +0.061 C 
ATOM      7  C   UNL     1       0.749  -1.102   0.954  0.00  0.00    -0.005 C 
ATOM      8  C   UNL     1      -0.627  -1.439   1.450  0.00  0.00    +0.049 C 
ATOM      9  C   UNL     1       2.193  -0.103  -0.724  0.00  0.00    +0.060 C 
ATOM     10  C   UNL     1      -1.530  -1.763   0.272  0.00  0.00    +0.099 C 
ATOM     11  C   UNL     1       3.149  -1.029   1.293  0.00  0.00    +0.010 C 
ATOM     12  C   UNL     1      -0.273  -0.116  -1.112  0.00  0.00    +0.250 C 
ATOM     13  C   UNL     1       1.875  -1.376   1.741  0.00  0.00    +0.054 C 
ENDROOT
BRANCH   5  14
ATOM     14  C   UNL     1       4.703  -0.054  -0.359  0.00  0.00    +0.143 C 
BRANCH  14  16
ATOM     15  O   UNL     1       6.056   2.803   0.125  0.00  0.00    -0.353 OA
ATOM     16  C   UNL     1       5.366   0.857   0.673  0.00  0.00    +0.091 C 
ATOM     17  C   UNL     1       4.851   2.299   0.751  0.00  0.00    +0.147 C 
ATOM     18  C   UNL     1       6.692   1.509   0.267  0.00  0.00    +0.147 C 
ENDBRANCH  14  16
BRANCH  14  19
ATOM     19  O   UNL     1       5.494  -1.238  -0.498  0.00  0.00    -0.349 OA
ATOM     20  C   UNL     1       5.241  -1.881  -1.736  0.00  0.00    +0.174 C 
ENDBRANCH  14  19
ENDBRANCH   5  14
BRANCH   4  21
ATOM     21  C   UNL     1      -2.691  -0.481  -1.516  0.00  0.00    +0.128 C 
BRANCH  21  24
ATOM     22  O   UNL     1      -2.560   2.186  -0.706  0.00  0.00    -0.270 OA
ATOM     23  N   UNL     1      -4.497   2.126   0.526  0.00  0.00    -0.284 N 
ATOM     24  C   UNL     1      -3.735   0.111  -0.642  0.00  0.00    +0.085 C 
ATOM     25  C   UNL     1      -4.818  -0.518  -0.152  0.00  0.00    +0.142 C 
ATOM     26  C   UNL     1      -3.531   1.559  -0.288  0.00  0.00    +0.250 C 
ATOM     27  C   UNL     1      -5.775   0.160   0.694  0.00  0.00    +0.047 C 
ATOM     28  C   UNL     1      -5.596   1.451   1.011  0.00  0.00    +0.031 C 
ATOM     29  C   UNL     1      -6.533   2.229   1.877  0.00  0.00    +0.047 C 
ATOM     30  H   UNL     1      -4.392   3.073   0.775  0.00  0.00    +0.155 HD
BRANCH  25  31
ATOM     31  O   UNL     1      -5.144  -1.835  -0.382  0.00  0.00    -0.472 OA
ATOM     32  C   UNL     1      -5.955  -1.961  -1.536  0.00  0.00    +0.252 C 
ENDBRANCH  25  31
ENDBRANCH  21  24
ENDBRANCH   4  21
TORSDOF 6
