REMARK  Name = 135565042
REMARK  5 active torsions:
REMARK  status: ('A' for Active; 'I' for Inactive)
REMARK    1  A    between atoms: C_3  and  O_21
REMARK    2  A    between atoms: C_6  and  C_7
REMARK    3  A    between atoms: C_8  and  O_19
REMARK    4  A    between atoms: C_10  and  C_15
REMARK    5  A    between atoms: O_21  and  C_27
REMARK                            x       y       z     vdW  Elec       q    Type
REMARK                         _______ _______ _______ _____ _____    ______ ____
ROOT
ATOM      1  N   UNL     1       1.350   0.170  -0.082  0.00  0.00    -0.110 NA
ATOM      2  N   UNL     1       0.014  -0.082  -0.115  0.00  0.00    -0.145 NA
ATOM      3  C   UNL     1       1.778   1.413   0.227  0.00  0.00    +0.244 C 
ATOM      4  C   UNL     1       0.917   2.452   0.515  0.00  0.00    +0.061 C 
ATOM      5  C   UNL     1      -0.443   2.196   0.482  0.00  0.00    +0.026 C 
ATOM      6  C   UNL     1      -0.851   0.917   0.162  0.00  0.00    +0.106 C 
ENDROOT
BRANCH   6   7
ATOM      7  C   UNL     1      -2.247   0.560   0.107  0.00  0.00    +0.053 C 
ATOM      8  C   UNL     1      -2.818   0.082  -1.072  0.00  0.00    +0.135 C 
ATOM      9  C   UNL     1      -3.029   0.699   1.254  0.00  0.00    +0.005 C 
ATOM     10  C   UNL     1      -4.952  -0.119   0.042  0.00  0.00    +0.006 C 
ATOM     11  C   UNL     1      -4.170  -0.258  -1.105  0.00  0.00    +0.037 C 
ATOM     12  C   UNL     1      -4.381   0.360   1.222  0.00  0.00    +0.000 C 
BRANCH  10  15
ATOM     13  N   UNL     1      -8.482  -0.487   0.457  0.00  0.00    -0.235 N 
ATOM     14  N   UNL     1      -8.353  -1.440  -0.482  0.00  0.00    -0.180 NA
ATOM     15  C   UNL     1      -6.344  -0.470   0.009  0.00  0.00    +0.037 C 
ATOM     16  C   UNL     1      -7.308   0.124   0.786  0.00  0.00    +0.081 C 
ATOM     17  C   UNL     1      -7.045  -1.425  -0.752  0.00  0.00    +0.119 C 
ATOM     18  H   UNL     1      -9.345  -0.252   0.869  0.00  0.00    +0.174 HD
ENDBRANCH  10  15
BRANCH   8  19
ATOM     19  O   UNL     1      -2.077  -0.064  -2.208  0.00  0.00    -0.505 OA
ATOM     20  H   UNL     1      -1.167   0.159  -2.205  0.00  0.00    +0.292 HD
ENDBRANCH   8  19
ENDBRANCH   6   7
BRANCH   3  21
ATOM     21  O   UNL     1       3.130   1.624   0.250  0.00  0.00    -0.463 OA
BRANCH  21  27
ATOM     22  N   UNL     1       6.439  -1.003   0.257  0.00  0.00    +0.389 N 
ATOM     23  C   UNL     1       5.255  -1.404   1.029  0.00  0.00    -0.042 C 
ATOM     24  C   UNL     1       6.266  -0.150  -0.927  0.00  0.00    -0.042 C 
ATOM     25  C   UNL     1       4.271  -0.237   1.236  0.00  0.00    +0.024 C 
ATOM     26  C   UNL     1       5.261   0.992  -0.682  0.00  0.00    +0.024 C 
ATOM     27  C   UNL     1       3.958   0.506  -0.057  0.00  0.00    +0.164 C 
ATOM     28  C   UNL     1       5.881  -0.966  -2.174  0.00  0.00    -0.021 C 
ATOM     29  C   UNL     1       5.784  -1.842   2.411  0.00  0.00    -0.021 C 
ATOM     30  C   UNL     1       4.546  -2.622   0.408  0.00  0.00    -0.021 C 
ATOM     31  C   UNL     1       7.651   0.473  -1.200  0.00  0.00    -0.021 C 
ATOM     32  H   UNL     1       6.895  -1.860  -0.057  0.00  0.00    -0.084 HD
ATOM     33  H   UNL     1       6.964  -0.416   0.905  0.00  0.00    -0.084 HD
ENDBRANCH  21  27
ENDBRANCH   3  21
TORSDOF 5
