REMARK  Name = 443928
REMARK  6 active torsions:
REMARK  status: ('A' for Active; 'I' for Inactive)
REMARK    1  A    between atoms: C_7  and  O_23
REMARK    2  A    between atoms: C_7  and  C_28
REMARK    3  A    between atoms: C_11  and  O_25
REMARK    4  A    between atoms: C_28  and  C_29
REMARK    5  A    between atoms: C_29  and  O_30
REMARK    6  A    between atoms: O_30  and  C_32
REMARK                            x       y       z     vdW  Elec       q    Type
REMARK                         _______ _______ _______ _____ _____    ______ ____
ROOT
ATOM      1  F   UNL     1       4.660   2.526   0.013  0.00  0.00    -0.233 F 
ATOM      2  O   UNL     1       6.399  -1.651  -1.878  0.00  0.00    -0.287 OA
ATOM      3  C   UNL     1      -1.213   0.478   0.389  0.00  0.00    +0.031 C 
ATOM      4  C   UNL     1      -0.053   1.387  -0.074  0.00  0.00    +0.003 C 
ATOM      5  C   UNL     1       1.308   1.026   0.544  0.00  0.00    +0.006 C 
ATOM      6  C   UNL     1       1.675  -0.443   0.133  0.00  0.00    +0.034 C 
ATOM      7  C   UNL     1      -2.387   1.161  -0.378  0.00  0.00    +0.142 C 
ATOM      8  C   UNL     1      -0.597   2.802   0.124  0.00  0.00    +0.003 C 
ATOM      9  C   UNL     1      -0.865  -0.965  -0.033  0.00  0.00    +0.032 C 
ATOM     10  C   UNL     1      -2.110   2.685  -0.195  0.00  0.00    +0.032 C 
ATOM     11  C   UNL     1       0.520  -1.446   0.454  0.00  0.00    +0.111 C 
ATOM     12  C   UNL     1       3.122  -0.863   0.611  0.00  0.00    +0.039 C 
ATOM     13  C   UNL     1       2.388   2.016   0.078  0.00  0.00    +0.040 C 
ATOM     14  C   UNL     1      -1.465   0.545   1.920  0.00  0.00    +0.003 C 
ATOM     15  C   UNL     1       3.783   1.623   0.541  0.00  0.00    +0.180 C 
ATOM     16  C   UNL     1       4.098   0.211   0.113  0.00  0.00    -0.006 C 
ATOM     17  C   UNL     1      -2.514   3.557  -1.381  0.00  0.00    +0.003 C 
ATOM     18  C   UNL     1       3.264  -0.975   2.145  0.00  0.00    +0.009 C 
ATOM     19  C   UNL     1       3.475  -2.233   0.049  0.00  0.00    -0.020 C 
ATOM     20  C   UNL     1       5.144  -0.050  -0.686  0.00  0.00    +0.036 C 
ATOM     21  C   UNL     1       4.515  -2.497  -0.748  0.00  0.00    +0.038 C 
ATOM     22  C   UNL     1       5.432  -1.419  -1.161  0.00  0.00    +0.195 C 
ENDROOT
BRANCH   7  23
ATOM     23  O   UNL     1      -2.447   0.772  -1.745  0.00  0.00    -0.380 OA
ATOM     24  H   UNL     1      -1.604   0.979  -2.177  0.00  0.00    +0.211 HD
ENDBRANCH   7  23
BRANCH  11  25
ATOM     25  O   UNL     1       0.460  -1.722   1.847  0.00  0.00    -0.384 OA
ATOM     26  H   UNL     1       1.329  -2.024   2.154  0.00  0.00    +0.210 HD
ENDBRANCH  11  25
BRANCH   7  28
ATOM     27  O   UNL     1      -4.513   1.606   0.598  0.00  0.00    -0.290 OA
ATOM     28  C   UNL     1      -3.748   0.773   0.115  0.00  0.00    +0.218 C 
BRANCH  28  29
ATOM     29  C   UNL     1      -4.117  -0.689  -0.017  0.00  0.00    +0.274 C 
BRANCH  29  30
ATOM     30  O   UNL     1      -5.509  -0.837  -0.204  0.00  0.00    -0.440 OA
BRANCH  30  32
ATOM     31  O   UNL     1      -5.280  -3.133  -0.308  0.00  0.00    -0.250 OA
ATOM     32  C   UNL     1      -5.968  -2.122  -0.338  0.00  0.00    +0.318 C 
ATOM     33  C   UNL     1      -7.455  -2.125  -0.528  0.00  0.00    +0.121 C 
ENDBRANCH  30  32
ENDBRANCH  29  30
ENDBRANCH  28  29
ENDBRANCH   7  28
TORSDOF 6
