REMARK  Name = 441575
REMARK  0 active torsions:
REMARK  status: ('A' for Active; 'I' for Inactive)
REMARK                            x       y       z     vdW  Elec       q    Type
REMARK                         _______ _______ _______ _____ _____    ______ ____
ROOT
ATOM      1  O   UNL     1       0.043   1.015   0.088  0.00  0.00    -0.449 OA
ATOM      2  O   UNL     1      -2.221   1.133   0.085  0.00  0.00    -0.245 OA
ATOM      3  C   UNL     1       1.192   0.258  -0.352  0.00  0.00    +0.174 C 
ATOM      4  C   UNL     1       1.173  -1.141   0.248  0.00  0.00    +0.070 C 
ATOM      5  C   UNL     1       2.442   1.024   0.058  0.00  0.00    +0.048 C 
ATOM      6  C   UNL     1      -0.167  -1.750   0.009  0.00  0.00    -0.016 C 
ATOM      7  C   UNL     1      -1.263  -1.002  -0.143  0.00  0.00    +0.077 C 
ATOM      8  C   UNL     1      -1.198   0.463   0.006  0.00  0.00    +0.341 C 
ENDROOT
TORSDOF 0
