REMARK  Name = 216210
REMARK  9 active torsions:
REMARK  status: ('A' for Active; 'I' for Inactive)
REMARK    1  A    between atoms: C_4  and  C_26
REMARK    2  A    between atoms: C_6  and  C_13
REMARK    3  A    between atoms: N_12  and  C_20
REMARK    4  A    between atoms: C_20  and  C_21
REMARK    5  A    between atoms: C_21  and  C_23
REMARK    6  A    between atoms: C_23  and  O_24
REMARK    7  A    between atoms: C_26  and  N_27
REMARK    8  A    between atoms: N_27  and  C_29
REMARK    9  A    between atoms: C_34  and  C_37
REMARK                            x       y       z     vdW  Elec       q    Type
REMARK                         _______ _______ _______ _____ _____    ______ ____
ROOT
ATOM      1  N   UNL     1       1.368   1.400  -1.282  0.00  0.00    -0.261 N 
ATOM      2  N   UNL     1       0.873  -0.164   0.217  0.00  0.00    -0.388 NA
ATOM      3  C   UNL     1       0.045   1.040  -1.405  0.00  0.00    +0.079 C 
ATOM      4  C   UNL     1       1.833   0.659  -0.302  0.00  0.00    +0.184 C 
ATOM      5  C   UNL     1      -0.289   0.060  -0.475  0.00  0.00    +0.146 C 
ATOM      6  C   UNL     1      -2.534  -0.017  -1.262  0.00  0.00    +0.039 C 
ATOM      7  C   UNL     1      -1.566  -0.494  -0.371  0.00  0.00    +0.034 C 
ATOM      8  C   UNL     1      -0.939   1.507  -2.293  0.00  0.00    -0.004 C 
ATOM      9  C   UNL     1      -2.228   0.966  -2.206  0.00  0.00    +0.058 C 
ATOM     10  C   UNL     1       2.066   2.385  -2.073  0.00  0.00    +0.120 C 
ENDROOT
BRANCH   6  13
ATOM     11  O   UNL     1      -4.292  -1.112  -2.232  0.00  0.00    -0.270 OA
ATOM     12  N   UNL     1      -4.626  -0.418   0.001  0.00  0.00    -0.240 N 
ATOM     13  C   UNL     1      -3.884  -0.556  -1.202  0.00  0.00    +0.250 C 
ATOM     14  N   UNL     1      -5.797  -2.468  -0.476  0.00  0.00    -0.229 NA
ATOM     15  C   UNL     1      -5.612  -1.421   0.358  0.00  0.00    +0.138 C 
ATOM     16  C   UNL     1      -6.308  -1.239   1.542  0.00  0.00    +0.035 C 
ATOM     17  C   UNL     1      -7.256  -2.194   1.893  0.00  0.00    +0.004 C 
ATOM     18  C   UNL     1      -6.727  -3.376  -0.103  0.00  0.00    +0.100 C 
ATOM     19  C   UNL     1      -7.475  -3.286   1.060  0.00  0.00    +0.021 C 
BRANCH  12  20
ATOM     20  C   UNL     1      -4.402   0.734   0.889  0.00  0.00    +0.112 C 
BRANCH  20  21
ATOM     21  C   UNL     1      -5.306   1.909   0.540  0.00  0.00    +0.131 C 
BRANCH  21  23
ATOM     22  O   UNL     1      -4.296   3.168   2.367  0.00  0.00    -0.250 OA
ATOM     23  C   UNL     1      -5.080   3.113   1.430  0.00  0.00    +0.316 C 
BRANCH  23  24
ATOM     24  O   UNL     1      -5.862   4.159   1.055  0.00  0.00    -0.480 OA
ATOM     25  H   UNL     1      -6.449   4.069   0.330  0.00  0.00    +0.295 HD
ENDBRANCH  23  24
ENDBRANCH  21  23
ENDBRANCH  20  21
ENDBRANCH  12  20
ENDBRANCH   6  13
BRANCH   4  26
ATOM     26  C   UNL     1       3.232   0.728   0.168  0.00  0.00    +0.164 C 
BRANCH  26  27
ATOM     27  N   UNL     1       4.156  -0.180  -0.500  0.00  0.00    -0.326 N 
ATOM     28  H   UNL     1       3.818  -0.727  -1.246  0.00  0.00    +0.147 HD
BRANCH  27  29
ATOM     29  C   UNL     1       5.479  -0.312  -0.138  0.00  0.00    +0.045 C 
ATOM     30  C   UNL     1       5.994   0.446   0.914  0.00  0.00    +0.014 C 
ATOM     31  C   UNL     1       6.305  -1.202  -0.826  0.00  0.00    +0.014 C 
ATOM     32  C   UNL     1       7.333   0.314   1.278  0.00  0.00    +0.004 C 
ATOM     33  C   UNL     1       7.644  -1.334  -0.461  0.00  0.00    +0.004 C 
ATOM     34  C   UNL     1       8.159  -0.576   0.591  0.00  0.00    +0.031 C 
BRANCH  34  37
ATOM     35  N   UNL     1      10.099   0.030   2.017  0.00  0.00    -0.343 N 
ATOM     36  N   UNL     1      10.336  -1.554   0.316  0.00  0.00    -0.285 NA
ATOM     37  C   UNL     1       9.556  -0.714   0.971  0.00  0.00    +0.117 C 
ATOM     38  H   UNL     1      11.048  -0.079   2.258  0.00  0.00    +0.144 HD
ATOM     39  H   UNL     1       9.535   0.664   2.516  0.00  0.00    +0.144 HD
ATOM     40  H   UNL     1      11.282  -1.649   0.571  0.00  0.00    +0.188 HD
ENDBRANCH  34  37
ENDBRANCH  27  29
ENDBRANCH  26  27
ENDBRANCH   4  26
TORSDOF 9
