REMARK  Name = 57331386
REMARK  4 active torsions:
REMARK  status: ('A' for Active; 'I' for Inactive)
REMARK    1  A    between atoms: N_3  and  C_26
REMARK    2  A    between atoms: C_14  and  N_25
REMARK    3  A    between atoms: C_16  and  C_22
REMARK    4  A    between atoms: C_26  and  C_27
REMARK                            x       y       z     vdW  Elec       q    Type
REMARK                         _______ _______ _______ _____ _____    ______ ____
ROOT
ATOM      1  S   UNL     1       0.873   0.805  -0.578  0.00  0.00    -0.037 S 
ATOM      2  O   UNL     1       2.430  -3.140  -0.814  0.00  0.00    -0.209 OA
ATOM      3  N   UNL     1      -3.948   0.281   0.248  0.00  0.00    +0.389 N 
ATOM      4  N   UNL     1      -1.228  -0.551   0.140  0.00  0.00    -0.282 N 
ATOM      5  N   UNL     1       0.676  -1.859  -0.123  0.00  0.00    -0.310 NA
ATOM      6  C   UNL     1      -3.448  -0.495  -0.896  0.00  0.00    -0.055 C 
ATOM      7  C   UNL     1      -2.882   1.137   0.790  0.00  0.00    -0.055 C 
ATOM      8  C   UNL     1      -1.683   0.298   1.237  0.00  0.00    +0.071 C 
ATOM      9  C   UNL     1      -2.262  -1.369  -0.487  0.00  0.00    +0.071 C 
ATOM     10  C   UNL     1       0.084  -0.703  -0.152  0.00  0.00    +0.227 C 
ATOM     11  C   UNL     1       2.563   0.377  -0.283  0.00  0.00    +0.067 C 
ATOM     12  C   UNL     1       2.975  -0.955  -0.241  0.00  0.00    +0.102 C 
ATOM     13  C   UNL     1       2.001  -2.055  -0.428  0.00  0.00    +0.207 C 
ATOM     14  C   UNL     1       3.512   1.395  -0.121  0.00  0.00    +0.150 C 
ATOM     15  C   UNL     1       4.328  -1.267  -0.046  0.00  0.00    +0.017 C 
ATOM     16  C   UNL     1       5.264  -0.248   0.119  0.00  0.00    +0.074 C 
ATOM     17  C   UNL     1       4.857   1.083   0.082  0.00  0.00    +0.028 C 
ATOM     18  H   UNL     1      -4.243  -0.369   0.976  0.00  0.00    -0.080 HD
ENDROOT
BRANCH  16  22
ATOM     19  F   UNL     1       6.931  -1.928   0.348  0.00  0.00    -0.166 F 
ATOM     20  F   UNL     1       7.532  -0.077  -0.621  0.00  0.00    -0.166 F 
ATOM     21  F   UNL     1       7.198  -0.116   1.521  0.00  0.00    -0.166 F 
ATOM     22  C   UNL     1       6.701  -0.582   0.337  0.00  0.00    +0.419 C 
ENDBRANCH  16  22
BRANCH  14  25
ATOM     23  O   UNL     1       3.179   3.376  -1.253  0.00  0.00    -0.126 OA
ATOM     24  O   UNL     1       2.846   3.343   0.917  0.00  0.00    -0.126 OA
ATOM     25  N   UNL     1       3.160   2.776  -0.154  0.00  0.00    +0.058 N 
ENDBRANCH  14  25
BRANCH   3  26
ATOM     26  C   UNL     1      -5.104   1.086  -0.143  0.00  0.00    -0.077 C 
BRANCH  26  27
ATOM     27  C   UNL     1      -6.359   0.225  -0.270  0.00  0.00    -0.021 C 
ATOM     28  C   UNL     1      -6.701  -0.436   1.073  0.00  0.00    -0.002 C 
ATOM     29  C   UNL     1      -7.540   1.059  -0.784  0.00  0.00    -0.002 C 
ATOM     30  C   UNL     1      -8.821   0.232  -0.868  0.00  0.00    -0.000 C 
ATOM     31  C   UNL     1      -7.983  -1.261   0.985  0.00  0.00    -0.000 C 
ATOM     32  C   UNL     1      -9.152  -0.431   0.465  0.00  0.00    -0.000 C 
ENDBRANCH  26  27
ENDBRANCH   3  26
TORSDOF 4
