REMARK  Name = 24780387
REMARK  3 active torsions:
REMARK  status: ('A' for Active; 'I' for Inactive)
REMARK    1  A    between atoms: N_3  and  C_25
REMARK    2  A    between atoms: C_18  and  O_23
REMARK    3  A    between atoms: C_25  and  N_26
REMARK                            x       y       z     vdW  Elec       q    Type
REMARK                         _______ _______ _______ _____ _____    ______ ____
ROOT
ATOM      1  O   UNL     1       1.190  -3.373   0.806  0.00  0.00    -0.270 OA
ATOM      2  O   UNL     1       0.847   1.229   1.038  0.00  0.00    -0.270 OA
ATOM      3  N   UNL     1       1.407  -1.044   1.044  0.00  0.00    -0.244 N 
ATOM      4  N   UNL     1      -4.045   0.172  -0.552  0.00  0.00    -0.353 N 
ATOM      5  C   UNL     1      -1.630  -2.645  -0.050  0.00  0.00    -0.020 A 
ATOM      6  C   UNL     1      -2.850  -2.033  -0.373  0.00  0.00    -0.010 A 
ATOM      7  C   UNL     1      -0.580  -1.862   0.347  0.00  0.00    +0.054 A 
ATOM      8  C   UNL     1      -1.730  -4.131  -0.167  0.00  0.00    +0.027 C 
ATOM      9  C   UNL     1      -3.880  -3.068  -0.730  0.00  0.00    +0.028 C 
ATOM     10  C   UNL     1      -2.969  -0.638  -0.296  0.00  0.00    +0.052 A 
ATOM     11  C   UNL     1      -0.700  -0.474   0.416  0.00  0.00    +0.059 A 
ATOM     12  C   UNL     1      -2.989  -4.280  -1.034  0.00  0.00    +0.009 C 
ATOM     13  C   UNL     1      -1.900   0.189   0.096  0.00  0.00    +0.024 A 
ATOM     14  C   UNL     1       0.775  -2.230   0.754  0.00  0.00    +0.253 C 
ATOM     15  C   UNL     1       0.589   0.053   0.866  0.00  0.00    +0.253 C 
ATOM     16  C   UNL     1      -2.384   1.541   0.053  0.00  0.00    +0.051 A 
ATOM     17  C   UNL     1      -3.721   1.492  -0.354  0.00  0.00    +0.060 A 
ATOM     18  C   UNL     1      -1.829   2.812   0.318  0.00  0.00    +0.140 C 
ATOM     19  C   UNL     1      -4.518   2.634  -0.506  0.00  0.00    +0.017 C 
ATOM     20  C   UNL     1      -2.612   3.964   0.170  0.00  0.00    +0.037 C 
ATOM     21  C   UNL     1      -3.939   3.874  -0.237  0.00  0.00    +0.005 C 
ATOM     22  H   UNL     1      -4.931  -0.148  -0.840  0.00  0.00    +0.166 HD
ENDROOT
BRANCH  18  23
ATOM     23  O   UNL     1      -0.541   3.041   0.714  0.00  0.00    -0.471 OA
ATOM     24  C   UNL     1       0.422   3.247  -0.315  0.00  0.00    +0.252 C 
ENDBRANCH  18  23
BRANCH   3  25
ATOM     25  C   UNL     1       2.783  -0.941   1.492  0.00  0.00    +0.028 C 
BRANCH  25  26
ATOM     26  N   UNL     1       3.533  -0.117   0.547  0.00  0.00    +0.396 N 
ATOM     27  N   UNL     1       5.864   0.499  -1.049  0.00  0.00    +0.383 N 
ATOM     28  C   UNL     1       4.766   0.391   1.162  0.00  0.00    -0.098 C 
ATOM     29  C   UNL     1       3.843  -0.873  -0.673  0.00  0.00    -0.098 C 
ATOM     30  C   UNL     1       5.555   1.254   0.171  0.00  0.00    -0.101 C 
ATOM     31  C   UNL     1       4.631  -0.009  -1.664  0.00  0.00    -0.101 C 
ATOM     32  C   UNL     1       6.613   1.325  -1.994  0.00  0.00    -0.101 C 
ATOM     33  H   UNL     1       2.950   0.680   0.292  0.00  0.00    -0.077 HD
ATOM     34  H   UNL     1       6.448  -0.297  -0.795  0.00  0.00    -0.080 HD
ENDBRANCH  25  26
ENDBRANCH   3  25
TORSDOF 3
