REMARK  Name = 5463984
REMARK  10 active torsions:
REMARK  status: ('A' for Active; 'I' for Inactive)
REMARK    1  A    between atoms: N_2  and  C_29
REMARK    2  A    between atoms: C_3  and  N_13
REMARK    3  A    between atoms: N_13  and  CA_16
REMARK    4  A    between atoms: CA_16  and  C_18
REMARK    5  A    between atoms: CA_16  and  C_21
REMARK    6  A    between atoms: C_18  and  O_19
REMARK    7  A    between atoms: C_21  and  C_22
REMARK    8  A    between atoms: C_22  and  C_23
REMARK    9  A    between atoms: C_29  and  C_31
REMARK   10  A    between atoms: C_31  and  O_32
REMARK                            x       y       z     vdW  Elec       q    Type
REMARK                         _______ _______ _______ _____ _____    ______ ____
ROOT
ATOM      1  O   UNL     1       1.853  -2.473  -1.433  0.00  0.00    -0.277 OA
ATOM      2  N   UNL     1       2.644  -0.487  -0.511  0.00  0.00    -0.250 N 
ATOM      3  C   UNL     1       0.545  -1.507   0.343  0.00  0.00    +0.018 C 
ATOM      4  C   UNL     1       0.900  -1.981   1.748  0.00  0.00    -0.008 C 
ATOM      5  C   UNL     1       2.221  -1.422   2.263  0.00  0.00    +0.026 C 
ATOM      6  C   UNL     1       1.743  -1.566  -0.603  0.00  0.00    +0.210 C 
ATOM      7  C   UNL     1       2.427   0.030   1.915  0.00  0.00    -0.009 C 
ATOM      8  C   UNL     1       2.684   0.441   0.587  0.00  0.00    +0.050 C 
ATOM      9  C   UNL     1       2.452   0.976   2.954  0.00  0.00    -0.003 C 
ATOM     10  C   UNL     1       3.021   1.787   0.355  0.00  0.00    +0.015 C 
ATOM     11  C   UNL     1       2.754   2.311   2.696  0.00  0.00    -0.000 C 
ATOM     12  C   UNL     1       3.046   2.714   1.399  0.00  0.00    +0.001 C 
ENDROOT
BRANCH   3  13
ATOM     13  N   UNL     1      -0.530  -2.336  -0.206  0.00  0.00    +0.399 N 
ATOM     14  H1  UNL     1      -0.201  -3.299  -0.288  0.00  0.00    -0.083 HD
ATOM     15  H2  UNL     1      -0.789  -1.972  -1.123  0.00  0.00    -0.083 HD
BRANCH  13  16
ATOM     16  CA  UNL     1      -1.698  -2.302   0.658  0.00  0.00    +0.041 C 
BRANCH  16  18
ATOM     17  OXT UNL     1      -2.628  -3.744  -1.069  0.00  0.00    -0.253 OA
ATOM     18  C   UNL     1      -2.752  -3.185   0.013  0.00  0.00    +0.293 C 
BRANCH  18  19
ATOM     19  O   UNL     1      -3.862  -3.317   0.784  0.00  0.00    -0.482 OA
ATOM     20  H   UNL     1      -3.917  -2.871   1.606  0.00  0.00    +0.295 HD
ENDBRANCH  18  19
ENDBRANCH  16  18
BRANCH  16  21
ATOM     21  C   UNL     1      -2.191  -0.854   0.786  0.00  0.00    -0.006 C 
BRANCH  21  22
ATOM     22  C   UNL     1      -2.616  -0.207  -0.541  0.00  0.00    +0.025 C 
BRANCH  22  23
ATOM     23  C   UNL     1      -3.173   1.189  -0.407  0.00  0.00    -0.022 C 
ATOM     24  C   UNL     1      -4.534   1.363  -0.211  0.00  0.00    -0.004 C 
ATOM     25  C   UNL     1      -2.313   2.274  -0.481  0.00  0.00    -0.004 C 
ATOM     26  C   UNL     1      -5.049   2.653  -0.087  0.00  0.00    -0.000 C 
ATOM     27  C   UNL     1      -2.828   3.564  -0.356  0.00  0.00    -0.000 C 
ATOM     28  C   UNL     1      -4.196   3.754  -0.159  0.00  0.00    -0.000 C 
ENDBRANCH  22  23
ENDBRANCH  21  22
ENDBRANCH  16  21
ENDBRANCH  13  16
ENDBRANCH   3  13
BRANCH   2  29
ATOM     29  C   UNL     1       3.587  -0.275  -1.609  0.00  0.00    +0.208 C 
BRANCH  29  31
ATOM     30  O   UNL     1       3.666   0.914  -3.700  0.00  0.00    -0.248 OA
ATOM     31  C   UNL     1       3.038   0.619  -2.690  0.00  0.00    +0.335 C 
BRANCH  31  32
ATOM     32  O   UNL     1       1.786   1.067  -2.439  0.00  0.00    -0.479 OA
ATOM     33  H   UNL     1       1.348   0.812  -1.651  0.00  0.00    +0.295 HD
ENDBRANCH  31  32
ENDBRANCH  29  31
ENDBRANCH   2  29
TORSDOF 10
