5315892
  -OEChem-07031813593D

 20 20  0     0  0  0  0  0  0999 V2000
    4.1842    0.5608   -0.4773 O   0  0  0  0  0  0  0  0  0  0  0  0
   -0.4235   -0.2998   -0.0431 C   0  0  0  0  0  0  0  0  0  0  0  0
    0.9810   -0.6774   -0.0644 C   0  0  0  0  0  0  0  0  0  0  0  0
   -0.7828    1.0461    0.0298 C   0  0  0  0  0  0  0  0  0  0  0  0
   -1.4113   -1.2835   -0.0953 C   0  0  0  0  0  0  0  0  0  0  0  0
   -2.1296    1.4084    0.0504 C   0  0  0  0  0  0  0  0  0  0  0  0
   -2.7581   -0.9211   -0.0747 C   0  0  0  0  0  0  0  0  0  0  0  0
    2.0142    0.0900    0.3518 C   0  0  0  0  0  0  0  0  0  0  0  0
   -3.1172    0.4249   -0.0018 C   0  0  0  0  0  0  0  0  0  0  0  0
    3.4432   -0.3483    0.3246 C   0  0  0  0  0  0  0  0  0  0  0  0
    1.1983   -1.6747   -0.4416 H   0  0  0  0  0  0  0  0  0  0  0  0
   -0.0495    1.8468    0.0518 H   0  0  0  0  0  0  0  0  0  0  0  0
   -1.1507   -2.3377   -0.1511 H   0  0  0  0  0  0  0  0  0  0  0  0
   -2.4100    2.4565    0.1025 H   0  0  0  0  0  0  0  0  0  0  0  0
   -3.5274   -1.6866   -0.1154 H   0  0  0  0  0  0  0  0  0  0  0  0
    1.8459    1.0805    0.7645 H   0  0  0  0  0  0  0  0  0  0  0  0
   -4.1659    0.7070    0.0131 H   0  0  0  0  0  0  0  0  0  0  0  0
    3.8586   -0.3303    1.3365 H   0  0  0  0  0  0  0  0  0  0  0  0
    3.5700   -1.3571   -0.0807 H   0  0  0  0  0  0  0  0  0  0  0  0
    3.8396    0.5026   -1.3850 H   0  0  0  0  0  0  0  0  0  0  0  0
  1 10  1  0  0  0  0
  1 20  1  0  0  0  0
  2  3  1  0  0  0  0
  2  4  2  0  0  0  0
  2  5  1  0  0  0  0
  3  8  2  0  0  0  0
  3 11  1  0  0  0  0
  4  6  1  0  0  0  0
  4 12  1  0  0  0  0
  5  7  2  0  0  0  0
  5 13  1  0  0  0  0
  6  9  2  0  0  0  0
  6 14  1  0  0  0  0
  7  9  1  0  0  0  0
  7 15  1  0  0  0  0
  8 10  1  0  0  0  0
  8 16  1  0  0  0  0
  9 17  1  0  0  0  0
 10 18  1  0  0  0  0
 10 19  1  0  0  0  0
M  END
> <DATABASE_ID>
DB14186

> <DATABASE_NAME>
drugbank

> <ORIGINAL_SOURCE>
PUBCHEM

> <ORIGINAL_SOURCE_URL>
https://pubchem.ncbi.nlm.nih.gov/rest/pug/compound/inchikey/OOCCDEMITAIZTP-QPJJXVBHSA-N/SDF?record_type=3d

> <SMILES>
OC\C=C\C1=CC=CC=C1

> <INCHI_IDENTIFIER>
InChI=1S/C9H10O/c10-8-4-7-9-5-2-1-3-6-9/h1-7,10H,8H2/b7-4+

> <INCHI_KEY>
OOCCDEMITAIZTP-QPJJXVBHSA-N

> <FORMULA>
C9H10O

> <MOLECULAR_WEIGHT>
134.1751

> <EXACT_MASS>
134.073164942

> <JCHEM_ACCEPTOR_COUNT>
1

> <JCHEM_ATOM_COUNT>
20

> <JCHEM_AVERAGE_POLARIZABILITY>
15.411925629164916

> <JCHEM_BIOAVAILABILITY>
1

> <JCHEM_DONOR_COUNT>
1

> <JCHEM_FORMAL_CHARGE>
0

> <JCHEM_GHOSE_FILTER>
0

> <JCHEM_IUPAC>
(2E)-3-phenylprop-2-en-1-ol

> <ALOGPS_LOGP>
1.93

> <JCHEM_LOGP>
1.8158117219999996

> <ALOGPS_LOGS>
-1.76

> <JCHEM_MDDR_LIKE_RULE>
0

> <JCHEM_NUMBER_OF_RINGS>
1

> <JCHEM_PHYSIOLOGICAL_CHARGE>
0

> <JCHEM_PKA_STRONGEST_ACIDIC>
15.62297059992013

> <JCHEM_PKA_STRONGEST_BASIC>
-2.526312659594935

> <JCHEM_POLAR_SURFACE_AREA>
20.23

> <JCHEM_REFRACTIVITY>
43.1925

> <JCHEM_ROTATABLE_BOND_COUNT>
2

> <JCHEM_RULE_OF_FIVE>
1

> <ALOGPS_SOLUBILITY>
2.34e+00 g/l

> <JCHEM_TRADITIONAL_IUPAC>
cinnamyl alcohol

> <JCHEM_VEBER_RULE>
1

> <DRUGBANK_ID>
DB14186

> <DRUG_GROUPS>
approved; experimental

> <GENERIC_NAME>
Cinnamyl alcohol

> <SYNONYMS>
(2E)-3-phenylprop-2-en-1-ol; (E)-cinnamyl alcohol; Cinnamyl alcohol; Styrylcarbinol

> <PRODUCTS>
T.R.U.E. Test Thin-Layer Rapid Use Patch Test

$$$$
