REMARK  Name = 439924
REMARK  6 active torsions:
REMARK  status: ('A' for Active; 'I' for Inactive)
REMARK    1  A    between atoms: C2*_2  and  O2*_17
REMARK    2  A    between atoms: C3*_3  and  O3*_19
REMARK    3  A    between atoms: C1*_4  and  N_6
REMARK    4  A    between atoms: C4*_5  and  C5*_21
REMARK    5  A    between atoms: C_9  and  C_14
REMARK    6  A    between atoms: C5*_21  and  O5*_22
REMARK                            x       y       z     vdW  Elec       q    Type
REMARK                         _______ _______ _______ _____ _____    ______ ____
ROOT
ATOM      1  O4* UNL     1       1.500   0.522   1.073  0.00  0.00    -0.333 OA
ATOM      2  C2* UNL     1       1.853  -0.862  -0.817  0.00  0.00    +0.187 C 
ATOM      3  C3* UNL     1       3.121  -0.069  -0.566  0.00  0.00    +0.171 C 
ATOM      4  C1* UNL     1       1.168  -0.771   0.535  0.00  0.00    +0.223 C 
ATOM      5  C4* UNL     1       2.627   1.055   0.340  0.00  0.00    +0.175 C 
ENDROOT
BRANCH   4   6
ATOM      6  N   UNL     1      -0.297  -0.960   0.390  0.00  0.00    -0.279 N 
ATOM      7  C   UNL     1      -1.075   0.106   0.127  0.00  0.00    +0.124 C 
ATOM      8  C   UNL     1      -0.817  -2.194   0.524  0.00  0.00    +0.063 C 
ATOM      9  C   UNL     1      -2.447  -0.042  -0.014  0.00  0.00    +0.051 C 
ATOM     10  C   UNL     1      -2.183  -2.401   0.393  0.00  0.00    +0.016 C 
ATOM     11  C   UNL     1      -3.003  -1.310   0.121  0.00  0.00    +0.003 C 
BRANCH   9  14
ATOM     12  O   UNL     1      -4.522   1.000  -0.412  0.00  0.00    -0.271 OA
ATOM     13  N   UNL     1      -2.668   2.351  -0.421  0.00  0.00    -0.326 N 
ATOM     14  C   UNL     1      -3.288   1.109  -0.298  0.00  0.00    +0.240 C 
ATOM     15  H   UNL     1      -3.207   3.152  -0.613  0.00  0.00    +0.145 HD
ATOM     16  H   UNL     1      -1.693   2.426  -0.316  0.00  0.00    +0.145 HD
ENDBRANCH   9  14
ENDBRANCH   4   6
BRANCH   2  17
ATOM     17  O2* UNL     1       2.103  -2.200  -1.194  0.00  0.00    -0.378 OA
ATOM     18  H2* UNL     1       2.541  -2.215  -2.060  0.00  0.00    +0.211 HD
ENDBRANCH   2  17
BRANCH   3  19
ATOM     19  O3* UNL     1       4.049  -0.873   0.162  0.00  0.00    -0.379 OA
ATOM     20  H3* UNL     1       4.369  -1.591  -0.406  0.00  0.00    +0.211 HD
ENDBRANCH   3  19
BRANCH   5  21
ATOM     21  C5* UNL     1       2.162   2.280  -0.433  0.00  0.00    +0.169 C 
BRANCH  21  22
ATOM     22  O5* UNL     1       1.716   3.257   0.490  0.00  0.00    -0.379 OA
ATOM     23  H5* UNL     1       1.416   4.045   0.009  0.00  0.00    +0.211 HD
ENDBRANCH  21  22
ENDBRANCH   5  21
TORSDOF 6
