REMARK  Name = 72022
REMARK  9 active torsions:
REMARK  status: ('A' for Active; 'I' for Inactive)
REMARK    1  A    between atoms: CA_6  and  C_13
REMARK    2  A    between atoms: C_11  and  CA_16
REMARK    3  A    between atoms: C_13  and  O_14
REMARK    4  A    between atoms: CA_16  and  N_18
REMARK    5  A    between atoms: N_18  and  CA_21
REMARK    6  A    between atoms: CA_21  and  C_23
REMARK    7  A    between atoms: CA_21  and  C_26
REMARK    8  A    between atoms: C_23  and  O_24
REMARK    9  A    between atoms: C_26  and  C_27
REMARK                            x       y       z     vdW  Elec       q    Type
REMARK                         _______ _______ _______ _____ _____    ______ ____
ROOT
ATOM      1  O   UNL     1       0.164  -2.353  -0.120  0.00  0.00    -0.277 OA
ATOM      2  N   UNL     1       1.348  -0.427   0.373  0.00  0.00    -0.275 N 
ATOM      3  C   UNL     1       3.601  -0.179   0.987  0.00  0.00    +0.020 C 
ATOM      4  C   UNL     1       2.667  -1.002   0.093  0.00  0.00    +0.076 C 
ATOM      5  C   UNL     1       2.979   1.219   0.932  0.00  0.00    +0.033 C 
ATOM      6  CA  UNL     1       1.473   0.942   0.886  0.00  0.00    +0.174 C 
ATOM      7  C   UNL     1       5.075  -0.242   0.601  0.00  0.00    +0.002 C 
ATOM      8  C   UNL     1       2.991  -0.916  -1.403  0.00  0.00    +0.020 C 
ATOM      9  C   UNL     1       5.324  -0.134  -0.900  0.00  0.00    +0.000 C 
ATOM     10  C   UNL     1       4.473  -1.131  -1.678  0.00  0.00    +0.002 C 
ATOM     11  C   UNL     1       0.199  -1.204   0.328  0.00  0.00    +0.206 C 
ENDROOT
BRANCH   6  13
ATOM     12  OXT UNL     1       0.732   1.711  -1.280  0.00  0.00    -0.248 OA
ATOM     13  C   UNL     1       0.819   1.885  -0.074  0.00  0.00    +0.332 C 
BRANCH  13  14
ATOM     14  O   UNL     1       0.334   2.971   0.577  0.00  0.00    -0.479 OA
ATOM     15  H   UNL     1       0.433   3.043   1.506  0.00  0.00    +0.295 HD
ENDBRANCH  13  14
ENDBRANCH   6  13
BRANCH  11  16
ATOM     16  CA  UNL     1      -1.062  -0.564   0.851  0.00  0.00    +0.018 C 
ATOM     17  CB  UNL     1      -1.228  -0.877   2.325  0.00  0.00    -0.014 C 
BRANCH  16  18
ATOM     18  N   UNL     1      -2.163  -1.107   0.074  0.00  0.00    +0.399 N 
ATOM     19  H1  UNL     1      -2.193  -2.119   0.199  0.00  0.00    -0.083 HD
ATOM     20  H2  UNL     1      -2.015  -0.871  -0.907  0.00  0.00    -0.083 HD
BRANCH  18  21
ATOM     21  CA  UNL     1      -3.436  -0.537   0.500  0.00  0.00    +0.040 C 
BRANCH  21  23
ATOM     22  OXT UNL     1      -4.381  -1.900  -1.299  0.00  0.00    -0.253 OA
ATOM     23  C   UNL     1      -4.533  -1.133  -0.359  0.00  0.00    +0.293 C 
BRANCH  23  24
ATOM     24  O   UNL     1      -5.750  -0.681   0.043  0.00  0.00    -0.482 OA
ATOM     25  H   UNL     1      -5.815  -0.093   0.769  0.00  0.00    +0.295 HD
ENDBRANCH  23  24
ENDBRANCH  21  23
BRANCH  21  26
ATOM     26  C   UNL     1      -3.416   0.997   0.435  0.00  0.00    -0.010 C 
BRANCH  26  27
ATOM     27  C   UNL     1      -3.134   1.571  -0.960  0.00  0.00    -0.002 C 
ATOM     28  C   UNL     1      -3.077   3.091  -0.930  0.00  0.00    -0.000 C 
ENDBRANCH  26  27
ENDBRANCH  21  26
ENDBRANCH  18  21
ENDBRANCH  16  18
ENDBRANCH  11  16
TORSDOF 9
