REMARK  Name = 10176265
REMARK  4 active torsions:
REMARK  status: ('A' for Active; 'I' for Inactive)
REMARK    1  A    between atoms: C_1  and  C_4
REMARK    2  A    between atoms: C_1  and  N_8
REMARK    3  A    between atoms: C_1  and  C_12
REMARK    4  A    between atoms: C_12  and  S_13
REMARK                            x       y       z     vdW  Elec       q    Type
REMARK                         _______ _______ _______ _____ _____    ______ ____
ROOT
ATOM      1  C   UNL     1       0.634  -0.273   0.221  0.00  0.00    +0.159 C 
ENDROOT
BRANCH   1   4
ATOM      2  O   UNL     1       1.027   1.652  -1.210  0.00  0.00    -0.274 OA
ATOM      3  N   UNL     1       2.005   1.611   0.867  0.00  0.00    -0.327 N 
ATOM      4  C   UNL     1       1.210   1.091  -0.133  0.00  0.00    +0.238 C 
ATOM      5  H   UNL     1       2.432   2.490   0.749  0.00  0.00    +0.145 HD
ATOM      6  H   UNL     1       2.146   1.103   1.699  0.00  0.00    +0.145 HD
ENDBRANCH   1   4
BRANCH   1   8
ATOM      7  O   UNL     1      -1.910   0.652   1.268  0.00  0.00    -0.275 OA
ATOM      8  N   UNL     1      -0.657  -0.358  -0.414  0.00  0.00    -0.298 N 
ATOM      9  C   UNL     1      -1.824   0.114   0.168  0.00  0.00    +0.223 C 
ATOM     10  C   UNL     1      -3.025  -0.077  -0.719  0.00  0.00    +0.095 C 
ATOM     11  H   UNL     1      -0.714  -0.773  -1.305  0.00  0.00    +0.150 HD
ENDBRANCH   1   8
BRANCH   1  12
ATOM     12  C   UNL     1       1.585  -1.379  -0.235  0.00  0.00    +0.082 C 
BRANCH  12  13
ATOM     13  S   UNL     1       0.956  -3.033   0.187  0.00  0.00    -0.166 S 
ATOM     14  H   UNL     1       1.838  -3.976  -0.239  0.00  0.00    +0.102 HD
ENDBRANCH  12  13
ENDBRANCH   1  12
TORSDOF 4
