REMARK  Name = 1061
REMARK  0 active torsions:
REMARK  status: ('A' for Active; 'I' for Inactive)
REMARK                            x       y       z     vdW  Elec       q    Type
REMARK                         _______ _______ _______ _____ _____    ______ ____
ROOT
ATOM      1  P   UNL     1       0.000   0.000   0.000  0.00  0.00    +0.559 P 
ATOM      2  O   UNL     1       1.523  -0.069  -0.198  0.00  0.00    -0.113 OA
ATOM      3  O   UNL     1      -0.641   0.718  -1.199  0.00  0.00    -0.220 OA
ATOM      4  O   UNL     1      -0.568  -1.425   0.107  0.00  0.00    -0.113 OA
ATOM      5  O   UNL     1      -0.315   0.776   1.290  0.00  0.00    -0.113 OA
ENDROOT
TORSDOF 0
