REMARK  Name = 5284527
REMARK  10 active torsions:
REMARK  status: ('A' for Active; 'I' for Inactive)
REMARK    1  A    between atoms: CA_5  and  N_11
REMARK    2  A    between atoms: CA_7  and  C_25
REMARK    3  A    between atoms: C_8  and  C_28
REMARK    4  A    between atoms: C_12  and  C_14
REMARK    5  A    between atoms: C_14  and  C_15
REMARK    6  A    between atoms: C_14  and  O_21
REMARK    7  A    between atoms: O_21  and  C_23
REMARK    8  A    between atoms: C_25  and  O_26
REMARK    9  A    between atoms: C_28  and  S_29
REMARK   10  A    between atoms: S_29  and  C_34
REMARK                            x       y       z     vdW  Elec       q    Type
REMARK                         _______ _______ _______ _____ _____    ______ ____
ROOT
ATOM      1  S   UNL     1       0.377  -0.435  -1.482  0.00  0.00    -0.114 S 
ATOM      2  O   UNL     1       0.560   3.523   0.949  0.00  0.00    -0.273 OA
ATOM      3  N   UNL     1      -0.351   1.938  -0.540  0.00  0.00    -0.242 N 
ATOM      4  C   UNL     1       0.512   1.366  -1.558  0.00  0.00    +0.155 C 
ATOM      5  CA  UNL     1       1.687   2.000  -0.782  0.00  0.00    +0.178 C 
ATOM      6  C   UNL     1       0.586   2.703   0.062  0.00  0.00    +0.251 C 
ATOM      7  CA  UNL     1      -1.671   1.647  -0.419  0.00  0.00    +0.124 C 
ATOM      8  C   UNL     1      -2.221   0.582  -1.050  0.00  0.00    -0.002 C 
ATOM      9  C   UNL     1      -1.409  -0.428  -1.856  0.00  0.00    +0.083 C 
ENDROOT
BRANCH   5  11
ATOM     10  O   UNL     1       4.354   1.122  -1.469  0.00  0.00    -0.271 OA
ATOM     11  N   UNL     1       2.559   1.128   0.004  0.00  0.00    -0.293 N 
ATOM     12  C   UNL     1       3.837   0.758  -0.414  0.00  0.00    +0.268 C 
ATOM     13  H   UNL     1       2.229   0.786   0.867  0.00  0.00    +0.150 HD
BRANCH  12  14
ATOM     14  C   UNL     1       4.554  -0.136   0.588  0.00  0.00    +0.267 C 
BRANCH  14  15
ATOM     15  C   UNL     1       4.351  -1.599   0.273  0.00  0.00    +0.026 C 
ATOM     16  C   UNL     1       3.270  -2.288   0.824  0.00  0.00    -0.000 C 
ATOM     17  C   UNL     1       5.245  -2.263  -0.568  0.00  0.00    -0.000 C 
ATOM     18  C   UNL     1       3.082  -3.639   0.534  0.00  0.00    -0.000 C 
ATOM     19  C   UNL     1       5.057  -3.614  -0.858  0.00  0.00    -0.000 C 
ATOM     20  C   UNL     1       3.976  -4.302  -0.307  0.00  0.00    -0.000 C 
ENDBRANCH  14  15
BRANCH  14  21
ATOM     21  O   UNL     1       5.945   0.150   0.562  0.00  0.00    -0.431 OA
BRANCH  21  23
ATOM     22  O   UNL     1       5.670   1.810   2.152  0.00  0.00    -0.238 OA
ATOM     23  C   UNL     1       6.360   1.146   1.395  0.00  0.00    +0.419 C 
ENDBRANCH  21  23
ENDBRANCH  14  21
ENDBRANCH  12  14
ENDBRANCH   5  11
BRANCH   7  25
ATOM     24  OXT UNL     1      -3.022   2.106   1.483  0.00  0.00    -0.244 OA
ATOM     25  C   UNL     1      -2.463   2.501   0.479  0.00  0.00    +0.351 C 
BRANCH  25  26
ATOM     26  O   UNL     1      -2.462   3.764   0.011  0.00  0.00    -0.476 OA
ATOM     27  H   UNL     1      -1.999   3.972  -0.776  0.00  0.00    +0.295 HD
ENDBRANCH  25  26
ENDBRANCH   7  25
BRANCH   8  28
ATOM     28  C   UNL     1      -3.692   0.240  -1.030  0.00  0.00    +0.089 C 
BRANCH  28  29
ATOM     29  S   UNL     1      -4.037  -0.833   0.373  0.00  0.00    -0.070 S 
BRANCH  29  34
ATOM     30  N   UNL     1      -6.539  -1.834   0.998  0.00  0.00    -0.206 N 
ATOM     31  N   UNL     1      -6.549  -0.581  -0.772  0.00  0.00    -0.101 NA
ATOM     32  N   UNL     1      -7.813  -1.821   0.582  0.00  0.00    -0.042 NA
ATOM     33  N   UNL     1      -7.813  -1.053  -0.501  0.00  0.00    -0.022 NA
ATOM     34  C   UNL     1      -5.777  -1.075   0.168  0.00  0.00    +0.211 A 
ATOM     35  C   UNL     1      -6.163  -2.583   2.170  0.00  0.00    +0.158 C 
ENDBRANCH  29  34
ENDBRANCH  28  29
ENDBRANCH   8  28
TORSDOF 10
