REMARK  Name = 129103609
REMARK  0 active torsions:
REMARK  status: ('A' for Active; 'I' for Inactive)
REMARK                            x       y       z     vdW  Elec       q    Type
REMARK                         _______ _______ _______ _____ _____    ______ ____
ROOT
ATOM      1  F   UNL     1      -2.378   1.658  -3.542  0.00  0.00    -0.203 F 
ATOM      2  O   UNL     1       3.725   1.155  -0.843  0.00  0.00    -0.274 OA
ATOM      3  N   UNL     1      -2.001  -1.553   0.637  0.00  0.00    -0.281 N 
ATOM      4  N   UNL     1       0.290  -1.142   0.302  0.00  0.00    -0.374 NA
ATOM      5  N   UNL     1      -0.702   2.909  -0.589  0.00  0.00    -0.246 NA
ATOM      6  N   UNL     1       2.171   1.155   0.879  0.00  0.00    -0.305 N 
ATOM      7  N   UNL     1       1.774  -2.878  -0.421  0.00  0.00    -0.164 N 
ATOM      8  N   UNL     1       3.070  -3.070  -0.774  0.00  0.00    -0.174 NA
ATOM      9  C   UNL     1      -2.343  -0.161   1.009  0.00  0.00    +0.099 C 
ATOM     10  C   UNL     1      -3.873  -0.186   1.183  0.00  0.00    +0.026 C 
ATOM     11  C   UNL     1      -4.134  -1.602   1.659  0.00  0.00    +0.024 C 
ATOM     12  C   UNL     1      -3.160  -2.429   0.828  0.00  0.00    +0.093 C 
ATOM     13  C   UNL     1      -1.893   0.879  -0.001  0.00  0.00    +0.012 C 
ATOM     14  C   UNL     1      -0.715  -1.994   0.294  0.00  0.00    +0.186 C 
ATOM     15  C   UNL     1      -1.041   1.954   0.318  0.00  0.00    +0.057 C 
ATOM     16  C   UNL     1      -0.480   2.140   1.708  0.00  0.00    +0.047 C 
ATOM     17  C   UNL     1       0.789   3.000   1.857  0.00  0.00    +0.026 C 
ATOM     18  C   UNL     1      -2.329   0.787  -1.334  0.00  0.00    +0.030 C 
ATOM     19  C   UNL     1       2.019   2.601   1.008  0.00  0.00    +0.072 C 
ATOM     20  C   UNL     1      -0.496  -3.444  -0.085  0.00  0.00    +0.066 C 
ATOM     21  C   UNL     1       1.530  -1.557  -0.071  0.00  0.00    +0.198 C 
ATOM     22  C   UNL     1      -1.960   1.740  -2.274  0.00  0.00    +0.159 C 
ATOM     23  C   UNL     1       0.747  -3.809  -0.415  0.00  0.00    +0.096 C 
ATOM     24  C   UNL     1       2.715  -0.869  -0.257  0.00  0.00    +0.187 C 
ATOM     25  C   UNL     1       3.282   3.235   1.595  0.00  0.00    +0.021 C 
ATOM     26  C   UNL     1      -1.158   2.778  -1.851  0.00  0.00    +0.128 C 
ATOM     27  C   UNL     1       2.935   0.559  -0.116  0.00  0.00    +0.236 C 
ATOM     28  C   UNL     1       3.615  -1.856  -0.704  0.00  0.00    +0.109 C 
ATOM     29  H   UNL     1       1.711   0.575   1.528  0.00  0.00    +0.149 HD
ENDROOT
TORSDOF 0
