REMARK  Name = 89034
REMARK  7 active torsions:
REMARK  status: ('A' for Active; 'I' for Inactive)
REMARK    1  A    between atoms: CA_1  and  N_2
REMARK    2  A    between atoms: CA_1  and  C_7
REMARK    3  A    between atoms: CA_1  and  C_10
REMARK    4  A    between atoms: C_7  and  O_8
REMARK    5  A    between atoms: C_10  and  C_11
REMARK    6  A    between atoms: C_11  and  S_12
REMARK    7  A    between atoms: S_12  and  N_14
REMARK                            x       y       z     vdW  Elec       q    Type
REMARK                         _______ _______ _______ _____ _____    ______ ____
ROOT
ATOM      1  CA  UNL     1       1.506   0.369   0.548  0.00  0.00    +0.037 C 
ENDROOT
BRANCH   1   2
ATOM      2  N   UNL     1       1.625   1.792   0.243  0.00  0.00    +0.389 N 
ATOM      3  H1  UNL     1       0.816   2.289   0.615  0.00  0.00    -0.088 HD
ATOM      4  H2  UNL     1       1.667   1.920  -0.768  0.00  0.00    -0.088 HD
ATOM      5  H3  UNL     1       2.475   2.161   0.668  0.00  0.00    -0.088 HD
ENDBRANCH   1   2
BRANCH   1   7
ATOM      6  OXT UNL     1       3.623   0.291  -0.654  0.00  0.00    -0.253 OA
ATOM      7  C   UNL     1       2.741  -0.291  -0.036  0.00  0.00    +0.293 C 
BRANCH   7   8
ATOM      8  O   UNL     1       2.782  -1.624   0.225  0.00  0.00    -0.482 OA
ATOM      9  H   UNL     1       2.084  -2.029   0.702  0.00  0.00    +0.295 HD
ENDBRANCH   7   8
ENDBRANCH   1   7
BRANCH   1  10
ATOM     10  C   UNL     1       0.209  -0.188  -0.054  0.00  0.00    +0.003 C 
BRANCH  10  11
ATOM     11  C   UNL     1      -1.031   0.466   0.545  0.00  0.00    +0.081 C 
BRANCH  11  12
ATOM     12  S   UNL     1      -2.507  -0.170  -0.186  0.00  0.00    -0.012 S 
ATOM     13  O   UNL     1      -2.546   0.315  -1.558  0.00  0.00    -0.156 OA
ATOM     14  C   UNL     1      -3.788   0.696   0.696  0.00  0.00    +0.097 C 
BRANCH  12  15
ATOM     15  N   UNL     1      -2.612  -1.657   0.230  0.00  0.00    -0.183 NA
ATOM     16  H   UNL     1      -1.988  -2.319  -0.147  0.00  0.00    +0.156 HD
ENDBRANCH  12  15
ENDBRANCH  11  12
ENDBRANCH  10  11
ENDBRANCH   1  10
TORSDOF 7
