REMARK  Name = 60870
REMARK  7 active torsions:
REMARK  status: ('A' for Active; 'I' for Inactive)
REMARK    1  A    between atoms: C_2  and  C_4
REMARK    2  A    between atoms: C_2  and  C_18
REMARK    3  A    between atoms: C_3  and  C_9
REMARK    4  A    between atoms: C_9  and  C_14
REMARK    5  A    between atoms: C_18  and  C_19
REMARK    6  A    between atoms: C_19  and  C_22
REMARK    7  A    between atoms: C_24  and  C_26
REMARK                            x       y       z     vdW  Elec       q    Type
REMARK                         _______ _______ _______ _____ _____    ______ ____
ROOT
ATOM      1  O   UNL     1      -4.011   1.690   2.284  0.00  0.00    -0.291 OA
ATOM      2  C   UNL     1      -3.551   1.636   1.125  0.00  0.00    +0.173 C 
ENDROOT
BRANCH   2   4
ATOM      3  C   UNL     1       0.558   2.316   0.397  0.00  0.00    -0.021 C 
ATOM      4  C   UNL     1      -2.137   1.869   0.874  0.00  0.00    +0.035 C 
ATOM      5  C   UNL     1       0.162   1.771   1.609  0.00  0.00    -0.004 C 
ATOM      6  C   UNL     1      -0.370   2.641  -0.581  0.00  0.00    -0.004 C 
ATOM      7  C   UNL     1      -1.194   1.546   1.849  0.00  0.00    +0.003 C 
ATOM      8  C   UNL     1      -1.726   2.416  -0.341  0.00  0.00    +0.003 C 
BRANCH   3   9
ATOM      9  C   UNL     1       2.023   2.558   0.137  0.00  0.00    +0.047 C 
BRANCH   9  14
ATOM     10  S   UNL     1       3.123   0.108   0.749  0.00  0.00    -0.048 S 
ATOM     11  O   UNL     1       4.085   2.593  -2.043  0.00  0.00    -0.274 OA
ATOM     12  O   UNL     1       5.642  -0.633   0.872  0.00  0.00    -0.263 OA
ATOM     13  N   UNL     1       5.049   0.999  -0.673  0.00  0.00    -0.246 N 
ATOM     14  C   UNL     1       2.692   1.355  -0.504  0.00  0.00    +0.137 C 
ATOM     15  C   UNL     1       3.995   1.737  -1.170  0.00  0.00    +0.239 C 
ATOM     16  C   UNL     1       4.822   0.090   0.327  0.00  0.00    +0.279 C 
ATOM     17  H   UNL     1       5.956   1.124  -1.033  0.00  0.00    +0.158 HD
ENDBRANCH   9  14
ENDBRANCH   3   9
ENDBRANCH   2   4
BRANCH   2  18
ATOM     18  C   UNL     1      -4.498   1.316  -0.047  0.00  0.00    +0.076 C 
BRANCH  18  19
ATOM     19  C   UNL     1      -4.641  -0.183  -0.325  0.00  0.00    +0.066 C 
BRANCH  19  22
ATOM     20  O   UNL     1      -1.590  -1.608  -1.737  0.00  0.00    -0.449 OA
ATOM     21  N   UNL     1      -2.545  -1.340   0.296  0.00  0.00    -0.373 NA
ATOM     22  C   UNL     1      -3.332  -0.823  -0.681  0.00  0.00    +0.130 C 
ATOM     23  C   UNL     1      -2.782  -0.971  -1.909  0.00  0.00    +0.216 C 
ATOM     24  C   UNL     1      -1.521  -1.795  -0.391  0.00  0.00    +0.277 C 
ATOM     25  C   UNL     1      -3.159  -0.621  -3.283  0.00  0.00    +0.055 C 
BRANCH  24  26
ATOM     26  C   UNL     1      -0.336  -2.461   0.074  0.00  0.00    +0.066 C 
ATOM     27  C   UNL     1       0.645  -2.869  -0.834  0.00  0.00    +0.006 C 
ATOM     28  C   UNL     1      -0.158  -2.707   1.439  0.00  0.00    +0.006 C 
ATOM     29  C   UNL     1       1.795  -3.517  -0.382  0.00  0.00    +0.000 C 
ATOM     30  C   UNL     1       0.992  -3.355   1.891  0.00  0.00    +0.000 C 
ATOM     31  C   UNL     1       1.968  -3.760   0.980  0.00  0.00    +0.000 C 
ENDBRANCH  24  26
ENDBRANCH  19  22
ENDBRANCH  18  19
ENDBRANCH   2  18
TORSDOF 7
