REMARK  Name = 19660
REMARK  0 active torsions:
REMARK  status: ('A' for Active; 'I' for Inactive)
REMARK                            x       y       z     vdW  Elec       q    Type
REMARK                         _______ _______ _______ _____ _____    ______ ____
ROOT
ATOM      1  O   UNL     1       1.058   0.734   0.000  0.00  0.00    -0.197 OA
ATOM      2  O   UNL     1       0.107  -1.283   0.000  0.00  0.00    -0.197 OA
ATOM      3  O   UNL     1      -1.165   0.549   0.000  0.00  0.00    -0.197 OA
ATOM      4  C   UNL     1       0.000   0.000   0.000  0.00  0.00    +0.592 C 
ENDROOT
TORSDOF 0
