REMARK  Name = 57855696
REMARK  10 active torsions:
REMARK  status: ('A' for Active; 'I' for Inactive)
REMARK    1  A    between atoms: C_3  and  C_6
REMARK    2  A    between atoms: C_4  and  C_20
REMARK    3  A    between atoms: C_7  and  O_12
REMARK    4  A    between atoms: C_9  and  O_16
REMARK    5  A    between atoms: O_12  and  C_13
REMARK    6  A    between atoms: O_16  and  C_19
REMARK    7  A    between atoms: C_20  and  N_22
REMARK    8  A    between atoms: C_23  and  C_25
REMARK    9  A    between atoms: C_26  and  O_31
REMARK   10  A    between atoms: O_31  and  C_32
REMARK                            x       y       z     vdW  Elec       q    Type
REMARK                         _______ _______ _______ _____ _____    ______ ____
ROOT
ATOM      1  O   UNL     1       0.481   3.258  -0.597  0.00  0.00    -0.444 OA
ATOM      2  N   UNL     1      -0.510   1.773   0.792  0.00  0.00    -0.371 NA
ATOM      3  C   UNL     1       0.565   2.097   0.109  0.00  0.00    +0.277 C 
ATOM      4  C   UNL     1      -1.374   2.802   0.516  0.00  0.00    +0.154 C 
ATOM      5  C   UNL     1      -0.776   3.706  -0.326  0.00  0.00    +0.264 C 
ENDROOT
BRANCH   3   6
ATOM      6  C   UNL     1       1.822   1.398  -0.001  0.00  0.00    +0.069 C 
ATOM      7  C   UNL     1       3.231  -0.478   0.574  0.00  0.00    +0.172 C 
ATOM      8  C   UNL     1       2.015   0.197   0.681  0.00  0.00    +0.046 C 
ATOM      9  C   UNL     1       4.254   0.048  -0.215  0.00  0.00    +0.178 C 
ATOM     10  C   UNL     1       2.845   1.925  -0.790  0.00  0.00    +0.009 C 
ATOM     11  C   UNL     1       4.061   1.250  -0.897  0.00  0.00    +0.040 C 
BRANCH   7  12
ATOM     12  O   UNL     1       3.408  -1.650   1.245  0.00  0.00    -0.476 OA
BRANCH  12  13
ATOM     13  C   UNL     1       2.518  -2.719   0.929  0.00  0.00    +0.166 C 
ATOM     14  C   UNL     1       3.318  -3.890   0.379  0.00  0.00    +0.047 C 
ATOM     15  C   UNL     1       1.733  -3.103   2.174  0.00  0.00    +0.047 C 
ENDBRANCH  12  13
ENDBRANCH   7  12
BRANCH   9  16
ATOM     16  O   UNL     1       5.446  -0.602  -0.327  0.00  0.00    -0.421 OA
BRANCH  16  19
ATOM     17  F   UNL     1       7.658  -0.456   0.012  0.00  0.00    -0.155 F 
ATOM     18  F   UNL     1       6.854   0.257  -1.879  0.00  0.00    -0.155 F 
ATOM     19  C   UNL     1       6.605   0.193  -0.547  0.00  0.00    +0.509 C 
ENDBRANCH  16  19
ENDBRANCH   9  16
ENDBRANCH   3   6
BRANCH   4  20
ATOM     20  C   UNL     1      -2.725   2.835   1.094  0.00  0.00    +0.149 C 
BRANCH  20  22
ATOM     21  O   UNL     1      -3.312   0.154   1.937  0.00  0.00    -0.270 OA
ATOM     22  N   UNL     1      -3.640   1.909   0.458  0.00  0.00    -0.295 N 
ATOM     23  C   UNL     1      -3.855   0.632   0.944  0.00  0.00    +0.249 C 
ATOM     24  H   UNL     1      -4.126   2.199  -0.348  0.00  0.00    +0.150 HD
BRANCH  23  25
ATOM     25  C   UNL     1      -4.803  -0.204   0.163  0.00  0.00    +0.087 C 
ATOM     26  C   UNL     1      -4.394  -1.410  -0.405  0.00  0.00    +0.143 C 
ATOM     27  C   UNL     1      -6.118   0.233   0.003  0.00  0.00    +0.008 C 
ATOM     28  C   UNL     1      -5.300  -2.180  -1.135  0.00  0.00    +0.037 C 
ATOM     29  C   UNL     1      -7.025  -0.537  -0.727  0.00  0.00    +0.000 C 
ATOM     30  C   UNL     1      -6.615  -1.744  -1.295  0.00  0.00    +0.003 C 
BRANCH  26  31
ATOM     31  O   UNL     1      -3.114  -1.853  -0.260  0.00  0.00    -0.475 OA
BRANCH  31  32
ATOM     32  C   UNL     1      -2.357  -2.049  -1.453  0.00  0.00    +0.206 C 
ATOM     33  C   UNL     1      -0.895  -1.791  -1.157  0.00  0.00    +0.051 C 
ENDBRANCH  31  32
ENDBRANCH  26  31
ENDBRANCH  23  25
ENDBRANCH  20  22
ENDBRANCH   4  20
TORSDOF 10
