REMARK  Name = 17755050
REMARK  8 active torsions:
REMARK  status: ('A' for Active; 'I' for Inactive)
REMARK    1  A    between atoms: C_2  and  C_25
REMARK    2  A    between atoms: C_4  and  O_16
REMARK    3  A    between atoms: C_13  and  O_18
REMARK    4  A    between atoms: C_14  and  O_20
REMARK    5  A    between atoms: O_20  and  C_21
REMARK    6  A    between atoms: C_21  and  C_22
REMARK    7  A    between atoms: C_22  and  C_24
REMARK    8  A    between atoms: C_25  and  C_26
REMARK                            x       y       z     vdW  Elec       q    Type
REMARK                         _______ _______ _______ _____ _____    ______ ____
ROOT
ATOM      1  N   UNL     1      -1.842  -1.402   0.141  0.00  0.00    +0.391 N 
ATOM      2  C   UNL     1      -3.987  -0.227  -0.218  0.00  0.00    +0.006 C 
ATOM      3  C   UNL     1      -1.244  -0.248   0.861  0.00  0.00    -0.032 C 
ATOM      4  C   UNL     1      -3.390   1.044   0.397  0.00  0.00    +0.107 C 
ATOM      5  C   UNL     1      -3.295  -1.473   0.351  0.00  0.00    -0.074 C 
ATOM      6  C   UNL     1      -1.864   1.041   0.282  0.00  0.00    +0.013 C 
ATOM      7  C   UNL     1      -1.199  -2.656   0.541  0.00  0.00    -0.072 C 
ATOM      8  C   UNL     1       0.283  -0.241   0.804  0.00  0.00    -0.042 C 
ATOM      9  C   UNL     1       0.244  -2.656   0.042  0.00  0.00    +0.003 C 
ATOM     10  C   UNL     1       0.985  -1.407   0.436  0.00  0.00    -0.027 C 
ATOM     11  C   UNL     1       1.024   0.885   1.199  0.00  0.00    +0.033 C 
ATOM     12  C   UNL     1       2.388  -1.404   0.399  0.00  0.00    +0.035 C 
ATOM     13  C   UNL     1       2.420   0.876   1.172  0.00  0.00    +0.172 C 
ATOM     14  C   UNL     1       3.102  -0.265   0.764  0.00  0.00    +0.172 C 
ATOM     15  H   UNL     1      -1.679  -1.260  -0.856  0.00  0.00    -0.079 HD
ENDROOT
BRANCH   4  16
ATOM     16  O   UNL     1      -3.910   2.187  -0.275  0.00  0.00    -0.385 OA
ATOM     17  H   UNL     1      -4.877   2.192  -0.204  0.00  0.00    +0.210 HD
ENDBRANCH   4  16
BRANCH  13  18
ATOM     18  O   UNL     1       3.103   1.992   1.551  0.00  0.00    -0.468 OA
ATOM     19  C   UNL     1       3.411   2.941   0.532  0.00  0.00    +0.253 C 
ENDBRANCH  13  18
BRANCH  14  20
ATOM     20  O   UNL     1       4.463  -0.286   0.728  0.00  0.00    -0.472 OA
BRANCH  20  21
ATOM     21  C   UNL     1       5.075  -0.549  -0.533  0.00  0.00    +0.208 C 
BRANCH  21  22
ATOM     22  C   UNL     1       6.410   0.178  -0.594  0.00  0.00    +0.085 C 
BRANCH  22  24
ATOM     23  F   UNL     1       6.352   0.365  -2.932  0.00  0.00    -0.234 F 
ATOM     24  C   UNL     1       7.130  -0.070  -1.906  0.00  0.00    +0.197 C 
ENDBRANCH  22  24
ENDBRANCH  21  22
ENDBRANCH  20  21
ENDBRANCH  14  20
BRANCH   2  25
ATOM     25  C   UNL     1      -5.498  -0.300   0.011  0.00  0.00    +0.000 C 
BRANCH  25  26
ATOM     26  C   UNL     1      -6.294   0.677  -0.866  0.00  0.00    +0.000 C 
ATOM     27  C   UNL     1      -6.086   0.425  -2.360  0.00  0.00    +0.000 C 
ATOM     28  C   UNL     1      -7.782   0.574  -0.526  0.00  0.00    +0.000 C 
ENDBRANCH  25  26
ENDBRANCH   2  25
TORSDOF 8
