26391
  -OEChem-11111920263D

 50 53  0     0  0  0  0  0  0999 V2000
   -0.4381   -1.7737   -0.7845 O   0  0  0  0  0  0  0  0  0  0  0  0
   -0.0203   -1.2900    2.7855 O   0  0  0  0  0  0  0  0  0  0  0  0
    5.3890    0.1255    0.4417 O   0  0  0  0  0  0  0  0  0  0  0  0
   -3.2493    3.7778   -0.5458 O   0  0  0  0  0  0  0  0  0  0  0  0
    5.2250    0.9206   -1.7539 O   0  0  0  0  0  0  0  0  0  0  0  0
   -1.5708    5.0176    0.5151 O   0  0  0  0  0  0  0  0  0  0  0  0
   -1.5470   -2.5664    1.6706 N   0  0  0  0  0  0  0  0  0  0  0  0
   -0.2012   -0.9421    0.3667 C   0  0  0  0  0  0  0  0  0  0  0  0
    1.3180   -0.6522    0.3866 C   0  0  0  0  0  0  0  0  0  0  0  0
   -1.0291    0.3402    0.1194 C   0  0  0  0  0  0  0  0  0  0  0  0
   -0.5495   -1.6197    1.7225 C   0  0  0  0  0  0  0  0  0  0  0  0
   -1.5224   -2.5992   -0.7335 C   0  0  0  0  0  0  0  0  0  0  0  0
   -2.0875   -3.0123    0.4653 C   0  0  0  0  0  0  0  0  0  0  0  0
    1.7795    0.5888    0.8160 C   0  0  0  0  0  0  0  0  0  0  0  0
   -0.8445    1.0680   -1.0532 C   0  0  0  0  0  0  0  0  0  0  0  0
    2.2153   -1.6339   -0.0243 C   0  0  0  0  0  0  0  0  0  0  0  0
   -1.9559    0.7609    1.0697 C   0  0  0  0  0  0  0  0  0  0  0  0
   -2.0208   -3.0816   -1.9434 C   0  0  0  0  0  0  0  0  0  0  0  0
   -3.1607   -3.9050    0.4688 C   0  0  0  0  0  0  0  0  0  0  0  0
    3.1495    0.8503    0.8348 C   0  0  0  0  0  0  0  0  0  0  0  0
   -1.5917    2.2243   -1.2770 C   0  0  0  0  0  0  0  0  0  0  0  0
    3.5854   -1.3724   -0.0054 C   0  0  0  0  0  0  0  0  0  0  0  0
   -2.7031    1.9173    0.8460 C   0  0  0  0  0  0  0  0  0  0  0  0
    4.0524   -0.1303    0.4240 C   0  0  0  0  0  0  0  0  0  0  0  0
   -2.5210    2.6491   -0.3275 C   0  0  0  0  0  0  0  0  0  0  0  0
   -3.1011   -3.9643   -1.9465 C   0  0  0  0  0  0  0  0  0  0  0  0
   -3.6710   -4.3751   -0.7413 C   0  0  0  0  0  0  0  0  0  0  0  0
    5.8844    0.6739   -0.7527 C   0  0  0  0  0  0  0  0  0  0  0  0
   -2.6484    4.9513   -0.0613 C   0  0  0  0  0  0  0  0  0  0  0  0
    7.3595    0.9184   -0.6330 C   0  0  0  0  0  0  0  0  0  0  0  0
   -3.5248    6.1340   -0.3494 C   0  0  0  0  0  0  0  0  0  0  0  0
   -1.8930   -2.9674    2.5374 H   0  0  0  0  0  0  0  0  0  0  0  0
    1.1118    1.3674    1.1714 H   0  0  0  0  0  0  0  0  0  0  0  0
   -0.1285    0.7506   -1.8065 H   0  0  0  0  0  0  0  0  0  0  0  0
    1.8766   -2.6133   -0.3497 H   0  0  0  0  0  0  0  0  0  0  0  0
   -2.1345    0.2299    1.9980 H   0  0  0  0  0  0  0  0  0  0  0  0
   -1.5747   -2.7749   -2.8855 H   0  0  0  0  0  0  0  0  0  0  0  0
   -3.6044   -4.2403    1.4024 H   0  0  0  0  0  0  0  0  0  0  0  0
    3.5074    1.8177    1.1770 H   0  0  0  0  0  0  0  0  0  0  0  0
   -1.4459    2.7890   -2.1939 H   0  0  0  0  0  0  0  0  0  0  0  0
    4.2837   -2.1419   -0.3233 H   0  0  0  0  0  0  0  0  0  0  0  0
   -3.4256    2.2429    1.5895 H   0  0  0  0  0  0  0  0  0  0  0  0
   -3.4947   -4.3369   -2.8877 H   0  0  0  0  0  0  0  0  0  0  0  0
   -4.5082   -5.0670   -0.7451 H   0  0  0  0  0  0  0  0  0  0  0  0
    7.5518    1.6236    0.1794 H   0  0  0  0  0  0  0  0  0  0  0  0
    7.7328    1.3498   -1.5660 H   0  0  0  0  0  0  0  0  0  0  0  0
    7.8766   -0.0273   -0.4533 H   0  0  0  0  0  0  0  0  0  0  0  0
   -3.6653    6.2350   -1.4283 H   0  0  0  0  0  0  0  0  0  0  0  0
   -3.0446    7.0417    0.0270 H   0  0  0  0  0  0  0  0  0  0  0  0
   -4.4865    6.0120    0.1549 H   0  0  0  0  0  0  0  0  0  0  0  0
  1  8  1  0  0  0  0
  1 12  1  0  0  0  0
  2 11  2  0  0  0  0
  3 24  1  0  0  0  0
  3 28  1  0  0  0  0
  4 25  1  0  0  0  0
  4 29  1  0  0  0  0
  5 28  2  0  0  0  0
  6 29  2  0  0  0  0
  7 11  1  0  0  0  0
  7 13  1  0  0  0  0
  7 32  1  0  0  0  0
  8  9  1  0  0  0  0
  8 10  1  0  0  0  0
  8 11  1  0  0  0  0
  9 14  2  0  0  0  0
  9 16  1  0  0  0  0
 10 15  2  0  0  0  0
 10 17  1  0  0  0  0
 12 13  1  0  0  0  0
 12 18  2  0  0  0  0
 13 19  2  0  0  0  0
 14 20  1  0  0  0  0
 14 33  1  0  0  0  0
 15 21  1  0  0  0  0
 15 34  1  0  0  0  0
 16 22  2  0  0  0  0
 16 35  1  0  0  0  0
 17 23  2  0  0  0  0
 17 36  1  0  0  0  0
 18 26  1  0  0  0  0
 18 37  1  0  0  0  0
 19 27  1  0  0  0  0
 19 38  1  0  0  0  0
 20 24  2  0  0  0  0
 20 39  1  0  0  0  0
 21 25  2  0  0  0  0
 21 40  1  0  0  0  0
 22 24  1  0  0  0  0
 22 41  1  0  0  0  0
 23 25  1  0  0  0  0
 23 42  1  0  0  0  0
 26 27  2  0  0  0  0
 26 43  1  0  0  0  0
 27 44  1  0  0  0  0
 28 30  1  0  0  0  0
 29 31  1  0  0  0  0
 30 45  1  0  0  0  0
 30 46  1  0  0  0  0
 30 47  1  0  0  0  0
 31 48  1  0  0  0  0
 31 49  1  0  0  0  0
 31 50  1  0  0  0  0
M  END
> <DATABASE_ID>
DB14654

> <DATABASE_NAME>
drugbank

> <ORIGINAL_SOURCE>
PUBCHEM

> <ORIGINAL_SOURCE_URL>
https://pubchem.ncbi.nlm.nih.gov/rest/pug/compound/inchikey/ZCBJDQBSLZREAA-UHFFFAOYSA-N/SDF?record_type=3d

> <SMILES>
CC(=O)OC1=CC=C(C=C1)C1(OC2=C(NC1=O)C=CC=C2)C1=CC=C(OC(C)=O)C=C1

> <INCHI_IDENTIFIER>
InChI=1S/C24H19NO6/c1-15(26)29-19-11-7-17(8-12-19)24(18-9-13-20(14-10-18)30-16(2)27)23(28)25-21-5-3-4-6-22(21)31-24/h3-14H,1-2H3,(H,25,28)

> <INCHI_KEY>
ZCBJDQBSLZREAA-UHFFFAOYSA-N

> <FORMULA>
C24H19NO6

> <MOLECULAR_WEIGHT>
417.417

> <EXACT_MASS>
417.121237336

> <JCHEM_ACCEPTOR_COUNT>
4

> <JCHEM_ATOM_COUNT>
50

> <JCHEM_AVERAGE_POLARIZABILITY>
43.35297077450259

> <JCHEM_BIOAVAILABILITY>
1

> <JCHEM_DONOR_COUNT>
1

> <JCHEM_FORMAL_CHARGE>
0

> <JCHEM_GHOSE_FILTER>
1

> <JCHEM_IUPAC>
4-{2-[4-(acetyloxy)phenyl]-3-oxo-3,4-dihydro-2H-1,4-benzoxazin-2-yl}phenyl acetate

> <ALOGPS_LOGP>
4.14

> <JCHEM_LOGP>
3.567276737333333

> <ALOGPS_LOGS>
-5.50

> <JCHEM_MDDR_LIKE_RULE>
1

> <JCHEM_NUMBER_OF_RINGS>
4

> <JCHEM_PHYSIOLOGICAL_CHARGE>
0

> <JCHEM_PKA_STRONGEST_ACIDIC>
11.20195043953508

> <JCHEM_PKA_STRONGEST_BASIC>
-4.99984965234529

> <JCHEM_POLAR_SURFACE_AREA>
90.93

> <JCHEM_REFRACTIVITY>
112.22610000000007

> <JCHEM_ROTATABLE_BOND_COUNT>
6

> <JCHEM_RULE_OF_FIVE>
1

> <ALOGPS_SOLUBILITY>
1.31e-03 g/l

> <JCHEM_TRADITIONAL_IUPAC>
chlorphenesin carbamate

> <JCHEM_VEBER_RULE>
0

> <DRUGBANK_ID>
DB14654

> <SECONDARY_ACCESSION_NUMBERS>
DBSALT001265

> <DRUG_GROUPS>
experimental

> <GENERIC_NAME>
Bisoxatin acetate

> <SYNONYMS>
Bisoxatin acetate

$$$$
