REMARK  Name = 9859093
REMARK  11 active torsions:
REMARK  status: ('A' for Active; 'I' for Inactive)
REMARK    1  A    between atoms: O_1  and  C_2
REMARK    2  A    between atoms: O_1  and  C_10
REMARK    3  A    between atoms: C_2  and  C_3
REMARK    4  A    between atoms: C_3  and  C_4
REMARK    5  A    between atoms: C_3  and  C_6
REMARK    6  A    between atoms: C_6  and  C_7
REMARK    7  A    between atoms: C_7  and  C_8
REMARK    8  A    between atoms: C_10  and  C_11
REMARK    9  A    between atoms: C_11  and  O_12
REMARK   10  A    between atoms: C_11  and  C_14
REMARK   11  A    between atoms: C_14  and  O_15
REMARK                            x       y       z     vdW  Elec       q    Type
REMARK                         _______ _______ _______ _____ _____    ______ ____
ROOT
ATOM      1  O   UNL     1       1.183  -0.049   0.097  0.00  0.00    -0.351 OA
ENDROOT
BRANCH   1   2
ATOM      2  C   UNL     1      -0.012  -0.282  -0.635  0.00  0.00    +0.142 C 
BRANCH   2   3
ATOM      3  C   UNL     1      -1.240   0.013   0.242  0.00  0.00    +0.030 C 
BRANCH   3   4
ATOM      4  C   UNL     1      -1.262   1.470   0.758  0.00  0.00    +0.002 C 
ATOM      5  C   UNL     1      -1.405   2.535  -0.320  0.00  0.00    +0.000 C 
ENDBRANCH   3   4
BRANCH   3   6
ATOM      6  C   UNL     1      -2.511  -0.409  -0.525  0.00  0.00    +0.002 C 
BRANCH   6   7
ATOM      7  C   UNL     1      -3.789  -0.331   0.316  0.00  0.00    +0.000 C 
BRANCH   7   8
ATOM      8  C   UNL     1      -5.042  -0.767  -0.450  0.00  0.00    +0.000 C 
ATOM      9  C   UNL     1      -6.311  -0.717   0.387  0.00  0.00    +0.000 C 
ENDBRANCH   7   8
ENDBRANCH   6   7
ENDBRANCH   3   6
ENDBRANCH   2   3
ENDBRANCH   1   2
BRANCH   1  10
ATOM     10  C   UNL     1       2.337  -0.324  -0.686  0.00  0.00    +0.174 C 
BRANCH  10  11
ATOM     11  C   UNL     1       3.594  -0.015   0.119  0.00  0.00    +0.169 C 
BRANCH  11  12
ATOM     12  O   UNL     1       3.611  -0.850   1.279  0.00  0.00    -0.379 OA
ATOM     13  H   UNL     1       2.816  -0.684   1.809  0.00  0.00    +0.211 HD
ENDBRANCH  11  12
BRANCH  11  14
ATOM     14  C   UNL     1       4.855  -0.303  -0.685  0.00  0.00    +0.169 C 
BRANCH  14  15
ATOM     15  O   UNL     1       5.992   0.029   0.104  0.00  0.00    -0.379 OA
ATOM     16  H   UNL     1       6.801  -0.152  -0.401  0.00  0.00    +0.211 HD
ENDBRANCH  14  15
ENDBRANCH  11  14
ENDBRANCH  10  11
ENDBRANCH   1  10
TORSDOF 11
