REMARK  Name = 92141
REMARK  8 active torsions:
REMARK  status: ('A' for Active; 'I' for Inactive)
REMARK    1  A    between atoms: O_1  and  C_2
REMARK    2  A    between atoms: O_1  and  C_8
REMARK    3  A    between atoms: C_2  and  C_3
REMARK    4  A    between atoms: C_3  and  C_4
REMARK    5  A    between atoms: C_4  and  O_6
REMARK    6  A    between atoms: C_8  and  C_9
REMARK    7  A    between atoms: C_9  and  C_10
REMARK    8  A    between atoms: C_10  and  O_12
REMARK                            x       y       z     vdW  Elec       q    Type
REMARK                         _______ _______ _______ _____ _____    ______ ____
ROOT
ATOM      1  O   UNL     1       0.000   0.472   0.000  0.00  0.00    -0.354 OA
ENDROOT
BRANCH   1   2
ATOM      2  C   UNL     1       1.171  -0.327   0.095  0.00  0.00    +0.145 C 
BRANCH   2   3
ATOM      3  C   UNL     1       2.385   0.590   0.194  0.00  0.00    +0.061 C 
BRANCH   3   4
ATOM      4  C   UNL     1       3.699  -0.189   0.283  0.00  0.00    +0.113 C 
ATOM      5  C   UNL     1       4.900   0.744   0.327  0.00  0.00    +0.032 C 
BRANCH   4   6
ATOM      6  O   UNL     1       3.832  -1.054  -0.842  0.00  0.00    -0.384 OA
ATOM      7  H   UNL     1       3.071  -1.654  -0.880  0.00  0.00    +0.210 HD
ENDBRANCH   4   6
ENDBRANCH   3   4
ENDBRANCH   2   3
ENDBRANCH   1   2
BRANCH   1   8
ATOM      8  C   UNL     1      -1.171  -0.327  -0.095  0.00  0.00    +0.145 C 
BRANCH   8   9
ATOM      9  C   UNL     1      -2.385   0.590  -0.194  0.00  0.00    +0.061 C 
BRANCH   9  10
ATOM     10  C   UNL     1      -3.699  -0.189  -0.283  0.00  0.00    +0.113 C 
ATOM     11  C   UNL     1      -4.900   0.744  -0.328  0.00  0.00    +0.032 C 
BRANCH  10  12
ATOM     12  O   UNL     1      -3.832  -1.054   0.842  0.00  0.00    -0.384 OA
ATOM     13  H   UNL     1      -3.071  -1.654   0.880  0.00  0.00    +0.210 HD
ENDBRANCH  10  12
ENDBRANCH   9  10
ENDBRANCH   8   9
ENDBRANCH   1   8
TORSDOF 8
