REMARK  Name = 135565554
REMARK  0 active torsions:
REMARK  status: ('A' for Active; 'I' for Inactive)
REMARK                            x       y       z     vdW  Elec       q    Type
REMARK                         _______ _______ _______ _____ _____    ______ ____
ROOT
ATOM      1  F   UNL     1       4.473   2.313  -0.233  0.00  0.00    -0.204 F 
ATOM      2  O   UNL     1       3.348  -2.514  -0.280  0.00  0.00    -0.268 OA
ATOM      3  N   UNL     1      -3.139  -0.568   0.068  0.00  0.00    +0.397 N 
ATOM      4  N   UNL     1      -0.353   1.931   0.293  0.00  0.00    -0.358 N 
ATOM      5  N   UNL     1      -0.198  -2.692   0.198  0.00  0.00    -0.185 NA
ATOM      6  N   UNL     1       1.131  -2.838  -0.005  0.00  0.00    -0.203 N 
ATOM      7  C   UNL     1      -2.640   0.775   0.470  0.00  0.00    -0.007 C 
ATOM      8  C   UNL     1      -3.359   1.672  -0.541  0.00  0.00    -0.016 C 
ATOM      9  C   UNL     1      -1.147   0.819   0.341  0.00  0.00    +0.017 A 
ATOM     10  C   UNL     1      -3.279  -0.591  -1.394  0.00  0.00    -0.076 C 
ATOM     11  C   UNL     1      -3.372   0.865  -1.831  0.00  0.00    -0.024 C 
ATOM     12  C   UNL     1      -2.379  -1.715   0.594  0.00  0.00    -0.028 C 
ATOM     13  C   UNL     1      -0.331  -0.285   0.260  0.00  0.00    +0.024 A 
ATOM     14  C   UNL     1      -3.063   1.115   1.903  0.00  0.00    -0.015 C 
ATOM     15  C   UNL     1      -0.877  -1.601   0.314  0.00  0.00    +0.056 C 
ATOM     16  C   UNL     1       0.985   0.148   0.111  0.00  0.00    +0.022 A 
ATOM     17  C   UNL     1       0.963   1.545   0.142  0.00  0.00    +0.059 A 
ATOM     18  C   UNL     1       2.186  -0.535  -0.047  0.00  0.00    +0.059 C 
ATOM     19  C   UNL     1       2.125   2.313   0.030  0.00  0.00    +0.047 C 
ATOM     20  C   UNL     1       2.233  -2.006  -0.112  0.00  0.00    +0.265 C 
ATOM     21  C   UNL     1       3.364   0.227  -0.161  0.00  0.00    +0.034 C 
ATOM     22  C   UNL     1       3.330   1.623  -0.120  0.00  0.00    +0.142 C 
ATOM     23  H   UNL     1      -4.049  -0.697   0.511  0.00  0.00    -0.078 HD
ATOM     24  H   UNL     1      -0.671   2.861   0.355  0.00  0.00    +0.166 HD
ATOM     25  H   UNL     1       1.381  -3.785  -0.102  0.00  0.00    +0.178 HD
ENDROOT
TORSDOF 0
