REMARK  Name = 94335
REMARK  6 active torsions:
REMARK  status: ('A' for Active; 'I' for Inactive)
REMARK    1  A    between atoms: C_1  and  O_2
REMARK    2  A    between atoms: C_1  and  C_4
REMARK    3  A    between atoms: C_1  and  C_8
REMARK    4  A    between atoms: C_4  and  C_5
REMARK    5  A    between atoms: C_5  and  C_6
REMARK    6  A    between atoms: C_8  and  O_9
REMARK                            x       y       z     vdW  Elec       q    Type
REMARK                         _______ _______ _______ _____ _____    ______ ____
ROOT
ATOM      1  C   UNL     1       1.131  -0.076  -0.269  0.00  0.00    +0.140 C 
ENDROOT
BRANCH   1   2
ATOM      2  O   UNL     1       1.211  -1.373   0.323  0.00  0.00    -0.382 OA
ATOM      3  H   UNL     1       0.449  -1.903   0.043  0.00  0.00    +0.210 HD
ENDBRANCH   1   2
BRANCH   1   4
ATOM      4  C   UNL     1      -0.170   0.613   0.154  0.00  0.00    +0.032 C 
BRANCH   4   5
ATOM      5  C   UNL     1      -1.418  -0.180  -0.249  0.00  0.00    +0.003 C 
BRANCH   5   6
ATOM      6  C   UNL     1      -2.695   0.520   0.221  0.00  0.00    +0.000 C 
ATOM      7  C   UNL     1      -3.935  -0.281  -0.141  0.00  0.00    +0.000 C 
ENDBRANCH   5   6
ENDBRANCH   4   5
ENDBRANCH   1   4
BRANCH   1   8
ATOM      8  C   UNL     1       2.346   0.719   0.199  0.00  0.00    +0.166 C 
BRANCH   8   9
ATOM      9  O   UNL     1       3.529   0.058  -0.239  0.00  0.00    -0.379 OA
ATOM     10  H   UNL     1       4.307   0.558   0.055  0.00  0.00    +0.211 HD
ENDBRANCH   8   9
ENDBRANCH   1   8
TORSDOF 6
