REMARK  Name = 10130337
REMARK  6 active torsions:
REMARK  status: ('A' for Active; 'I' for Inactive)
REMARK    1  A    between atoms: C_1  and  N_2
REMARK    2  A    between atoms: C_1  and  C_6
REMARK    3  A    between atoms: C_1  and  C_13
REMARK    4  A    between atoms: C_6  and  C_7
REMARK    5  A    between atoms: C_13  and  O_14
REMARK    6  A    between atoms: O_14  and  C_17
REMARK                            x       y       z     vdW  Elec       q    Type
REMARK                         _______ _______ _______ _____ _____    ______ ____
ROOT
ATOM      1  C   UNL     1       0.554  -1.802   0.393  0.00  0.00    -0.017 C 
ENDROOT
BRANCH   1   2
ATOM      2  N   UNL     1       1.485  -2.828  -0.087  0.00  0.00    +0.384 N 
ATOM      3  H   UNL     1       0.959  -3.644  -0.402  0.00  0.00    -0.089 HD
ATOM      4  H   UNL     1       2.112  -3.099   0.670  0.00  0.00    -0.089 HD
ATOM      5  H   UNL     1       2.031  -2.455  -0.864  0.00  0.00    -0.089 HD
ENDBRANCH   1   2
BRANCH   1   6
ATOM      6  C   UNL     1      -0.430  -1.471  -0.749  0.00  0.00    +0.008 C 
BRANCH   6   7
ATOM      7  C   UNL     1      -1.488  -0.455  -0.393  0.00  0.00    -0.024 C 
ATOM      8  C   UNL     1      -2.694  -0.887   0.138  0.00  0.00    -0.004 C 
ATOM      9  C   UNL     1      -1.236   0.892  -0.602  0.00  0.00    -0.004 C 
ATOM     10  C   UNL     1      -3.671   0.051   0.467  0.00  0.00    -0.000 C 
ATOM     11  C   UNL     1      -2.214   1.830  -0.273  0.00  0.00    -0.000 C 
ATOM     12  C   UNL     1      -3.432   1.410   0.262  0.00  0.00    -0.000 C 
ENDBRANCH   6   7
ENDBRANCH   1   6
BRANCH   1  13
ATOM     13  C   UNL     1       1.373  -0.592   0.858  0.00  0.00    +0.189 C 
BRANCH  13  14
ATOM     14  O   UNL     1       2.159  -0.088  -0.214  0.00  0.00    -0.437 OA
BRANCH  14  17
ATOM     15  O   UNL     1       3.003   1.550   1.165  0.00  0.00    -0.227 OA
ATOM     16  N   UNL     1       3.650   1.393  -1.036  0.00  0.00    -0.295 N 
ATOM     17  C   UNL     1       2.941   0.999   0.071  0.00  0.00    +0.398 C 
ATOM     18  H   UNL     1       3.551   0.903  -1.884  0.00  0.00    +0.148 HD
ATOM     19  H   UNL     1       4.258   2.166  -0.981  0.00  0.00    +0.148 HD
ENDBRANCH  14  17
ENDBRANCH  13  14
ENDBRANCH   1  13
TORSDOF 6
