REMARK  Name = 185457
REMARK  11 active torsions:
REMARK  status: ('A' for Active; 'I' for Inactive)
REMARK    1  A    between atoms: C_1  and  C_4
REMARK    2  A    between atoms: C_1  and  N_17
REMARK    3  A    between atoms: N_3  and  C_6
REMARK    4  A    between atoms: C_6  and  C_9
REMARK    5  A    between atoms: N_8  and  C_11
REMARK    6  A    between atoms: C_11  and  C_13
REMARK    7  A    between atoms: C_13  and  O_14
REMARK    8  A    between atoms: C_18  and  C_20
REMARK    9  A    between atoms: C_20  and  S_21
REMARK   10  A    between atoms: S_21  and  C_23
REMARK   11  A    between atoms: C_23  and  C_24
REMARK                            x       y       z     vdW  Elec       q    Type
REMARK                         _______ _______ _______ _____ _____    ______ ____
ROOT
ATOM      1  C   UNL     1       2.606  -2.762  -0.267  0.00  0.00    +0.176 C 
ENDROOT
BRANCH   1   4
ATOM      2  O   UNL     1       1.059  -1.496  -1.624  0.00  0.00    -0.273 OA
ATOM      3  N   UNL     1       0.276  -3.316  -0.409  0.00  0.00    -0.295 N 
ATOM      4  C   UNL     1       1.252  -2.442  -0.866  0.00  0.00    +0.243 C 
ATOM      5  H   UNL     1       0.545  -4.042   0.198  0.00  0.00    +0.150 HD
BRANCH   3   6
ATOM      6  C   UNL     1      -1.117  -3.212  -0.780  0.00  0.00    +0.176 C 
BRANCH   6   9
ATOM      7  O   UNL     1      -1.299  -1.840   1.200  0.00  0.00    -0.273 OA
ATOM      8  N   UNL     1      -3.182  -2.183  -0.118  0.00  0.00    -0.294 N 
ATOM      9  C   UNL     1      -1.841  -2.325   0.211  0.00  0.00    +0.243 C 
ATOM     10  H   UNL     1      -3.510  -2.617  -0.939  0.00  0.00    +0.150 HD
BRANCH   8  11
ATOM     11  C   UNL     1      -4.119  -1.430   0.683  0.00  0.00    +0.200 C 
BRANCH  11  13
ATOM     12  O   UNL     1      -4.929   0.832   0.842  0.00  0.00    -0.248 OA
ATOM     13  C   UNL     1      -4.200   0.021   0.283  0.00  0.00    +0.334 C 
BRANCH  13  14
ATOM     14  O   UNL     1      -3.393   0.342  -0.755  0.00  0.00    -0.479 OA
ATOM     15  H   UNL     1      -2.854  -0.315  -1.149  0.00  0.00    +0.295 HD
ENDBRANCH  13  14
ENDBRANCH  11  13
ENDBRANCH   8  11
ENDBRANCH   6   9
ENDBRANCH   3   6
ENDBRANCH   1   4
BRANCH   1  17
ATOM     16  O   UNL     1       2.716  -0.912   1.956  0.00  0.00    -0.274 OA
ATOM     17  N   UNL     1       3.384  -1.563  -0.174  0.00  0.00    -0.296 N 
ATOM     18  C   UNL     1       3.379  -0.725   0.938  0.00  0.00    +0.234 C 
ATOM     19  H   UNL     1       3.954  -1.317  -0.939  0.00  0.00    +0.150 HD
BRANCH  18  20
ATOM     20  C   UNL     1       4.271   0.484   0.781  0.00  0.00    +0.150 C 
BRANCH  20  21
ATOM     21  S   UNL     1       3.267   1.979   0.954  0.00  0.00    -0.063 S 
BRANCH  21  23
ATOM     22  O   UNL     1       2.508   1.236  -1.451  0.00  0.00    -0.280 OA
ATOM     23  C   UNL     1       2.171   1.793  -0.414  0.00  0.00    +0.222 C 
BRANCH  23  24
ATOM     24  C   UNL     1       0.810   2.374  -0.285  0.00  0.00    +0.045 C 
ATOM     25  C   UNL     1       0.151   2.861  -1.414  0.00  0.00    +0.004 C 
ATOM     26  C   UNL     1       0.191   2.432   0.964  0.00  0.00    +0.004 C 
ATOM     27  C   UNL     1      -1.127   3.407  -1.293  0.00  0.00    +0.000 C 
ATOM     28  C   UNL     1      -1.087   2.978   1.084  0.00  0.00    +0.000 C 
ATOM     29  C   UNL     1      -1.746   3.465  -0.045  0.00  0.00    +0.000 C 
ENDBRANCH  23  24
ENDBRANCH  21  23
ENDBRANCH  20  21
ENDBRANCH  18  20
ENDBRANCH   1  17
TORSDOF 11
