REMARK  Name = 78209992
REMARK  4 active torsions:
REMARK  status: ('A' for Active; 'I' for Inactive)
REMARK    1  A    between atoms: N_1  and  C_15
REMARK    2  A    between atoms: C_4  and  O_23
REMARK    3  A    between atoms: C_6  and  O_21
REMARK    4  A    between atoms: O_23  and  C_33
REMARK                            x       y       z     vdW  Elec       q    Type
REMARK                         _______ _______ _______ _____ _____    ______ ____
ROOT
ATOM      1  N   UNL     1       2.834   0.106   0.386  0.00  0.00    -0.296 N 
ATOM      2  N   UNL     1       2.198  -3.934  -0.247  0.00  0.00    -0.248 NA
ATOM      3  N   UNL     1       3.684  -2.054  -0.001  0.00  0.00    -0.230 NA
ATOM      4  C   UNL     1      -1.109  -1.455   0.293  0.00  0.00    +0.180 C 
ATOM      5  C   UNL     1       0.173  -0.916   0.328  0.00  0.00    +0.044 C 
ATOM      6  C   UNL     1      -1.275  -2.819   0.077  0.00  0.00    +0.157 C 
ATOM      7  C   UNL     1       1.291  -1.750   0.146  0.00  0.00    +0.048 C 
ATOM      8  C   UNL     1       1.137  -3.128  -0.072  0.00  0.00    +0.066 C 
ATOM      9  C   UNL     1      -0.158  -3.641  -0.102  0.00  0.00    +0.112 C 
ATOM     10  C   UNL     1       2.599  -1.275   0.170  0.00  0.00    +0.131 C 
ATOM     11  C   UNL     1       3.414  -3.353  -0.202  0.00  0.00    +0.252 C 
ATOM     12  H   UNL     1       2.150   0.542   0.943  0.00  0.00    +0.154 HD
ENDROOT
BRANCH   1  15
ATOM     13 CL   UNL     1       5.695   4.269   1.287  0.00  0.00    -0.080 Cl
ATOM     14  F   UNL     1       3.599   2.283   1.915  0.00  0.00    -0.202 F 
ATOM     15  C   UNL     1       3.854   0.971  -0.040  0.00  0.00    +0.078 C 
ATOM     16  C   UNL     1       4.222   2.062   0.747  0.00  0.00    +0.164 C 
ATOM     17  C   UNL     1       4.499   0.738  -1.254  0.00  0.00    +0.017 C 
ATOM     18  C   UNL     1       5.235   2.920   0.320  0.00  0.00    +0.086 C 
ATOM     19  C   UNL     1       5.513   1.596  -1.681  0.00  0.00    +0.002 C 
ATOM     20  C   UNL     1       5.881   2.687  -0.894  0.00  0.00    +0.014 C 
ENDBRANCH   1  15
BRANCH   6  21
ATOM     21  O   UNL     1      -2.521  -3.368   0.038  0.00  0.00    -0.472 OA
ATOM     22  C   UNL     1      -3.063  -3.833   1.273  0.00  0.00    +0.252 C 
ENDBRANCH   6  21
BRANCH   4  23
ATOM     23  O   UNL     1      -2.216  -0.620   0.474  0.00  0.00    -0.407 OA
BRANCH  23  33
ATOM     24  O   UNL     1      -2.242  -0.305  -1.821  0.00  0.00    -0.226 OA
ATOM     25  N   UNL     1      -3.827   0.755  -0.486  0.00  0.00    -0.252 N 
ATOM     26  N   UNL     1      -5.790   2.804  -0.062  0.00  0.00    +0.388 N 
ATOM     27  C   UNL     1      -4.514   0.852   0.816  0.00  0.00    +0.058 C 
ATOM     28  C   UNL     1      -5.007   2.288   1.069  0.00  0.00    -0.057 C 
ATOM     29  C   UNL     1      -4.484   1.406  -1.619  0.00  0.00    +0.074 C 
ATOM     30  C   UNL     1      -4.965   2.814  -1.278  0.00  0.00    -0.055 C 
ATOM     31  C   UNL     1      -5.649  -0.173   0.902  0.00  0.00    +0.019 C 
ATOM     32  C   UNL     1      -6.289   4.148   0.229  0.00  0.00    -0.101 C 
ATOM     33  C   UNL     1      -2.720  -0.074  -0.710  0.00  0.00    +0.409 C 
ATOM     34  H   UNL     1      -6.593   2.193  -0.213  0.00  0.00    -0.080 HD
ENDBRANCH  23  33
ENDBRANCH   4  23
TORSDOF 4
