REMARK  Name = 9815453
REMARK  3 active torsions:
REMARK  status: ('A' for Active; 'I' for Inactive)
REMARK    1  A    between atoms: CA_5  and  CB_12
REMARK    2  A    between atoms: CB_12  and  CG_14
REMARK    3  A    between atoms: CG_14  and  OD1_15
REMARK                            x       y       z     vdW  Elec       q    Type
REMARK                         _______ _______ _______ _____ _____    ______ ____
ROOT
ATOM      1  O   ASP A   1       0.167  -2.736  -0.172  0.00  0.00    -0.273 OA
ATOM      2  O   ALA A   2       1.761   2.300  -0.521  0.00  0.00    -0.273 OA
ATOM      3  N   ASP A   1       0.060   0.757  -0.372  0.00  0.00    -0.297 N 
ATOM      4  N   ALA A   2       1.844  -1.165  -0.031  0.00  0.00    -0.297 N 
ATOM      5  CA  ASP A   1      -0.450  -0.435   0.290  0.00  0.00    +0.160 C 
ATOM      6  CA  ALA A   2       2.252   0.139   0.469  0.00  0.00    +0.149 C 
ATOM      7  C   ASP A   1       0.516  -1.566  -0.035  0.00  0.00    +0.241 C 
ATOM      8  C   ALA A   2       1.375   1.172  -0.226  0.00  0.00    +0.241 C 
ATOM      9  CB  ALA A   2       3.731   0.388   0.216  0.00  0.00    +0.031 C 
ATOM     10  H   ASP A   1      -0.547   1.285  -0.940  0.00  0.00    +0.150 HD
ATOM     11  H   ALA A   2       2.530  -1.781  -0.376  0.00  0.00    +0.150 HD
ENDROOT
BRANCH   5  12
ATOM     12  CB  ASP A   1      -1.867  -0.752  -0.158  0.00  0.00    +0.138 C 
BRANCH  12  14
ATOM     13  OD2 ASP A   1      -2.729   1.147   1.104  0.00  0.00    -0.250 OA
ATOM     14  CG  ASP A   1      -2.824   0.364   0.170  0.00  0.00    +0.316 C 
BRANCH  14  15
ATOM     15  OD1 ASP A   1      -3.836   0.389  -0.735  0.00  0.00    -0.480 OA
ATOM     16  HD1 ASP A   1      -3.857  -0.237  -1.432  0.00  0.00    +0.295 HD
ENDBRANCH  14  15
ENDBRANCH  12  14
ENDBRANCH   5  12
TORSDOF 3
