REMARK  Name = 9049
REMARK  1 active torsions:
REMARK  status: ('A' for Active; 'I' for Inactive)
REMARK    1  A    between atoms: N_1  and  C_16
REMARK                            x       y       z     vdW  Elec       q    Type
REMARK                         _______ _______ _______ _____ _____    ______ ____
ROOT
ATOM      1  N   UNL     1      -0.547   0.134   0.141  0.00  0.00    -0.234 N 
ATOM      2  N   UNL     1      -2.754  -1.004  -0.098  0.00  0.00    -0.183 NA
ATOM      3  N   UNL     1      -2.580   1.350  -0.073  0.00  0.00    -0.307 NA
ATOM      4  N   UNL     1      -0.586   2.498   0.180  0.00  0.00    -0.320 N 
ATOM      5  N   UNL     1      -4.642   0.283  -0.419  0.00  0.00    -0.293 N 
ATOM      6  C   UNL     1      -1.307  -1.136   0.155  0.00  0.00    +0.161 C 
ATOM      7  C   UNL     1      -0.805  -2.103  -0.934  0.00  0.00    +0.047 C 
ATOM      8  C   UNL     1      -1.203  -1.813   1.532  0.00  0.00    +0.047 C 
ATOM      9  C   UNL     1      -1.280   1.314   0.070  0.00  0.00    +0.252 C 
ATOM     10  C   UNL     1      -3.291   0.174  -0.191  0.00  0.00    +0.141 C 
ATOM     11  H   UNL     1       0.393   2.486   0.288  0.00  0.00    +0.146 HD
ATOM     12  H   UNL     1      -1.068   3.356   0.151  0.00  0.00    +0.146 HD
ATOM     13  H   UNL     1      -5.193  -0.528  -0.510  0.00  0.00    +0.155 HD
ATOM     14  H   UNL     1      -5.059   1.172  -0.490  0.00  0.00    +0.155 HD
ENDROOT
BRANCH   1  16
ATOM     15 CL   UNL     1       5.381  -0.031  -0.210  0.00  0.00    -0.082 Cl
ATOM     16  C   UNL     1       0.860   0.095   0.058  0.00  0.00    +0.056 C 
ATOM     17  C   UNL     1       1.651   0.194   1.216  0.00  0.00    +0.016 C 
ATOM     18  C   UNL     1       1.502  -0.044  -1.184  0.00  0.00    +0.016 C 
ATOM     19  C   UNL     1       3.043   0.156   1.133  0.00  0.00    +0.013 C 
ATOM     20  C   UNL     1       2.894  -0.083  -1.266  0.00  0.00    +0.013 C 
ATOM     21  C   UNL     1       3.664   0.017  -0.108  0.00  0.00    +0.058 C 
ENDBRANCH   1  16
TORSDOF 1
