REMARK  Name = 19529
REMARK  5 active torsions:
REMARK  status: ('A' for Active; 'I' for Inactive)
REMARK    1  A    between atoms: C_1  and  N_8
REMARK    2  A    between atoms: C_4  and  O_14
REMARK    3  A    between atoms: C_10  and  C_13
REMARK    4  A    between atoms: O_14  and  C_16
REMARK    5  A    between atoms: C_16  and  C_18
REMARK                            x       y       z     vdW  Elec       q    Type
REMARK                         _______ _______ _______ _____ _____    ______ ____
ROOT
ATOM      1  C   UNL     1      -1.819  -0.470   0.161  0.00  0.00    +0.054 C 
ATOM      2  C   UNL     1      -1.260   0.748  -0.226  0.00  0.00    +0.018 C 
ATOM      3  C   UNL     1      -1.015  -1.458   0.730  0.00  0.00    +0.018 C 
ATOM      4  C   UNL     1       0.908  -0.009   0.525  0.00  0.00    +0.149 C 
ATOM      5  C   UNL     1       0.103   0.978  -0.044  0.00  0.00    +0.039 C 
ATOM      6  C   UNL     1       0.349  -1.227   0.912  0.00  0.00    +0.039 C 
ENDROOT
BRANCH   1   8
ATOM      7  O   UNL     1      -3.800   1.549   0.212  0.00  0.00    -0.272 OA
ATOM      8  N   UNL     1      -3.183  -0.702  -0.022  0.00  0.00    -0.255 N 
ATOM      9  C   UNL     1      -3.710  -2.080  -0.266  0.00  0.00    +0.120 C 
ATOM     10  C   UNL     1      -4.135   0.376   0.017  0.00  0.00    +0.260 C 
BRANCH  10  13
ATOM     11 CL   UNL     1      -6.122   0.876  -1.707  0.00  0.00    -0.087 Cl
ATOM     12 CL   UNL     1      -6.528   0.624   1.170  0.00  0.00    -0.087 Cl
ATOM     13  C   UNL     1      -5.598   0.044  -0.222  0.00  0.00    +0.234 C 
ENDBRANCH  10  13
ENDBRANCH   1   8
BRANCH   4  14
ATOM     14  O   UNL     1       2.238   0.216   0.705  0.00  0.00    -0.419 OA
BRANCH  14  16
ATOM     15  O   UNL     1       2.625  -0.655  -1.412  0.00  0.00    -0.241 OA
ATOM     16  C   UNL     1       3.061  -0.160  -0.378  0.00  0.00    +0.381 C 
BRANCH  16  18
ATOM     17  O   UNL     1       5.337  -0.210  -1.083  0.00  0.00    -0.444 OA
ATOM     18  C   UNL     1       4.474   0.113  -0.110  0.00  0.00    +0.221 C 
ATOM     19  C   UNL     1       5.068   0.648   0.977  0.00  0.00    +0.047 C 
ATOM     20  C   UNL     1       6.448   0.667   0.663  0.00  0.00    +0.044 C 
ATOM     21  C   UNL     1       6.560   0.134  -0.601  0.00  0.00    +0.180 C 
ENDBRANCH  16  18
ENDBRANCH  14  16
ENDBRANCH   4  14
TORSDOF 5
