24341
  -OEChem-06271812543D

  3  2  0     0  0  0  0  0  0999 V2000
   -0.8367    0.0000    0.0000 Cl  0  0  0  0  0  0  0  0  0  0  0  0
    0.8367    0.0000    0.0000 O   0  0  0  0  0  0  0  0  0  0  0  0
    1.1755    0.6566   -0.6315 H   0  0  0  0  0  0  0  0  0  0  0  0
  1  2  1  0  0  0  0
  2  3  1  0  0  0  0
M  END
> <DATABASE_ID>
DB14135

> <DATABASE_NAME>
drugbank

> <ORIGINAL_SOURCE>
PUBCHEM

> <ORIGINAL_SOURCE_URL>
https://pubchem.ncbi.nlm.nih.gov/rest/pug/compound/inchikey/QWPPOHNGKGFGJK-UHFFFAOYSA-N/SDF?record_type=3d

> <SMILES>
OCl

> <INCHI_IDENTIFIER>
InChI=1S/ClHO/c1-2/h2H

> <INCHI_KEY>
QWPPOHNGKGFGJK-UHFFFAOYSA-N

> <FORMULA>
ClHO

> <MOLECULAR_WEIGHT>
52.46

> <EXACT_MASS>
51.971592361

> <JCHEM_ACCEPTOR_COUNT>
1

> <JCHEM_ATOM_COUNT>
3

> <JCHEM_AVERAGE_POLARIZABILITY>
3.4948286075623303

> <JCHEM_BIOAVAILABILITY>
1

> <JCHEM_DONOR_COUNT>
1

> <JCHEM_FORMAL_CHARGE>
0

> <JCHEM_GHOSE_FILTER>
0

> <JCHEM_IUPAC>
hypochlorous acid

> <ALOGPS_LOGP>
-0.37

> <JCHEM_LOGP>
0.31819389766666667

> <ALOGPS_LOGS>
0.99

> <JCHEM_MDDR_LIKE_RULE>
0

> <JCHEM_NUMBER_OF_RINGS>
0

> <JCHEM_PHYSIOLOGICAL_CHARGE>
0

> <JCHEM_PKA_STRONGEST_ACIDIC>
7.9270968931592

> <JCHEM_PKA_STRONGEST_BASIC>
-5.892487818932165

> <JCHEM_POLAR_SURFACE_AREA>
20.23

> <JCHEM_REFRACTIVITY>
8.7009

> <JCHEM_ROTATABLE_BOND_COUNT>
0

> <JCHEM_RULE_OF_FIVE>
1

> <ALOGPS_SOLUBILITY>
5.12e+02 g/l

> <JCHEM_TRADITIONAL_IUPAC>
hypochlorous acid

> <JCHEM_VEBER_RULE>
1

> <DRUGBANK_ID>
DB14135

> <DRUG_GROUPS>
experimental

> <GENERIC_NAME>
Hypochlorous acid

> <SYNONYMS>
Chlor(I)-säure; Chloranol; Hydroxidochlorine; Hypochlorige Säure

> <PRODUCTS>
Claon Hocl; Gold Mate

$$$$
