REMARK  Name = 73777259
REMARK  4 active torsions:
REMARK  status: ('A' for Active; 'I' for Inactive)
REMARK    1  A    between atoms: N_3  and  C_16
REMARK    2  A    between atoms: N_4  and  C_23
REMARK    3  A    between atoms: C_16  and  C_17
REMARK    4  A    between atoms: C_23  and  C_24
REMARK                            x       y       z     vdW  Elec       q    Type
REMARK                         _______ _______ _______ _____ _____    ______ ____
ROOT
ATOM      1  O   UNL     1      -0.729  -0.856  -1.464  0.00  0.00    -0.270 OA
ATOM      2  N   UNL     1      -1.232   2.733   0.307  0.00  0.00    -0.240 N 
ATOM      3  N   UNL     1       2.714   1.379  -0.305  0.00  0.00    +0.393 N 
ATOM      4  N   UNL     1      -2.184   0.713  -0.526  0.00  0.00    -0.224 N 
ATOM      5  N   UNL     1      -3.496   2.448   0.455  0.00  0.00    -0.214 NA
ATOM      6  C   UNL     1       0.040   2.323  -0.032  0.00  0.00    +0.032 C 
ATOM      7  C   UNL     1       0.253   1.124  -0.609  0.00  0.00    +0.021 C 
ATOM      8  C   UNL     1       1.204   3.243   0.250  0.00  0.00    +0.019 C 
ATOM      9  C   UNL     1       1.632   0.626  -0.961  0.00  0.00    -0.044 C 
ATOM     10  C   UNL     1       2.501   2.822  -0.457  0.00  0.00    -0.070 C 
ATOM     11  C   UNL     1      -2.340   1.959   0.081  0.00  0.00    +0.202 C 
ATOM     12  C   UNL     1      -1.638   3.968   0.931  0.00  0.00    +0.092 C 
ATOM     13  C   UNL     1      -0.922   0.227  -0.910  0.00  0.00    +0.250 C 
ATOM     14  C   UNL     1      -3.156   3.773   1.049  0.00  0.00    +0.118 C 
ATOM     15  H   UNL     1       2.702   1.161   0.692  0.00  0.00    -0.079 HD
ENDROOT
BRANCH   3  16
ATOM     16  C   UNL     1       4.016   0.982  -0.837  0.00  0.00    -0.049 C 
BRANCH  16  17
ATOM     17  C   UNL     1       4.502  -0.305  -0.226  0.00  0.00    -0.043 C 
ATOM     18  C   UNL     1       5.276  -0.279   0.934  0.00  0.00    -0.006 C 
ATOM     19  C   UNL     1       4.178  -1.525  -0.821  0.00  0.00    -0.006 C 
ATOM     20  C   UNL     1       5.727  -1.472   1.499  0.00  0.00    -0.000 C 
ATOM     21  C   UNL     1       4.629  -2.718  -0.256  0.00  0.00    -0.000 C 
ATOM     22  C   UNL     1       5.403  -2.691   0.904  0.00  0.00    -0.000 C 
ENDBRANCH  16  17
ENDBRANCH   3  16
BRANCH   4  23
ATOM     23  C   UNL     1      -3.369  -0.102  -0.772  0.00  0.00    +0.127 C 
BRANCH  23  24
ATOM     24  C   UNL     1      -3.309  -1.415  -0.037  0.00  0.00    -0.006 C 
ATOM     25  C   UNL     1      -3.373  -2.626  -0.726  0.00  0.00    -0.024 C 
ATOM     26  C   UNL     1      -3.187  -1.408   1.352  0.00  0.00    -0.003 C 
ATOM     27  C   UNL     1      -3.316  -3.830  -0.025  0.00  0.00    -0.005 C 
ATOM     28  C   UNL     1      -3.504  -2.658  -2.213  0.00  0.00    +0.031 C 
ATOM     29  C   UNL     1      -3.129  -2.613   2.053  0.00  0.00    -0.000 C 
ATOM     30  C   UNL     1      -3.194  -3.824   1.364  0.00  0.00    -0.000 C 
ENDBRANCH  23  24
ENDBRANCH   4  23
TORSDOF 4
