REMARK  Name = 44187362
REMARK  8 active torsions:
REMARK  status: ('A' for Active; 'I' for Inactive)
REMARK    1  A    between atoms: C_2  and  C_9
REMARK    2  A    between atoms: C_3  and  N_18
REMARK    3  A    between atoms: N_8  and  C_11
REMARK    4  A    between atoms: C_11  and  C_12
REMARK    5  A    between atoms: C_12  and  O_13
REMARK    6  A    between atoms: C_12  and  C_15
REMARK    7  A    between atoms: C_15  and  O_16
REMARK    8  A    between atoms: N_18  and  C_22
REMARK                            x       y       z     vdW  Elec       q    Type
REMARK                         _______ _______ _______ _____ _____    ______ ____
ROOT
ATOM      1  N   UNL     1      -1.524   3.870   0.082  0.00  0.00    -0.241 NA
ATOM      2  C   UNL     1      -2.271   1.178  -0.005  0.00  0.00    +0.070 C 
ATOM      3  C   UNL     1      -0.948   1.528   0.245  0.00  0.00    +0.072 C 
ATOM      4  C   UNL     1      -3.220   2.172  -0.211  0.00  0.00    +0.026 C 
ATOM      5  C   UNL     1      -0.629   2.876   0.277  0.00  0.00    +0.114 C 
ATOM      6  C   UNL     1      -2.800   3.492  -0.158  0.00  0.00    +0.099 C 
ENDROOT
BRANCH   2   9
ATOM      7  O   UNL     1      -3.566  -0.638   0.718  0.00  0.00    -0.270 OA
ATOM      8  N   UNL     1      -2.083  -1.032  -1.022  0.00  0.00    -0.298 N 
ATOM      9  C   UNL     1      -2.699  -0.244  -0.057  0.00  0.00    +0.247 C 
ATOM     10  H   UNL     1      -1.397  -0.624  -1.598  0.00  0.00    +0.150 HD
BRANCH   8  11
ATOM     11  C   UNL     1      -2.408  -2.420  -1.212  0.00  0.00    +0.122 C 
BRANCH  11  12
ATOM     12  C   UNL     1      -1.548  -3.354  -0.362  0.00  0.00    +0.159 C 
BRANCH  12  13
ATOM     13  O   UNL     1      -1.770  -3.080   1.022  0.00  0.00    -0.380 OA
ATOM     14  H   UNL     1      -2.716  -3.161   1.220  0.00  0.00    +0.211 HD
ENDBRANCH  12  13
BRANCH  12  15
ATOM     15  C   UNL     1      -0.055  -3.219  -0.645  0.00  0.00    +0.168 C 
BRANCH  15  16
ATOM     16  O   UNL     1       0.611  -4.382  -0.163  0.00  0.00    -0.379 OA
ATOM     17  H   UNL     1       1.562  -4.305  -0.338  0.00  0.00    +0.211 HD
ENDBRANCH  15  16
ENDBRANCH  12  15
ENDBRANCH  11  12
ENDBRANCH   8  11
ENDBRANCH   2   9
BRANCH   3  18
ATOM     18  N   UNL     1       0.049   0.559   0.460  0.00  0.00    -0.309 N 
ATOM     19  H   UNL     1      -0.288  -0.269   0.871  0.00  0.00    +0.152 HD
BRANCH  18  22
ATOM     20  I   UNL     1       6.220   0.475  -0.693  0.00  0.00    -0.042 I 
ATOM     21  F   UNL     1       1.799  -0.910   2.048  0.00  0.00    -0.203 F 
ATOM     22  C   UNL     1       1.436   0.540   0.203  0.00  0.00    +0.076 C 
ATOM     23  C   UNL     1       2.288  -0.207   1.017  0.00  0.00    +0.154 C 
ATOM     24  C   UNL     1       1.955   1.268  -0.868  0.00  0.00    +0.017 C 
ATOM     25  C   UNL     1       3.659  -0.225   0.760  0.00  0.00    +0.037 C 
ATOM     26  C   UNL     1       3.326   1.249  -1.125  0.00  0.00    +0.007 C 
ATOM     27  C   UNL     1       4.178   0.503  -0.310  0.00  0.00    +0.032 C 
ENDBRANCH  18  22
ENDBRANCH   3  18
TORSDOF 8
