REMARK  Name = 86677874
REMARK  5 active torsions:
REMARK  status: ('A' for Active; 'I' for Inactive)
REMARK    1  A    between atoms: C_3  and  C_11
REMARK    2  A    between atoms: C_4  and  O_31
REMARK    3  A    between atoms: C_5  and  C_16
REMARK    4  A    between atoms: C_16  and  N_18
REMARK    5  A    between atoms: O_31  and  C_32
REMARK                            x       y       z     vdW  Elec       q    Type
REMARK                         _______ _______ _______ _____ _____    ______ ____
ROOT
ATOM      1 CL   UNL     1       1.208   4.197   0.688  0.00  0.00    -0.080 Cl
ATOM      2  F   UNL     1       3.313   2.173   1.149  0.00  0.00    -0.204 F 
ATOM      3  C   UNL     1       2.220   0.374   0.065  0.00  0.00    +0.042 C 
ATOM      4  C   UNL     1       1.117  -0.115  -0.636  0.00  0.00    +0.134 C 
ATOM      5  C   UNL     1       0.045   0.729  -0.927  0.00  0.00    +0.032 C 
ATOM      6  C   UNL     1       2.250   1.707   0.475  0.00  0.00    +0.150 C 
ATOM      7  C   UNL     1       0.076   2.062  -0.516  0.00  0.00    +0.014 C 
ATOM      8  C   UNL     1       1.178   2.551   0.184  0.00  0.00    +0.085 C 
ENDROOT
BRANCH   3  11
ATOM      9  O   UNL     1       6.930  -0.957   0.456  0.00  0.00    -0.275 OA
ATOM     10  N   UNL     1       5.083  -1.115   1.885  0.00  0.00    -0.304 N 
ATOM     11  C   UNL     1       3.390  -0.528   0.388  0.00  0.00    +0.056 C 
ATOM     12  C   UNL     1       3.708  -0.702   1.874  0.00  0.00    +0.094 C 
ATOM     13  C   UNL     1       4.753  -0.088  -0.182  0.00  0.00    +0.091 C 
ATOM     14  C   UNL     1       5.750  -0.778   0.715  0.00  0.00    +0.223 C 
ATOM     15  H   UNL     1       5.507  -1.584   2.639  0.00  0.00    +0.149 HD
ENDBRANCH   3  11
BRANCH   5  16
ATOM     16  C   UNL     1      -1.142   0.223  -1.677  0.00  0.00    +0.123 C 
ATOM     17  C   UNL     1      -1.327   0.853  -3.081  0.00  0.00    +0.029 C 
BRANCH  16  18
ATOM     18  N   UNL     1      -2.436   0.281  -0.857  0.00  0.00    -0.196 N 
ATOM     19  N   UNL     1      -3.217   1.375  -0.925  0.00  0.00    -0.185 NA
ATOM     20  N   UNL     1      -2.360  -1.873   0.246  0.00  0.00    -0.231 NA
ATOM     21  N   UNL     1      -4.288  -2.209   1.701  0.00  0.00    -0.234 NA
ATOM     22  C   UNL     1      -2.919  -0.682  -0.022  0.00  0.00    +0.137 C 
ATOM     23  C   UNL     1      -4.102  -0.182   0.494  0.00  0.00    +0.146 C 
ATOM     24  C   UNL     1      -4.230   1.087  -0.101  0.00  0.00    +0.068 C 
ATOM     25  C   UNL     1      -4.795  -0.993   1.386  0.00  0.00    +0.111 C 
ATOM     26  C   UNL     1      -5.311   2.072   0.082  0.00  0.00    +0.050 C 
ATOM     27  C   UNL     1      -3.119  -2.568   1.120  0.00  0.00    +0.252 C 
ATOM     28  N   UNL     1      -6.007  -0.572   1.961  0.00  0.00    -0.346 N 
ATOM     29  H   UNL     1      -6.484  -1.159   2.591  0.00  0.00    +0.143 HD
ATOM     30  H   UNL     1      -6.379   0.311   1.733  0.00  0.00    +0.143 HD
ENDBRANCH  16  18
ENDBRANCH   5  16
BRANCH   4  31
ATOM     31  O   UNL     1       1.088  -1.418  -1.038  0.00  0.00    -0.476 OA
BRANCH  31  32
ATOM     32  C   UNL     1       1.627  -1.709  -2.325  0.00  0.00    +0.205 C 
ATOM     33  C   UNL     1       1.517  -3.197  -2.581  0.00  0.00    +0.051 C 
ENDBRANCH  31  32
ENDBRANCH   4  31
TORSDOF 5
