REMARK  Name = 2537
REMARK  0 active torsions:
REMARK  status: ('A' for Active; 'I' for Inactive)
REMARK                            x       y       z     vdW  Elec       q    Type
REMARK                         _______ _______ _______ _____ _____    ______ ____
ROOT
ATOM      1  O   UNL     1      -2.524   0.367   0.260  0.00  0.00    -0.296 OA
ATOM      2  C   UNL     1       0.968   0.288   0.411  0.00  0.00    +0.007 C 
ATOM      3  C   UNL     1      -0.214   0.521  -0.570  0.00  0.00    +0.052 C 
ATOM      4  C   UNL     1       0.603  -1.210   0.602  0.00  0.00    +0.008 C 
ATOM      5  C   UNL     1      -0.016  -0.564  -1.653  0.00  0.00    +0.007 C 
ATOM      6  C   UNL     1       0.569  -1.748  -0.852  0.00  0.00    +0.001 C 
ATOM      7  C   UNL     1      -0.858  -1.184   1.115  0.00  0.00    +0.064 C 
ATOM      8  C   UNL     1      -1.369  -0.032   0.272  0.00  0.00    +0.150 C 
ATOM      9  C   UNL     1       2.368   0.515  -0.192  0.00  0.00    +0.000 C 
ATOM     10  C   UNL     1       0.906   1.128   1.704  0.00  0.00    +0.000 C 
ATOM     11  C   UNL     1      -0.431   1.919  -1.096  0.00  0.00    +0.007 C 
ENDROOT
TORSDOF 0
