REMARK  Name = 60164925
REMARK  5 active torsions:
REMARK  status: ('A' for Active; 'I' for Inactive)
REMARK    1  A    between atoms: C_12  and  C_19
REMARK    2  A    between atoms: N_18  and  CA_21
REMARK    3  A    between atoms: CA_21  and  C_22
REMARK    4  A    between atoms: CA_21  and  C_26
REMARK    5  A    between atoms: C_26  and  O_27
REMARK                            x       y       z     vdW  Elec       q    Type
REMARK                         _______ _______ _______ _____ _____    ______ ____
ROOT
ATOM      1  O   UNL     1      -2.833   4.396   0.125  0.00  0.00    -0.084 OA
ATOM      2  N   UNL     1      -1.648  -0.134   0.089  0.00  0.00    -0.218 N 
ATOM      3  N   UNL     1      -0.328   0.177   0.149  0.00  0.00    -0.160 NA
ATOM      4  N   UNL     1      -3.916   0.474   0.005  0.00  0.00    -0.225 NA
ATOM      5  N   UNL     1      -3.171   3.170   0.086  0.00  0.00    -0.196 N 
ATOM      6  C   UNL     1      -2.214  -3.830   0.024  0.00  0.00    +0.010 C 
ATOM      7  C   UNL     1      -2.975  -2.487  -0.009  0.00  0.00    +0.040 C 
ATOM      8  C   UNL     1      -3.067  -3.452  -1.158  0.00  0.00    +0.007 C 
ATOM      9  C   UNL     1      -0.696  -3.554   0.061  0.00  0.00    +0.030 C 
ATOM     10  C   UNL     1      -1.841  -1.463   0.056  0.00  0.00    +0.059 A 
ATOM     11  C   UNL     1      -0.621  -2.074   0.095  0.00  0.00    +0.015 A 
ATOM     12  C   UNL     1       0.289  -1.020   0.152  0.00  0.00    +0.152 A 
ATOM     13  C   UNL     1      -2.625   0.855   0.067  0.00  0.00    +0.165 C 
ATOM     14  C   UNL     1      -2.219   2.177   0.109  0.00  0.00    +0.200 C 
ATOM     15  C   UNL     1      -4.829   1.466  -0.016  0.00  0.00    +0.121 C 
ATOM     16  C   UNL     1      -4.498   2.809   0.022  0.00  0.00    +0.124 C 
ENDROOT
BRANCH  12  19
ATOM     17  O   UNL     1       2.322  -2.188   0.191  0.00  0.00    -0.268 OA
ATOM     18  N   UNL     1       2.425   0.126   0.260  0.00  0.00    -0.299 N 
ATOM     19  C   UNL     1       1.772  -1.090   0.210  0.00  0.00    +0.265 C 
ATOM     20  H   UNL     1       1.891   0.953   0.272  0.00  0.00    +0.150 HD
BRANCH  18  21
ATOM     21  CA  UNL     1       3.875   0.225   0.295  0.00  0.00    +0.101 C 
BRANCH  21  22
ATOM     22  C   UNL     1       4.441   0.973  -0.959  0.00  0.00    +0.019 C 
ATOM     23  C   UNL     1       3.968   0.325  -2.275  0.00  0.00    +0.002 C 
ATOM     24  C   UNL     1       3.994   2.450  -0.954  0.00  0.00    +0.002 C 
ATOM     25  C   UNL     1       5.986   0.965  -0.937  0.00  0.00    +0.002 C 
ENDBRANCH  21  22
BRANCH  21  26
ATOM     26  C   UNL     1       4.293   0.837   1.640  0.00  0.00    +0.157 C 
BRANCH  26  27
ATOM     27  O   UNL     1       4.118  -0.134   2.670  0.00  0.00    -0.380 OA
ATOM     28  H   UNL     1       4.381   0.247   3.522  0.00  0.00    +0.211 HD
ENDBRANCH  26  27
ENDBRANCH  21  26
ENDBRANCH  18  21
ENDBRANCH  12  19
TORSDOF 5
