REMARK  Name = 6918151
REMARK  4 active torsions:
REMARK  status: ('A' for Active; 'I' for Inactive)
REMARK    1  A    between atoms: C_2  and  C_11
REMARK    2  A    between atoms: C_7  and  C_18
REMARK    3  A    between atoms: C_11  and  C_12
REMARK    4  A    between atoms: C_18  and  C_23
REMARK                            x       y       z     vdW  Elec       q    Type
REMARK                         _______ _______ _______ _____ _____    ______ ____
ROOT
ATOM      1  O   UNL     1      -2.057   0.019   0.620  0.00  0.00    -0.479 OA
ATOM      2  C   UNL     1      -2.713   1.181   0.091  0.00  0.00    +0.171 C 
ATOM      3  C   UNL     1      -1.846   2.429   0.249  0.00  0.00    +0.049 C 
ATOM      4  C   UNL     1      -0.567   2.253  -0.561  0.00  0.00    +0.033 C 
ATOM      5  C   UNL     1       0.018   0.890  -0.330  0.00  0.00    +0.012 C 
ATOM      6  C   UNL     1      -0.752  -0.139   0.228  0.00  0.00    +0.134 C 
ATOM      7  C   UNL     1       1.899  -0.636  -0.488  0.00  0.00    -0.021 C 
ATOM      8  C   UNL     1       1.344   0.627  -0.699  0.00  0.00    -0.006 C 
ATOM      9  C   UNL     1      -0.191  -1.399   0.450  0.00  0.00    +0.036 C 
ATOM     10  C   UNL     1       1.133  -1.647   0.089  0.00  0.00    -0.001 C 
ENDROOT
BRANCH   2  11
ATOM     11  C   UNL     1      -4.029   1.338   0.844  0.00  0.00    +0.070 C 
BRANCH  11  12
ATOM     12  C   UNL     1      -5.066   0.359   0.363  0.00  0.00    -0.019 C 
ATOM     13  C   UNL     1      -5.912   0.716  -0.679  0.00  0.00    -0.004 C 
ATOM     14  C   UNL     1      -5.163  -0.887   0.967  0.00  0.00    -0.004 C 
ATOM     15  C   UNL     1      -6.873  -0.191  -1.125  0.00  0.00    -0.000 C 
ATOM     16  C   UNL     1      -6.124  -1.794   0.520  0.00  0.00    -0.000 C 
ATOM     17  C   UNL     1      -6.979  -1.446  -0.525  0.00  0.00    -0.000 C 
ENDBRANCH  11  12
ENDBRANCH   2  11
BRANCH   7  18
ATOM     18  C   UNL     1       3.313  -0.903  -0.879  0.00  0.00    +0.047 C 
BRANCH  18  23
ATOM     19  S   UNL     1       4.661   1.175   0.339  0.00  0.00    -0.048 S 
ATOM     20  O   UNL     1       5.746  -2.500  -0.124  0.00  0.00    -0.274 OA
ATOM     21  O   UNL     1       7.190   1.876   0.182  0.00  0.00    -0.263 OA
ATOM     22  N   UNL     1       6.662  -0.381   0.019  0.00  0.00    -0.246 N 
ATOM     23  C   UNL     1       4.294  -0.604   0.252  0.00  0.00    +0.137 C 
ATOM     24  C   UNL     1       5.623  -1.289   0.027  0.00  0.00    +0.239 C 
ATOM     25  C   UNL     1       6.389   0.954   0.169  0.00  0.00    +0.279 C 
ATOM     26  H   UNL     1       7.590  -0.689  -0.094  0.00  0.00    +0.158 HD
ENDBRANCH  18  23
ENDBRANCH   7  18
TORSDOF 4
