REMARK  Name = 62277
REMARK  9 active torsions:
REMARK  status: ('A' for Active; 'I' for Inactive)
REMARK    1  A    between atoms: N_3  and  C_19
REMARK    2  A    between atoms: N_4  and  C_22
REMARK    3  A    between atoms: C_5  and  N_9
REMARK    4  A    between atoms: N_9  and  C_13
REMARK    5  A    between atoms: N_10  and  C_16
REMARK    6  A    between atoms: C_13  and  O_14
REMARK    7  A    between atoms: C_16  and  O_17
REMARK    8  A    between atoms: C_19  and  O_20
REMARK    9  A    between atoms: C_22  and  O_23
REMARK                            x       y       z     vdW  Elec       q    Type
REMARK                         _______ _______ _______ _____ _____    ______ ____
ROOT
ATOM      1  O   UNL     1       0.864  -1.647   1.627  0.00  0.00    -0.271 OA
ATOM      2  O   UNL     1       3.420   1.128  -1.015  0.00  0.00    -0.252 OA
ATOM      3  N   UNL     1       1.212   1.268  -0.231  0.00  0.00    -0.215 N 
ATOM      4  N   UNL     1       2.449  -0.492   0.360  0.00  0.00    -0.184 N 
ATOM      5  C   UNL     1       0.325   0.487   0.599  0.00  0.00    +0.240 C 
ATOM      6  C   UNL     1       1.218  -0.690   0.952  0.00  0.00    +0.273 C 
ATOM      7  C   UNL     1       2.477   0.683  -0.372  0.00  0.00    +0.318 C 
ENDROOT
BRANCH   5   9
ATOM      8  O   UNL     1      -2.307   0.906   1.502  0.00  0.00    -0.252 OA
ATOM      9  N   UNL     1      -0.844  -0.008  -0.060  0.00  0.00    -0.215 N 
ATOM     10  N   UNL     1      -3.202  -0.286  -0.247  0.00  0.00    -0.264 N 
ATOM     11  C   UNL     1      -2.137   0.252   0.469  0.00  0.00    +0.309 C 
ATOM     12  H   UNL     1      -3.014  -0.800  -1.066  0.00  0.00    +0.153 HD
BRANCH   9  13
ATOM     13  C   UNL     1      -0.636  -0.797  -1.288  0.00  0.00    +0.242 C 
BRANCH  13  14
ATOM     14  O   UNL     1      -1.162  -2.102  -1.111  0.00  0.00    -0.364 OA
ATOM     15  H   UNL     1      -1.024  -2.619  -1.919  0.00  0.00    +0.212 HD
ENDBRANCH  13  14
ENDBRANCH   9  13
BRANCH  10  16
ATOM     16  C   UNL     1      -4.574  -0.117   0.172  0.00  0.00    +0.237 C 
BRANCH  16  17
ATOM     17  O   UNL     1      -5.419  -0.779  -0.749  0.00  0.00    -0.364 OA
ATOM     18  H   UNL     1      -6.343  -0.670  -0.475  0.00  0.00    +0.212 HD
ENDBRANCH  16  17
ENDBRANCH  10  16
ENDBRANCH   5   9
BRANCH   3  19
ATOM     19  C   UNL     1       0.809   2.540  -0.797  0.00  0.00    +0.242 C 
BRANCH  19  20
ATOM     20  O   UNL     1       0.425   3.410   0.250  0.00  0.00    -0.364 OA
ATOM     21  H   UNL     1       0.154   4.264  -0.123  0.00  0.00    +0.212 HD
ENDBRANCH  19  20
ENDBRANCH   3  19
BRANCH   4  22
ATOM     22  C   UNL     1       3.571  -1.400   0.489  0.00  0.00    +0.247 C 
BRANCH  22  23
ATOM     23  O   UNL     1       3.512  -2.357  -0.551  0.00  0.00    -0.364 OA
ATOM     24  H   UNL     1       4.261  -2.969  -0.471  0.00  0.00    +0.212 HD
ENDBRANCH  22  23
ENDBRANCH   4  22
TORSDOF 9
