REMARK  Name = 62956
REMARK  11 active torsions:
REMARK  status: ('A' for Active; 'I' for Inactive)
REMARK    1  A    between atoms: C_3  and  C_8
REMARK    2  A    between atoms: C_6  and  C_15
REMARK    3  A    between atoms: C_7  and  C_18
REMARK    4  A    between atoms: C_15  and  O_16
REMARK    5  A    between atoms: C_18  and  P_19
REMARK    6  A    between atoms: P_19  and  O_21
REMARK    7  A    between atoms: P_19  and  C_23
REMARK    8  A    between atoms: C_23  and  C_24
REMARK    9  A    between atoms: C_24  and  C_25
REMARK   10  A    between atoms: C_25  and  C_26
REMARK   11  A    between atoms: C_26  and  C_27
REMARK                            x       y       z     vdW  Elec       q    Type
REMARK                         _______ _______ _______ _____ _____    ______ ____
ROOT
ATOM      1  O   UNL     1       1.448   2.936   0.520  0.00  0.00    -0.274 OA
ATOM      2  N   UNL     1       2.834   1.108   0.215  0.00  0.00    -0.271 N 
ATOM      3  C   UNL     1       4.573  -0.458  -0.159  0.00  0.00    +0.022 C 
ATOM      4  C   UNL     1       5.111   0.701   0.690  0.00  0.00    +0.033 C 
ATOM      5  C   UNL     1       3.060  -0.319  -0.007  0.00  0.00    +0.094 C 
ATOM      6  C   UNL     1       4.087   1.808   0.467  0.00  0.00    +0.174 C 
ATOM      7  C   UNL     1       1.600   1.728   0.333  0.00  0.00    +0.236 C 
ENDROOT
BRANCH   3   8
ATOM      8  C   UNL     1       5.103  -1.821   0.281  0.00  0.00    +0.002 C 
ATOM      9  C   UNL     1       6.636  -1.852   0.224  0.00  0.00    +0.000 C 
ATOM     10  C   UNL     1       4.502  -2.940  -0.582  0.00  0.00    +0.000 C 
ATOM     11  C   UNL     1       7.187  -3.223   0.608  0.00  0.00    +0.000 C 
ATOM     12  C   UNL     1       5.056  -4.309  -0.196  0.00  0.00    +0.000 C 
ATOM     13  C   UNL     1       6.581  -4.333  -0.245  0.00  0.00    +0.000 C 
ENDBRANCH   3   8
BRANCH   6  15
ATOM     14  O   UNL     1       4.067   2.322  -1.896  0.00  0.00    -0.248 OA
ATOM     15  C   UNL     1       4.396   2.618  -0.757  0.00  0.00    +0.332 C 
BRANCH  15  16
ATOM     16  O   UNL     1       5.096   3.731  -0.430  0.00  0.00    -0.479 OA
ATOM     17  H   UNL     1       5.317   3.900   0.465  0.00  0.00    +0.295 HD
ENDBRANCH  15  16
ENDBRANCH   6  15
BRANCH   7  18
ATOM     18  C   UNL     1       0.402   0.820   0.207  0.00  0.00    +0.172 C 
BRANCH  18  19
ATOM     19  P   UNL     1      -1.137   1.726   0.351  0.00  0.00    +0.229 P 
ATOM     20  O   UNL     1      -1.224   2.572   1.580  0.00  0.00    -0.289 OA
BRANCH  19  21
ATOM     21  O   UNL     1      -1.201   2.552  -1.034  0.00  0.00    -0.342 OA
ATOM     22  H   UNL     1      -0.515   3.238  -1.033  0.00  0.00    +0.218 HD
ENDBRANCH  19  21
BRANCH  19  23
ATOM     23  C   UNL     1      -2.438   0.531   0.183  0.00  0.00    +0.087 C 
BRANCH  23  24
ATOM     24  C   UNL     1      -3.834   1.130   0.298  0.00  0.00    +0.011 C 
BRANCH  24  25
ATOM     25  C   UNL     1      -4.929   0.070   0.137  0.00  0.00    +0.005 C 
BRANCH  25  26
ATOM     26  C   UNL     1      -6.343   0.647   0.271  0.00  0.00    +0.026 C 
BRANCH  26  27
ATOM     27  C   UNL     1      -7.437  -0.364   0.037  0.00  0.00    -0.022 C 
ATOM     28  C   UNL     1      -7.931  -0.550  -1.245  0.00  0.00    -0.004 C 
ATOM     29  C   UNL     1      -7.931  -1.093   1.109  0.00  0.00    -0.004 C 
ATOM     30  C   UNL     1      -8.943  -1.485  -1.461  0.00  0.00    -0.000 C 
ATOM     31  C   UNL     1      -8.943  -2.029   0.893  0.00  0.00    -0.000 C 
ATOM     32  C   UNL     1      -9.448  -2.225  -0.392  0.00  0.00    -0.000 C 
ENDBRANCH  26  27
ENDBRANCH  25  26
ENDBRANCH  24  25
ENDBRANCH  23  24
ENDBRANCH  19  23
ENDBRANCH  18  19
ENDBRANCH   7  18
TORSDOF 11
