REMARK  Name = 5464096
REMARK  10 active torsions:
REMARK  status: ('A' for Active; 'I' for Inactive)
REMARK    1  A    between atoms: N_1  and  CA_4
REMARK    2  A    between atoms: N_1  and  CA_20
REMARK    3  A    between atoms: CA_4  and  C_15
REMARK    4  A    between atoms: CA_13  and  C_17
REMARK    5  A    between atoms: C_17  and  O_18
REMARK    6  A    between atoms: CA_20  and  C_22
REMARK    7  A    between atoms: CA_20  and  C_25
REMARK    8  A    between atoms: C_22  and  O_23
REMARK    9  A    between atoms: C_25  and  C_26
REMARK   10  A    between atoms: C_26  and  C_27
REMARK                            x       y       z     vdW  Elec       q    Type
REMARK                         _______ _______ _______ _____ _____    ______ ____
ROOT
ATOM      1  N   UNL     1      -0.320   1.510   1.488  0.00  0.00    +0.399 N 
ATOM      2  H1  UNL     1      -0.658   2.439   1.740  0.00  0.00    -0.083 HD
ATOM      3  H2  UNL     1      -0.563   0.832   2.211  0.00  0.00    -0.083 HD
ENDROOT
BRANCH   1   4
ATOM      4  CA  UNL     1       1.126   1.549   1.359  0.00  0.00    +0.018 C 
ATOM      5  CB  UNL     1       1.747   2.404   2.445  0.00  0.00    -0.014 C 
BRANCH   4  15
ATOM      6  O   UNL     1       1.005  -0.676   2.188  0.00  0.00    -0.277 OA
ATOM      7  N   UNL     1       2.761  -0.188   0.763  0.00  0.00    -0.275 N 
ATOM      8  C   UNL     1       4.742  -1.381   0.146  0.00  0.00    +0.020 C 
ATOM      9  C   UNL     1       3.415  -1.484   0.913  0.00  0.00    +0.076 C 
ATOM     10  C   UNL     1       4.931   0.104  -0.151  0.00  0.00    +0.033 C 
ATOM     11  C   UNL     1       4.580  -2.279  -1.078  0.00  0.00    +0.002 C 
ATOM     12  C   UNL     1       2.637  -2.636   0.265  0.00  0.00    +0.020 C 
ATOM     13  CA  UNL     1       3.531   0.708  -0.092  0.00  0.00    +0.174 C 
ATOM     14  C   UNL     1       3.663  -3.382  -0.577  0.00  0.00    +0.002 C 
ATOM     15  C   UNL     1       1.615   0.128   1.480  0.00  0.00    +0.206 C 
BRANCH  13  17
ATOM     16  OXT UNL     1       1.877   0.151  -1.765  0.00  0.00    -0.248 OA
ATOM     17  C   UNL     1       2.893   0.751  -1.448  0.00  0.00    +0.332 C 
BRANCH  17  18
ATOM     18  O   UNL     1       3.600   1.551  -2.284  0.00  0.00    -0.479 OA
ATOM     19  H   UNL     1       4.372   1.984  -1.976  0.00  0.00    +0.295 HD
ENDBRANCH  17  18
ENDBRANCH  13  17
ENDBRANCH   4  15
ENDBRANCH   1   4
BRANCH   1  20
ATOM     20  CA  UNL     1      -0.948   1.099   0.238  0.00  0.00    +0.041 C 
BRANCH  20  22
ATOM     21  OXT UNL     1      -1.155   3.474  -0.257  0.00  0.00    -0.253 OA
ATOM     22  C   UNL     1      -1.000   2.326  -0.655  0.00  0.00    +0.293 C 
BRANCH  22  23
ATOM     23  O   UNL     1      -0.829   2.022  -1.967  0.00  0.00    -0.482 OA
ATOM     24  H   UNL     1      -0.713   1.130  -2.230  0.00  0.00    +0.295 HD
ENDBRANCH  22  23
ENDBRANCH  20  22
BRANCH  20  25
ATOM     25  C   UNL     1      -2.358   0.567   0.530  0.00  0.00    -0.006 C 
BRANCH  25  26
ATOM     26  C   UNL     1      -3.123   0.077  -0.709  0.00  0.00    +0.025 C 
BRANCH  26  27
ATOM     27  C   UNL     1      -4.479  -0.516  -0.413  0.00  0.00    -0.022 C 
ATOM     28  C   UNL     1      -4.601  -1.882  -0.156  0.00  0.00    -0.004 C 
ATOM     29  C   UNL     1      -5.610   0.300  -0.396  0.00  0.00    -0.004 C 
ATOM     30  C   UNL     1      -5.854  -2.431   0.118  0.00  0.00    -0.000 C 
ATOM     31  C   UNL     1      -6.862  -0.249  -0.122  0.00  0.00    -0.000 C 
ATOM     32  C   UNL     1      -6.984  -1.615   0.135  0.00  0.00    -0.000 C 
ENDBRANCH  26  27
ENDBRANCH  25  26
ENDBRANCH  20  25
ENDBRANCH   1  20
TORSDOF 10
