REMARK  Name = 6367
REMARK  0 active torsions:
REMARK  status: ('A' for Active; 'I' for Inactive)
REMARK                            x       y       z     vdW  Elec       q    Type
REMARK                         _______ _______ _______ _____ _____    ______ ____
ROOT
ATOM      1 CL   UNL     1      -1.626   0.099   0.000  0.00  0.00    -0.043 Cl
ATOM      2  O   UNL     1       0.696  -1.186   0.000  0.00  0.00    -0.279 OA
ATOM      3  C   UNL     1       0.832   1.200   0.000  0.00  0.00    +0.091 C 
ATOM      4  C   UNL     1       0.099  -0.114  -0.001  0.00  0.00    +0.231 C 
ENDROOT
TORSDOF 0
