REMARK  Name = 89658382
REMARK  9 active torsions:
REMARK  status: ('A' for Active; 'I' for Inactive)
REMARK    1  A    between atoms: C_3  and  C_18
REMARK    2  A    between atoms: C_3  and  C_25
REMARK    3  A    between atoms: C_4  and  O_19
REMARK    4  A    between atoms: C_6  and  N_8
REMARK    5  A    between atoms: O_19  and  C_21
REMARK    6  A    between atoms: C_21  and  C_22
REMARK    7  A    between atoms: C_25  and  O_26
REMARK    8  A    between atoms: O_26  and  C_28
REMARK    9  A    between atoms: C_28  and  C_29
REMARK                            x       y       z     vdW  Elec       q    Type
REMARK                         _______ _______ _______ _____ _____    ______ ____
ROOT
ATOM      1  F   UNL     1       2.215   1.681   0.873  0.00  0.00    -0.229 F 
ATOM      2  O   UNL     1      -0.064  -0.081  -1.103  0.00  0.00    -0.331 OA
ATOM      3  C   UNL     1       0.398  -1.157  -0.255  0.00  0.00    +0.189 C 
ATOM      4  C   UNL     1       1.582  -0.569   0.519  0.00  0.00    +0.235 C 
ATOM      5  C   UNL     1       1.147   0.867   0.712  0.00  0.00    +0.250 C 
ATOM      6  C   UNL     1       0.420   1.170  -0.585  0.00  0.00    +0.243 C 
ENDROOT
BRANCH   6   8
ATOM      7  O   UNL     1       0.613   3.836   0.302  0.00  0.00    -0.193 OA
ATOM      8  N   UNL     1      -0.687   2.063  -0.400  0.00  0.00    -0.178 N 
ATOM      9  N   UNL     1      -1.626   4.201   0.207  0.00  0.00    -0.306 NA
ATOM     10  N   UNL     1      -3.920   4.568   0.107  0.00  0.00    -0.332 N 
ATOM     11  C   UNL     1      -1.966   1.602  -0.672  0.00  0.00    +0.083 C 
ATOM     12  C   UNL     1      -0.511   3.395   0.051  0.00  0.00    +0.276 C 
ATOM     13  C   UNL     1      -3.050   2.361  -0.529  0.00  0.00    +0.065 C 
ATOM     14  C   UNL     1      -2.825   3.751  -0.054  0.00  0.00    +0.193 C 
ATOM     15  H   UNL     1      -3.801   5.494   0.421  0.00  0.00    +0.145 HD
ATOM     16  H   UNL     1      -4.822   4.227  -0.090  0.00  0.00    +0.145 HD
ENDBRANCH   6   8
BRANCH   3  18
ATOM     17 CL   UNL     1       1.450  -3.648  -0.169  0.00  0.00    -0.111 Cl
ATOM     18  C   UNL     1       0.766  -2.341  -1.148  0.00  0.00    +0.129 C 
ENDBRANCH   3  18
BRANCH   4  19
ATOM     19  O   UNL     1       2.761  -0.595  -0.282  0.00  0.00    -0.447 OA
BRANCH  19  21
ATOM     20  O   UNL     1       4.075  -0.570   1.613  0.00  0.00    -0.250 OA
ATOM     21  C   UNL     1       3.958  -0.592   0.395  0.00  0.00    +0.316 C 
BRANCH  21  22
ATOM     22  C   UNL     1       5.116  -0.608  -0.588  0.00  0.00    +0.099 C 
ATOM     23  C   UNL     1       6.309  -1.363  -0.006  0.00  0.00    +0.012 C 
ATOM     24  C   UNL     1       5.499   0.820  -0.955  0.00  0.00    +0.012 C 
ENDBRANCH  21  22
ENDBRANCH  19  21
ENDBRANCH   4  19
BRANCH   3  25
ATOM     25  C   UNL     1      -0.757  -1.550   0.675  0.00  0.00    +0.240 C 
BRANCH  25  26
ATOM     26  O   UNL     1      -1.810  -2.071  -0.115  0.00  0.00    -0.446 OA
BRANCH  26  28
ATOM     27  O   UNL     1      -3.081  -2.417   1.778  0.00  0.00    -0.250 OA
ATOM     28  C   UNL     1      -2.933  -2.476   0.564  0.00  0.00    +0.316 C 
BRANCH  28  29
ATOM     29  C   UNL     1      -3.963  -3.020  -0.410  0.00  0.00    +0.099 C 
ATOM     30  C   UNL     1      -5.379  -2.743   0.089  0.00  0.00    +0.012 C 
ATOM     31  C   UNL     1      -3.739  -4.513  -0.615  0.00  0.00    +0.012 C 
ENDBRANCH  28  29
ENDBRANCH  26  28
ENDBRANCH  25  26
ENDBRANCH   3  25
TORSDOF 9
