REMARK  Name = 2286
REMARK  8 active torsions:
REMARK  status: ('A' for Active; 'I' for Inactive)
REMARK    1  A    between atoms: C_1  and  C_4
REMARK    2  A    between atoms: C_1  and  C_15
REMARK    3  A    between atoms: C_7  and  O_10
REMARK    4  A    between atoms: O_10  and  C_11
REMARK    5  A    between atoms: C_11  and  C_13
REMARK    6  A    between atoms: C_18  and  O_21
REMARK    7  A    between atoms: O_21  and  C_22
REMARK    8  A    between atoms: C_22  and  C_24
REMARK                            x       y       z     vdW  Elec       q    Type
REMARK                         _______ _______ _______ _____ _____    ______ ____
ROOT
ATOM      1  C   UNL     1      -0.003   2.555  -0.004  0.00  0.00    +0.038 C 
ATOM      2  C   UNL     1       0.160   3.526  -1.225  0.00  0.00    +0.009 C 
ATOM      3  C   UNL     1      -0.043   3.525   1.237  0.00  0.00    +0.009 C 
ENDROOT
BRANCH   1   4
ATOM      4  C   UNL     1      -1.225   1.727  -0.215  0.00  0.00    -0.019 C 
ATOM      5  C   UNL     1      -1.288   0.837  -1.287  0.00  0.00    -0.001 C 
ATOM      6  C   UNL     1      -2.306   1.845   0.658  0.00  0.00    -0.001 C 
ATOM      7  C   UNL     1      -3.513   0.181  -0.611  0.00  0.00    +0.139 C 
ATOM      8  C   UNL     1      -2.432   0.064  -1.485  0.00  0.00    +0.037 C 
ATOM      9  C   UNL     1      -3.450   1.072   0.460  0.00  0.00    +0.037 C 
BRANCH   7  10
ATOM     10  O   UNL     1      -4.629  -0.574  -0.805  0.00  0.00    -0.473 OA
BRANCH  10  11
ATOM     11  C   UNL     1      -5.379  -0.933   0.355  0.00  0.00    +0.237 C 
BRANCH  11  13
ATOM     12  O   UNL     1      -5.803  -3.223   1.122  0.00  0.00    -0.347 OA
ATOM     13  C   UNL     1      -6.063  -2.236   0.121  0.00  0.00    +0.188 C 
ATOM     14  C   UNL     1      -5.277  -3.471  -0.188  0.00  0.00    +0.176 C 
ENDBRANCH  11  13
ENDBRANCH  10  11
ENDBRANCH   7  10
ENDBRANCH   1   4
BRANCH   1  15
ATOM     15  C   UNL     1       1.277   1.682   0.220  0.00  0.00    -0.019 C 
ATOM     16  C   UNL     1       1.277   0.835   1.283  0.00  0.00    -0.001 C 
ATOM     17  C   UNL     1       2.298   1.836  -0.664  0.00  0.00    -0.001 C 
ATOM     18  C   UNL     1       3.499   0.170   0.608  0.00  0.00    +0.139 C 
ATOM     19  C   UNL     1       2.418   0.058   1.482  0.00  0.00    +0.037 C 
ATOM     20  C   UNL     1       3.440   1.059  -0.465  0.00  0.00    +0.037 C 
BRANCH  18  21
ATOM     21  O   UNL     1       4.612  -0.589   0.803  0.00  0.00    -0.473 OA
BRANCH  21  22
ATOM     22  C   UNL     1       5.362  -0.952  -0.355  0.00  0.00    +0.237 C 
BRANCH  22  24
ATOM     23  O   UNL     1       5.777  -3.246  -1.119  0.00  0.00    -0.347 OA
ATOM     24  C   UNL     1       6.041  -2.257  -0.120  0.00  0.00    +0.188 C 
ATOM     25  C   UNL     1       5.250  -3.489   0.191  0.00  0.00    +0.176 C 
ENDBRANCH  22  24
ENDBRANCH  21  22
ENDBRANCH  18  21
ENDBRANCH   1  15
TORSDOF 8
