REMARK  Name = 8556
REMARK  8 active torsions:
REMARK  status: ('A' for Active; 'I' for Inactive)
REMARK    1  A    between atoms: C_3  and  O_12
REMARK    2  A    between atoms: C_5  and  O_19
REMARK    3  A    between atoms: O_12  and  P_13
REMARK    4  A    between atoms: P_13  and  O_15
REMARK    5  A    between atoms: P_13  and  O_17
REMARK    6  A    between atoms: O_19  and  P_20
REMARK    7  A    between atoms: P_20  and  O_22
REMARK    8  A    between atoms: P_20  and  O_24
REMARK                            x       y       z     vdW  Elec       q    Type
REMARK                         _______ _______ _______ _____ _____    ______ ____
ROOT
ATOM      1  C   UNL     1      -0.788  -0.953   0.305  0.00  0.00    +0.037 C 
ATOM      2  C   UNL     1       0.578  -1.228   0.059  0.00  0.00    +0.037 C 
ATOM      3  C   UNL     1      -1.195   0.375   0.514  0.00  0.00    +0.145 C 
ATOM      4  C   UNL     1      -0.268   1.417   0.480  0.00  0.00    +0.016 C 
ATOM      5  C   UNL     1       1.498  -0.167   0.028  0.00  0.00    +0.149 C 
ATOM      6  C   UNL     1       1.076   1.147   0.237  0.00  0.00    +0.036 C 
ATOM      7  C   UNL     1      -1.707  -2.015   0.336  0.00  0.00    +0.003 C 
ATOM      8  C   UNL     1       0.985  -2.556  -0.149  0.00  0.00    +0.003 C 
ATOM      9  C   UNL     1      -0.696   2.831   0.701  0.00  0.00    +0.034 C 
ATOM     10  C   UNL     1      -1.285  -3.328   0.127  0.00  0.00    +0.000 C 
ATOM     11  C   UNL     1       0.058  -3.598  -0.115  0.00  0.00    +0.000 C 
ENDROOT
BRANCH   3  12
ATOM     12  O   UNL     1      -2.508   0.672   0.752  0.00  0.00    -0.403 OA
BRANCH  12  13
ATOM     13  P   UNL     1      -3.603   1.014  -0.385  0.00  0.00    +0.528 P 
ATOM     14  O   UNL     1      -3.292   2.211  -1.236  0.00  0.00    -0.216 OA
BRANCH  13  15
ATOM     15  O   UNL     1      -3.797  -0.380  -1.181  0.00  0.00    -0.293 OA
ATOM     16  H   UNL     1      -3.993  -1.089  -0.549  0.00  0.00    +0.223 HD
ENDBRANCH  13  15
BRANCH  13  17
ATOM     17  O   UNL     1      -4.971   1.137   0.469  0.00  0.00    -0.293 OA
ATOM     18  H   UNL     1      -5.101   0.329   0.990  0.00  0.00    +0.223 HD
ENDBRANCH  13  17
ENDBRANCH  12  13
ENDBRANCH   3  12
BRANCH   5  19
ATOM     19  O   UNL     1       2.826  -0.384  -0.206  0.00  0.00    -0.403 OA
BRANCH  19  20
ATOM     20  P   UNL     1       3.959   0.767  -0.261  0.00  0.00    +0.528 P 
ATOM     21  O   UNL     1       3.755   1.821  -1.311  0.00  0.00    -0.216 OA
BRANCH  20  22
ATOM     22  O   UNL     1       4.053   1.304   1.262  0.00  0.00    -0.293 OA
ATOM     23  H   UNL     1       4.184   0.554   1.862  0.00  0.00    +0.223 HD
ENDBRANCH  20  22
BRANCH  20  24
ATOM     24  O   UNL     1       5.323  -0.087  -0.427  0.00  0.00    -0.293 OA
ATOM     25  H   UNL     1       5.383  -0.744   0.284  0.00  0.00    +0.223 HD
ENDBRANCH  20  24
ENDBRANCH  19  20
ENDBRANCH   5  19
TORSDOF 8
