REMARK  Name = 10953859
REMARK  6 active torsions:
REMARK  status: ('A' for Active; 'I' for Inactive)
REMARK    1  A    between atoms: C_2  and  C_10
REMARK    2  A    between atoms: C_3  and  O_6
REMARK    3  A    between atoms: C_4  and  O_8
REMARK    4  A    between atoms: C_10  and  O_11
REMARK    5  A    between atoms: C_10  and  C_13
REMARK    6  A    between atoms: C_13  and  O_14
REMARK                            x       y       z     vdW  Elec       q    Type
REMARK                         _______ _______ _______ _____ _____    ______ ____
ROOT
ATOM      1  O   UNL     1      -0.427   1.309  -0.413  0.00  0.00    -0.348 OA
ATOM      2  C   UNL     1      -0.011   0.151   0.334  0.00  0.00    +0.174 C 
ATOM      3  C   UNL     1      -1.075  -0.914   0.092  0.00  0.00    +0.169 C 
ATOM      4  C   UNL     1      -2.327  -0.075  -0.038  0.00  0.00    +0.169 C 
ATOM      5  C   UNL     1      -1.817   1.164  -0.755  0.00  0.00    +0.174 C 
ENDROOT
BRANCH   3   6
ATOM      6  O   UNL     1      -0.834  -1.600  -1.130  0.00  0.00    -0.379 OA
ATOM      7  H   UNL     1      -0.031  -2.138  -1.045  0.00  0.00    +0.211 HD
ENDBRANCH   3   6
BRANCH   4   8
ATOM      8  O   UNL     1      -2.791   0.278   1.260  0.00  0.00    -0.379 OA
ATOM      9  H   UNL     1      -3.115  -0.515   1.714  0.00  0.00    +0.211 HD
ENDBRANCH   4   8
BRANCH   2  10
ATOM     10  C   UNL     1       1.400  -0.231  -0.076  0.00  0.00    +0.169 C 
BRANCH  10  11
ATOM     11  O   UNL     1       1.783  -1.415   0.622  0.00  0.00    -0.379 OA
ATOM     12  H   UNL     1       1.158  -2.128   0.417  0.00  0.00    +0.211 HD
ENDBRANCH  10  11
BRANCH  10  13
ATOM     13  C   UNL     1       2.401   0.867   0.267  0.00  0.00    +0.169 C 
BRANCH  13  14
ATOM     14  O   UNL     1       3.697   0.466  -0.163  0.00  0.00    -0.379 OA
ATOM     15  H   UNL     1       4.339   1.161   0.053  0.00  0.00    +0.211 HD
ENDBRANCH  13  14
ENDBRANCH  10  13
ENDBRANCH   2  10
TORSDOF 6
