REMARK  Name = 73330464
REMARK  7 active torsions:
REMARK  status: ('A' for Active; 'I' for Inactive)
REMARK    1  A    between atoms: O_1  and  C_3
REMARK    2  A    between atoms: O_1  and  C_10
REMARK    3  A    between atoms: C_3  and  C_4
REMARK    4  A    between atoms: C_5  and  C_7
REMARK    5  A    between atoms: C_7  and  O_8
REMARK    6  A    between atoms: C_10  and  C_11
REMARK    7  A    between atoms: C_11  and  N_14
REMARK                            x       y       z     vdW  Elec       q    Type
REMARK                         _______ _______ _______ _____ _____    ______ ____
ROOT
ATOM      1  O   UNL     1       0.280   0.905  -0.581  0.00  0.00    -0.444 OA
ENDROOT
BRANCH   1   3
ATOM      2  O   UNL     1      -1.094   2.509   0.356  0.00  0.00    -0.245 OA
ATOM      3  C   UNL     1      -0.894   1.394  -0.098  0.00  0.00    +0.342 C 
BRANCH   3   4
ATOM      4  C   UNL     1      -1.908   0.323  -0.218  0.00  0.00    +0.089 C 
ATOM      5  C   UNL     1      -3.160   0.555   0.194  0.00  0.00    +0.089 C 
BRANCH   5   7
ATOM      6  O   UNL     1      -3.974  -1.631  -0.380  0.00  0.00    -0.245 OA
ATOM      7  C   UNL     1      -4.173  -0.516   0.074  0.00  0.00    +0.342 C 
BRANCH   7   8
ATOM      8  O   UNL     1      -5.348  -0.027   0.557  0.00  0.00    -0.441 OA
ATOM      9  C   UNL     1      -6.454  -0.936   0.520  0.00  0.00    +0.256 C 
ENDBRANCH   7   8
ENDBRANCH   5   7
ENDBRANCH   3   4
ENDBRANCH   1   3
BRANCH   1  10
ATOM     10  C   UNL     1       1.386   1.813  -0.543  0.00  0.00    +0.231 C 
BRANCH  10  11
ATOM     11  C   UNL     1       2.617   1.132  -1.111  0.00  0.00    +0.149 C 
BRANCH  11  14
ATOM     12  O   UNL     1       4.398   1.024   1.208  0.00  0.00    -0.269 OA
ATOM     13  O   UNL     1       1.800  -1.668  -1.503  0.00  0.00    -0.269 OA
ATOM     14  N   UNL     1       2.987  -0.022  -0.337  0.00  0.00    -0.219 N 
ATOM     15  C   UNL     1       3.997  -1.349   1.307  0.00  0.00    +0.063 C 
ATOM     16  C   UNL     1       3.150  -2.236   0.409  0.00  0.00    +0.063 C 
ATOM     17  C   UNL     1       3.842   0.036   0.750  0.00  0.00    +0.255 C 
ATOM     18  C   UNL     1       2.547  -1.306  -0.605  0.00  0.00    +0.255 C 
ENDBRANCH  11  14
ENDBRANCH  10  11
ENDBRANCH   1  10
TORSDOF 7
