REMARK  Name = 3634
REMARK  8 active torsions:
REMARK  status: ('A' for Active; 'I' for Inactive)
REMARK    1  A    between atoms: C_3  and  N_16
REMARK    2  A    between atoms: C_6  and  C_26
REMARK    3  A    between atoms: N_16  and  C_18
REMARK    4  A    between atoms: C_18  and  C_19
REMARK    5  A    between atoms: C_19  and  N_20
REMARK    6  A    between atoms: N_20  and  C_22
REMARK    7  A    between atoms: N_20  and  C_24
REMARK    8  A    between atoms: C_26  and  O_27
REMARK                            x       y       z     vdW  Elec       q    Type
REMARK                         _______ _______ _______ _____ _____    ______ ____
ROOT
ATOM      1  S   UNL     1      -3.689   0.984   0.007  0.00  0.00    -0.087 S 
ATOM      2  O   UNL     1      -0.291  -1.815  -0.358  0.00  0.00    -0.286 OA
ATOM      3  C   UNL     1       0.401   0.819  -0.048  0.00  0.00    +0.048 C 
ATOM      4  C   UNL     1      -0.944   0.409  -0.052  0.00  0.00    +0.058 A 
ATOM      5  C   UNL     1      -1.958   1.366   0.026  0.00  0.00    +0.032 A 
ATOM      6  C   UNL     1      -1.609   2.725   0.109  0.00  0.00    +0.013 C 
ATOM      7  C   UNL     1      -1.222  -1.044  -0.143  0.00  0.00    +0.198 A 
ATOM      8  C   UNL     1       0.734   2.171   0.036  0.00  0.00    +0.014 C 
ATOM      9  C   UNL     1      -2.586  -1.595   0.029  0.00  0.00    +0.045 A 
ATOM     10  C   UNL     1      -0.272   3.124   0.115  0.00  0.00    -0.000 C 
ATOM     11  C   UNL     1      -3.721  -0.784   0.114  0.00  0.00    +0.033 A 
ATOM     12  C   UNL     1      -2.723  -2.993   0.107  0.00  0.00    +0.004 C 
ATOM     13  C   UNL     1      -4.979  -1.388   0.276  0.00  0.00    +0.007 C 
ATOM     14  C   UNL     1      -3.977  -3.578   0.270  0.00  0.00    +0.000 C 
ATOM     15  C   UNL     1      -5.107  -2.775   0.355  0.00  0.00    +0.001 C 
ENDROOT
BRANCH   3  16
ATOM     16  N   UNL     1       1.492  -0.083  -0.106  0.00  0.00    -0.334 N 
ATOM     17  H   UNL     1       1.304  -1.048  -0.166  0.00  0.00    +0.147 HD
BRANCH  16  18
ATOM     18  C   UNL     1       2.852   0.349  -0.080  0.00  0.00    +0.064 C 
BRANCH  18  19
ATOM     19  C   UNL     1       3.787  -0.855  -0.128  0.00  0.00    -0.056 C 
BRANCH  19  20
ATOM     20  N   UNL     1       5.178  -0.413  -0.119  0.00  0.00    +0.388 N 
ATOM     21  H   UNL     1       5.329   0.180  -0.936  0.00  0.00    -0.080 HD
BRANCH  20  22
ATOM     22  C   UNL     1       6.083  -1.559  -0.202  0.00  0.00    -0.077 C 
ATOM     23  C   UNL     1       5.806  -2.389  -1.444  0.00  0.00    -0.025 C 
ENDBRANCH  20  22
BRANCH  20  24
ATOM     24  C   UNL     1       5.460   0.373   1.083  0.00  0.00    -0.077 C 
ATOM     25  C   UNL     1       6.887   0.896   1.074  0.00  0.00    -0.025 C 
ENDBRANCH  20  24
ENDBRANCH  19  20
ENDBRANCH  18  19
ENDBRANCH  16  18
ENDBRANCH   3  16
BRANCH   6  26
ATOM     26  C   UNL     1      -2.633   3.816   0.195  0.00  0.00    +0.164 C 
BRANCH  26  27
ATOM     27  O   UNL     1      -2.970   4.240  -1.117  0.00  0.00    -0.377 OA
ATOM     28  H   UNL     1      -3.633   4.947  -1.068  0.00  0.00    +0.211 HD
ENDBRANCH  26  27
ENDBRANCH   6  26
TORSDOF 8
