REMARK  Name = 118115473
REMARK  2 active torsions:
REMARK  status: ('A' for Active; 'I' for Inactive)
REMARK    1  A    between atoms: N_1  and  C_15
REMARK    2  A    between atoms: C_21  and  C_22
REMARK                            x       y       z     vdW  Elec       q    Type
REMARK                         _______ _______ _______ _____ _____    ______ ____
ROOT
ATOM      1  N   UNL     1       0.861  -1.102   0.188  0.00  0.00    -0.321 N 
ATOM      2  N   UNL     1       1.447   1.124   0.740  0.00  0.00    -0.233 NA
ATOM      3  N   UNL     1       5.231   0.340  -0.439  0.00  0.00    -0.300 N 
ATOM      4  N   UNL     1       3.707   1.983   0.451  0.00  0.00    -0.233 NA
ATOM      5  C   UNL     1       1.805  -0.094   0.270  0.00  0.00    +0.113 C 
ATOM      6  C   UNL     1       3.123  -0.318  -0.125  0.00  0.00    +0.131 C 
ATOM      7  C   UNL     1       3.999   0.753  -0.006  0.00  0.00    +0.117 C 
ATOM      8  C   UNL     1       3.867  -1.406  -0.649  0.00  0.00    +0.004 C 
ATOM      9  C   UNL     1       5.162  -0.971  -0.833  0.00  0.00    +0.059 C 
ATOM     10  C   UNL     1       2.408   2.074   0.801  0.00  0.00    +0.252 C 
ATOM     11  H   UNL     1       1.145  -1.979  -0.157  0.00  0.00    +0.148 HD
ATOM     12  H   UNL     1       6.042   0.899  -0.464  0.00  0.00    +0.153 HD
ENDROOT
BRANCH   1  15
ATOM     13  O   UNL     1      -2.783   2.137  -0.878  0.00  0.00    -0.270 OA
ATOM     14  N   UNL     1      -2.720  -0.102  -0.237  0.00  0.00    -0.276 N 
ATOM     15  C   UNL     1      -0.522  -0.938   0.580  0.00  0.00    +0.090 C 
ATOM     16  C   UNL     1      -3.407  -1.364   0.130  0.00  0.00    +0.076 C 
ATOM     17  C   UNL     1      -1.146  -2.303   0.859  0.00  0.00    +0.023 C 
ATOM     18  C   UNL     1      -2.623  -2.142   1.200  0.00  0.00    +0.022 C 
ATOM     19  C   UNL     1      -1.282  -0.207  -0.523  0.00  0.00    +0.113 C 
ATOM     20  C   UNL     1      -3.689  -2.213  -1.112  0.00  0.00    +0.022 C 
ATOM     21  C   UNL     1      -3.348   1.126  -0.458  0.00  0.00    +0.249 C 
BRANCH  21  22
ATOM     22  C   UNL     1      -4.795   1.226  -0.173  0.00  0.00    +0.058 C 
ATOM     23  C   UNL     1      -5.295   2.400   0.216  0.00  0.00    +0.005 C 
ENDBRANCH  21  22
ENDBRANCH   1  15
TORSDOF 2
