57855696
  -OEChem-05201910393D

 56 58  0     0  0  0  0  0  0999 V2000
    7.6583   -0.4556    0.0122 F   0  0  0  0  0  0  0  0  0  0  0  0
    6.8543    0.2571   -1.8785 F   0  0  0  0  0  0  0  0  0  0  0  0
    3.4081   -1.6503    1.2453 O   0  0  0  0  0  0  0  0  0  0  0  0
    0.4815    3.2580   -0.5965 O   0  0  0  0  0  0  0  0  0  0  0  0
    5.4462   -0.6015   -0.3271 O   0  0  0  0  0  0  0  0  0  0  0  0
   -3.1137   -1.8534   -0.2598 O   0  0  0  0  0  0  0  0  0  0  0  0
   -3.3122    0.1543    1.9369 O   0  0  0  0  0  0  0  0  0  0  0  0
   -0.5102    1.7732    0.7916 N   0  0  0  0  0  0  0  0  0  0  0  0
   -3.6401    1.9089    0.4577 N   0  0  0  0  0  0  0  0  0  0  0  0
    1.8221    1.3984   -0.0011 C   0  0  0  0  0  0  0  0  0  0  0  0
    2.5180   -2.7189    0.9286 C   0  0  0  0  0  0  0  0  0  0  0  0
    3.2312   -0.4781    0.5742 C   0  0  0  0  0  0  0  0  0  0  0  0
    2.0152    0.1972    0.6811 C   0  0  0  0  0  0  0  0  0  0  0  0
    0.5647    2.0970    0.1091 C   0  0  0  0  0  0  0  0  0  0  0  0
    4.2541    0.0482   -0.2146 C   0  0  0  0  0  0  0  0  0  0  0  0
   -1.3744    2.8018    0.5164 C   0  0  0  0  0  0  0  0  0  0  0  0
   -2.7246    2.8352    1.0940 C   0  0  0  0  0  0  0  0  0  0  0  0
    2.8451    1.9246   -0.7901 C   0  0  0  0  0  0  0  0  0  0  0  0
    4.0611    1.2495   -0.8967 C   0  0  0  0  0  0  0  0  0  0  0  0
    3.3176   -3.8905    0.3792 C   0  0  0  0  0  0  0  0  0  0  0  0
    1.7329   -3.1026    2.1736 C   0  0  0  0  0  0  0  0  0  0  0  0
   -0.7763    3.7057   -0.3261 C   0  0  0  0  0  0  0  0  0  0  0  0
   -4.8034   -0.2038    0.1631 C   0  0  0  0  0  0  0  0  0  0  0  0
   -3.8550    0.6316    0.9439 C   0  0  0  0  0  0  0  0  0  0  0  0
   -4.3943   -1.4101   -0.4054 C   0  0  0  0  0  0  0  0  0  0  0  0
   -6.1184    0.2325    0.0026 C   0  0  0  0  0  0  0  0  0  0  0  0
   -5.3003   -2.1800   -1.1346 C   0  0  0  0  0  0  0  0  0  0  0  0
   -7.0246   -0.5375   -0.7266 C   0  0  0  0  0  0  0  0  0  0  0  0
   -6.6154   -1.7437   -1.2953 C   0  0  0  0  0  0  0  0  0  0  0  0
   -2.3571   -2.0491   -1.4526 C   0  0  0  0  0  0  0  0  0  0  0  0
    6.6047    0.1934   -0.5475 C   0  0  0  0  0  0  0  0  0  0  0  0
   -0.8949   -1.7913   -1.1569 C   0  0  0  0  0  0  0  0  0  0  0  0
    1.8063   -2.4221    0.1480 H   0  0  0  0  0  0  0  0  0  0  0  0
    1.2236   -0.2100    1.3051 H   0  0  0  0  0  0  0  0  0  0  0  0
   -2.6760    2.6140    2.1662 H   0  0  0  0  0  0  0  0  0  0  0  0
   -3.1648    3.8329    0.9882 H   0  0  0  0  0  0  0  0  0  0  0  0
    2.7305    2.8544   -1.3415 H   0  0  0  0  0  0  0  0  0  0  0  0
    4.8201    1.6794   -1.5433 H   0  0  0  0  0  0  0  0  0  0  0  0
    1.1577   -2.2517    2.5518 H   0  0  0  0  0  0  0  0  0  0  0  0
    1.0402   -3.9246    1.9685 H   0  0  0  0  0  0  0  0  0  0  0  0
    2.4079   -3.4077    2.9809 H   0  0  0  0  0  0  0  0  0  0  0  0
    3.8686   -3.5896   -0.5184 H   0  0  0  0  0  0  0  0  0  0  0  0
    2.6676   -4.7328    0.1236 H   0  0  0  0  0  0  0  0  0  0  0  0
    4.0631   -4.2301    1.1066 H   0  0  0  0  0  0  0  0  0  0  0  0
   -4.1129    2.2113   -0.3893 H   0  0  0  0  0  0  0  0  0  0  0  0
   -1.0679    4.6353   -0.7914 H   0  0  0  0  0  0  0  0  0  0  0  0
   -6.4537    1.1677    0.4437 H   0  0  0  0  0  0  0  0  0  0  0  0
   -4.9992   -3.1260   -1.5763 H   0  0  0  0  0  0  0  0  0  0  0  0
   -8.0491   -0.1988   -0.8504 H   0  0  0  0  0  0  0  0  0  0  0  0
   -7.3216   -2.3442   -1.8612 H   0  0  0  0  0  0  0  0  0  0  0  0
   -2.4915   -3.0817   -1.7925 H   0  0  0  0  0  0  0  0  0  0  0  0
   -2.6888   -1.3688   -2.2470 H   0  0  0  0  0  0  0  0  0  0  0  0
    6.5614    1.1971   -0.1101 H   0  0  0  0  0  0  0  0  0  0  0  0
   -0.7504   -0.7634   -0.8108 H   0  0  0  0  0  0  0  0  0  0  0  0
   -0.5473   -2.4500   -0.3550 H   0  0  0  0  0  0  0  0  0  0  0  0
   -0.2782   -1.9556   -2.0447 H   0  0  0  0  0  0  0  0  0  0  0  0
  1 31  1  0  0  0  0
  2 31  1  0  0  0  0
  3 11  1  0  0  0  0
  3 12  1  0  0  0  0
  4 14  1  0  0  0  0
  4 22  1  0  0  0  0
  5 15  1  0  0  0  0
  5 31  1  0  0  0  0
  6 25  1  0  0  0  0
  6 30  1  0  0  0  0
  7 24  2  0  0  0  0
  8 14  2  0  0  0  0
  8 16  1  0  0  0  0
  9 17  1  0  0  0  0
  9 24  1  0  0  0  0
  9 45  1  0  0  0  0
 10 13  2  0  0  0  0
 10 14  1  0  0  0  0
 10 18  1  0  0  0  0
 11 20  1  0  0  0  0
 11 21  1  0  0  0  0
 11 33  1  0  0  0  0
 12 13  1  0  0  0  0
 12 15  2  0  0  0  0
 13 34  1  0  0  0  0
 15 19  1  0  0  0  0
 16 17  1  0  0  0  0
 16 22  2  0  0  0  0
 17 35  1  0  0  0  0
 17 36  1  0  0  0  0
 18 19  2  0  0  0  0
 18 37  1  0  0  0  0
 19 38  1  0  0  0  0
 20 42  1  0  0  0  0
 20 43  1  0  0  0  0
 20 44  1  0  0  0  0
 21 39  1  0  0  0  0
 21 40  1  0  0  0  0
 21 41  1  0  0  0  0
 22 46  1  0  0  0  0
 23 24  1  0  0  0  0
 23 25  1  0  0  0  0
 23 26  2  0  0  0  0
 25 27  2  0  0  0  0
 26 28  1  0  0  0  0
 26 47  1  0  0  0  0
 27 29  1  0  0  0  0
 27 48  1  0  0  0  0
 28 29  2  0  0  0  0
 28 49  1  0  0  0  0
 29 50  1  0  0  0  0
 30 32  1  0  0  0  0
 30 51  1  0  0  0  0
 30 52  1  0  0  0  0
 31 53  1  0  0  0  0
 32 54  1  0  0  0  0
 32 55  1  0  0  0  0
 32 56  1  0  0  0  0
M  END
> <DATABASE_ID>
DB14987

> <DATABASE_NAME>
drugbank

> <ORIGINAL_SOURCE>
PUBCHEM

> <ORIGINAL_SOURCE_URL>
https://pubchem.ncbi.nlm.nih.gov/rest/pug/compound/inchikey/VFBILHPIHUPBPZ-UHFFFAOYSA-N/SDF?record_type=3d

> <SMILES>
CCOC1=CC=CC=C1C(=O)NCC1=COC(=N1)C1=CC=C(OC(F)F)C(OC(C)C)=C1

> <INCHI_IDENTIFIER>
InChI=1S/C23H24F2N2O5/c1-4-29-18-8-6-5-7-17(18)21(28)26-12-16-13-30-22(27-16)15-9-10-19(32-23(24)25)20(11-15)31-14(2)3/h5-11,13-14,23H,4,12H2,1-3H3,(H,26,28)

> <INCHI_KEY>
VFBILHPIHUPBPZ-UHFFFAOYSA-N

> <FORMULA>
C23H24F2N2O5

> <MOLECULAR_WEIGHT>
446.451

> <EXACT_MASS>
446.165328207

> <JCHEM_ACCEPTOR_COUNT>
5

> <JCHEM_ATOM_COUNT>
56

> <JCHEM_AVERAGE_POLARIZABILITY>
45.614483128862766

> <JCHEM_BIOAVAILABILITY>
1

> <JCHEM_DONOR_COUNT>
1

> <JCHEM_FORMAL_CHARGE>
0

> <JCHEM_GHOSE_FILTER>
1

> <JCHEM_IUPAC>
N-({2-[4-(difluoromethoxy)-3-(propan-2-yloxy)phenyl]-1,3-oxazol-4-yl}methyl)-2-ethoxybenzamide

> <ALOGPS_LOGP>
4.68

> <JCHEM_LOGP>
4.404104198333334

> <ALOGPS_LOGS>
-4.29

> <JCHEM_MDDR_LIKE_RULE>
1

> <JCHEM_NUMBER_OF_RINGS>
3

> <JCHEM_PHYSIOLOGICAL_CHARGE>
0

> <JCHEM_PKA_STRONGEST_ACIDIC>
13.875101256279434

> <JCHEM_PKA_STRONGEST_BASIC>
-0.14222091404151352

> <JCHEM_POLAR_SURFACE_AREA>
82.82000000000001

> <JCHEM_REFRACTIVITY>
123.24900000000004

> <JCHEM_ROTATABLE_BOND_COUNT>
10

> <JCHEM_RULE_OF_FIVE>
1

> <ALOGPS_SOLUBILITY>
2.27e-02 g/l

> <JCHEM_TRADITIONAL_IUPAC>
(2R)-14-fluoro-2-methyl-6,9,10,19-tetraazapentacyclo[14.2.1.0^{2,6}.0^{8,18}.0^{12,17}]nonadeca-1(18),8,12(17),13,15-pentaen-11-one

> <JCHEM_VEBER_RULE>
0

> <DRUGBANK_ID>
DB14987

> <DRUG_GROUPS>
investigational

> <GENERIC_NAME>
Difamilast

$$$$
