REMARK  Name = 6238
REMARK  2 active torsions:
REMARK  status: ('A' for Active; 'I' for Inactive)
REMARK    1  A    between atoms: C_6  and  C_22
REMARK    2  A    between atoms: C_6  and  O_24
REMARK                            x       y       z     vdW  Elec       q    Type
REMARK                         _______ _______ _______ _____ _____    ______ ____
ROOT
ATOM      1  O   UNL     1       6.213  -0.280  -1.065  0.00  0.00    -0.291 OA
ATOM      2  C   UNL     1      -2.162  -0.228   0.183  0.00  0.00    +0.029 C 
ATOM      3  C   UNL     1      -1.292   0.959  -0.290  0.00  0.00    +0.003 C 
ATOM      4  C   UNL     1       0.113   0.959   0.324  0.00  0.00    +0.001 C 
ATOM      5  C   UNL     1       0.837  -0.367  -0.067  0.00  0.00    +0.003 C 
ATOM      6  C   UNL     1      -3.494   0.127  -0.527  0.00  0.00    +0.139 C 
ATOM      7  C   UNL     1       2.312  -0.446   0.488  0.00  0.00    +0.016 C 
ATOM      8  C   UNL     1      -1.466  -1.520  -0.275  0.00  0.00    +0.003 C 
ATOM      9  C   UNL     1      -0.026  -1.615   0.262  0.00  0.00    +0.000 C 
ATOM     10  C   UNL     1      -2.190   2.172  -0.060  0.00  0.00    +0.003 C 
ATOM     11  C   UNL     1      -3.612   1.660  -0.368  0.00  0.00    +0.034 C 
ATOM     12  C   UNL     1       0.933   2.165  -0.153  0.00  0.00    +0.004 C 
ATOM     13  C   UNL     1      -2.369  -0.266   1.723  0.00  0.00    +0.003 C 
ATOM     14  C   UNL     1       3.058   0.850   0.146  0.00  0.00    -0.042 C 
ATOM     15  C   UNL     1       2.337   2.145   0.438  0.00  0.00    +0.022 C 
ATOM     16  C   UNL     1       3.022  -1.660  -0.180  0.00  0.00    +0.012 C 
ATOM     17  C   UNL     1       2.343  -0.631   2.022  0.00  0.00    +0.004 C 
ATOM     18  C   UNL     1       4.535  -1.639  -0.032  0.00  0.00    +0.069 C 
ATOM     19  C   UNL     1       4.300   0.890  -0.365  0.00  0.00    +0.029 C 
ATOM     20  C   UNL     1       5.096  -0.344  -0.556  0.00  0.00    +0.173 C 
ENDROOT
BRANCH   6  22
ATOM     21  O   UNL     1      -5.353  -0.187   0.936  0.00  0.00    -0.294 OA
ATOM     22  C   UNL     1      -4.682  -0.620   0.000  0.00  0.00    +0.175 C 
ATOM     23  C   UNL     1      -5.016  -1.923  -0.673  0.00  0.00    +0.075 C 
ENDBRANCH   6  22
BRANCH   6  24
ATOM     24  O   UNL     1      -3.437  -0.200  -1.912  0.00  0.00    -0.380 OA
ATOM     25  H   UNL     1      -2.684   0.253  -2.321  0.00  0.00    +0.211 HD
ENDBRANCH   6  24
TORSDOF 2
