REMARK  Name = 71245288
REMARK  5 active torsions:
REMARK  status: ('A' for Active; 'I' for Inactive)
REMARK    1  A    between atoms: C_3  and  C_9
REMARK    2  A    between atoms: C_6  and  N_14
REMARK    3  A    between atoms: C_15  and  C_18
REMARK    4  A    between atoms: C_22  and  C_30
REMARK    5  A    between atoms: N_27  and  C_32
REMARK                            x       y       z     vdW  Elec       q    Type
REMARK                         _______ _______ _______ _____ _____    ______ ____
ROOT
ATOM      1  O   UNL     1      -0.056  -3.829   0.720  0.00  0.00    -0.270 OA
ATOM      2  N   UNL     1       0.595  -1.712  -0.056  0.00  0.00    -0.259 N 
ATOM      3  C   UNL     1      -0.337  -2.711   0.261  0.00  0.00    +0.253 C 
ATOM      4  H   UNL     1       0.220  -0.875  -0.413  0.00  0.00    +0.157 HD
ATOM      5  N   UNL     1       2.716  -0.663  -0.300  0.00  0.00    -0.388 NA
ATOM      6  C   UNL     1       4.058  -0.747  -0.163  0.00  0.00    +0.166 C 
ATOM      7  C   UNL     1       2.005  -1.751   0.069  0.00  0.00    +0.167 C 
ATOM      8  C   UNL     1       4.719  -1.863   0.325  0.00  0.00    +0.031 C 
ATOM      9  C   UNL     1       2.570  -2.914   0.568  0.00  0.00    +0.101 C 
ATOM     10  C   UNL     1       3.954  -2.963   0.695  0.00  0.00    -0.015 C 
ENDROOT
BRANCH   3  15
ATOM     11  F   UNL     1      -2.271  -4.635  -0.406  0.00  0.00    -0.204 F 
ATOM     12  C   UNL     1      -3.488  -0.706  -0.032  0.00  0.00    +0.046 C 
ATOM     13  C   UNL     1      -4.412  -1.698  -0.362  0.00  0.00    -0.006 C 
ATOM     14  C   UNL     1      -2.149  -1.040   0.172  0.00  0.00    +0.021 C 
ATOM     15  C   UNL     1      -1.734  -2.366   0.047  0.00  0.00    +0.082 C 
ATOM     16  C   UNL     1      -3.997  -3.023  -0.488  0.00  0.00    +0.027 C 
ATOM     17  C   UNL     1      -5.854  -1.374  -0.589  0.00  0.00    +0.032 C 
ATOM     18  C   UNL     1      -2.658  -3.357  -0.283  0.00  0.00    +0.144 C 
BRANCH  12  20
ATOM     19  N   UNL     1      -4.956   2.403   0.860  0.00  0.00    -0.255 NA
ATOM     20  N   UNL     1      -3.879   0.616   0.097  0.00  0.00    -0.282 N 
ATOM     21  C   UNL     1      -4.092   2.765  -0.143  0.00  0.00    +0.053 C 
ATOM     22  C   UNL     1      -3.413   1.674  -0.632  0.00  0.00    +0.134 C 
ATOM     23  C   UNL     1      -4.803   1.103   0.980  0.00  0.00    +0.219 C 
BRANCH  21  24
ATOM     24  C   UNL     1      -3.915   4.195  -0.644  0.00  0.00    +0.037 C 
ATOM     25  C   UNL     1      -2.538   4.792  -0.646  0.00  0.00    +0.006 C 
ATOM     26  C   UNL     1      -3.561   5.266   0.345  0.00  0.00    +0.006 C 
ENDBRANCH  21  24
ENDBRANCH  12  20
ENDBRANCH   3  15
BRANCH   6  30
ATOM     27  N   UNL     1       4.602   1.661  -0.008  0.00  0.00    -0.252 N 
ATOM     28  N   UNL     1       5.691   0.500  -1.509  0.00  0.00    -0.129 NA
ATOM     29  N   UNL     1       6.125   1.809  -1.571  0.00  0.00    -0.128 NA
ATOM     30  C   UNL     1       4.778   0.432  -0.567  0.00  0.00    +0.188 C 
ATOM     31  C   UNL     1       5.462   2.489  -0.664  0.00  0.00    +0.192 C 
BRANCH  27  32
ATOM     32  C   UNL     1       3.703   2.035   1.057  0.00  0.00    +0.080 C 
ATOM     33  C   UNL     1       4.464   2.546   2.283  0.00  0.00    +0.022 C 
ATOM     34  C   UNL     1       2.672   3.064   0.588  0.00  0.00    +0.022 C 
ENDBRANCH  27  32
ENDBRANCH   6  30
TORSDOF 5
