REMARK  Name = 11524127
REMARK  2 active torsions:
REMARK  status: ('A' for Active; 'I' for Inactive)
REMARK    1  A    between atoms: C_11  and  C_22
REMARK    2  A    between atoms: C_23  and  O_28
REMARK                            x       y       z     vdW  Elec       q    Type
REMARK                         _______ _______ _______ _____ _____    ______ ____
ROOT
ATOM      1  F   UNL     1       4.364  -0.375   1.189  0.00  0.00    -0.204 F 
ATOM      2  O   UNL     1      -2.195  -2.968  -1.939  0.00  0.00    -0.275 OA
ATOM      3  N   UNL     1      -0.947  -1.969  -0.245  0.00  0.00    -0.272 N 
ATOM      4  N   UNL     1       0.866   1.025  -1.538  0.00  0.00    -0.355 N 
ATOM      5  C   UNL     1       1.191  -1.633   0.975  0.00  0.00    +0.038 C 
ATOM      6  C   UNL     1       2.017  -1.805   2.226  0.00  0.00    +0.006 C 
ATOM      7  C   UNL     1       2.256  -2.704   1.048  0.00  0.00    +0.006 C 
ATOM      8  C   UNL     1      -0.269  -2.055   1.072  0.00  0.00    +0.098 C 
ATOM      9  C   UNL     1       1.439  -0.426   0.028  0.00  0.00    -0.004 A 
ATOM     10  C   UNL     1       0.416  -0.038  -0.805  0.00  0.00    +0.052 A 
ATOM     11  C   UNL     1      -0.943  -0.648  -0.939  0.00  0.00    +0.138 C 
ATOM     12  C   UNL     1       2.565   0.401  -0.207  0.00  0.00    +0.040 A 
ATOM     13  C   UNL     1       2.169   1.315  -1.194  0.00  0.00    +0.058 A 
ATOM     14  C   UNL     1      -1.631  -3.036  -0.844  0.00  0.00    +0.227 C 
ATOM     15  C   UNL     1       3.883   0.488   0.287  0.00  0.00    +0.141 C 
ATOM     16  C   UNL     1       3.020   2.311  -1.691  0.00  0.00    +0.017 C 
ATOM     17  C   UNL     1      -1.661  -4.339  -0.085  0.00  0.00    +0.095 C 
ATOM     18  C   UNL     1       4.743   1.480  -0.202  0.00  0.00    +0.030 C 
ATOM     19  C   UNL     1       4.315   2.378  -1.175  0.00  0.00    +0.004 C 
ATOM     20  H   UNL     1       0.337   1.510  -2.212  0.00  0.00    +0.166 HD
ENDROOT
BRANCH  11  22
ATOM     21 CL   UNL     1      -5.499   2.852   0.888  0.00  0.00    -0.082 Cl
ATOM     22  C   UNL     1      -2.084   0.241  -0.468  0.00  0.00    +0.035 C 
ATOM     23  C   UNL     1      -1.894   1.147   0.574  0.00  0.00    +0.137 C 
ATOM     24  C   UNL     1      -3.325   0.140  -1.092  0.00  0.00    +0.002 C 
ATOM     25  C   UNL     1      -2.951   1.954   0.994  0.00  0.00    +0.048 C 
ATOM     26  C   UNL     1      -4.382   0.948  -0.672  0.00  0.00    +0.011 C 
ATOM     27  C   UNL     1      -4.195   1.855   0.371  0.00  0.00    +0.061 C 
BRANCH  23  28
ATOM     28  O   UNL     1      -0.685   1.255   1.193  0.00  0.00    -0.472 OA
ATOM     29  C   UNL     1      -0.582   2.208   2.250  0.00  0.00    +0.252 C 
ENDBRANCH  23  28
ENDBRANCH  11  22
TORSDOF 2
