REMARK  Name = 5284571
REMARK  5 active torsions:
REMARK  status: ('A' for Active; 'I' for Inactive)
REMARK    1  A    between atoms: C_1  and  C_15
REMARK    2  A    between atoms: C_2  and  O_13
REMARK    3  A    between atoms: C_3  and  C_9
REMARK    4  A    between atoms: C_16  and  C_17
REMARK    5  A    between atoms: C_20  and  C_25
REMARK                            x       y       z     vdW  Elec       q    Type
REMARK                         _______ _______ _______ _____ _____    ______ ____
ROOT
ATOM      1  C   UNL     1      -1.819   0.210  -0.274  0.00  0.00    +0.034 C 
ATOM      2  C   UNL     1      -2.510  -0.961  -0.544  0.00  0.00    +0.134 C 
ATOM      3  C   UNL     1      -4.574   0.154   0.035  0.00  0.00    +0.034 C 
ATOM      4  C   UNL     1      -2.480   1.353   0.149  0.00  0.00    +0.003 C 
ATOM      5  C   UNL     1      -3.896  -0.989  -0.389  0.00  0.00    +0.039 C 
ATOM      6  C   UNL     1      -3.865   1.325   0.304  0.00  0.00    +0.003 C 
ENDROOT
BRANCH   3   9
ATOM      7  N   UNL     1      -6.724   1.250   0.621  0.00  0.00    -0.343 N 
ATOM      8  N   UNL     1      -6.686  -0.987  -0.053  0.00  0.00    -0.285 NA
ATOM      9  C   UNL     1      -6.019   0.124   0.198  0.00  0.00    +0.117 C 
ATOM     10  H   UNL     1      -7.702   1.208   0.724  0.00  0.00    +0.144 HD
ATOM     11  H   UNL     1      -6.243   2.087   0.816  0.00  0.00    +0.144 HD
ATOM     12  H   UNL     1      -7.665  -1.009   0.056  0.00  0.00    +0.188 HD
ENDBRANCH   3   9
BRANCH   2  13
ATOM     13  O   UNL     1      -1.872  -2.092  -0.961  0.00  0.00    -0.506 OA
ATOM     14  H   UNL     1      -0.941  -2.091  -1.071  0.00  0.00    +0.292 HD
ENDBRANCH   2  13
BRANCH   1  15
ATOM     15  C   UNL     1      -0.354   0.266  -0.430  0.00  0.00    +0.003 C 
ATOM     16  C   UNL     1       0.545  -0.057   0.529  0.00  0.00    +0.000 C 
BRANCH  16  17
ATOM     17  C   UNL     1       1.991  -0.020   0.370  0.00  0.00    +0.000 C 
ATOM     18  C   UNL     1       2.561   0.742  -0.650  0.00  0.00    +0.000 C 
ATOM     19  C   UNL     1       2.807  -0.747   1.236  0.00  0.00    +0.000 C 
ATOM     20  C   UNL     1       4.763   0.049   0.063  0.00  0.00    +0.031 C 
ATOM     21  C   UNL     1       3.946   0.776  -0.804  0.00  0.00    +0.003 C 
ATOM     22  C   UNL     1       4.193  -0.712   1.083  0.00  0.00    +0.003 C 
BRANCH  20  25
ATOM     23  N   UNL     1       6.807   0.836  -1.107  0.00  0.00    -0.343 N 
ATOM     24  N   UNL     1       6.978  -0.608   0.722  0.00  0.00    -0.285 NA
ATOM     25  C   UNL     1       6.208   0.085  -0.098  0.00  0.00    +0.117 C 
ATOM     26  H   UNL     1       7.787   0.846  -1.198  0.00  0.00    +0.144 HD
ATOM     27  H   UNL     1       6.250   1.357  -1.730  0.00  0.00    +0.144 HD
ATOM     28  H   UNL     1       7.957  -0.585   0.615  0.00  0.00    +0.188 HD
ENDBRANCH  20  25
ENDBRANCH  16  17
ENDBRANCH   1  15
TORSDOF 5
