REMARK  Name = 3301
REMARK  3 active torsions:
REMARK  status: ('A' for Active; 'I' for Inactive)
REMARK    1  A    between atoms: C_1  and  N_2
REMARK    2  A    between atoms: C_1  and  C_6
REMARK    3  A    between atoms: C_6  and  N_7
REMARK                            x       y       z     vdW  Elec       q    Type
REMARK                         _______ _______ _______ _____ _____    ______ ____
ROOT
ATOM      1  C   UNL     1       0.563  -0.515   0.004  0.00  0.00    -0.111 C 
ENDROOT
BRANCH   1   2
ATOM      2  N   UNL     1       1.858   0.156  -0.004  0.00  0.00    +0.379 N 
ATOM      3  H   UNL     1       2.602  -0.542  -0.004  0.00  0.00    -0.089 HD
ATOM      4  H   UNL     1       1.943   0.743   0.825  0.00  0.00    -0.089 HD
ATOM      5  H   UNL     1       1.935   0.735  -0.840  0.00  0.00    -0.089 HD
ENDBRANCH   1   2
BRANCH   1   6
ATOM      6  C   UNL     1      -0.563   0.515   0.004  0.00  0.00    -0.111 C 
BRANCH   6   7
ATOM      7  N   UNL     1      -1.858  -0.156  -0.004  0.00  0.00    +0.379 N 
ATOM      8  H   UNL     1      -2.603   0.542  -0.004  0.00  0.00    -0.089 HD
ATOM      9  H   UNL     1      -1.943  -0.743   0.825  0.00  0.00    -0.089 HD
ATOM     10  H   UNL     1      -1.935  -0.735  -0.840  0.00  0.00    -0.089 HD
ENDBRANCH   6   7
ENDBRANCH   1   6
TORSDOF 3
