REMARK  Name = 66553195
REMARK  7 active torsions:
REMARK  status: ('A' for Active; 'I' for Inactive)
REMARK    1  A    between atoms: C_3  and  C_12
REMARK    2  A    between atoms: C_3  and  C_17
REMARK    3  A    between atoms: C_17  and  C_18
REMARK    4  A    between atoms: C_18  and  N_19
REMARK    5  A    between atoms: N_19  and  C_22
REMARK    6  A    between atoms: C_22  and  C_24
REMARK    7  A    between atoms: C_25  and  O_28
REMARK                            x       y       z     vdW  Elec       q    Type
REMARK                         _______ _______ _______ _____ _____    ______ ____
ROOT
ATOM      1  O   UNL     1       3.995   1.834  -0.621  0.00  0.00    -0.359 OA
ATOM      2  C   UNL     1       3.907   1.051   0.576  0.00  0.00    +0.093 C 
ATOM      3  C   UNL     1       1.431   0.506  -0.005  0.00  0.00    +0.038 C 
ATOM      4  C   UNL     1       2.453   0.979   1.071  0.00  0.00    +0.033 C 
ATOM      5  C   UNL     1       4.801   1.738   1.621  0.00  0.00    +0.027 C 
ATOM      6  C   UNL     1       4.623  -0.297   0.427  0.00  0.00    +0.027 C 
ATOM      7  C   UNL     1       1.685   1.395  -1.253  0.00  0.00    +0.038 C 
ATOM      8  C   UNL     1       6.227   1.354   1.231  0.00  0.00    +0.002 C 
ATOM      9  C   UNL     1       6.109   0.059   0.431  0.00  0.00    +0.002 C 
ATOM     10  C   UNL     1       3.148   1.402  -1.681  0.00  0.00    +0.142 C 
ENDROOT
BRANCH   3  12
ATOM     11  N   UNL     1       1.754  -1.409  -1.523  0.00  0.00    -0.248 NA
ATOM     12  C   UNL     1       1.490  -1.014  -0.257  0.00  0.00    +0.058 C 
ATOM     13  C   UNL     1       1.276  -1.886   0.799  0.00  0.00    +0.015 C 
ATOM     14  C   UNL     1       1.337  -3.250   0.539  0.00  0.00    +0.003 C 
ATOM     15  C   UNL     1       1.805  -2.743  -1.737  0.00  0.00    +0.098 C 
ATOM     16  C   UNL     1       1.606  -3.695  -0.751  0.00  0.00    +0.021 C 
ENDBRANCH   3  12
BRANCH   3  17
ATOM     17  C   UNL     1      -0.001   0.813   0.499  0.00  0.00    -0.018 C 
BRANCH  17  18
ATOM     18  C   UNL     1      -1.042   0.373  -0.520  0.00  0.00    -0.081 C 
BRANCH  18  19
ATOM     19  N   UNL     1      -2.379   0.689  -0.031  0.00  0.00    +0.387 N 
ATOM     20  H   UNL     1      -2.443   1.692   0.142  0.00  0.00    -0.084 HD
ATOM     21  H   UNL     1      -2.542   0.168   0.830  0.00  0.00    -0.084 HD
BRANCH  19  22
ATOM     22  C   UNL     1      -3.392   0.307  -1.005  0.00  0.00    -0.044 C 
BRANCH  22  24
ATOM     23  S   UNL     1      -5.605   1.978  -1.151  0.00  0.00    -0.090 S 
ATOM     24  C   UNL     1      -4.782   0.616  -0.518  0.00  0.00    +0.020 C 
ATOM     25  C   UNL     1      -5.543  -0.062   0.410  0.00  0.00    +0.139 C 
ATOM     26  C   UNL     1      -6.817   0.545   0.603  0.00  0.00    +0.044 C 
ATOM     27  C   UNL     1      -6.983   1.663  -0.185  0.00  0.00    +0.038 C 
BRANCH  25  28
ATOM     28  O   UNL     1      -5.108  -1.165   1.043  0.00  0.00    -0.471 OA
ATOM     29  C   UNL     1      -5.993  -1.782   1.989  0.00  0.00    +0.252 C 
ENDBRANCH  25  28
ENDBRANCH  22  24
ENDBRANCH  19  22
ENDBRANCH  18  19
ENDBRANCH  17  18
ENDBRANCH   3  17
TORSDOF 7
