REMARK  Name = 86793
REMARK  3 active torsions:
REMARK  status: ('A' for Active; 'I' for Inactive)
REMARK    1  A    between atoms: C_7  and  C_15
REMARK    2  A    between atoms: C_8  and  O_21
REMARK    3  A    between atoms: O_21  and  C_23
REMARK                            x       y       z     vdW  Elec       q    Type
REMARK                         _______ _______ _______ _____ _____    ______ ____
ROOT
ATOM      1 CL   UNL     1      -3.531   2.512  -2.493  0.00  0.00    -0.082 Cl
ATOM      2  O   UNL     1       2.950   0.746   2.031  0.00  0.00    -0.268 OA
ATOM      3  N   UNL     1       1.032   1.856   1.325  0.00  0.00    -0.252 N 
ATOM      4  N   UNL     1       0.974  -0.932   0.143  0.00  0.00    -0.224 NA
ATOM      5  C   UNL     1      -0.084   1.969   0.427  0.00  0.00    +0.055 C 
ATOM      6  C   UNL     1      -0.666   0.860  -0.219  0.00  0.00    +0.032 C 
ATOM      7  C   UNL     1      -0.253  -0.542   0.076  0.00  0.00    +0.081 C 
ATOM      8  C   UNL     1       2.023   0.053  -0.064  0.00  0.00    +0.352 C 
ATOM      9  C   UNL     1       2.044   0.893   1.205  0.00  0.00    +0.295 C 
ATOM     10  C   UNL     1      -0.648   3.237   0.180  0.00  0.00    +0.016 C 
ATOM     11  C   UNL     1      -1.720   1.038  -1.133  0.00  0.00    +0.014 C 
ATOM     12  C   UNL     1       1.154   2.848   2.394  0.00  0.00    +0.120 C 
ATOM     13  C   UNL     1      -1.708   3.404  -0.714  0.00  0.00    +0.013 C 
ATOM     14  C   UNL     1      -2.236   2.306  -1.380  0.00  0.00    +0.058 C 
ENDROOT
BRANCH   7  15
ATOM     15  C   UNL     1      -1.307  -1.568   0.326  0.00  0.00    +0.017 C 
ATOM     16  C   UNL     1      -2.517  -1.186   0.892  0.00  0.00    +0.001 C 
ATOM     17  C   UNL     1      -1.067  -2.895  -0.011  0.00  0.00    +0.001 C 
ATOM     18  C   UNL     1      -3.502  -2.145   1.125  0.00  0.00    +0.000 C 
ATOM     19  C   UNL     1      -2.053  -3.854   0.223  0.00  0.00    +0.000 C 
ATOM     20  C   UNL     1      -3.270  -3.479   0.790  0.00  0.00    +0.000 C 
ENDBRANCH   7  15
BRANCH   8  21
ATOM     21  O   UNL     1       3.329  -0.494  -0.235  0.00  0.00    -0.421 OA
BRANCH  21  23
ATOM     22  O   UNL     1       2.646  -1.558  -2.168  0.00  0.00    -0.250 OA
ATOM     23  C   UNL     1       3.499  -1.285  -1.335  0.00  0.00    +0.319 C 
ATOM     24  C   UNL     1       4.911  -1.785  -1.385  0.00  0.00    +0.121 C 
ENDBRANCH  21  23
ENDBRANCH   8  21
TORSDOF 3
