REMARK  Name = 44193830
REMARK  8 active torsions:
REMARK  status: ('A' for Active; 'I' for Inactive)
REMARK    1  A    between atoms: C_9  and  C_20
REMARK    2  A    between atoms: C_10  and  C_15
REMARK    3  A    between atoms: C_11  and  C_17
REMARK    4  A    between atoms: C_17  and  O_18
REMARK    5  A    between atoms: C_20  and  C_21
REMARK    6  A    between atoms: C_21  and  N_22
REMARK    7  A    between atoms: C_21  and  C_26
REMARK    8  A    between atoms: C_26  and  C_30
REMARK                            x       y       z     vdW  Elec       q    Type
REMARK                         _______ _______ _______ _____ _____    ______ ____
ROOT
ATOM      1  O   UNL     1       2.909  -0.332  -2.613  0.00  0.00    -0.275 OA
ATOM      2  N   UNL     1       0.763  -0.852  -1.879  0.00  0.00    -0.276 N 
ATOM      3  N   UNL     1      -1.609   0.318  -1.007  0.00  0.00    -0.272 N 
ATOM      4  N   UNL     1      -3.286  -0.263   0.307  0.00  0.00    -0.379 NA
ATOM      5  C   UNL     1       0.131   0.182  -2.712  0.00  0.00    +0.115 C 
ATOM      6  C   UNL     1      -0.742   1.098  -1.863  0.00  0.00    +0.115 C 
ATOM      7  C   UNL     1      -0.147  -1.719  -1.105  0.00  0.00    +0.121 C 
ATOM      8  C   UNL     1      -1.345  -0.974  -0.637  0.00  0.00    +0.154 C 
ATOM      9  C   UNL     1       2.143  -1.052  -1.968  0.00  0.00    +0.224 C 
ATOM     10  C   UNL     1      -2.774   0.705  -0.422  0.00  0.00    +0.256 C 
ATOM     11  C   UNL     1      -2.404  -1.310   0.178  0.00  0.00    +0.205 C 
ENDROOT
BRANCH  10  15
ATOM     12  F   UNL     1      -4.523   2.232   0.090  0.00  0.00    -0.163 F 
ATOM     13  F   UNL     1      -2.536   3.073  -0.178  0.00  0.00    -0.163 F 
ATOM     14  F   UNL     1      -3.653   2.369  -1.898  0.00  0.00    -0.163 F 
ATOM     15  C   UNL     1      -3.351   2.053  -0.598  0.00  0.00    +0.460 C 
ENDBRANCH  10  15
BRANCH  11  17
ATOM     16  O   UNL     1      -1.849  -3.558   0.749  0.00  0.00    -0.242 OA
ATOM     17  C   UNL     1      -2.611  -2.569   0.829  0.00  0.00    +0.369 C 
BRANCH  17  18
ATOM     18  O   UNL     1      -3.767  -2.591   1.577  0.00  0.00    -0.440 OA
ATOM     19  C   UNL     1      -4.084  -3.798   2.277  0.00  0.00    +0.256 C 
ENDBRANCH  17  18
ENDBRANCH  11  17
BRANCH   9  20
ATOM     20  C   UNL     1       2.700  -2.231  -1.209  0.00  0.00    +0.064 C 
BRANCH  20  21
ATOM     21  C   UNL     1       3.718  -1.795  -0.155  0.00  0.00    -0.052 C 
BRANCH  21  22
ATOM     22  N   UNL     1       4.584  -2.950   0.115  0.00  0.00    +0.382 N 
ATOM     23  H   UNL     1       5.020  -3.259  -0.754  0.00  0.00    -0.089 HD
ATOM     24  H   UNL     1       4.026  -3.710   0.504  0.00  0.00    -0.089 HD
ATOM     25  H   UNL     1       5.308  -2.684   0.782  0.00  0.00    -0.089 HD
ENDBRANCH  21  22
BRANCH  21  26
ATOM     26  C   UNL     1       3.072  -1.348   1.175  0.00  0.00    +0.007 C 
BRANCH  26  30
ATOM     27  F   UNL     1       4.810   0.857   0.773  0.00  0.00    -0.204 F 
ATOM     28  F   UNL     1      -0.471   1.976   1.651  0.00  0.00    -0.202 F 
ATOM     29  F   UNL     1       1.314   4.009   1.249  0.00  0.00    -0.202 F 
ATOM     30  C   UNL     1       2.604   0.087   1.194  0.00  0.00    +0.006 C 
ATOM     31  C   UNL     1       3.514   1.124   0.989  0.00  0.00    +0.138 C 
ATOM     32  C   UNL     1       1.258   0.375   1.418  0.00  0.00    +0.030 C 
ATOM     33  C   UNL     1       0.822   1.700   1.436  0.00  0.00    +0.167 C 
ATOM     34  C   UNL     1       3.078   2.449   1.008  0.00  0.00    +0.061 C 
ATOM     35  C   UNL     1       1.732   2.736   1.231  0.00  0.00    +0.170 C 
ENDBRANCH  26  30
ENDBRANCH  21  26
ENDBRANCH  20  21
ENDBRANCH   9  20
TORSDOF 8
