REMARK  Name = 119034
REMARK  6 active torsions:
REMARK  status: ('A' for Active; 'I' for Inactive)
REMARK    1  A    between atoms: C_9  and  C_37
REMARK    2  A    between atoms: C_14  and  C_34
REMARK    3  A    between atoms: C_17  and  O_29
REMARK    4  A    between atoms: C_19  and  O_31
REMARK    5  A    between atoms: C_34  and  O_35
REMARK    6  A    between atoms: C_37  and  O_38
REMARK                            x       y       z     vdW  Elec       q    Type
REMARK                         _______ _______ _______ _____ _____    ______ ____
ROOT
ATOM      1  C   UNL     1       0.325  -0.889   0.206  0.00  0.00    +0.003 C 
ATOM      2  C   UNL     1       1.056   0.259  -0.588  0.00  0.00    +0.005 C 
ATOM      3  C   UNL     1       2.627   0.123  -0.844  0.00  0.00    +0.003 C 
ATOM      4  C   UNL     1      -1.137  -0.323   0.693  0.00  0.00    +0.015 C 
ATOM      5  C   UNL     1       3.310  -0.308   0.498  0.00  0.00    +0.005 C 
ATOM      6  C   UNL     1       1.194  -1.335   1.412  0.00  0.00    +0.000 C 
ATOM      7  C   UNL     1      -1.892   0.305  -0.503  0.00  0.00    -0.049 C 
ATOM      8  C   UNL     1       2.662  -1.586   1.070  0.00  0.00    +0.000 C 
ATOM      9  C   UNL     1       4.889  -0.330   0.493  0.00  0.00    +0.054 C 
ATOM     10  C   UNL     1      -3.424   0.452  -0.466  0.00  0.00    +0.028 C 
ATOM     11  C   UNL     1       0.239   0.632  -1.844  0.00  0.00    +0.025 C 
ATOM     12  C   UNL     1       3.174   1.533  -1.278  0.00  0.00    +0.032 C 
ATOM     13  C   UNL     1      -1.966  -1.471   1.350  0.00  0.00    +0.004 C 
ATOM     14  C   UNL     1      -4.087  -0.834   0.094  0.00  0.00    +0.093 C 
ATOM     15  C   UNL     1       0.120  -2.144  -0.701  0.00  0.00    +0.000 C 
ATOM     16  C   UNL     1      -3.473  -1.212   1.454  0.00  0.00    +0.011 C 
ATOM     17  C   UNL     1       5.475   0.837  -0.377  0.00  0.00    +0.139 C 
ATOM     18  C   UNL     1      -1.240   0.701  -1.615  0.00  0.00    -0.035 C 
ATOM     19  C   UNL     1       4.487   1.978  -0.617  0.00  0.00    +0.137 C 
ATOM     20  C   UNL     1       2.960  -0.858  -1.996  0.00  0.00    +0.000 C 
ATOM     21  C   UNL     1      -0.990   0.794   1.769  0.00  0.00    +0.004 C 
ATOM     22  C   UNL     1      -3.932   1.762   0.233  0.00  0.00    +0.004 C 
ATOM     23  C   UNL     1      -5.617  -0.690   0.194  0.00  0.00    +0.011 C 
ATOM     24  C   UNL     1      -5.484   1.828   0.225  0.00  0.00    +0.000 C 
ATOM     25  C   UNL     1       5.476  -1.698   0.076  0.00  0.00    +0.005 C 
ATOM     26  C   UNL     1      -6.070   0.580   0.894  0.00  0.00    +0.001 C 
ATOM     27  C   UNL     1      -3.320   3.018  -0.410  0.00  0.00    +0.000 C 
ATOM     28  C   UNL     1      -6.038   3.071   0.931  0.00  0.00    +0.000 C 
ENDROOT
BRANCH  17  29
ATOM     29  O   UNL     1       5.934   0.399  -1.654  0.00  0.00    -0.382 OA
ATOM     30  H   UNL     1       6.566  -0.329  -1.539  0.00  0.00    +0.210 HD
ENDBRANCH  17  29
BRANCH  19  31
ATOM     31  O   UNL     1       4.212   2.631   0.621  0.00  0.00    -0.382 OA
ATOM     32  H   UNL     1       3.585   3.356   0.472  0.00  0.00    +0.210 HD
ENDBRANCH  19  31
BRANCH  14  34
ATOM     33  O   UNL     1      -3.280  -1.902  -1.938  0.00  0.00    -0.250 OA
ATOM     34  C   UNL     1      -3.881  -1.980  -0.877  0.00  0.00    +0.313 C 
BRANCH  34  35
ATOM     35  O   UNL     1      -4.459  -3.114  -0.410  0.00  0.00    -0.480 OA
ATOM     36  H   UNL     1      -4.906  -3.106   0.414  0.00  0.00    +0.295 HD
ENDBRANCH  34  35
ENDBRANCH  14  34
BRANCH   9  37
ATOM     37  C   UNL     1       5.370  -0.099   1.957  0.00  0.00    +0.139 C 
BRANCH  37  38
ATOM     38  O   UNL     1       6.776  -0.131   1.948  0.00  0.00    -0.382 OA
ATOM     39  H   UNL     1       7.108   0.010   2.848  0.00  0.00    +0.210 HD
ENDBRANCH  37  38
ENDBRANCH   9  37
TORSDOF 6
