REMARK  Name = 70267
REMARK  3 active torsions:
REMARK  status: ('A' for Active; 'I' for Inactive)
REMARK    1  A    between atoms: C_1  and  C_9
REMARK    2  A    between atoms: C_2  and  O_7
REMARK    3  A    between atoms: C_9  and  N_10
REMARK                            x       y       z     vdW  Elec       q    Type
REMARK                         _______ _______ _______ _____ _____    ______ ____
ROOT
ATOM      1  C   UNL     1       0.481   0.293  -0.256  0.00  0.00    -0.011 C 
ATOM      2  C   UNL     1      -0.092  -0.965  -0.066  0.00  0.00    +0.128 C 
ATOM      3  C   UNL     1      -0.316   1.437  -0.205  0.00  0.00    -0.003 C 
ATOM      4  C   UNL     1      -1.461  -1.079   0.175  0.00  0.00    +0.036 C 
ATOM      5  C   UNL     1      -1.685   1.323   0.036  0.00  0.00    -0.000 C 
ATOM      6  C   UNL     1      -2.258   0.065   0.226  0.00  0.00    +0.003 C 
ENDROOT
BRANCH   2   7
ATOM      7  O   UNL     1       0.672  -2.092  -0.113  0.00  0.00    -0.506 OA
ATOM      8  H   UNL     1       1.593  -2.028  -0.274  0.00  0.00    +0.292 HD
ENDBRANCH   2   7
BRANCH   1   9
ATOM      9  C   UNL     1       1.944   0.434  -0.515  0.00  0.00    -0.056 C 
BRANCH   9  10
ATOM     10  N   UNL     1       2.715   0.585   0.720  0.00  0.00    +0.383 N 
ATOM     11  H   UNL     1       3.705   0.677   0.493  0.00  0.00    -0.089 HD
ATOM     12  H   UNL     1       2.577  -0.236   1.309  0.00  0.00    -0.089 HD
ATOM     13  H   UNL     1       2.401   1.418   1.217  0.00  0.00    -0.089 HD
ENDBRANCH   9  10
ENDBRANCH   1   9
TORSDOF 3
