REMARK  Name = 213040
REMARK  9 active torsions:
REMARK  status: ('A' for Active; 'I' for Inactive)
REMARK    1  A    between atoms: N_2  and  C_10
REMARK    2  A    between atoms: C_8  and  C_26
REMARK    3  A    between atoms: C_10  and  C_11
REMARK    4  A    between atoms: C_11  and  O_12
REMARK    5  A    between atoms: C_11  and  C_14
REMARK    6  A    between atoms: C_14  and  O_15
REMARK    7  A    between atoms: O_15  and  C_17
REMARK    8  A    between atoms: C_26  and  C_27
REMARK    9  A    between atoms: C_26  and  C_33
REMARK                            x       y       z     vdW  Elec       q    Type
REMARK                         _______ _______ _______ _____ _____    ______ ____
ROOT
ATOM      1  O   UNL     1      -3.606   1.576  -1.530  0.00  0.00    -0.274 OA
ATOM      2  N   UNL     1       1.170   2.154  -0.199  0.00  0.00    +0.391 N 
ATOM      3  N   UNL     1      -1.462   1.159  -0.740  0.00  0.00    -0.283 N 
ATOM      4  C   UNL     1       0.182   2.996  -0.890  0.00  0.00    -0.055 C 
ATOM      5  C   UNL     1       0.503   1.256   0.755  0.00  0.00    -0.055 C 
ATOM      6  C   UNL     1      -0.838   2.134  -1.634  0.00  0.00    +0.071 C 
ATOM      7  C   UNL     1      -0.515   0.362   0.045  0.00  0.00    +0.071 C 
ATOM      8  C   UNL     1      -2.842   0.967  -0.777  0.00  0.00    +0.233 C 
ATOM      9  H   UNL     1       1.651   1.585  -0.896  0.00  0.00    -0.079 HD
ENDROOT
BRANCH   2  10
ATOM     10  C   UNL     1       2.163   2.983   0.483  0.00  0.00    -0.043 C 
BRANCH  10  11
ATOM     11  C   UNL     1       3.267   3.456  -0.465  0.00  0.00    +0.133 C 
BRANCH  11  12
ATOM     12  O   UNL     1       4.208   4.222   0.293  0.00  0.00    -0.383 OA
ATOM     13  H   UNL     1       3.749   4.955   0.732  0.00  0.00    +0.210 HD
ENDBRANCH  11  12
BRANCH  11  14
ATOM     14  C   UNL     1       4.011   2.309  -1.146  0.00  0.00    +0.232 C 
BRANCH  14  15
ATOM     15  O   UNL     1       4.640   1.511  -0.149  0.00  0.00    -0.473 OA
BRANCH  15  17
ATOM     16  N   UNL     1       4.938  -3.105   1.236  0.00  0.00    -0.244 NA
ATOM     17  C   UNL     1       4.783   0.178  -0.426  0.00  0.00    +0.140 C 
ATOM     18  C   UNL     1       4.784  -0.787   0.595  0.00  0.00    +0.052 C 
ATOM     19  C   UNL     1       4.927  -0.204  -1.757  0.00  0.00    +0.037 C 
ATOM     20  C   UNL     1       4.933  -2.155   0.282  0.00  0.00    +0.084 C 
ATOM     21  C   UNL     1       5.074  -1.549  -2.072  0.00  0.00    +0.005 C 
ATOM     22  C   UNL     1       4.640  -0.430   1.942  0.00  0.00    +0.006 C 
ATOM     23  C   UNL     1       5.076  -2.509  -1.057  0.00  0.00    +0.019 C 
ATOM     24  C   UNL     1       4.646  -1.407   2.927  0.00  0.00    +0.021 C 
ATOM     25  C   UNL     1       4.796  -2.719   2.524  0.00  0.00    +0.099 C 
ENDBRANCH  15  17
ENDBRANCH  14  15
ENDBRANCH  11  14
ENDBRANCH  10  11
ENDBRANCH   2  10
BRANCH   8  26
ATOM     26  C   UNL     1      -3.407  -0.052   0.180  0.00  0.00    +0.121 C 
BRANCH  26  27
ATOM     27  C   UNL     1      -4.782   0.342   0.679  0.00  0.00    -0.010 C 
ATOM     28  C   UNL     1      -4.910   1.114   1.834  0.00  0.00    -0.003 C 
ATOM     29  C   UNL     1      -5.920  -0.066  -0.017  0.00  0.00    -0.003 C 
ATOM     30  C   UNL     1      -6.176   1.477   2.293  0.00  0.00    -0.000 C 
ATOM     31  C   UNL     1      -7.186   0.297   0.442  0.00  0.00    -0.000 C 
ATOM     32  C   UNL     1      -7.314   1.069   1.598  0.00  0.00    -0.000 C 
ENDBRANCH  26  27
BRANCH  26  33
ATOM     33  C   UNL     1      -3.349  -1.464  -0.369  0.00  0.00    -0.010 C 
ATOM     34  C   UNL     1      -3.217  -2.546   0.500  0.00  0.00    -0.003 C 
ATOM     35  C   UNL     1      -3.429  -1.681  -1.745  0.00  0.00    -0.003 C 
ATOM     36  C   UNL     1      -3.165  -3.845  -0.005  0.00  0.00    -0.000 C 
ATOM     37  C   UNL     1      -3.377  -2.980  -2.251  0.00  0.00    -0.000 C 
ATOM     38  C   UNL     1      -3.245  -4.062  -1.380  0.00  0.00    -0.000 C 
ENDBRANCH  26  33
ENDBRANCH   8  26
TORSDOF 9
