REMARK  Name = 18142
REMARK  5 active torsions:
REMARK  status: ('A' for Active; 'I' for Inactive)
REMARK    1  A    between atoms: C_5  and  C_19
REMARK    2  A    between atoms: C_5  and  O_21
REMARK    3  A    between atoms: C_18  and  O_25
REMARK    4  A    between atoms: O_21  and  C_23
REMARK    5  A    between atoms: O_25  and  C_26
REMARK                            x       y       z     vdW  Elec       q    Type
REMARK                         _______ _______ _______ _____ _____    ______ ____
ROOT
ATOM      1  C   UNL     1      -2.885  -0.518   0.029  0.00  0.00    +0.045 C 
ATOM      2  C   UNL     1      -2.245   0.825   0.441  0.00  0.00    +0.005 C 
ATOM      3  C   UNL     1      -0.727   0.736   0.621  0.00  0.00    +0.005 C 
ATOM      4  C   UNL     1      -0.072   0.255  -0.705  0.00  0.00    +0.004 C 
ATOM      5  C   UNL     1      -4.394  -0.129   0.050  0.00  0.00    +0.189 C 
ATOM      6  C   UNL     1      -2.286  -0.929  -1.329  0.00  0.00    +0.004 C 
ATOM      7  C   UNL     1      -3.091   1.278   1.628  0.00  0.00    +0.005 C 
ATOM      8  C   UNL     1      -0.750  -1.014  -1.276  0.00  0.00    +0.000 C 
ATOM      9  C   UNL     1      -4.509   0.756   1.319  0.00  0.00    +0.053 C 
ATOM     10  C   UNL     1       1.455   0.055  -0.480  0.00  0.00    +0.023 C 
ATOM     11  C   UNL     1      -0.131   2.086   1.050  0.00  0.00    +0.026 C 
ATOM     12  C   UNL     1      -2.632  -1.667   1.048  0.00  0.00    +0.004 C 
ATOM     13  C   UNL     1       2.090   1.239   0.242  0.00  0.00    -0.024 C 
ATOM     14  C   UNL     1       2.202  -0.222  -1.800  0.00  0.00    +0.012 C 
ATOM     15  C   UNL     1       1.361   2.142   0.921  0.00  0.00    -0.030 C 
ATOM     16  C   UNL     1       3.704  -0.426  -1.570  0.00  0.00    +0.064 C 
ATOM     17  C   UNL     1       3.536   1.363   0.164  0.00  0.00    +0.028 C 
ATOM     18  C   UNL     1       4.286   0.597  -0.639  0.00  0.00    +0.116 C 
ENDROOT
BRANCH   5  19
ATOM     19  C   UNL     1      -4.830   0.637  -1.135  0.00  0.00    -0.040 C 
ATOM     20  C   UNL     1      -5.184   1.260  -2.098  0.00  0.00    -0.011 C 
ENDBRANCH   5  19
BRANCH   5  21
ATOM     21  O   UNL     1      -5.243  -1.262   0.184  0.00  0.00    -0.443 OA
BRANCH  21  23
ATOM     22  O   UNL     1      -7.083   0.119   0.393  0.00  0.00    -0.250 OA
ATOM     23  C   UNL     1      -6.573  -0.993   0.351  0.00  0.00    +0.318 C 
ATOM     24  C   UNL     1      -7.341  -2.274   0.477  0.00  0.00    +0.121 C 
ENDBRANCH  21  23
ENDBRANCH   5  21
BRANCH  18  25
ATOM     25  O   UNL     1       5.659   0.742  -0.661  0.00  0.00    -0.483 OA
BRANCH  25  26
ATOM     26  C   UNL     1       6.336  -0.443  -0.295  0.00  0.00    +0.165 C 
ATOM     27  C   UNL     1       6.009  -0.839   1.135  0.00  0.00    +0.044 C 
ATOM     28  C   UNL     1       7.843  -0.242  -0.248  0.00  0.00    +0.044 C 
ATOM     29  C   UNL     1       7.153  -1.764   1.532  0.00  0.00    +0.004 C 
ATOM     30  C   UNL     1       8.341  -1.368   0.650  0.00  0.00    +0.004 C 
ENDBRANCH  25  26
ENDBRANCH  18  25
TORSDOF 5
