REMARK  Name = 7814
REMARK  2 active torsions:
REMARK  status: ('A' for Active; 'I' for Inactive)
REMARK    1  A    between atoms: C_1  and  N_7
REMARK    2  A    between atoms: C_2  and  N_10
REMARK                            x       y       z     vdW  Elec       q    Type
REMARK                         _______ _______ _______ _____ _____    ______ ____
ROOT
ATOM      1  C   UNL     1       1.395   0.000   0.000  0.00  0.00    +0.042 C 
ATOM      2  C   UNL     1      -1.395   0.000   0.000  0.00  0.00    +0.042 C 
ATOM      3  C   UNL     1       0.697  -1.208   0.000  0.00  0.00    +0.015 C 
ATOM      4  C   UNL     1      -0.698  -1.208   0.000  0.00  0.00    +0.015 C 
ATOM      5  C   UNL     1       0.698   1.208   0.000  0.00  0.00    +0.015 C 
ATOM      6  C   UNL     1      -0.697   1.208   0.000  0.00  0.00    +0.015 C 
ENDROOT
BRANCH   1   7
ATOM      7  N   UNL     1       2.805   0.000   0.000  0.00  0.00    -0.357 N 
ATOM      8  H   UNL     1       3.297  -0.853   0.000  0.00  0.00    +0.142 HD
ATOM      9  H   UNL     1       3.297   0.853   0.000  0.00  0.00    +0.142 HD
ENDBRANCH   1   7
BRANCH   2  10
ATOM     10  N   UNL     1      -2.805   0.000   0.000  0.00  0.00    -0.357 N 
ATOM     11  H   UNL     1      -3.297  -0.853   0.000  0.00  0.00    +0.142 HD
ATOM     12  H   UNL     1      -3.297   0.853   0.000  0.00  0.00    +0.142 HD
ENDBRANCH   2  10
TORSDOF 2
