REMARK  Name = 117761397
REMARK  4 active torsions:
REMARK  status: ('A' for Active; 'I' for Inactive)
REMARK    1  A    between atoms: N_3  and  C_10
REMARK    2  A    between atoms: C_5  and  N_13
REMARK    3  A    between atoms: N_13  and  C_15
REMARK    4  A    between atoms: C_15  and  C_17
REMARK                            x       y       z     vdW  Elec       q    Type
REMARK                         _______ _______ _______ _____ _____    ______ ____
ROOT
ATOM      1  O   UNL     1       1.590  -1.634   1.758  0.00  0.00    -0.252 OA
ATOM      2  O   UNL     1       3.512   1.229  -1.393  0.00  0.00    -0.269 OA
ATOM      3  N   UNL     1       2.616  -0.281   0.156  0.00  0.00    -0.212 N 
ATOM      4  N   UNL     1       0.386   0.070   0.829  0.00  0.00    -0.257 N 
ATOM      5  C   UNL     1       0.236   1.148  -0.012  0.00  0.00    +0.105 C 
ATOM      6  C   UNL     1       1.539  -0.686   0.971  0.00  0.00    +0.315 C 
ATOM      7  C   UNL     1       2.578   0.820  -0.705  0.00  0.00    +0.259 C 
ATOM      8  C   UNL     1       1.279   1.531  -0.763  0.00  0.00    +0.088 C 
ATOM      9  H   UNL     1      -0.391  -0.187   1.376  0.00  0.00    +0.158 HD
ENDROOT
BRANCH   3  10
ATOM     10  C   UNL     1       3.847  -1.060   0.215  0.00  0.00    +0.084 C 
ATOM     11  C   UNL     1       4.156  -1.673  -1.145  0.00  0.00    +0.022 C 
ATOM     12  C   UNL     1       4.999  -0.193   0.704  0.00  0.00    +0.022 C 
ENDBRANCH   3  10
BRANCH   5  13
ATOM     13  N   UNL     1      -0.963   1.809  -0.064  0.00  0.00    -0.319 N 
ATOM     14  H   UNL     1      -1.054   2.564  -0.690  0.00  0.00    +0.148 HD
BRANCH  13  15
ATOM     15  C   UNL     1      -2.094   1.454   0.749  0.00  0.00    +0.093 C 
ATOM     16  C   UNL     1      -3.013   2.665   0.897  0.00  0.00    +0.026 C 
BRANCH  15  17
ATOM     17  C   UNL     1      -2.797   0.246   0.169  0.00  0.00    -0.005 C 
ATOM     18  C   UNL     1      -3.418  -0.672   1.015  0.00  0.00    -0.003 C 
ATOM     19  C   UNL     1      -2.824   0.052  -1.212  0.00  0.00    -0.003 C 
ATOM     20  C   UNL     1      -4.066  -1.786   0.479  0.00  0.00    -0.000 C 
ATOM     21  C   UNL     1      -3.472  -1.061  -1.747  0.00  0.00    -0.000 C 
ATOM     22  C   UNL     1      -4.093  -1.980  -0.901  0.00  0.00    -0.000 C 
ENDBRANCH  15  17
ENDBRANCH  13  15
ENDBRANCH   5  13
TORSDOF 4
