REMARK  Name = 836853
REMARK  7 active torsions:
REMARK  status: ('A' for Active; 'I' for Inactive)
REMARK    1  A    between atoms: C_1  and  O_11
REMARK    2  A    between atoms: C_2  and  C_8
REMARK    3  A    between atoms: C_8  and  O_9
REMARK    4  A    between atoms: O_11  and  C_13
REMARK    5  A    between atoms: C_13  and  C_14
REMARK    6  A    between atoms: C_14  and  C_15
REMARK    7  A    between atoms: C_14  and  C_17
REMARK                            x       y       z     vdW  Elec       q    Type
REMARK                         _______ _______ _______ _____ _____    ______ ____
ROOT
ATOM      1  C   UNL     1      -0.717   1.018  -0.277  0.00  0.00    +0.155 C 
ATOM      2  C   UNL     1      -1.722   0.079  -0.214  0.00  0.00    +0.110 C 
ATOM      3  C   UNL     1      -0.919   2.341   0.057  0.00  0.00    +0.038 C 
ATOM      4  C   UNL     1      -2.992   0.480   0.201  0.00  0.00    +0.010 C 
ATOM      5  C   UNL     1      -2.189   2.742   0.472  0.00  0.00    +0.003 C 
ATOM      6  C   UNL     1      -3.225   1.811   0.545  0.00  0.00    +0.000 C 
ENDROOT
BRANCH   2   8
ATOM      7  O   UNL     1      -0.674  -1.702  -1.403  0.00  0.00    -0.245 OA
ATOM      8  C   UNL     1      -1.500  -1.317  -0.568  0.00  0.00    +0.344 C 
BRANCH   8   9
ATOM      9  O   UNL     1      -2.321  -2.150   0.142  0.00  0.00    -0.441 OA
ATOM     10  C   UNL     1      -2.195  -3.552  -0.117  0.00  0.00    +0.256 C 
ENDBRANCH   8   9
ENDBRANCH   2   8
BRANCH   1  11
ATOM     11  O   UNL     1       0.562   0.637  -0.689  0.00  0.00    -0.424 OA
BRANCH  11  13
ATOM     12  O   UNL     1       1.060   0.190   1.550  0.00  0.00    -0.250 OA
ATOM     13  C   UNL     1       1.372   0.232   0.365  0.00  0.00    +0.321 C 
BRANCH  13  14
ATOM     14  C   UNL     1       2.747  -0.168  -0.152  0.00  0.00    +0.099 C 
BRANCH  14  15
ATOM     15  C   UNL     1       3.357  -1.289   0.707  0.00  0.00    +0.011 C 
ATOM     16  C   UNL     1       2.500  -2.548   0.729  0.00  0.00    +0.001 C 
ENDBRANCH  14  15
BRANCH  14  17
ATOM     17  C   UNL     1       3.688   1.046  -0.217  0.00  0.00    +0.011 C 
ATOM     18  C   UNL     1       3.168   2.149  -1.130  0.00  0.00    +0.001 C 
ENDBRANCH  14  17
ENDBRANCH  13  14
ENDBRANCH  11  13
ENDBRANCH   1  11
TORSDOF 7
