REMARK  Name = 125098
REMARK  6 active torsions:
REMARK  status: ('A' for Active; 'I' for Inactive)
REMARK    1  A    between atoms: C_3  and  C_14
REMARK    2  A    between atoms: C_8  and  O_9
REMARK    3  A    between atoms: O_9  and  C_10
REMARK    4  A    between atoms: C_10  and  C_12
REMARK    5  A    between atoms: C_14  and  C_15
REMARK    6  A    between atoms: C_15  and  O_16
REMARK                            x       y       z     vdW  Elec       q    Type
REMARK                         _______ _______ _______ _____ _____    ______ ____
ROOT
ATOM      1  O   UNL     1      -1.046   0.496   1.923  0.00  0.00    -0.226 OA
ATOM      2  N   UNL     1       0.686   0.507   0.366  0.00  0.00    -0.248 N 
ATOM      3  C   UNL     1       1.288  -0.077  -0.852  0.00  0.00    +0.081 C 
ATOM      4  C   UNL     1       2.071   0.976  -1.650  0.00  0.00    +0.020 C 
ATOM      5  C   UNL     1       3.031   1.785  -0.783  0.00  0.00    +0.003 C 
ATOM      6  C   UNL     1       2.286   2.404   0.393  0.00  0.00    +0.022 C 
ATOM      7  C   UNL     1       1.552   1.342   1.203  0.00  0.00    +0.097 C 
ATOM      8  C   UNL     1      -0.587   0.152   0.835  0.00  0.00    +0.405 C 
ENDROOT
BRANCH   8   9
ATOM      9  O   UNL     1      -1.277  -0.632  -0.051  0.00  0.00    -0.438 OA
BRANCH   9  10
ATOM     10  C   UNL     1      -2.704  -0.511  -0.025  0.00  0.00    +0.171 C 
ATOM     11  C   UNL     1      -3.299  -1.467  -1.049  0.00  0.00    +0.047 C 
BRANCH  10  12
ATOM     12  C   UNL     1      -3.089   0.938  -0.331  0.00  0.00    +0.044 C 
ATOM     13  C   UNL     1      -4.595   1.158  -0.279  0.00  0.00    +0.004 C 
ENDBRANCH  10  12
ENDBRANCH   9  10
ENDBRANCH   8   9
BRANCH   3  14
ATOM     14  C   UNL     1       2.145  -1.296  -0.500  0.00  0.00    +0.052 C 
BRANCH  14  15
ATOM     15  C   UNL     1       1.340  -2.342   0.246  0.00  0.00    +0.139 C 
BRANCH  15  16
ATOM     16  O   UNL     1       2.197  -3.432   0.555  0.00  0.00    -0.382 OA
ATOM     17  H   UNL     1       1.696  -4.112   1.034  0.00  0.00    +0.210 HD
ENDBRANCH  15  16
ENDBRANCH  14  15
ENDBRANCH   3  14
TORSDOF 6
