REMARK  Name = 114743
REMARK  2 active torsions:
REMARK  status: ('A' for Active; 'I' for Inactive)
REMARK    1  A    between atoms: C_1  and  C_13
REMARK    2  A    between atoms: C_4  and  N_19
REMARK                            x       y       z     vdW  Elec       q    Type
REMARK                         _______ _______ _______ _____ _____    ______ ____
ROOT
ATOM      1  C   UNL     1       0.399   0.569   1.061  0.00  0.00    +0.044 C 
ATOM      2  C   UNL     1       0.725   2.042   0.742  0.00  0.00    +0.007 C 
ATOM      3  C   UNL     1       2.226   2.300   0.816  0.00  0.00    -0.017 C 
ATOM      4  C   UNL     1       2.979   1.456  -0.220  0.00  0.00    -0.043 C 
ATOM      5  C   UNL     1       1.390  -0.428   0.465  0.00  0.00    -0.024 C 
ATOM      6  C   UNL     1       2.606  -0.009  -0.112  0.00  0.00    -0.046 C 
ATOM      7  C   UNL     1       1.132  -1.809   0.567  0.00  0.00    -0.004 C 
ATOM      8  C   UNL     1       3.501  -0.970  -0.616  0.00  0.00    -0.007 C 
ATOM      9  C   UNL     1       2.031  -2.750   0.066  0.00  0.00    -0.000 C 
ATOM     10  C   UNL     1       3.214  -2.331  -0.531  0.00  0.00    -0.000 C 
ENDROOT
BRANCH   1  13
ATOM     11 CL   UNL     1      -3.253   0.227  -2.618  0.00  0.00    -0.081 Cl
ATOM     12 CL   UNL     1      -5.377  -0.527  -0.296  0.00  0.00    -0.081 Cl
ATOM     13  C   UNL     1      -1.056   0.295   0.702  0.00  0.00    -0.018 C 
ATOM     14  C   UNL     1      -1.466   0.371  -0.625  0.00  0.00    +0.008 C 
ATOM     15  C   UNL     1      -1.964  -0.029   1.704  0.00  0.00    -0.003 C 
ATOM     16  C   UNL     1      -2.798   0.120  -0.954  0.00  0.00    +0.068 C 
ATOM     17  C   UNL     1      -3.296  -0.280   1.376  0.00  0.00    +0.012 C 
ATOM     18  C   UNL     1      -3.713  -0.205   0.047  0.00  0.00    +0.068 C 
ENDBRANCH   1  13
BRANCH   4  19
ATOM     19  N   UNL     1       2.720   1.958  -1.573  0.00  0.00    +0.384 N 
ATOM     20  H   UNL     1       2.977   2.944  -1.625  0.00  0.00    -0.089 HD
ATOM     21  H   UNL     1       1.729   1.854  -1.791  0.00  0.00    -0.089 HD
ATOM     22  H   UNL     1       3.274   1.427  -2.245  0.00  0.00    -0.089 HD
ENDBRANCH   4  19
TORSDOF 2
