REMARK  Name = 5369209
REMARK  4 active torsions:
REMARK  status: ('A' for Active; 'I' for Inactive)
REMARK    1  A    between atoms: C_1  and  C_4
REMARK    2  A    between atoms: C_2  and  C_8
REMARK    3  A    between atoms: C_4  and  O_5
REMARK    4  A    between atoms: C_8  and  O_9
REMARK                            x       y       z     vdW  Elec       q    Type
REMARK                         _______ _______ _______ _____ _____    ______ ____
ROOT
ATOM      1  C   UNL     1       0.095   0.383   0.002  0.00  0.00    +0.089 C 
ATOM      2  C   UNL     1      -0.987  -0.405   0.000  0.00  0.00    +0.088 C 
ENDROOT
BRANCH   1   4
ATOM      3  O   UNL     1       1.670  -1.434   0.001  0.00  0.00    -0.245 OA
ATOM      4  C   UNL     1       1.441  -0.234   0.002  0.00  0.00    +0.342 C 
BRANCH   4   5
ATOM      5  O   UNL     1       2.356   0.772   0.000  0.00  0.00    -0.441 OA
ATOM      6  C   UNL     1       3.726   0.358  -0.003  0.00  0.00    +0.256 C 
ENDBRANCH   4   5
ENDBRANCH   1   4
BRANCH   2   8
ATOM      7  O   UNL     1      -2.629   1.309   0.000  0.00  0.00    -0.245 OA
ATOM      8  C   UNL     1      -2.370   0.114  -0.001  0.00  0.00    +0.338 C 
BRANCH   8   9
ATOM      9  O   UNL     1      -3.301  -0.865  -0.002  0.00  0.00    -0.477 OA
ATOM     10  H   UNL     1      -3.036  -1.763  -0.002  0.00  0.00    +0.295 HD
ENDBRANCH   8   9
ENDBRANCH   2   8
TORSDOF 4
