REMARK  Name = 667468
REMARK  3 active torsions:
REMARK  status: ('A' for Active; 'I' for Inactive)
REMARK    1  A    between atoms: C_6  and  C_17
REMARK    2  A    between atoms: C_17  and  C_18
REMARK    3  A    between atoms: C_18  and  N_19
REMARK                            x       y       z     vdW  Elec       q    Type
REMARK                         _______ _______ _______ _____ _____    ______ ____
ROOT
ATOM      1  O   UNL     1      -1.335   1.421  -1.605  0.00  0.00    -0.471 OA
ATOM      2  C   UNL     1      -0.325  -0.381   0.309  0.00  0.00    -0.002 C 
ATOM      3  C   UNL     1      -1.701  -0.949   0.216  0.00  0.00    -0.001 C 
ATOM      4  C   UNL     1      -0.026   1.067   0.375  0.00  0.00    +0.034 C 
ATOM      5  C   UNL     1      -2.752  -0.276  -0.447  0.00  0.00    +0.021 C 
ATOM      6  C   UNL     1       0.742  -1.199   0.204  0.00  0.00    -0.028 C 
ATOM      7  C   UNL     1      -2.629   1.094  -1.086  0.00  0.00    +0.232 C 
ATOM      8  C   UNL     1      -0.542   1.922  -0.605  0.00  0.00    +0.139 C 
ATOM      9  C   UNL     1      -1.988  -2.178   0.850  0.00  0.00    -0.000 C 
ATOM     10  C   UNL     1      -4.036  -0.859  -0.467  0.00  0.00    -0.001 C 
ATOM     11  C   UNL     1       0.778   1.614   1.384  0.00  0.00    +0.003 C 
ATOM     12  C   UNL     1      -0.228   3.282  -0.621  0.00  0.00    +0.037 C 
ATOM     13  C   UNL     1      -3.263  -2.742   0.808  0.00  0.00    -0.000 C 
ATOM     14  C   UNL     1      -4.288  -2.084   0.145  0.00  0.00    -0.000 C 
ATOM     15  C   UNL     1       1.077   2.979   1.388  0.00  0.00    +0.000 C 
ATOM     16  C   UNL     1       0.580   3.809   0.384  0.00  0.00    +0.003 C 
ENDROOT
BRANCH   6  17
ATOM     17  C   UNL     1       2.159  -0.728   0.283  0.00  0.00    +0.003 C 
BRANCH  17  18
ATOM     18  C   UNL     1       3.075  -1.606  -0.568  0.00  0.00    -0.073 C 
BRANCH  18  19
ATOM     19  N   UNL     1       4.449  -1.122  -0.496  0.00  0.00    +0.384 N 
ATOM     20  C   UNL     1       5.327  -1.935  -1.340  0.00  0.00    -0.101 C 
ATOM     21  C   UNL     1       4.926  -1.129   0.888  0.00  0.00    -0.101 C 
ATOM     22  H   UNL     1       4.468  -0.162  -0.840  0.00  0.00    -0.080 HD
ENDBRANCH  18  19
ENDBRANCH  17  18
ENDBRANCH   6  17
TORSDOF 3
