REMARK  Name = 51030730
REMARK  6 active torsions:
REMARK  status: ('A' for Active; 'I' for Inactive)
REMARK    1  A    between atoms: N_1  and  C_31
REMARK    2  A    between atoms: C_5  and  C_25
REMARK    3  A    between atoms: C_9  and  C_14
REMARK    4  A    between atoms: C_16  and  S_19
REMARK    5  A    between atoms: S_19  and  N_22
REMARK    6  A    between atoms: C_31  and  C_33
REMARK                            x       y       z     vdW  Elec       q    Type
REMARK                         _______ _______ _______ _____ _____    ______ ____
ROOT
ATOM      1  N   UNL     1      -1.292  -0.346   0.191  0.00  0.00    -0.305 N 
ATOM      2  N   UNL     1       0.932   0.305   0.226  0.00  0.00    -0.329 NA
ATOM      3  N   UNL     1       1.587   2.612  -0.012  0.00  0.00    -0.343 NA
ATOM      4  C   UNL     1      -0.739   2.027  -0.060  0.00  0.00    +0.143 C 
ATOM      5  C   UNL     1      -2.084   2.418  -0.173  0.00  0.00    -0.008 C 
ATOM      6  C   UNL     1      -0.349   0.703   0.115  0.00  0.00    +0.180 C 
ATOM      7  C   UNL     1       0.296   2.975  -0.119  0.00  0.00    +0.133 C 
ATOM      8  C   UNL     1      -2.407   3.761  -0.347  0.00  0.00    -0.003 C 
ATOM      9  C   UNL     1       1.835   1.297   0.155  0.00  0.00    +0.140 C 
ATOM     10  C   UNL     1      -0.055   4.311  -0.293  0.00  0.00    +0.029 C 
ATOM     11  C   UNL     1      -1.391   4.708  -0.407  0.00  0.00    +0.002 C 
ATOM     12  H   UNL     1      -2.224  -0.125   0.417  0.00  0.00    +0.149 HD
ENDROOT
BRANCH   9  14
ATOM     13  N   UNL     1       5.465   1.488   0.957  0.00  0.00    -0.240 NA
ATOM     14  C   UNL     1       3.218   0.916   0.271  0.00  0.00    +0.106 C 
ATOM     15  C   UNL     1       3.659  -0.330  -0.160  0.00  0.00    +0.035 C 
ATOM     16  C   UNL     1       5.001  -0.668  -0.034  0.00  0.00    +0.141 C 
ATOM     17  C   UNL     1       4.153   1.781   0.818  0.00  0.00    +0.111 C 
ATOM     18  C   UNL     1       5.856   0.267   0.526  0.00  0.00    +0.119 C 
BRANCH  16  19
ATOM     19  S   UNL     1       5.589  -2.219  -0.563  0.00  0.00    +0.059 S 
ATOM     20  O   UNL     1       4.685  -2.735  -1.584  0.00  0.00    -0.153 OA
ATOM     21  O   UNL     1       7.013  -2.104  -0.855  0.00  0.00    -0.153 OA
BRANCH  19  22
ATOM     22  N   UNL     1       5.398  -3.149   0.859  0.00  0.00    -0.203 NA
ATOM     23  H   UNL     1       5.712  -4.104   0.685  0.00  0.00    +0.144 HD
ATOM     24  H   UNL     1       4.414  -3.158   1.129  0.00  0.00    +0.144 HD
ENDBRANCH  19  22
ENDBRANCH  16  19
ENDBRANCH   9  14
BRANCH   5  25
ATOM     25  C   UNL     1      -3.224   1.517  -0.123  0.00  0.00    -0.003 C 
ATOM     26  C   UNL     1      -3.712   0.943  -1.297  0.00  0.00    -0.000 C 
ATOM     27  C   UNL     1      -3.828   1.225   1.100  0.00  0.00    -0.000 C 
ATOM     28  C   UNL     1      -4.805   0.078  -1.248  0.00  0.00    -0.000 C 
ATOM     29  C   UNL     1      -4.921   0.360   1.148  0.00  0.00    -0.000 C 
ATOM     30  C   UNL     1      -5.410  -0.214  -0.026  0.00  0.00    -0.000 C 
ENDBRANCH   5  25
BRANCH   1  31
ATOM     31  C   UNL     1      -0.951  -1.714  -0.046  0.00  0.00    +0.135 C 
BRANCH  31  33
ATOM     32  N   UNL     1      -2.713  -3.026  -1.085  0.00  0.00    -0.246 NA
ATOM     33  C   UNL     1      -2.168  -2.588   0.072  0.00  0.00    +0.079 C 
ATOM     34  C   UNL     1      -2.662  -2.898   1.329  0.00  0.00    +0.016 C 
ATOM     35  C   UNL     1      -3.789  -3.709   1.403  0.00  0.00    +0.003 C 
ATOM     36  C   UNL     1      -3.807  -3.813  -0.973  0.00  0.00    +0.099 C 
ATOM     37  C   UNL     1      -4.379  -4.180   0.235  0.00  0.00    +0.021 C 
ENDBRANCH  31  33
ENDBRANCH   1  31
TORSDOF 6
