REMARK  Name = 60809
REMARK  7 active torsions:
REMARK  status: ('A' for Active; 'I' for Inactive)
REMARK    1  A    between atoms: C_4  and  C_10
REMARK    2  A    between atoms: C_5  and  O_14
REMARK    3  A    between atoms: O_14  and  C_15
REMARK    4  A    between atoms: C_15  and  C_16
REMARK    5  A    between atoms: C_16  and  C_17
REMARK    6  A    between atoms: C_17  and  C_18
REMARK    7  A    between atoms: C_18  and  C_19
REMARK                            x       y       z     vdW  Elec       q    Type
REMARK                         _______ _______ _______ _____ _____    ______ ____
ROOT
ATOM      1  S   UNL     1       1.362  -3.604  -0.043  0.00  0.00    +0.119 S 
ATOM      2  N   UNL     1       2.488  -2.365  -0.157  0.00  0.00    -0.187 NA
ATOM      3  N   UNL     1      -0.060  -2.715   0.004  0.00  0.00    -0.154 NA
ATOM      4  C   UNL     1       1.753  -1.251  -0.159  0.00  0.00    +0.138 A 
ATOM      5  C   UNL     1       0.358  -1.460  -0.070  0.00  0.00    +0.251 A 
ENDROOT
BRANCH   4  10
ATOM      6  N   UNL     1       4.104   1.581   0.689  0.00  0.00    +0.388 N 
ATOM      7  C   UNL     1       3.907   2.425  -0.495  0.00  0.00    -0.072 C 
ATOM      8  C   UNL     1       3.722   0.184   0.397  0.00  0.00    -0.049 C 
ATOM      9  C   UNL     1       2.423   2.465  -0.877  0.00  0.00    +0.003 C 
ATOM     10  C   UNL     1       2.355   0.056  -0.246  0.00  0.00    -0.025 C 
ATOM     11  C   UNL     1       1.760   1.120  -0.814  0.00  0.00    -0.033 C 
ATOM     12  C   UNL     1       5.488   1.649   1.155  0.00  0.00    -0.100 C 
ATOM     13  H   UNL     1       3.502   1.932   1.434  0.00  0.00    -0.079 HD
ENDBRANCH   4  10
BRANCH   5  14
ATOM     14  O   UNL     1      -0.611  -0.498  -0.054  0.00  0.00    -0.459 OA
BRANCH  14  15
ATOM     15  C   UNL     1      -1.952  -0.959   0.042  0.00  0.00    +0.207 C 
BRANCH  15  16
ATOM     16  C   UNL     1      -2.888   0.243   0.027  0.00  0.00    +0.047 C 
BRANCH  16  17
ATOM     17  C   UNL     1      -4.350  -0.184   0.143  0.00  0.00    +0.004 C 
BRANCH  17  18
ATOM     18  C   UNL     1      -5.332   0.990   0.099  0.00  0.00    +0.000 C 
BRANCH  18  19
ATOM     19  C   UNL     1      -6.795   0.565   0.240  0.00  0.00    +0.000 C 
ATOM     20  C   UNL     1      -7.732   1.756   0.118  0.00  0.00    +0.000 C 
ENDBRANCH  18  19
ENDBRANCH  17  18
ENDBRANCH  16  17
ENDBRANCH  15  16
ENDBRANCH  14  15
ENDBRANCH   5  14
TORSDOF 7
