REMARK  Name = 118878093
REMARK  2 active torsions:
REMARK  status: ('A' for Active; 'I' for Inactive)
REMARK    1  A    between atoms: N_6  and  C_21
REMARK    2  A    between atoms: C_13  and  C_27
REMARK                            x       y       z     vdW  Elec       q    Type
REMARK                         _______ _______ _______ _____ _____    ______ ____
ROOT
ATOM      1  O   UNL     1      -4.379  -0.212   1.515  0.00  0.00    -0.275 OA
ATOM      2  N   UNL     1      -3.155   0.306  -0.377  0.00  0.00    -0.279 N 
ATOM      3  N   UNL     1      -0.699   1.632  -0.251  0.00  0.00    -0.279 N 
ATOM      4  N   UNL     1       1.617   1.246   0.098  0.00  0.00    -0.322 NA
ATOM      5  N   UNL     1       3.012   3.027   0.928  0.00  0.00    -0.170 NA
ATOM      6  N   UNL     1       3.910   0.910   0.460  0.00  0.00    -0.244 N 
ATOM      7  C   UNL     1      -2.217   0.018  -1.444  0.00  0.00    +0.095 C 
ATOM      8  C   UNL     1      -3.211   1.748  -0.284  0.00  0.00    +0.095 C 
ATOM      9  C   UNL     1      -3.276   2.182  -1.753  0.00  0.00    +0.023 C 
ATOM     10  C   UNL     1      -2.614   1.032  -2.525  0.00  0.00    +0.023 C 
ATOM     11  C   UNL     1      -1.907   2.220   0.378  0.00  0.00    +0.113 C 
ATOM     12  C   UNL     1      -0.804   0.306  -0.908  0.00  0.00    +0.113 C 
ATOM     13  C   UNL     1      -3.740  -0.559   0.525  0.00  0.00    +0.231 C 
ATOM     14  C   UNL     1       0.569   2.095   0.147  0.00  0.00    +0.198 C 
ATOM     15  C   UNL     1       0.663   3.406   0.569  0.00  0.00    +0.070 C 
ATOM     16  C   UNL     1       1.922   3.821   0.952  0.00  0.00    +0.116 C 
ATOM     17  C   UNL     1       2.791   1.770   0.497  0.00  0.00    +0.150 C 
ATOM     18  H   UNL     1       4.746   1.335   0.759  0.00  0.00    +0.165 HD
ENDROOT
BRANCH   6  21
ATOM     19  N   UNL     1       3.723  -2.477  -0.619  0.00  0.00    -0.207 N 
ATOM     20  N   UNL     1       5.039  -2.457  -0.347  0.00  0.00    -0.175 NA
ATOM     21  C   UNL     1       4.065  -0.435   0.077  0.00  0.00    +0.095 C 
ATOM     22  C   UNL     1       3.093  -1.291  -0.382  0.00  0.00    +0.101 C 
ATOM     23  C   UNL     1       5.242  -1.207   0.077  0.00  0.00    +0.134 C 
ATOM     24  C   UNL     1       3.111  -3.687  -1.114  0.00  0.00    +0.140 C 
ENDBRANCH   6  21
BRANCH  13  27
ATOM     25  F   UNL     1      -1.375  -2.035   1.422  0.00  0.00    -0.204 F 
ATOM     26  F   UNL     1      -1.763  -3.666  -0.031  0.00  0.00    -0.204 F 
ATOM     27  C   UNL     1      -3.575  -2.016   0.246  0.00  0.00    +0.143 C 
ATOM     28  C   UNL     1      -2.369  -2.703   0.744  0.00  0.00    +0.273 C 
ATOM     29  C   UNL     1      -3.672  -2.976   1.398  0.00  0.00    +0.082 C 
ENDBRANCH  13  27
TORSDOF 2
