REMARK  Name = 9820008
REMARK  6 active torsions:
REMARK  status: ('A' for Active; 'I' for Inactive)
REMARK    1  A    between atoms: C_2  and  N_17
REMARK    2  A    between atoms: C_3  and  C_8
REMARK    3  A    between atoms: C_11  and  O_14
REMARK    4  A    between atoms: C_18  and  C_23
REMARK    5  A    between atoms: C_24  and  C_26
REMARK    6  A    between atoms: C_26  and  O_27
REMARK                            x       y       z     vdW  Elec       q    Type
REMARK                         _______ _______ _______ _____ _____    ______ ____
ROOT
ATOM      1  F   UNL     1      -0.299   1.377   2.061  0.00  0.00    -0.203 F 
ATOM      2  C   UNL     1      -0.572  -0.258   0.360  0.00  0.00    +0.078 C 
ATOM      3  C   UNL     1       2.178  -0.375   0.058  0.00  0.00    +0.002 C 
ATOM      4  C   UNL     1       0.231   0.546   1.152  0.00  0.00    +0.153 C 
ATOM      5  C   UNL     1      -0.030  -1.119  -0.579  0.00  0.00    +0.017 C 
ATOM      6  C   UNL     1       1.616   0.487   1.000  0.00  0.00    +0.031 C 
ATOM      7  C   UNL     1       1.355  -1.178  -0.732  0.00  0.00    +0.001 C 
ENDROOT
BRANCH   3   8
ATOM      8  C   UNL     1       3.615  -0.437  -0.100  0.00  0.00    +0.003 C 
ATOM      9  C   UNL     1       4.394   0.691   0.157  0.00  0.00    +0.037 C 
ATOM     10  C   UNL     1       4.221  -1.624  -0.510  0.00  0.00    +0.000 C 
ATOM     11  C   UNL     1       5.779   0.632   0.004  0.00  0.00    +0.139 C 
ATOM     12  C   UNL     1       5.606  -1.684  -0.662  0.00  0.00    +0.003 C 
ATOM     13  C   UNL     1       6.385  -0.556  -0.406  0.00  0.00    +0.037 C 
BRANCH  11  14
ATOM     14  O   UNL     1       6.540   1.732   0.254  0.00  0.00    -0.471 OA
ATOM     15  C   UNL     1       7.949   1.602   0.076  0.00  0.00    +0.252 C 
ENDBRANCH  11  14
ENDBRANCH   3   8
BRANCH   2  17
ATOM     16  O   UNL     1      -2.760  -1.757  -1.073  0.00  0.00    -0.270 OA
ATOM     17  N   UNL     1      -1.978  -0.199   0.511  0.00  0.00    -0.279 N 
ATOM     18  C   UNL     1      -2.946  -0.920  -0.184  0.00  0.00    +0.245 C 
ATOM     19  H   UNL     1      -2.313   0.428   1.192  0.00  0.00    +0.155 HD
BRANCH  18  23
ATOM     20  C   UNL     1      -6.159  -0.453   1.686  0.00  0.00    +0.010 C 
ATOM     21  C   UNL     1      -4.965  -1.347   1.351  0.00  0.00    +0.031 C 
ATOM     22  C   UNL     1      -6.417   0.394   0.438  0.00  0.00    +0.033 C 
ATOM     23  C   UNL     1      -4.300  -0.595   0.244  0.00  0.00    +0.034 C 
ATOM     24  C   UNL     1      -5.095   0.357  -0.255  0.00  0.00    +0.054 C 
BRANCH  24  26
ATOM     25  O   UNL     1      -3.726   1.307  -1.950  0.00  0.00    -0.245 OA
ATOM     26  C   UNL     1      -4.784   1.280  -1.338  0.00  0.00    +0.334 C 
BRANCH  26  27
ATOM     27  O   UNL     1      -5.837   2.098  -1.563  0.00  0.00    -0.477 OA
ATOM     28  H   UNL     1      -6.615   2.013  -1.048  0.00  0.00    +0.295 HD
ENDBRANCH  26  27
ENDBRANCH  24  26
ENDBRANCH  18  23
ENDBRANCH   2  17
TORSDOF 6
