REMARK  Name = 5279172
REMARK  3 active torsions:
REMARK  status: ('A' for Active; 'I' for Inactive)
REMARK    1  A    between atoms: C_5  and  N_15
REMARK    2  A    between atoms: C_6  and  C_27
REMARK    3  A    between atoms: N_16  and  C_21
REMARK                            x       y       z     vdW  Elec       q    Type
REMARK                         _______ _______ _______ _____ _____    ______ ____
ROOT
ATOM      1  O   UNL     1      -0.354   1.034  -2.552  0.00  0.00    -0.271 OA
ATOM      2  N   UNL     1       1.413   2.016  -1.492  0.00  0.00    -0.281 N 
ATOM      3  N   UNL     1       1.168  -0.724  -0.246  0.00  0.00    -0.243 NA
ATOM      4  C   UNL     1       2.808   1.030   0.320  0.00  0.00    +0.031 C 
ATOM      5  C   UNL     1       0.136   0.287  -0.309  0.00  0.00    +0.256 C 
ATOM      6  C   UNL     1       2.371  -0.374   0.056  0.00  0.00    +0.079 C 
ATOM      7  C   UNL     1       2.400   2.104  -0.489  0.00  0.00    +0.052 C 
ATOM      8  C   UNL     1       0.369   1.115  -1.558  0.00  0.00    +0.268 C 
ATOM      9  C   UNL     1       3.745   1.251   1.343  0.00  0.00    +0.003 C 
ATOM     10  C   UNL     1       3.017   3.353  -0.327  0.00  0.00    +0.015 C 
ATOM     11  C   UNL     1       4.313   2.511   1.524  0.00  0.00    +0.000 C 
ATOM     12  C   UNL     1       3.962   3.558   0.678  0.00  0.00    +0.001 C 
ATOM     13  H   UNL     1       1.476   2.669  -2.227  0.00  0.00    +0.155 HD
ENDROOT
BRANCH   5  15
ATOM     14  O   UNL     1      -2.360   1.372   0.586  0.00  0.00    -0.252 OA
ATOM     15  N   UNL     1      -1.157  -0.336  -0.406  0.00  0.00    -0.264 N 
ATOM     16  N   UNL     1      -3.433  -0.574  -0.172  0.00  0.00    -0.266 N 
ATOM     17  C   UNL     1      -2.337   0.263   0.057  0.00  0.00    +0.306 C 
ATOM     18  H   UNL     1      -1.217  -1.228  -0.819  0.00  0.00    +0.153 HD
ATOM     19  H   UNL     1      -3.236  -1.434  -0.608  0.00  0.00    +0.156 HD
BRANCH  16  21
ATOM     20  F   UNL     1      -5.399  -2.446  -0.752  0.00  0.00    -0.203 F 
ATOM     21  C   UNL     1      -4.789  -0.335   0.149  0.00  0.00    +0.079 C 
ATOM     22  C   UNL     1      -5.741  -1.294  -0.157  0.00  0.00    +0.154 C 
ATOM     23  C   UNL     1      -5.138   0.856   0.765  0.00  0.00    +0.017 C 
ATOM     24  C   UNL     1      -7.078  -1.056   0.162  0.00  0.00    +0.031 C 
ATOM     25  C   UNL     1      -6.475   1.094   1.083  0.00  0.00    +0.001 C 
ATOM     26  C   UNL     1      -7.445   0.138   0.782  0.00  0.00    +0.002 C 
ENDBRANCH  16  21
ENDBRANCH   5  15
BRANCH   6  27
ATOM     27  C   UNL     1       3.389  -1.463   0.110  0.00  0.00    +0.017 C 
ATOM     28  C   UNL     1       4.708  -1.185  -0.224  0.00  0.00    +0.001 C 
ATOM     29  C   UNL     1       3.005  -2.742   0.492  0.00  0.00    +0.001 C 
ATOM     30  C   UNL     1       5.660  -2.204  -0.174  0.00  0.00    +0.000 C 
ATOM     31  C   UNL     1       3.957  -3.760   0.542  0.00  0.00    +0.000 C 
ATOM     32  C   UNL     1       5.284  -3.491   0.209  0.00  0.00    +0.000 C 
ENDBRANCH   6  27
TORSDOF 3
