REMARK  Name = 71587637
REMARK  5 active torsions:
REMARK  status: ('A' for Active; 'I' for Inactive)
REMARK    1  A    between atoms: N_1  and  C_21
REMARK    2  A    between atoms: C_4  and  C_18
REMARK    3  A    between atoms: C_5  and  C_11
REMARK    4  A    between atoms: C_18  and  O_19
REMARK    5  A    between atoms: C_21  and  C_23
REMARK                            x       y       z     vdW  Elec       q    Type
REMARK                         _______ _______ _______ _____ _____    ______ ____
ROOT
ATOM      1  N   UNL     1       2.090  -0.409   0.289  0.00  0.00    +0.393 N 
ATOM      2  C   UNL     1       1.341  -1.346   1.150  0.00  0.00    -0.047 C 
ATOM      3  C   UNL     1       1.775  -0.890  -1.067  0.00  0.00    -0.057 C 
ATOM      4  C   UNL     1      -0.160  -0.956   1.080  0.00  0.00    +0.084 C 
ATOM      5  C   UNL     1      -0.705  -0.968  -0.375  0.00  0.00    +0.029 C 
ATOM      6  C   UNL     1       0.340  -0.406  -1.373  0.00  0.00    -0.016 C 
ATOM      7  C   UNL     1       1.594  -2.719   0.513  0.00  0.00    -0.022 C 
ATOM      8  C   UNL     1       1.871  -2.415  -0.962  0.00  0.00    -0.023 C 
ATOM      9  H   UNL     1       1.823   0.565   0.437  0.00  0.00    -0.079 HD
ENDROOT
BRANCH   5  11
ATOM     10  F   UNL     1      -5.951   1.088  -0.806  0.00  0.00    -0.204 F 
ATOM     11  C   UNL     1      -2.118  -0.414  -0.491  0.00  0.00    -0.022 C 
ATOM     12  C   UNL     1      -3.210  -1.210  -0.145  0.00  0.00    -0.002 C 
ATOM     13  C   UNL     1      -2.321   0.889  -0.944  0.00  0.00    -0.002 C 
ATOM     14  C   UNL     1      -4.505  -0.703  -0.251  0.00  0.00    +0.029 C 
ATOM     15  C   UNL     1      -3.616   1.397  -1.050  0.00  0.00    +0.029 C 
ATOM     16  C   UNL     1      -4.708   0.600  -0.704  0.00  0.00    +0.140 C 
ENDBRANCH   5  11
BRANCH   4  18
ATOM     17  O   UNL     1      -1.024   0.557   2.751  0.00  0.00    -0.250 OA
ATOM     18  C   UNL     1      -0.345   0.381   1.749  0.00  0.00    +0.315 C 
BRANCH  18  19
ATOM     19  O   UNL     1       0.353   1.332   1.066  0.00  0.00    -0.444 OA
ATOM     20  C   UNL     1       0.265   2.659   1.596  0.00  0.00    +0.256 C 
ENDBRANCH  18  19
ENDBRANCH   4  18
BRANCH   1  21
ATOM     21  C   UNL     1       3.522  -0.396   0.571  0.00  0.00    -0.050 C 
BRANCH  21  23
ATOM     22  I   UNL     1       6.115   2.383  -1.685  0.00  0.00    -0.043 I 
ATOM     23  C   UNL     1       4.189   0.810  -0.021  0.00  0.00    -0.043 C 
ATOM     24  C   UNL     1       5.206   0.737  -0.890  0.00  0.00    +0.029 C 
ENDBRANCH  21  23
ENDBRANCH   1  21
TORSDOF 5
