REMARK  Name = 46207731
REMARK  4 active torsions:
REMARK  status: ('A' for Active; 'I' for Inactive)
REMARK    1  A    between atoms: N_1  and  C_17
REMARK    2  A    between atoms: C_10  and  C_14
REMARK    3  A    between atoms: C_14  and  O_15
REMARK    4  A    between atoms: C_17  and  C_20
REMARK                            x       y       z     vdW  Elec       q    Type
REMARK                         _______ _______ _______ _____ _____    ______ ____
ROOT
ATOM      1  N   UNL     1      -0.136  -0.115  -0.694  0.00  0.00    +0.392 N 
ATOM      2  N   UNL     1       2.641   0.344  -0.209  0.00  0.00    -0.298 N 
ATOM      3  C   UNL     1       0.419  -0.283   0.654  0.00  0.00    -0.055 C 
ATOM      4  C   UNL     1       0.866  -0.492  -1.698  0.00  0.00    -0.055 C 
ATOM      5  C   UNL     1       2.120   0.378  -1.579  0.00  0.00    +0.069 C 
ATOM      6  C   UNL     1       1.657   0.595   0.852  0.00  0.00    +0.069 C 
ATOM      7  H   UNL     1      -0.383   0.866  -0.828  0.00  0.00    -0.079 HD
ATOM      8  N   UNL     1       4.374   1.938  -0.308  0.00  0.00    -0.229 NA
ATOM      9  C   UNL     1       3.974   0.693   0.035  0.00  0.00    +0.130 C 
ATOM     10  C   UNL     1       4.803  -0.257   0.611  0.00  0.00    +0.039 C 
ATOM     11  C   UNL     1       6.127   0.093   0.850  0.00  0.00    +0.003 C 
ATOM     12  C   UNL     1       5.668   2.242  -0.060  0.00  0.00    +0.100 C 
ATOM     13  C   UNL     1       6.575   1.365   0.511  0.00  0.00    +0.021 C 
ENDROOT
BRANCH  10  14
ATOM     14  C   UNL     1       4.326  -1.622   0.974  0.00  0.00    +0.171 C 
BRANCH  14  15
ATOM     15  O   UNL     1       3.852  -2.284  -0.192  0.00  0.00    -0.346 OA
ATOM     16  C   UNL     1       3.385  -3.593   0.105  0.00  0.00    +0.175 C 
ENDBRANCH  14  15
ENDBRANCH  10  14
BRANCH   1  17
ATOM     17  C   UNL     1      -1.349  -0.916  -0.853  0.00  0.00    -0.029 C 
BRANCH  17  20
ATOM     18  O   UNL     1      -3.671  -1.116  -0.334  0.00  0.00    -0.474 OA
ATOM     19  O   UNL     1      -3.898   1.741  -0.036  0.00  0.00    -0.469 OA
ATOM     20  C   UNL     1      -2.534  -0.259  -0.162  0.00  0.00    +0.189 C 
ATOM     21  C   UNL     1      -2.831   1.113  -0.754  0.00  0.00    +0.246 C 
ATOM     22  C   UNL     1      -4.842  -0.496   0.014  0.00  0.00    +0.172 C 
ATOM     23  C   UNL     1      -4.949   0.887   0.169  0.00  0.00    +0.172 C 
ATOM     24  C   UNL     1      -5.960  -1.310   0.205  0.00  0.00    +0.040 C 
ATOM     25  C   UNL     1      -6.163   1.455   0.557  0.00  0.00    +0.040 C 
ATOM     26  C   UNL     1      -7.177  -0.740   0.580  0.00  0.00    +0.003 C 
ATOM     27  C   UNL     1      -7.277   0.640   0.761  0.00  0.00    +0.003 C 
ENDBRANCH  17  20
ENDBRANCH   1  17
TORSDOF 4
