REMARK  Name = 44633765
REMARK  7 active torsions:
REMARK  status: ('A' for Active; 'I' for Inactive)
REMARK    1  A    between atoms: C_2  and  C_22
REMARK    2  A    between atoms: C_3  and  C_15
REMARK    3  A    between atoms: C_4  and  C_9
REMARK    4  A    between atoms: N_21  and  C_24
REMARK    5  A    between atoms: C_24  and  C_26
REMARK    6  A    between atoms: C_29  and  O_31
REMARK    7  A    between atoms: C_30  and  O_33
REMARK                            x       y       z     vdW  Elec       q    Type
REMARK                         _______ _______ _______ _____ _____    ______ ____
ROOT
ATOM      1  N   UNL     1      -1.997   2.182   0.451  0.00  0.00    -0.242 NA
ATOM      2  C   UNL     1      -1.388  -0.131   0.097  0.00  0.00    +0.072 C 
ATOM      3  C   UNL     1      -1.078   1.195   0.352  0.00  0.00    +0.103 C 
ATOM      4  C   UNL     1      -3.702   0.521   0.027  0.00  0.00    +0.021 C 
ATOM      5  C   UNL     1      -2.727  -0.466  -0.067  0.00  0.00    +0.008 C 
ATOM      6  C   UNL     1      -3.288   1.818   0.285  0.00  0.00    +0.099 C 
ENDROOT
BRANCH   4   9
ATOM      7 CL   UNL     1      -7.606  -2.849   0.459  0.00  0.00    -0.081 Cl
ATOM      8  N   UNL     1      -7.308   0.908  -0.832  0.00  0.00    -0.241 NA
ATOM      9  C   UNL     1      -5.101   0.205  -0.139  0.00  0.00    +0.022 C 
ATOM     10  C   UNL     1      -5.601  -1.044   0.211  0.00  0.00    +0.015 C 
ATOM     11  C   UNL     1      -5.988   1.138  -0.651  0.00  0.00    +0.099 C 
ATOM     12  C   UNL     1      -6.953  -1.319   0.040  0.00  0.00    +0.077 C 
ATOM     13  C   UNL     1      -7.757  -0.318  -0.481  0.00  0.00    +0.110 C 
ENDBRANCH   4   9
BRANCH   3  15
ATOM     14  N   UNL     1       0.939   1.064   1.571  0.00  0.00    -0.242 NA
ATOM     15  C   UNL     1       0.285   1.642   0.539  0.00  0.00    +0.099 C 
ATOM     16  C   UNL     1       0.845   2.594  -0.298  0.00  0.00    +0.021 C 
ATOM     17  C   UNL     1       2.160   2.978  -0.060  0.00  0.00    +0.003 C 
ATOM     18  C   UNL     1       2.215   1.462   1.772  0.00  0.00    +0.099 C 
ATOM     19  C   UNL     1       2.865   2.406   0.993  0.00  0.00    +0.021 C 
ENDBRANCH   3  15
BRANCH   2  22
ATOM     20  O   UNL     1      -0.400  -2.153   0.757  0.00  0.00    -0.270 OA
ATOM     21  N   UNL     1       0.597  -1.014  -1.000  0.00  0.00    -0.295 N 
ATOM     22  C   UNL     1      -0.373  -1.171  -0.004  0.00  0.00    +0.248 C 
ATOM     23  H   UNL     1       0.557  -0.210  -1.567  0.00  0.00    +0.150 HD
BRANCH  21  24
ATOM     24  C   UNL     1       1.654  -1.970  -1.241  0.00  0.00    +0.145 C 
BRANCH  24  26
ATOM     25  N   UNL     1       3.653  -1.717   0.116  0.00  0.00    -0.372 NA
ATOM     26  C   UNL     1       3.013  -1.371  -1.024  0.00  0.00    +0.114 C 
ATOM     27  C   UNL     1       3.536  -0.511  -1.976  0.00  0.00    +0.086 C 
ATOM     28  C   UNL     1       4.797   0.028  -1.744  0.00  0.00    +0.024 C 
ATOM     29  C   UNL     1       5.486  -0.304  -0.583  0.00  0.00    +0.200 C 
ATOM     30  C   UNL     1       4.876  -1.174   0.307  0.00  0.00    +0.312 C 
BRANCH  29  31
ATOM     31  O   UNL     1       6.717   0.214  -0.343  0.00  0.00    -0.466 OA
ATOM     32  C   UNL     1       7.255   1.101  -1.325  0.00  0.00    +0.253 C 
ENDBRANCH  29  31
BRANCH  30  33
ATOM     33  O   UNL     1       5.527  -1.526   1.460  0.00  0.00    -0.446 OA
ATOM     34  C   UNL     1       4.847  -2.421   2.331  0.00  0.00    +0.255 C 
ENDBRANCH  30  33
ENDBRANCH  24  26
ENDBRANCH  21  24
ENDBRANCH   2  22
TORSDOF 7
