REMARK  Name = 72696796
REMARK  9 active torsions:
REMARK  status: ('A' for Active; 'I' for Inactive)
REMARK    1  A    between atoms: N_2  and  C_29
REMARK    2  A    between atoms: C_10  and  C_12
REMARK    3  A    between atoms: C_13  and  C_16
REMARK    4  A    between atoms: N_15  and  C_18
REMARK    5  A    between atoms: C_18  and  C_20
REMARK    6  A    between atoms: C_29  and  O_30
REMARK    7  A    between atoms: O_30  and  P_31
REMARK    8  A    between atoms: P_31  and  O_33
REMARK    9  A    between atoms: P_31  and  O_35
REMARK                            x       y       z     vdW  Elec       q    Type
REMARK                         _______ _______ _______ _____ _____    ______ ____
ROOT
ATOM      1  O   UNL     1      -5.511   2.274   1.117  0.00  0.00    -0.274 OA
ATOM      2  N   UNL     1      -3.698   1.382  -0.043  0.00  0.00    -0.217 N 
ATOM      3  N   UNL     1      -1.788   0.583  -1.269  0.00  0.00    -0.229 NA
ATOM      4  C   UNL     1      -2.058   3.135   1.494  0.00  0.00    +0.039 C 
ATOM      5  C   UNL     1      -1.484   2.298   0.395  0.00  0.00    +0.010 C 
ATOM      6  C   UNL     1      -3.484   3.521   1.158  0.00  0.00    +0.090 C 
ATOM      7  C   UNL     1      -2.296   1.421  -0.328  0.00  0.00    +0.135 C 
ATOM      8  C   UNL     1      -4.327   2.322   0.777  0.00  0.00    +0.233 C 
ATOM      9  C   UNL     1      -0.111   2.307   0.131  0.00  0.00    +0.000 C 
ATOM     10  C   UNL     1       0.416   1.468  -0.841  0.00  0.00    +0.019 C 
ATOM     11  C   UNL     1      -0.458   0.631  -1.506  0.00  0.00    +0.100 C 
ENDROOT
BRANCH  10  12
ATOM     12  C   UNL     1       1.832   1.479  -1.157  0.00  0.00    +0.006 C 
ATOM     13  C   UNL     1       2.810   1.958  -0.352  0.00  0.00    +0.058 C 
BRANCH  13  16
ATOM     14  O   UNL     1       4.561   2.579  -1.809  0.00  0.00    -0.270 OA
ATOM     15  N   UNL     1       5.122   1.209  -0.017  0.00  0.00    -0.267 N 
ATOM     16  C   UNL     1       4.232   1.944  -0.805  0.00  0.00    +0.250 C 
ATOM     17  C   UNL     1       6.534   1.172  -0.377  0.00  0.00    +0.116 C 
BRANCH  15  18
ATOM     18  C   UNL     1       4.763   0.477   1.196  0.00  0.00    +0.158 C 
BRANCH  18  20
ATOM     19  O   UNL     1       2.589  -0.531   1.579  0.00  0.00    -0.456 OA
ATOM     20  C   UNL     1       3.773  -0.618   0.918  0.00  0.00    +0.139 A 
ATOM     21  C   UNL     1       3.800  -1.732   0.112  0.00  0.00    +0.013 A 
ATOM     22  C   UNL     1       2.549  -2.381   0.283  0.00  0.00    +0.033 A 
ATOM     23  C   UNL     1       1.842  -1.604   1.195  0.00  0.00    +0.145 A 
ATOM     24  C   UNL     1       4.911  -2.163  -0.758  0.00  0.00    +0.034 C 
ATOM     25  C   UNL     1       1.938  -3.538  -0.230  0.00  0.00    +0.003 C 
ATOM     26  C   UNL     1       0.554  -1.898   1.638  0.00  0.00    +0.037 C 
ATOM     27  C   UNL     1       0.642  -3.860   0.197  0.00  0.00    +0.000 C 
ATOM     28  C   UNL     1      -0.035  -3.053   1.115  0.00  0.00    +0.003 C 
ENDBRANCH  18  20
ENDBRANCH  15  18
ENDBRANCH  13  16
ENDBRANCH  10  12
BRANCH   2  29
ATOM     29  C   UNL     1      -4.471   0.300  -0.644  0.00  0.00    +0.257 C 
BRANCH  29  30
ATOM     30  O   UNL     1      -4.287  -0.875   0.123  0.00  0.00    -0.251 OA
BRANCH  30  31
ATOM     31  P   UNL     1      -4.612  -2.303  -0.566  0.00  0.00    +0.475 P 
ATOM     32  O   UNL     1      -4.395  -3.506   0.305  0.00  0.00    -0.227 OA
BRANCH  31  33
ATOM     33  O   UNL     1      -3.729  -2.271  -1.920  0.00  0.00    -0.303 OA
ATOM     34  H   UNL     1      -3.931  -1.464  -2.419  0.00  0.00    +0.222 HD
ENDBRANCH  31  33
BRANCH  31  35
ATOM     35  O   UNL     1      -6.125  -2.128  -1.113  0.00  0.00    -0.303 OA
ATOM     36  H   UNL     1      -6.180  -1.332  -1.664  0.00  0.00    +0.222 HD
ENDBRANCH  31  35
ENDBRANCH  30  31
ENDBRANCH  29  30
ENDBRANCH   2  29
TORSDOF 9
