REMARK  Name = 65650
REMARK  3 active torsions:
REMARK  status: ('A' for Active; 'I' for Inactive)
REMARK    1  A    between atoms: C_1  and  C_2
REMARK    2  A    between atoms: C_1  and  O_12
REMARK    3  A    between atoms: O_12  and  C_14
REMARK                            x       y       z     vdW  Elec       q    Type
REMARK                         _______ _______ _______ _____ _____    ______ ____
ROOT
ATOM      1  C   UNL     1       0.953  -0.541  -0.927  0.00  0.00    +0.168 C 
ENDROOT
BRANCH   1   2
ATOM      2  C   UNL     1      -0.499  -0.583  -0.588  0.00  0.00    +0.007 C 
ATOM      3  C   UNL     1      -1.212   0.606  -0.427  0.00  0.00    -0.002 C 
ATOM      4  C   UNL     1      -2.579   0.583  -0.108  0.00  0.00    -0.000 C 
ATOM      5  C   UNL     1      -1.142  -1.807  -0.433  0.00  0.00    -0.002 C 
ATOM      6  C   UNL     1      -3.233  -0.662   0.050  0.00  0.00    -0.000 C 
ATOM      7  C   UNL     1      -2.500  -1.848  -0.116  0.00  0.00    -0.000 C 
ATOM      8  C   UNL     1      -3.313   1.770   0.057  0.00  0.00    -0.000 C 
ATOM      9  C   UNL     1      -4.601  -0.684   0.369  0.00  0.00    -0.000 C 
ATOM     10  C   UNL     1      -4.670   1.729   0.375  0.00  0.00    -0.000 C 
ATOM     11  C   UNL     1      -5.313   0.504   0.531  0.00  0.00    -0.000 C 
ENDBRANCH   1   2
BRANCH   1  12
ATOM     12  O   UNL     1       1.717  -0.521   0.273  0.00  0.00    -0.352 OA
BRANCH  12  14
ATOM     13  N   UNL     1       5.628   0.964   0.324  0.00  0.00    +0.384 N 
ATOM     14  C   UNL     1       3.112  -0.481   0.002  0.00  0.00    +0.111 C 
ATOM     15  C   UNL     1       3.876  -0.462   1.323  0.00  0.00    +0.006 C 
ATOM     16  C   UNL     1       3.449   0.759  -0.823  0.00  0.00    +0.006 C 
ATOM     17  C   UNL     1       5.370  -0.253   1.096  0.00  0.00    -0.079 C 
ATOM     18  C   UNL     1       4.958   0.928  -0.977  0.00  0.00    -0.079 C 
ATOM     19  H   UNL     1       6.633   1.056   0.177  0.00  0.00    -0.085 HD
ATOM     20  H   UNL     1       5.262   1.759   0.849  0.00  0.00    -0.085 HD
ENDBRANCH  12  14
ENDBRANCH   1  12
TORSDOF 3
