REMARK  Name = 16659285
REMARK  3 active torsions:
REMARK  status: ('A' for Active; 'I' for Inactive)
REMARK    1  A    between atoms: C_3  and  C_14
REMARK    2  A    between atoms: C_9  and  C_30
REMARK    3  A    between atoms: C_20  and  C_24
REMARK                            x       y       z     vdW  Elec       q    Type
REMARK                         _______ _______ _______ _____ _____    ______ ____
ROOT
ATOM      1  N   UNL     1       3.804  -0.673  -0.202  0.00  0.00    -0.315 N 
ATOM      2  N   UNL     1       4.854   1.192   0.396  0.00  0.00    -0.315 N 
ATOM      3  C   UNL     1       0.721   1.385   0.067  0.00  0.00    +0.001 C 
ATOM      4  C   UNL     1       2.818   0.267  -0.041  0.00  0.00    +0.059 C 
ATOM      5  C   UNL     1       3.499   1.422   0.333  0.00  0.00    +0.059 C 
ATOM      6  C   UNL     1       1.431   0.207  -0.185  0.00  0.00    +0.016 C 
ATOM      7  C   UNL     1       1.376   2.560   0.444  0.00  0.00    +0.001 C 
ATOM      8  C   UNL     1       2.769   2.597   0.582  0.00  0.00    +0.016 C 
ATOM      9  C   UNL     1       5.001  -0.072   0.070  0.00  0.00    +0.168 C 
ATOM     10  H   UNL     1       3.672  -1.612  -0.467  0.00  0.00    +0.149 HD
ATOM     11  H   UNL     1       5.560   1.835   0.635  0.00  0.00    +0.149 HD
ENDROOT
BRANCH   3  14
ATOM     12  N   UNL     1      -3.804  -0.673   0.202  0.00  0.00    -0.315 N 
ATOM     13  N   UNL     1      -4.854   1.192  -0.396  0.00  0.00    -0.315 N 
ATOM     14  C   UNL     1      -0.721   1.385  -0.067  0.00  0.00    +0.001 C 
ATOM     15  C   UNL     1      -2.818   0.267   0.041  0.00  0.00    +0.059 C 
ATOM     16  C   UNL     1      -3.499   1.422  -0.333  0.00  0.00    +0.059 C 
ATOM     17  C   UNL     1      -1.431   0.207   0.185  0.00  0.00    +0.016 C 
ATOM     18  C   UNL     1      -1.376   2.560  -0.444  0.00  0.00    +0.001 C 
ATOM     19  C   UNL     1      -2.769   2.596  -0.582  0.00  0.00    +0.016 C 
ATOM     20  C   UNL     1      -5.001  -0.072  -0.070  0.00  0.00    +0.168 C 
ATOM     21  H   UNL     1      -3.672  -1.612   0.467  0.00  0.00    +0.149 HD
ATOM     22  H   UNL     1      -5.560   1.835  -0.635  0.00  0.00    +0.149 HD
BRANCH  20  24
ATOM     23  N   UNL     1      -8.673  -2.176   0.155  0.00  0.00    -0.242 NA
ATOM     24  C   UNL     1      -6.251  -0.789   0.009  0.00  0.00    +0.017 C 
ATOM     25  C   UNL     1      -7.420  -0.118   0.346  0.00  0.00    +0.020 C 
ATOM     26  C   UNL     1      -6.291  -2.154  -0.256  0.00  0.00    +0.020 C 
ATOM     27  C   UNL     1      -8.595  -0.850   0.405  0.00  0.00    +0.099 C 
ATOM     28  C   UNL     1      -7.516  -2.795  -0.170  0.00  0.00    +0.099 C 
ENDBRANCH  20  24
ENDBRANCH   3  14
BRANCH   9  30
ATOM     29  N   UNL     1       8.673  -2.176  -0.155  0.00  0.00    -0.242 NA
ATOM     30  C   UNL     1       6.251  -0.789  -0.009  0.00  0.00    +0.017 C 
ATOM     31  C   UNL     1       7.420  -0.118  -0.346  0.00  0.00    +0.020 C 
ATOM     32  C   UNL     1       6.291  -2.154   0.256  0.00  0.00    +0.020 C 
ATOM     33  C   UNL     1       8.595  -0.850  -0.405  0.00  0.00    +0.099 C 
ATOM     34  C   UNL     1       7.516  -2.795   0.170  0.00  0.00    +0.099 C 
ENDBRANCH   9  30
TORSDOF 3
