REMARK  Name = 91801202
REMARK  4 active torsions:
REMARK  status: ('A' for Active; 'I' for Inactive)
REMARK    1  A    between atoms: C_3  and  C_12
REMARK    2  A    between atoms: C_8  and  C_22
REMARK    3  A    between atoms: C_23  and  N_28
REMARK    4  A    between atoms: C_26  and  O_33
REMARK                            x       y       z     vdW  Elec       q    Type
REMARK                         _______ _______ _______ _____ _____    ______ ____
ROOT
ATOM      1  O   UNL     1      -0.735  -0.587   1.700  0.00  0.00    -0.270 OA
ATOM      2  N   UNL     1      -0.843  -1.462  -0.462  0.00  0.00    -0.276 N 
ATOM      3  C   UNL     1       0.370  -2.324  -0.394  0.00  0.00    +0.094 C 
ATOM      4  C   UNL     1       0.489  -2.871  -1.843  0.00  0.00    +0.023 C 
ATOM      5  C   UNL     1      -0.945  -2.870  -2.357  0.00  0.00    +0.023 C 
ATOM      6  C   UNL     1      -1.519  -1.601  -1.753  0.00  0.00    +0.094 C 
ATOM      7  C   UNL     1       0.082  -3.499   0.568  0.00  0.00    +0.023 C 
ATOM      8  C   UNL     1      -1.300  -0.705   0.615  0.00  0.00    +0.250 C 
ENDROOT
BRANCH   3  12
ATOM      9 CL   UNL     1       6.722   1.923   0.129  0.00  0.00    -0.083 Cl
ATOM     10  N   UNL     1       2.100  -1.444   1.229  0.00  0.00    -0.317 N 
ATOM     11  N   UNL     1       2.388  -0.850  -0.893  0.00  0.00    -0.317 N 
ATOM     12  C   UNL     1       1.634  -1.523  -0.053  0.00  0.00    +0.161 C 
ATOM     13  C   UNL     1       3.231  -0.668   1.216  0.00  0.00    +0.059 C 
ATOM     14  C   UNL     1       3.390  -0.310  -0.120  0.00  0.00    +0.056 C 
ATOM     15  C   UNL     1       4.476   0.502  -0.487  0.00  0.00    +0.003 C 
ATOM     16  C   UNL     1       4.103  -0.261   2.227  0.00  0.00    +0.016 C 
ATOM     17  C   UNL     1       5.364   0.922   0.512  0.00  0.00    +0.055 C 
ATOM     18  C   UNL     1       5.178   0.546   1.844  0.00  0.00    +0.012 C 
ATOM     19  C   UNL     1       4.681   0.909  -1.912  0.00  0.00    +0.033 C 
ATOM     20  H   UNL     1       1.697  -1.867   2.021  0.00  0.00    +0.148 HD
ATOM     21  H   UNL     1       2.263  -0.753  -1.865  0.00  0.00    +0.148 HD
ENDBRANCH   3  12
BRANCH   8  22
ATOM     22  C   UNL     1      -2.565   0.027   0.444  0.00  0.00    +0.074 C 
ATOM     23  C   UNL     1      -2.593   1.332  -0.048  0.00  0.00    +0.098 C 
ATOM     24  C   UNL     1      -3.755  -0.614   0.788  0.00  0.00    +0.043 C 
ATOM     25  C   UNL     1      -3.811   1.996  -0.196  0.00  0.00    +0.022 C 
ATOM     26  C   UNL     1      -4.973   0.049   0.639  0.00  0.00    +0.139 C 
ATOM     27  C   UNL     1      -5.001   1.354   0.147  0.00  0.00    +0.038 C 
BRANCH  23  28
ATOM     28  N   UNL     1      -1.425   1.990  -0.397  0.00  0.00    -0.109 N 
ATOM     29  N   UNL     1      -0.233   1.385  -0.269  0.00  0.00    -0.154 NA
ATOM     30  N   UNL     1      -1.459   3.245  -0.871  0.00  0.00    -0.154 NA
ATOM     31  C   UNL     1       0.587   2.347  -0.703  0.00  0.00    +0.142 C 
ATOM     32  C   UNL     1      -0.159   3.477  -1.069  0.00  0.00    +0.142 C 
ENDBRANCH  23  28
BRANCH  26  33
ATOM     33  O   UNL     1      -6.135  -0.577   0.973  0.00  0.00    -0.471 OA
ATOM     34  C   UNL     1      -7.344   0.160   0.794  0.00  0.00    +0.252 C 
ENDBRANCH  26  33
ENDBRANCH   8  22
TORSDOF 4
