REMARK  Name = 68029831
REMARK  1 active torsions:
REMARK  status: ('A' for Active; 'I' for Inactive)
REMARK    1  A    between atoms: C_22  and  N_29
REMARK                            x       y       z     vdW  Elec       q    Type
REMARK                         _______ _______ _______ _____ _____    ______ ____
ROOT
ATOM      1  O   UNL     1      -6.887  -1.115   0.292  0.00  0.00    -0.269 OA
ATOM      2  N   UNL     1      -3.402  -0.231  -0.139  0.00  0.00    -0.260 N 
ATOM      3  N   UNL     1      -5.097  -2.455  -0.200  0.00  0.00    -0.298 N 
ATOM      4  N   UNL     1      -1.516   1.309  -0.058  0.00  0.00    -0.322 NA
ATOM      5  N   UNL     1      -2.187   3.643   0.003  0.00  0.00    -0.170 NA
ATOM      6  N   UNL     1       0.069   3.025   0.002  0.00  0.00    -0.232 N 
ATOM      7  N   UNL     1       1.204   0.941  -0.048  0.00  0.00    -0.227 NA
ATOM      8  C   UNL     1      -2.744  -1.561  -0.139  0.00  0.00    +0.082 C 
ATOM      9  C   UNL     1      -1.461  -1.603  -1.015  0.00  0.00    +0.020 C 
ATOM     10  C   UNL     1      -2.378  -1.929   1.323  0.00  0.00    +0.020 C 
ATOM     11  C   UNL     1      -3.757  -2.579  -0.742  0.00  0.00    +0.108 C 
ATOM     12  C   UNL     1      -1.582  -3.229   1.450  0.00  0.00    +0.002 C 
ATOM     13  C   UNL     1      -0.701  -2.926  -0.903  0.00  0.00    +0.002 C 
ATOM     14  C   UNL     1      -0.353  -3.242   0.548  0.00  0.00    +0.000 C 
ATOM     15  C   UNL     1      -4.781  -0.106  -0.055  0.00  0.00    +0.108 C 
ATOM     16  C   UNL     1      -2.831   1.021  -0.084  0.00  0.00    +0.201 C 
ATOM     17  C   UNL     1      -5.692  -1.226   0.027  0.00  0.00    +0.260 C 
ATOM     18  C   UNL     1      -3.859   1.958  -0.047  0.00  0.00    +0.067 C 
ATOM     19  C   UNL     1      -5.079   1.243  -0.033  0.00  0.00    +0.025 C 
ATOM     20  C   UNL     1      -3.494   3.303  -0.008  0.00  0.00    +0.116 C 
ATOM     21  C   UNL     1      -1.290   2.636  -0.019  0.00  0.00    +0.151 C 
ATOM     22  C   UNL     1       3.621   0.909  -0.032  0.00  0.00    +0.067 C 
ATOM     23  C   UNL     1       1.269   2.291  -0.010  0.00  0.00    +0.141 C 
ATOM     24  C   UNL     1       3.647   2.299   0.007  0.00  0.00    +0.019 C 
ATOM     25  C   UNL     1       2.385   0.284  -0.058  0.00  0.00    +0.115 C 
ATOM     26  C   UNL     1       2.453   3.011   0.018  0.00  0.00    +0.036 C 
ATOM     27  H   UNL     1      -5.601  -3.273   0.014  0.00  0.00    +0.150 HD
ATOM     28  H   UNL     1       0.202   4.000   0.030  0.00  0.00    +0.166 HD
ENDROOT
BRANCH  22  29
ATOM     29  N   UNL     1       4.807   0.166  -0.044  0.00  0.00    -0.311 N 
ATOM     30  N   UNL     1       7.137  -1.476   0.139  0.00  0.00    +0.388 N 
ATOM     31  C   UNL     1       4.842  -1.136  -0.716  0.00  0.00    +0.068 C 
ATOM     32  C   UNL     1       5.731   0.322   1.087  0.00  0.00    +0.068 C 
ATOM     33  C   UNL     1       7.143  -0.116   0.691  0.00  0.00    -0.056 C 
ATOM     34  C   UNL     1       6.283  -1.528  -1.054  0.00  0.00    -0.056 C 
ATOM     35  C   UNL     1       8.498  -1.904  -0.184  0.00  0.00    -0.101 C 
ATOM     36  H   UNL     1       6.761  -2.114   0.841  0.00  0.00    -0.080 HD
ENDBRANCH  22  29
TORSDOF 1
