REMARK  Name = 11567064
REMARK  4 active torsions:
REMARK  status: ('A' for Active; 'I' for Inactive)
REMARK    1  A    between atoms: N_2  and  C_23
REMARK    2  A    between atoms: C_23  and  C_24
REMARK    3  A    between atoms: C_24  and  C_28
REMARK    4  A    between atoms: C_28  and  O_29
REMARK                            x       y       z     vdW  Elec       q    Type
REMARK                         _______ _______ _______ _____ _____    ______ ____
ROOT
ATOM      1  O   UNL     1       3.239   0.227  -1.545  0.00  0.00    -0.451 OA
ATOM      2  N   UNL     1      -2.844  -0.401   0.625  0.00  0.00    +0.390 N 
ATOM      3  N   UNL     1      -0.095   0.076   0.840  0.00  0.00    -0.288 N 
ATOM      4  N   UNL     1       1.729  -1.252   0.439  0.00  0.00    -0.388 NA
ATOM      5  C   UNL     1      -2.261   0.701  -0.153  0.00  0.00    -0.055 C 
ATOM      6  C   UNL     1      -2.228  -0.543   1.942  0.00  0.00    -0.055 C 
ATOM      7  C   UNL     1      -0.899   1.190   0.354  0.00  0.00    +0.070 C 
ATOM      8  C   UNL     1      -0.737  -0.845   1.777  0.00  0.00    +0.070 C 
ATOM      9  C   UNL     1       1.215  -0.053   0.522  0.00  0.00    +0.186 C 
ATOM     10  C   UNL     1       1.976   1.207   0.281  0.00  0.00    +0.078 C 
ATOM     11  C   UNL     1       2.925   1.294  -0.741  0.00  0.00    +0.149 C 
ATOM     12  C   UNL     1       1.705   2.340   1.060  0.00  0.00    +0.007 C 
ATOM     13  C   UNL     1       3.073  -1.511   0.130  0.00  0.00    +0.149 C 
ATOM     14  C   UNL     1       3.792  -0.823  -0.853  0.00  0.00    +0.171 C 
ATOM     15  C   UNL     1       3.568   2.505  -1.012  0.00  0.00    +0.038 C 
ATOM     16  C   UNL     1       2.365   3.544   0.803  0.00  0.00    +0.000 C 
ATOM     17  C   UNL     1       3.291   3.628  -0.236  0.00  0.00    +0.003 C 
ATOM     18  C   UNL     1       3.703  -2.578   0.782  0.00  0.00    +0.088 C 
ATOM     19  C   UNL     1       5.097  -1.196  -1.192  0.00  0.00    +0.039 C 
ATOM     20  C   UNL     1       5.014  -2.943   0.464  0.00  0.00    -0.018 C 
ATOM     21  C   UNL     1       5.709  -2.253  -0.526  0.00  0.00    -0.001 C 
ATOM     22  H   UNL     1      -2.635  -1.260   0.116  0.00  0.00    -0.080 HD
ENDROOT
BRANCH   2  23
ATOM     23  C   UNL     1      -4.296  -0.291   0.710  0.00  0.00    -0.066 C 
BRANCH  23  24
ATOM     24  C   UNL     1      -5.013  -0.390  -0.658  0.00  0.00    +0.071 C 
ATOM     25  C   UNL     1      -4.704  -1.736  -1.341  0.00  0.00    +0.009 C 
ATOM     26  C   UNL     1      -4.600   0.746  -1.610  0.00  0.00    +0.009 C 
BRANCH  24  28
ATOM     27  O   UNL     1      -7.337  -1.174  -0.692  0.00  0.00    -0.250 OA
ATOM     28  C   UNL     1      -6.521  -0.310  -0.401  0.00  0.00    +0.311 C 
BRANCH  28  29
ATOM     29  O   UNL     1      -6.864   0.842   0.232  0.00  0.00    -0.480 OA
ATOM     30  H   UNL     1      -6.207   1.478   0.436  0.00  0.00    +0.295 HD
ENDBRANCH  28  29
ENDBRANCH  24  28
ENDBRANCH  23  24
ENDBRANCH   2  23
TORSDOF 4
