91503
  -OEChem-05201911093D

 50 53  0     1  0  0  0  0  0999 V2000
   -0.7086   -1.4308    2.5181 O   0  0  0  0  0  0  0  0  0  0  0  0
    2.8282    2.9264    0.3553 O   0  0  0  0  0  0  0  0  0  0  0  0
   -1.7394   -0.5623   -0.9703 N   0  0  2  0  0  0  0  0  0  0  0  0
    2.8902   -2.5063   -0.6668 N   0  0  0  0  0  0  0  0  0  0  0  0
   -4.0083    0.1083    0.1111 C   0  0  2  0  0  0  0  0  0  0  0  0
   -3.2752    1.3492   -0.4474 C   0  0  2  0  0  0  0  0  0  0  0  0
   -1.8291   -1.1136    0.4089 C   0  0  2  0  0  0  0  0  0  0  0  0
   -3.0992   -0.6064    1.1277 C   0  0  0  0  0  0  0  0  0  0  0  0
   -1.8782    0.9140   -0.9443 C   0  0  0  0  0  0  0  0  0  0  0  0
   -4.2180   -0.8573   -1.0711 C   0  0  0  0  0  0  0  0  0  0  0  0
   -2.8661   -1.1185   -1.7584 C   0  0  0  0  0  0  0  0  0  0  0  0
   -3.1838    2.4971    0.5555 C   0  0  0  0  0  0  0  0  0  0  0  0
   -0.5657   -0.8430    1.2288 C   0  0  2  0  0  0  0  0  0  0  0  0
    0.6677   -1.3942    0.5586 C   0  0  0  0  0  0  0  0  0  0  0  0
   -2.5515    3.7268   -0.0673 C   0  0  0  0  0  0  0  0  0  0  0  0
    1.7444   -0.5771    0.2123 C   0  0  0  0  0  0  0  0  0  0  0  0
    0.6915   -2.7516    0.3001 C   0  0  0  0  0  0  0  0  0  0  0  0
    2.8552   -1.1852   -0.4094 C   0  0  0  0  0  0  0  0  0  0  0  0
    1.7419    0.8050    0.4664 C   0  0  0  0  0  0  0  0  0  0  0  0
    1.8212   -3.2556   -0.3118 C   0  0  0  0  0  0  0  0  0  0  0  0
    3.9341   -0.3772   -0.7579 C   0  0  0  0  0  0  0  0  0  0  0  0
    2.8344    1.5890    0.1074 C   0  0  0  0  0  0  0  0  0  0  0  0
    3.9317    0.9968   -0.5056 C   0  0  0  0  0  0  0  0  0  0  0  0
    3.9827    3.6664   -0.0399 C   0  0  0  0  0  0  0  0  0  0  0  0
   -4.9679    0.3776    0.5646 H   0  0  0  0  0  0  0  0  0  0  0  0
   -3.8504    1.7105   -1.3124 H   0  0  0  0  0  0  0  0  0  0  0  0
   -1.9510   -2.2032    0.3297 H   0  0  0  0  0  0  0  0  0  0  0  0
   -2.8699    0.0758    1.9520 H   0  0  0  0  0  0  0  0  0  0  0  0
   -3.6361   -1.4577    1.5652 H   0  0  0  0  0  0  0  0  0  0  0  0
   -1.7177    1.3037   -1.9581 H   0  0  0  0  0  0  0  0  0  0  0  0
   -1.0748    1.3508   -0.3468 H   0  0  0  0  0  0  0  0  0  0  0  0
   -4.9256   -0.4307   -1.7917 H   0  0  0  0  0  0  0  0  0  0  0  0
   -4.6478   -1.8004   -0.7126 H   0  0  0  0  0  0  0  0  0  0  0  0
   -2.7237   -2.1964   -1.9046 H   0  0  0  0  0  0  0  0  0  0  0  0
   -2.8638   -0.6840   -2.7661 H   0  0  0  0  0  0  0  0  0  0  0  0
   -2.6002    2.2122    1.4374 H   0  0  0  0  0  0  0  0  0  0  0  0
   -4.1898    2.7546    0.9076 H   0  0  0  0  0  0  0  0  0  0  0  0
   -0.5091    0.2228    1.4329 H   0  0  0  0  0  0  0  0  0  0  0  0
   -1.5034    3.5662   -0.3351 H   0  0  0  0  0  0  0  0  0  0  0  0
   -3.0928    4.0376   -0.9668 H   0  0  0  0  0  0  0  0  0  0  0  0
   -2.5811    4.5600    0.6428 H   0  0  0  0  0  0  0  0  0  0  0  0
   -1.3327   -0.8958    3.0358 H   0  0  0  0  0  0  0  0  0  0  0  0
   -0.1160   -3.4210    0.5715 H   0  0  0  0  0  0  0  0  0  0  0  0
    0.9268    1.3304    0.9475 H   0  0  0  0  0  0  0  0  0  0  0  0
    1.9060   -4.3133   -0.5386 H   0  0  0  0  0  0  0  0  0  0  0  0
    4.8053   -0.8181   -1.2391 H   0  0  0  0  0  0  0  0  0  0  0  0
    4.8183    1.5406   -0.8138 H   0  0  0  0  0  0  0  0  0  0  0  0
    4.1258    3.6386   -1.1255 H   0  0  0  0  0  0  0  0  0  0  0  0
    4.8753    3.3399    0.5045 H   0  0  0  0  0  0  0  0  0  0  0  0
    3.8058    4.7119    0.2330 H   0  0  0  0  0  0  0  0  0  0  0  0
  1 13  1  0  0  0  0
  1 42  1  0  0  0  0
  2 22  1  0  0  0  0
  2 24  1  0  0  0  0
  3  7  1  0  0  0  0
  3  9  1  0  0  0  0
  3 11  1  0  0  0  0
  4 18  2  0  0  0  0
  4 20  1  0  0  0  0
  5  6  1  0  0  0  0
  5  8  1  0  0  0  0
  5 10  1  0  0  0  0
  5 25  1  0  0  0  0
  6  9  1  0  0  0  0
  6 12  1  0  0  0  0
  6 26  1  0  0  0  0
  7  8  1  0  0  0  0
  7 13  1  0  0  0  0
  7 27  1  0  0  0  0
  8 28  1  0  0  0  0
  8 29  1  0  0  0  0
  9 30  1  0  0  0  0
  9 31  1  0  0  0  0
 10 11  1  0  0  0  0
 10 32  1  0  0  0  0
 10 33  1  0  0  0  0
 11 34  1  0  0  0  0
 11 35  1  0  0  0  0
 12 15  1  0  0  0  0
 12 36  1  0  0  0  0
 12 37  1  0  0  0  0
 13 14  1  0  0  0  0
 13 38  1  0  0  0  0
 14 16  2  0  0  0  0
 14 17  1  0  0  0  0
 15 39  1  0  0  0  0
 15 40  1  0  0  0  0
 15 41  1  0  0  0  0
 16 18  1  0  0  0  0
 16 19  1  0  0  0  0
 17 20  2  0  0  0  0
 17 43  1  0  0  0  0
 18 21  1  0  0  0  0
 19 22  2  0  0  0  0
 19 44  1  0  0  0  0
 20 45  1  0  0  0  0
 21 23  2  0  0  0  0
 21 46  1  0  0  0  0
 22 23  1  0  0  0  0
 23 47  1  0  0  0  0
 24 48  1  0  0  0  0
 24 49  1  0  0  0  0
 24 50  1  0  0  0  0
M  END
> <DATABASE_ID>
DB15300

> <DATABASE_NAME>
drugbank

> <ORIGINAL_SOURCE>
PUBCHEM

> <ORIGINAL_SOURCE_URL>
https://pubchem.ncbi.nlm.nih.gov/rest/pug/compound/inchikey/LJOQGZACKSYWCH-LHHVKLHASA-N/SDF?record_type=3d

> <SMILES>
CC[C@H]1C[N@@]2CC[C@H]1C[C@@H]2[C@@H](O)C1=C2C=C(OC)C=CC2=NC=C1

> <INCHI_IDENTIFIER>
InChI=1S/C20H26N2O2/c1-3-13-12-22-9-7-14(13)10-19(22)20(23)16-6-8-21-18-5-4-15(24-2)11-17(16)18/h4-6,8,11,13-14,19-20,23H,3,7,9-10,12H2,1-2H3/t13-,14-,19+,20-/m0/s1

> <INCHI_KEY>
LJOQGZACKSYWCH-LHHVKLHASA-N

> <FORMULA>
C20H26N2O2

> <MOLECULAR_WEIGHT>
326.44

> <EXACT_MASS>
326.199428085

> <JCHEM_ACCEPTOR_COUNT>
4

> <JCHEM_ATOM_COUNT>
50

> <JCHEM_AVERAGE_POLARIZABILITY>
36.72319688705398

> <JCHEM_BIOAVAILABILITY>
1

> <JCHEM_DONOR_COUNT>
1

> <JCHEM_FORMAL_CHARGE>
0

> <JCHEM_GHOSE_FILTER>
1

> <JCHEM_IUPAC>
(S)-[(1S,2R,4S,5R)-5-ethyl-1-azabicyclo[2.2.2]octan-2-yl](6-methoxyquinolin-4-yl)methanol

> <ALOGPS_LOGP>
3.36

> <JCHEM_LOGP>
2.817451937000001

> <ALOGPS_LOGS>
-3.02

> <JCHEM_MDDR_LIKE_RULE>
0

> <JCHEM_NUMBER_OF_RINGS>
4

> <JCHEM_PHYSIOLOGICAL_CHARGE>
1

> <JCHEM_PKA_STRONGEST_ACIDIC>
13.892120589819113

> <JCHEM_PKA_STRONGEST_BASIC>
9.176454721982065

> <JCHEM_POLAR_SURFACE_AREA>
45.59

> <JCHEM_REFRACTIVITY>
94.6495

> <JCHEM_ROTATABLE_BOND_COUNT>
4

> <JCHEM_RULE_OF_FIVE>
1

> <ALOGPS_SOLUBILITY>
3.12e-01 g/l

> <JCHEM_TRADITIONAL_IUPAC>
(2R)-14-fluoro-2-methyl-6,9,10,19-tetraazapentacyclo[14.2.1.0^{2,6}.0^{8,18}.0^{12,17}]nonadeca-1(18),8,12(17),13,15-pentaen-11-one

> <JCHEM_VEBER_RULE>
0

> <DRUGBANK_ID>
DB15300

> <DRUG_GROUPS>
investigational

> <GENERIC_NAME>
Hydroquinidine

$$$$
