REMARK  Name = 25065981
REMARK  7 active torsions:
REMARK  status: ('A' for Active; 'I' for Inactive)
REMARK    1  A    between atoms: C_1  and  C_3
REMARK    2  A    between atoms: C_1  and  C_16
REMARK    3  A    between atoms: C_11  and  O_13
REMARK    4  A    between atoms: C_16  and  O_17
REMARK    5  A    between atoms: O_17  and  C_18
REMARK    6  A    between atoms: C_21  and  C_25
REMARK    7  A    between atoms: C_25  and  N_26
REMARK                            x       y       z     vdW  Elec       q    Type
REMARK                         _______ _______ _______ _____ _____    ______ ____
ROOT
ATOM      1  C   UNL     1      -0.227   2.773   0.239  0.00  0.00    +0.122 C 
ATOM      2  C   UNL     1      -0.510   3.696   1.441  0.00  0.00    +0.016 C 
ENDROOT
BRANCH   1   3
ATOM      3  C   UNL     1      -1.379   1.896  -0.117  0.00  0.00    -0.012 C 
ATOM      4  C   UNL     1      -2.943   0.133   0.488  0.00  0.00    -0.000 C 
ATOM      5  C   UNL     1      -1.859   0.967   0.807  0.00  0.00    -0.004 C 
ATOM      6  C   UNL     1      -3.549   0.243  -0.786  0.00  0.00    +0.003 C 
ATOM      7  C   UNL     1      -1.975   2.004  -1.370  0.00  0.00    -0.004 C 
ATOM      8  C   UNL     1      -3.053   1.184  -1.704  0.00  0.00    -0.000 C 
ATOM      9  C   UNL     1      -3.439  -0.807   1.405  0.00  0.00    +0.003 C 
ATOM     10  C   UNL     1      -4.633  -0.591  -1.106  0.00  0.00    +0.037 C 
ATOM     11  C   UNL     1      -5.113  -1.519  -0.182  0.00  0.00    +0.139 C 
ATOM     12  C   UNL     1      -4.517  -1.627   1.071  0.00  0.00    +0.037 C 
BRANCH  11  13
ATOM     13  O   UNL     1      -6.165  -2.320  -0.506  0.00  0.00    -0.471 OA
ATOM     14  C   UNL     1      -6.605  -3.247   0.484  0.00  0.00    +0.252 C 
ENDBRANCH  11  13
ENDBRANCH   1   3
BRANCH   1  16
ATOM     15  O   UNL     1       1.689   2.005   1.549  0.00  0.00    -0.249 OA
ATOM     16  C   UNL     1       1.062   1.981   0.497  0.00  0.00    +0.325 C 
BRANCH  16  17
ATOM     17  O   UNL     1       1.381   1.224  -0.630  0.00  0.00    -0.424 OA
BRANCH  17  18
ATOM     18  C   UNL     1       2.547   0.472  -0.472  0.00  0.00    +0.148 C 
ATOM     19  C   UNL     1       3.782   1.017  -0.826  0.00  0.00    +0.038 C 
ATOM     20  C   UNL     1       2.477  -0.824   0.038  0.00  0.00    +0.038 C 
ATOM     21  C   UNL     1       4.876  -1.032  -0.160  0.00  0.00    +0.020 C 
ATOM     22  C   UNL     1       4.946   0.265  -0.670  0.00  0.00    +0.005 C 
ATOM     23  C   UNL     1       3.642  -1.576   0.194  0.00  0.00    +0.005 C 
BRANCH  21  25
ATOM     24  S   UNL     1       6.653  -2.442   1.470  0.00  0.00    -0.035 S 
ATOM     25  C   UNL     1       6.090  -1.815   0.002  0.00  0.00    +0.078 C 
BRANCH  25  26
ATOM     26  N   UNL     1       6.822  -2.059  -1.153  0.00  0.00    -0.352 N 
ATOM     27  H   UNL     1       7.654  -2.584  -1.107  0.00  0.00    +0.143 HD
ATOM     28  H   UNL     1       6.510  -1.707  -2.018  0.00  0.00    +0.143 HD
ENDBRANCH  25  26
ENDBRANCH  21  25
ENDBRANCH  17  18
ENDBRANCH  16  17
ENDBRANCH   1  16
TORSDOF 7
