REMARK  Name = 118435360
REMARK  4 active torsions:
REMARK  status: ('A' for Active; 'I' for Inactive)
REMARK    1  A    between atoms: C_3  and  C_11
REMARK    2  A    between atoms: C_22  and  C_25
REMARK    3  A    between atoms: C_29  and  O_30
REMARK    4  A    between atoms: O_30  and  C_33
REMARK                            x       y       z     vdW  Elec       q    Type
REMARK                         _______ _______ _______ _____ _____    ______ ____
ROOT
ATOM      1  S   UNL     1       2.434   2.446  -0.602  0.00  0.00    -0.076 S 
ATOM      2  N   UNL     1       1.180   0.210  -0.268  0.00  0.00    -0.387 NA
ATOM      3  C   UNL     1       2.375   0.746  -0.373  0.00  0.00    +0.158 C 
ATOM      4  C   UNL     1       0.232   1.209  -0.375  0.00  0.00    +0.174 C 
ATOM      5  C   UNL     1       0.720   2.486  -0.560  0.00  0.00    +0.139 C 
ATOM      6  O   UNL     1      -2.165   3.002  -0.550  0.00  0.00    -0.268 OA
ATOM      7  N   UNL     1      -1.112   0.910  -0.300  0.00  0.00    -0.257 N 
ATOM      8  C   UNL     1      -2.214   1.787  -0.388  0.00  0.00    +0.269 C 
ATOM      9  H   UNL     1      -1.331  -0.041  -0.168  0.00  0.00    +0.157 HD
ENDROOT
BRANCH   3  15
ATOM     10  S   UNL     1       4.411   0.264   2.756  0.00  0.00    -0.081 S 
ATOM     11  O   UNL     1       5.237  -1.283  -1.786  0.00  0.00    -0.354 OA
ATOM     12  N   UNL     1       4.833   0.783   0.122  0.00  0.00    -0.245 NA
ATOM     13  N   UNL     1       6.246   1.769   1.683  0.00  0.00    -0.338 N 
ATOM     14  C   UNL     1       3.603  -1.317   0.582  0.00  0.00    +0.044 C 
ATOM     15  C   UNL     1       3.695  -0.046  -0.304  0.00  0.00    +0.166 C 
ATOM     16  C   UNL     1       4.841  -2.220   0.413  0.00  0.00    +0.033 C 
ATOM     17  C   UNL     1       5.090  -2.508  -1.067  0.00  0.00    +0.116 C 
ATOM     18  C   UNL     1       4.053  -0.482  -1.750  0.00  0.00    +0.172 C 
ATOM     19  C   UNL     1       3.322  -0.982   2.045  0.00  0.00    +0.067 C 
ATOM     20  C   UNL     1       6.367  -3.316  -1.260  0.00  0.00    +0.032 C 
ATOM     21  C   UNL     1       5.186   0.970   1.347  0.00  0.00    +0.148 C 
ATOM     22  H   UNL     1       6.491   1.891   2.628  0.00  0.00    +0.144 HD
ATOM     23  H   UNL     1       6.764   2.222   0.978  0.00  0.00    +0.144 HD
ENDBRANCH   3  15
BRANCH   8  25
ATOM     24  N   UNL     1      -3.563  -0.188  -0.141  0.00  0.00    -0.236 NA
ATOM     25  C   UNL     1      -3.557   1.155  -0.297  0.00  0.00    +0.135 C 
ATOM     26  C   UNL     1      -4.701   1.932  -0.372  0.00  0.00    +0.027 C 
ATOM     27  C   UNL     1      -5.931   1.289  -0.281  0.00  0.00    +0.040 C 
ATOM     28  C   UNL     1      -4.776  -0.778  -0.057  0.00  0.00    +0.136 C 
ATOM     29  C   UNL     1      -5.978  -0.091  -0.121  0.00  0.00    +0.163 C 
BRANCH  29  30
ATOM     30  O   UNL     1      -7.163  -0.744  -0.029  0.00  0.00    -0.422 OA
BRANCH  30  33
ATOM     31  F   UNL     1      -8.450  -2.061   1.261  0.00  0.00    -0.155 F 
ATOM     32  F   UNL     1      -7.014  -3.004  -0.073  0.00  0.00    -0.155 F 
ATOM     33  C   UNL     1      -7.199  -1.939   0.746  0.00  0.00    +0.509 C 
ENDBRANCH  30  33
ENDBRANCH  29  30
ENDBRANCH   8  25
TORSDOF 4
