REMARK  Name = 11618268
REMARK  3 active torsions:
REMARK  status: ('A' for Active; 'I' for Inactive)
REMARK    1  A    between atoms: N_3  and  C_13
REMARK    2  A    between atoms: C_5  and  C_19
REMARK    3  A    between atoms: C_19  and  N_21
REMARK                            x       y       z     vdW  Elec       q    Type
REMARK                         _______ _______ _______ _____ _____    ______ ____
ROOT
ATOM      1  F   UNL     1       6.745  -1.410  -1.162  0.00  0.00    -0.204 F 
ATOM      2  O   UNL     1       2.939   1.849  -1.324  0.00  0.00    -0.269 OA
ATOM      3  N   UNL     1       1.288   0.933   0.085  0.00  0.00    -0.211 N 
ATOM      4  N   UNL     1       1.740  -1.121   1.198  0.00  0.00    -0.393 NA
ATOM      5  C   UNL     1       0.946  -0.132   0.921  0.00  0.00    +0.187 C 
ATOM      6  C   UNL     1       2.530   0.957  -0.584  0.00  0.00    +0.260 C 
ATOM      7  C   UNL     1       3.429  -0.181  -0.297  0.00  0.00    +0.082 C 
ATOM      8  C   UNL     1       3.004  -1.159   0.602  0.00  0.00    +0.119 C 
ATOM      9  C   UNL     1       4.692  -0.261  -0.895  0.00  0.00    +0.036 C 
ATOM     10  C   UNL     1       3.861  -2.226   0.898  0.00  0.00    +0.087 C 
ATOM     11  C   UNL     1       5.535  -1.329  -0.592  0.00  0.00    +0.137 C 
ATOM     12  C   UNL     1       5.121  -2.311   0.305  0.00  0.00    +0.011 C 
ENDROOT
BRANCH   3  13
ATOM     13  C   UNL     1       0.424   2.066  -0.101  0.00  0.00    +0.060 C 
ATOM     14  C   UNL     1      -0.492   2.067  -1.146  0.00  0.00    +0.015 C 
ATOM     15  C   UNL     1       0.515   3.147   0.766  0.00  0.00    +0.015 C 
ATOM     16  C   UNL     1      -1.331   3.167  -1.325  0.00  0.00    +0.001 C 
ATOM     17  C   UNL     1      -0.324   4.247   0.587  0.00  0.00    +0.001 C 
ATOM     18  C   UNL     1      -1.247   4.257  -0.459  0.00  0.00    +0.000 C 
ENDBRANCH   3  13
BRANCH   5  19
ATOM     19  C   UNL     1      -0.443  -0.214   1.521  0.00  0.00    +0.138 C 
ATOM     20  C   UNL     1      -0.404  -0.995   2.815  0.00  0.00    +0.030 C 
BRANCH  19  21
ATOM     21  N   UNL     1      -1.282  -0.875   0.558  0.00  0.00    -0.315 N 
ATOM     22  N   UNL     1      -3.147  -2.251  -1.467  0.00  0.00    -0.270 NA
ATOM     23  N   UNL     1      -3.329   0.054   1.394  0.00  0.00    -0.232 NA
ATOM     24  N   UNL     1      -5.361  -1.990  -1.496  0.00  0.00    -0.307 N 
ATOM     25  N   UNL     1      -5.492  -0.467   0.394  0.00  0.00    -0.232 NA
ATOM     26  C   UNL     1      -2.663  -0.737   0.509  0.00  0.00    +0.124 C 
ATOM     27  C   UNL     1      -3.434  -1.396  -0.441  0.00  0.00    +0.164 C 
ATOM     28  C   UNL     1      -4.814  -1.250  -0.479  0.00  0.00    +0.125 C 
ATOM     29  C   UNL     1      -4.333  -2.579  -2.069  0.00  0.00    +0.163 C 
ATOM     30  C   UNL     1      -4.676   0.138   1.283  0.00  0.00    +0.252 C 
ATOM     31  H   UNL     1      -0.852  -1.460  -0.106  0.00  0.00    +0.148 HD
ATOM     32  H   UNL     1      -2.253  -2.571  -1.725  0.00  0.00    +0.126 HD
ATOM     33  H   UNL     1      -6.311  -2.065  -1.742  0.00  0.00    +0.149 HD
ENDBRANCH  19  21
ENDBRANCH   5  19
TORSDOF 3
