REMARK  Name = 118513932
REMARK  2 active torsions:
REMARK  status: ('A' for Active; 'I' for Inactive)
REMARK    1  A    between atoms: C_4  and  N_24
REMARK    2  A    between atoms: C_10  and  C_15
REMARK                            x       y       z     vdW  Elec       q    Type
REMARK                         _______ _______ _______ _____ _____    ______ ____
ROOT
ATOM      1  O   UNL     1       0.946   2.591   0.583  0.00  0.00    -0.274 OA
ATOM      2  N   UNL     1       1.177   0.329  -0.013  0.00  0.00    -0.209 N 
ATOM      3  N   UNL     1      -0.793  -0.993  -0.284  0.00  0.00    -0.389 NA
ATOM      4  C   UNL     1       3.334  -0.680  -0.353  0.00  0.00    +0.063 C 
ATOM      5  C   UNL     1       2.566   0.381  -0.050  0.00  0.00    +0.089 C 
ATOM      6  C   UNL     1       2.672  -1.932  -0.653  0.00  0.00    +0.020 C 
ATOM      7  C   UNL     1       1.340  -2.047  -0.634  0.00  0.00    +0.050 C 
ATOM      8  C   UNL     1       0.500  -0.865  -0.298  0.00  0.00    +0.193 C 
ATOM      9  C   UNL     1       0.467   1.491   0.315  0.00  0.00    +0.242 C 
ATOM     10  C   UNL     1      -1.512   0.125   0.032  0.00  0.00    +0.139 C 
ATOM     11  C   UNL     1      -1.006   1.327   0.325  0.00  0.00    +0.146 C 
ENDROOT
BRANCH  10  15
ATOM     12  N   UNL     1      -5.060   0.756  -0.167  0.00  0.00    -0.178 N 
ATOM     13  N   UNL     1      -3.731   1.027  -0.231  0.00  0.00    -0.173 NA
ATOM     14  N   UNL     1      -6.970  -0.353   0.124  0.00  0.00    -0.392 NA
ATOM     15  C   UNL     1      -2.973   0.006   0.055  0.00  0.00    +0.124 C 
ATOM     16  C   UNL     1      -3.478  -1.351   0.424  0.00  0.00    +0.023 C 
ATOM     17  C   UNL     1      -4.808  -1.555   0.470  0.00  0.00    +0.025 C 
ATOM     18  C   UNL     1      -5.655  -0.449   0.160  0.00  0.00    +0.198 C 
ATOM     19  C   UNL     1      -6.067   1.649  -0.420  0.00  0.00    +0.173 C 
ATOM     20  C   UNL     1      -7.231   0.944  -0.235  0.00  0.00    +0.111 C 
ATOM     21  C   UNL     1      -5.341  -2.915   0.840  0.00  0.00    +0.035 C 
ATOM     22  C   UNL     1      -8.616   1.417  -0.376  0.00  0.00    +0.063 C 
ENDBRANCH  10  15
BRANCH   4  24
ATOM     23  N   UNL     1       7.479  -0.370   0.252  0.00  0.00    +0.389 N 
ATOM     24  N   UNL     1       4.698  -0.644  -0.394  0.00  0.00    -0.311 N 
ATOM     25  C   UNL     1       6.631   0.811  -0.054  0.00  0.00    -0.027 C 
ATOM     26  C   UNL     1       7.316   2.146  -0.245  0.00  0.00    -0.020 C 
ATOM     27  C   UNL     1       6.507   1.898   0.993  0.00  0.00    -0.020 C 
ATOM     28  C   UNL     1       5.427   0.513  -0.924  0.00  0.00    +0.071 C 
ATOM     29  C   UNL     1       6.666  -1.435   0.843  0.00  0.00    -0.060 C 
ATOM     30  C   UNL     1       5.514  -1.822  -0.085  0.00  0.00    +0.067 C 
ATOM     31  H   UNL     1       8.210  -0.100   0.909  0.00  0.00    -0.084 HD
ATOM     32  H   UNL     1       7.898  -0.712  -0.613  0.00  0.00    -0.084 HD
ENDBRANCH   4  24
TORSDOF 2
