REMARK  Name = 58557659
REMARK  4 active torsions:
REMARK  status: ('A' for Active; 'I' for Inactive)
REMARK    1  A    between atoms: N_3  and  C_25
REMARK    2  A    between atoms: C_4  and  C_23
REMARK    3  A    between atoms: C_5  and  C_14
REMARK    4  A    between atoms: C_25  and  C_29
REMARK                            x       y       z     vdW  Elec       q    Type
REMARK                         _______ _______ _______ _____ _____    ______ ____
ROOT
ATOM      1  O   UNL     1       3.452  -0.107  -2.059  0.00  0.00    -0.253 OA
ATOM      2  N   UNL     1       1.785  -0.956  -0.710  0.00  0.00    -0.264 N 
ATOM      3  N   UNL     1       4.004  -0.887   0.038  0.00  0.00    -0.281 N 
ATOM      4  C   UNL     1      -0.181  -1.901   0.210  0.00  0.00    +0.027 C 
ATOM      5  C   UNL     1      -0.591  -0.878  -0.875  0.00  0.00    +0.059 C 
ATOM      6  C   UNL     1       1.271  -1.541   0.527  0.00  0.00    +0.095 C 
ATOM      7  C   UNL     1       0.714  -0.733  -1.674  0.00  0.00    +0.101 C 
ATOM      8  C   UNL     1       3.107  -0.615  -0.989  0.00  0.00    +0.304 C 
ATOM      9  H   UNL     1       3.667  -1.293   0.869  0.00  0.00    +0.151 HD
ENDROOT
BRANCH   5  14
ATOM     10  N   UNL     1      -2.481   0.673  -0.142  0.00  0.00    -0.267 N 
ATOM     11  N   UNL     1      -1.453   2.565   0.419  0.00  0.00    -0.230 NA
ATOM     12  N   UNL     1      -5.027   1.805   0.510  0.00  0.00    -0.250 NA
ATOM     13  N   UNL     1      -5.820  -0.381  -0.177  0.00  0.00    -0.299 N 
ATOM     14  C   UNL     1      -1.160   0.433  -0.358  0.00  0.00    +0.051 C 
ATOM     15  C   UNL     1      -0.543   1.617  -0.004  0.00  0.00    +0.110 C 
ATOM     16  C   UNL     1      -2.614   1.962   0.323  0.00  0.00    +0.137 C 
ATOM     17  C   UNL     1      -3.641  -0.089  -0.293  0.00  0.00    +0.155 C 
ATOM     18  C   UNL     1      -4.827   0.535   0.044  0.00  0.00    +0.127 C 
ATOM     19  C   UNL     1      -3.923   2.501   0.643  0.00  0.00    +0.188 C 
ATOM     20  C   UNL     1      -3.890  -1.395  -0.726  0.00  0.00    +0.017 C 
ATOM     21  C   UNL     1      -5.261  -1.554  -0.644  0.00  0.00    +0.060 C 
ATOM     22  H   UNL     1      -6.781  -0.228  -0.026  0.00  0.00    +0.153 HD
ENDBRANCH   5  14
BRANCH   4  23
ATOM     23  C   UNL     1      -1.062  -1.982   1.446  0.00  0.00    +0.002 C 
ATOM     24  C   UNL     1      -0.535  -3.007   2.429  0.00  0.00    +0.000 C 
ENDBRANCH   4  23
BRANCH   3  25
ATOM     25  C   UNL     1       5.413  -0.593  -0.074  0.00  0.00    +0.195 C 
BRANCH  25  29
ATOM     26  F   UNL     1       7.056   1.045   0.304  0.00  0.00    -0.168 F 
ATOM     27  F   UNL     1       5.078   1.735  -0.300  0.00  0.00    -0.168 F 
ATOM     28  F   UNL     1       5.397   0.950   1.715  0.00  0.00    -0.168 F 
ATOM     29  C   UNL     1       5.733   0.797   0.416  0.00  0.00    +0.415 C 
ENDBRANCH  25  29
ENDBRANCH   3  25
TORSDOF 4
