REMARK  Name = 270278
REMARK  5 active torsions:
REMARK  status: ('A' for Active; 'I' for Inactive)
REMARK    1  A    between atoms: C_4  and  C_17
REMARK    2  A    between atoms: C_5  and  C_9
REMARK    3  A    between atoms: C_7  and  S_15
REMARK    4  A    between atoms: C_17  and  C_18
REMARK    5  A    between atoms: C_21  and  O_28
REMARK                            x       y       z     vdW  Elec       q    Type
REMARK                         _______ _______ _______ _____ _____    ______ ____
ROOT
ATOM      1  O   UNL     1      -2.458   2.507   1.498  0.00  0.00    -0.210 OA
ATOM      2  N   UNL     1      -3.090  -0.920  -0.424  0.00  0.00    -0.282 N 
ATOM      3  N   UNL     1      -3.915   1.150   0.360  0.00  0.00    -0.311 NA
ATOM      4  C   UNL     1      -1.553   0.439   0.753  0.00  0.00    +0.090 C 
ATOM      5  C   UNL     1      -1.835  -0.700   0.086  0.00  0.00    +0.059 C 
ATOM      6  C   UNL     1      -2.675   1.453   0.904  0.00  0.00    +0.204 C 
ATOM      7  C   UNL     1      -4.068   0.019  -0.259  0.00  0.00    +0.220 C 
ATOM      8  H   UNL     1      -3.286  -1.755  -0.908  0.00  0.00    +0.155 HD
ENDROOT
BRANCH   5   9
ATOM      9  C   UNL     1      -0.844  -1.762  -0.136  0.00  0.00    +0.014 C 
ATOM     10  C   UNL     1      -0.704  -2.791   0.795  0.00  0.00    +0.001 C 
ATOM     11  C   UNL     1      -0.042  -1.741  -1.277  0.00  0.00    +0.001 C 
ATOM     12  C   UNL     1       0.236  -3.800   0.585  0.00  0.00    +0.000 C 
ATOM     13  C   UNL     1       0.899  -2.750  -1.487  0.00  0.00    +0.000 C 
ATOM     14  C   UNL     1       1.038  -3.779  -0.556  0.00  0.00    +0.000 C 
ENDBRANCH   5   9
BRANCH   7  15
ATOM     15  S   UNL     1      -5.638  -0.356  -0.944  0.00  0.00    -0.094 S 
ATOM     16  H   UNL     1      -5.590  -1.575  -1.545  0.00  0.00    +0.111 HD
ENDBRANCH   7  15
BRANCH   4  17
ATOM     17  C   UNL     1      -0.240   0.815   1.374  0.00  0.00    +0.070 C 
BRANCH  17  18
ATOM     18  C   UNL     1       0.788   1.229   0.364  0.00  0.00    +0.017 C 
ATOM     19  C   UNL     1       2.109   0.756   0.433  0.00  0.00    -0.001 C 
ATOM     20  C   UNL     1       3.045   1.174  -0.542  0.00  0.00    -0.000 C 
ATOM     21  C   UNL     1       0.396   2.100  -0.652  0.00  0.00    +0.130 C 
ATOM     22  C   UNL     1       2.521  -0.121   1.449  0.00  0.00    -0.000 C 
ATOM     23  C   UNL     1       2.633   2.052  -1.558  0.00  0.00    +0.003 C 
ATOM     24  C   UNL     1       1.317   2.511  -1.611  0.00  0.00    +0.036 C 
ATOM     25  C   UNL     1       4.366   0.702  -0.473  0.00  0.00    -0.000 C 
ATOM     26  C   UNL     1       3.838  -0.581   1.502  0.00  0.00    -0.000 C 
ATOM     27  C   UNL     1       4.758  -0.170   0.543  0.00  0.00    -0.000 C 
BRANCH  21  28
ATOM     28  O   UNL     1      -0.884   2.562  -0.724  0.00  0.00    -0.506 OA
ATOM     29  H   UNL     1      -1.515   2.295  -0.085  0.00  0.00    +0.292 HD
ENDBRANCH  21  28
ENDBRANCH  17  18
ENDBRANCH   4  17
TORSDOF 5
