REMARK  Name = 16750271
REMARK  4 active torsions:
REMARK  status: ('A' for Active; 'I' for Inactive)
REMARK    1  A    between atoms: C_7  and  O_28
REMARK    2  A    between atoms: O_28  and  C_29
REMARK    3  A    between atoms: C_29  and  C_30
REMARK    4  A    between atoms: C_30  and  N_31
REMARK                            x       y       z     vdW  Elec       q    Type
REMARK                         _______ _______ _______ _____ _____    ______ ____
ROOT
ATOM      1  O   UNL     1      -2.101   1.153   1.093  0.00  0.00    -0.344 OA
ATOM      2  O   UNL     1       3.252   1.335  -0.353  0.00  0.00    -0.453 OA
ATOM      3  O   UNL     1       2.228   3.532   1.230  0.00  0.00    -0.341 OA
ATOM      4  N   UNL     1       1.776  -3.216   0.309  0.00  0.00    -0.247 N 
ATOM      5  N   UNL     1       3.124  -1.289  -0.203  0.00  0.00    -0.334 NA
ATOM      6  N   UNL     1       4.037  -3.479  -0.256  0.00  0.00    -0.170 NA
ATOM      7  C   UNL     1      -2.167  -1.816   0.930  0.00  0.00    +0.137 C 
ATOM      8  C   UNL     1      -1.230  -0.950   0.356  0.00  0.00    +0.043 C 
ATOM      9  C   UNL     1      -1.796  -3.108   1.290  0.00  0.00    +0.038 C 
ATOM     10  C   UNL     1       0.085  -1.401   0.144  0.00  0.00    +0.016 C 
ATOM     11  C   UNL     1      -1.638   0.440  -0.054  0.00  0.00    +0.172 C 
ATOM     12  C   UNL     1       0.477  -2.704   0.488  0.00  0.00    +0.058 C 
ATOM     13  C   UNL     1      -0.489  -3.544   1.071  0.00  0.00    +0.018 C 
ATOM     14  C   UNL     1      -2.437   2.508   0.798  0.00  0.00    +0.169 C 
ATOM     15  C   UNL     1       3.000  -2.630  -0.067  0.00  0.00    +0.149 C 
ATOM     16  C   UNL     1       4.333  -0.788  -0.553  0.00  0.00    +0.180 C 
ATOM     17  C   UNL     1       4.396   0.659  -0.671  0.00  0.00    +0.175 C 
ATOM     18  C   UNL     1       3.509   2.664  -0.501  0.00  0.00    +0.153 C 
ATOM     19  C   UNL     1      -1.281   3.453   0.966  0.00  0.00    +0.004 C 
ATOM     20  C   UNL     1       2.396   3.582  -0.185  0.00  0.00    +0.206 C 
ATOM     21  C   UNL     1       5.378   1.561  -1.033  0.00  0.00    +0.043 C 
ATOM     22  C   UNL     1       4.806   2.852  -0.925  0.00  0.00    +0.039 C 
ATOM     23  C   UNL     1       1.019   4.146   1.673  0.00  0.00    +0.169 C 
ATOM     24  C   UNL     1       5.433  -1.591  -0.773  0.00  0.00    +0.058 C 
ATOM     25  C   UNL     1      -0.115   3.173   1.569  0.00  0.00    +0.004 C 
ATOM     26  C   UNL     1       5.223  -2.940  -0.607  0.00  0.00    +0.114 C 
ATOM     27  H   UNL     1       1.843  -4.183   0.483  0.00  0.00    +0.165 HD
ENDROOT
BRANCH   7  28
ATOM     28  O   UNL     1      -3.456  -1.425   1.137  0.00  0.00    -0.478 OA
BRANCH  28  29
ATOM     29  C   UNL     1      -4.473  -2.169   0.470  0.00  0.00    +0.183 C 
BRANCH  29  30
ATOM     30  C   UNL     1      -5.657  -1.251   0.207  0.00  0.00    -0.029 C 
BRANCH  30  31
ATOM     31  N   UNL     1      -5.256  -0.117  -0.612  0.00  0.00    +0.389 N 
ATOM     32  C   UNL     1      -6.189   1.004  -0.508  0.00  0.00    -0.077 C 
ATOM     33  C   UNL     1      -5.214  -0.445  -2.037  0.00  0.00    -0.077 C 
ATOM     34  C   UNL     1      -5.806   1.877  -1.694  0.00  0.00    -0.025 C 
ATOM     35  C   UNL     1      -5.169   0.923  -2.701  0.00  0.00    -0.025 C 
ATOM     36  H   UNL     1      -4.332   0.130  -0.257  0.00  0.00    -0.080 HD
ENDBRANCH  30  31
ENDBRANCH  29  30
ENDBRANCH  28  29
ENDBRANCH   7  28
TORSDOF 4
