REMARK  Name = 24769037
REMARK  8 active torsions:
REMARK  status: ('A' for Active; 'I' for Inactive)
REMARK    1  A    between atoms: C_3  and  O_17
REMARK    2  A    between atoms: C_4  and  C_23
REMARK    3  A    between atoms: C_5  and  N_8
REMARK    4  A    between atoms: O_17  and  C_19
REMARK    5  A    between atoms: C_19  and  C_20
REMARK    6  A    between atoms: C_23  and  O_24
REMARK    7  A    between atoms: O_24  and  C_26
REMARK    8  A    between atoms: C_26  and  C_27
REMARK                            x       y       z     vdW  Elec       q    Type
REMARK                         _______ _______ _______ _____ _____    ______ ____
ROOT
ATOM      1  O   UNL     1       0.417  -0.227  -0.545  0.00  0.00    -0.332 OA
ATOM      2  C   UNL     1      -1.416  -0.386   0.948  0.00  0.00    +0.091 C 
ATOM      3  C   UNL     1      -1.107   1.094   0.742  0.00  0.00    +0.203 C 
ATOM      4  C   UNL     1       0.218   1.115  -0.048  0.00  0.00    +0.200 C 
ATOM      5  C   UNL     1      -0.763  -0.997  -0.290  0.00  0.00    +0.210 C 
ATOM      6  C   UNL     1      -0.853  -0.911   2.270  0.00  0.00    +0.008 C 
ENDROOT
BRANCH   5   8
ATOM      7  O   UNL     1      -2.404  -3.146  -1.070  0.00  0.00    -0.193 OA
ATOM      8  N   UNL     1      -0.418  -2.382  -0.175  0.00  0.00    -0.180 N 
ATOM      9  N   UNL     1      -0.899  -4.729  -0.449  0.00  0.00    -0.306 NA
ATOM     10  N   UNL     1       0.645  -6.345   0.190  0.00  0.00    -0.332 N 
ATOM     11  C   UNL     1       0.814  -2.717   0.361  0.00  0.00    +0.083 C 
ATOM     12  C   UNL     1      -1.299  -3.411  -0.591  0.00  0.00    +0.275 C 
ATOM     13  C   UNL     1       1.217  -3.978   0.507  0.00  0.00    +0.065 C 
ATOM     14  C   UNL     1       0.267  -5.029   0.058  0.00  0.00    +0.193 C 
ATOM     15  H   UNL     1       0.037  -7.064  -0.098  0.00  0.00    +0.145 HD
ATOM     16  H   UNL     1       1.524  -6.569   0.573  0.00  0.00    +0.145 HD
ENDBRANCH   5   8
BRANCH   3  17
ATOM     17  O   UNL     1      -2.174   1.662  -0.024  0.00  0.00    -0.449 OA
BRANCH  17  19
ATOM     18  O   UNL     1      -3.304   2.201   1.913  0.00  0.00    -0.250 OA
ATOM     19  C   UNL     1      -3.223   2.187   0.691  0.00  0.00    +0.316 C 
BRANCH  19  20
ATOM     20  C   UNL     1      -4.276   2.738  -0.254  0.00  0.00    +0.099 C 
ATOM     21  C   UNL     1      -5.272   1.640  -0.610  0.00  0.00    +0.012 C 
ATOM     22  C   UNL     1      -4.985   3.939   0.367  0.00  0.00    +0.012 C 
ENDBRANCH  19  20
ENDBRANCH  17  19
ENDBRANCH   3  17
BRANCH   4  23
ATOM     23  C   UNL     1       1.421   1.436   0.841  0.00  0.00    +0.241 C 
BRANCH  23  24
ATOM     24  O   UNL     1       2.591   1.423   0.042  0.00  0.00    -0.446 OA
BRANCH  24  26
ATOM     25  O   UNL     1       3.876   1.940   1.886  0.00  0.00    -0.250 OA
ATOM     26  C   UNL     1       3.769   1.694   0.692  0.00  0.00    +0.316 C 
BRANCH  26  27
ATOM     27  C   UNL     1       4.925   1.657  -0.292  0.00  0.00    +0.099 C 
ATOM     28  C   UNL     1       5.125   3.039  -0.904  0.00  0.00    +0.012 C 
ATOM     29  C   UNL     1       6.202   1.172   0.390  0.00  0.00    +0.012 C 
ENDBRANCH  26  27
ENDBRANCH  24  26
ENDBRANCH  23  24
ENDBRANCH   4  23
TORSDOF 8
REMARK  Name = 24769037
REMARK  8 active torsions:
REMARK  status: ('A' for Active; 'I' for Inactive)
REMARK    1  A    between atoms: C_3  and  O_17
REMARK    2  A    between atoms: C_4  and  C_23
REMARK    3  A    between atoms: C_5  and  N_8
REMARK    4  A    between atoms: O_17  and  C_19
REMARK    5  A    between atoms: C_19  and  C_20
REMARK    6  A    between atoms: C_23  and  O_24
REMARK    7  A    between atoms: O_24  and  C_26
REMARK    8  A    between atoms: C_26  and  C_27
REMARK                            x       y       z     vdW  Elec       q    Type
REMARK                         _______ _______ _______ _____ _____    ______ ____
ROOT
ATOM      1  N   UNL     1       0.306   1.767  -2.249  0.00  0.00    +0.000 NA
ATOM      2  N   UNL     1       0.431   1.389  -3.318  0.00  0.00    +0.000 NA
ENDROOT
TORSDOF 0
