REMARK  Name = 46851313
REMARK  4 active torsions:
REMARK  status: ('A' for Active; 'I' for Inactive)
REMARK    1  A    between atoms: C_3  and  C_19
REMARK    2  A    between atoms: C_6  and  S_21
REMARK    3  A    between atoms: S_21  and  N_24
REMARK    4  A    between atoms: N_24  and  C_27
REMARK                            x       y       z     vdW  Elec       q    Type
REMARK                         _______ _______ _______ _____ _____    ______ ____
ROOT
ATOM      1 CL   UNL     1      -1.103   2.993  -2.162  0.00  0.00    -0.082 Cl
ATOM      2  F   UNL     1       3.610   1.208  -1.844  0.00  0.00    -0.203 F 
ATOM      3  C   UNL     1       0.044   1.975   0.094  0.00  0.00    +0.066 C 
ATOM      4  C   UNL     1       1.105   1.403   0.795  0.00  0.00    +0.028 C 
ATOM      5  C   UNL     1       0.188   2.287  -1.258  0.00  0.00    +0.064 C 
ATOM      6  C   UNL     1       2.311   1.143   0.144  0.00  0.00    +0.153 C 
ATOM      7  C   UNL     1       1.394   2.027  -1.909  0.00  0.00    +0.043 C 
ATOM      8  C   UNL     1       2.456   1.455  -1.208  0.00  0.00    +0.160 C 
ENDROOT
BRANCH   3  19
ATOM      9  O   UNL     1      -1.306   3.332   1.361  0.00  0.00    -0.270 OA
ATOM     10  N   UNL     1      -4.431  -0.425   0.392  0.00  0.00    +0.391 N 
ATOM     11  N   UNL     1      -2.171   1.220   0.851  0.00  0.00    -0.280 N 
ATOM     12  C   UNL     1      -3.255  -0.531  -0.476  0.00  0.00    -0.038 C 
ATOM     13  C   UNL     1      -3.338  -1.985  -0.906  0.00  0.00    -0.021 C 
ATOM     14  C   UNL     1      -5.518  -1.032  -0.366  0.00  0.00    -0.077 C 
ATOM     15  C   UNL     1      -2.001  -0.134   0.288  0.00  0.00    +0.073 C 
ATOM     16  C   UNL     1      -4.845  -2.239  -1.023  0.00  0.00    -0.025 C 
ATOM     17  C   UNL     1      -4.654   0.957   0.798  0.00  0.00    -0.055 C 
ATOM     18  C   UNL     1      -3.428   1.447   1.579  0.00  0.00    +0.071 C 
ATOM     19  C   UNL     1      -1.206   2.231   0.821  0.00  0.00    +0.250 C 
ATOM     20  H   UNL     1      -4.330  -0.915   1.280  0.00  0.00    -0.079 HD
ENDBRANCH   3  19
BRANCH   6  21
ATOM     21  S   UNL     1       3.638   0.426   1.025  0.00  0.00    +0.076 S 
ATOM     22  O   UNL     1       4.853   1.144   0.661  0.00  0.00    -0.150 OA
ATOM     23  O   UNL     1       3.269   0.340   2.433  0.00  0.00    -0.150 OA
BRANCH  21  24
ATOM     24  N   UNL     1       3.730  -1.158   0.354  0.00  0.00    -0.213 N 
ATOM     25  H   UNL     1       4.582  -1.514   0.011  0.00  0.00    +0.174 HD
BRANCH  24  27
ATOM     26  F   UNL     1       2.492  -1.832  -2.062  0.00  0.00    -0.203 F 
ATOM     27  C   UNL     1       2.528  -1.945   0.310  0.00  0.00    +0.092 C 
ATOM     28  C   UNL     1       1.942  -2.260  -0.916  0.00  0.00    +0.155 C 
ATOM     29  C   UNL     1       1.946  -2.394   1.496  0.00  0.00    +0.018 C 
ATOM     30  C   UNL     1       0.775  -3.023  -0.957  0.00  0.00    +0.031 C 
ATOM     31  C   UNL     1       0.780  -3.158   1.455  0.00  0.00    +0.001 C 
ATOM     32  C   UNL     1       0.194  -3.472   0.229  0.00  0.00    +0.002 C 
ENDBRANCH  24  27
ENDBRANCH  21  24
ENDBRANCH   6  21
TORSDOF 4
