REMARK  Name = 15983988
REMARK  5 active torsions:
REMARK  status: ('A' for Active; 'I' for Inactive)
REMARK    1  A    between atoms: N_3  and  C_20
REMARK    2  A    between atoms: C_5  and  N_10
REMARK    3  A    between atoms: C_11  and  N_16
REMARK    4  A    between atoms: C_20  and  C_22
REMARK    5  A    between atoms: C_23  and  C_29
REMARK                            x       y       z     vdW  Elec       q    Type
REMARK                         _______ _______ _______ _____ _____    ______ ____
ROOT
ATOM      1  O   UNL     1       0.676   2.880   1.582  0.00  0.00    -0.252 OA
ATOM      2  O   UNL     1      -3.340   3.163  -0.753  0.00  0.00    -0.269 OA
ATOM      3  N   UNL     1      -0.319   0.945   0.763  0.00  0.00    -0.227 N 
ATOM      4  N   UNL     1      -1.331   3.080   0.440  0.00  0.00    -0.208 N 
ATOM      5  C   UNL     1      -1.364   0.320   0.073  0.00  0.00    +0.112 C 
ATOM      6  C   UNL     1      -2.362   1.071  -0.422  0.00  0.00    +0.089 C 
ATOM      7  C   UNL     1      -0.254   2.337   0.975  0.00  0.00    +0.318 C 
ATOM      8  C   UNL     1      -2.401   2.537  -0.266  0.00  0.00    +0.259 C 
ATOM      9  C   UNL     1      -1.297   4.524   0.642  0.00  0.00    +0.125 C 
ENDROOT
BRANCH   5  10
ATOM     10  N   UNL     1      -1.414  -1.030  -0.122  0.00  0.00    -0.298 N 
ATOM     11  C   UNL     1      -3.050  -2.825   0.214  0.00  0.00    -0.046 C 
ATOM     12  C   UNL     1      -1.981  -1.944   0.874  0.00  0.00    +0.070 C 
ATOM     13  C   UNL     1      -2.476  -3.554  -1.009  0.00  0.00    -0.018 C 
ATOM     14  C   UNL     1      -1.855  -2.555  -1.986  0.00  0.00    +0.019 C 
ATOM     15  C   UNL     1      -0.818  -1.673  -1.294  0.00  0.00    +0.092 C 
BRANCH  11  16
ATOM     16  N   UNL     1      -3.572  -3.784   1.185  0.00  0.00    +0.383 N 
ATOM     17  H   UNL     1      -3.949  -3.283   1.990  0.00  0.00    -0.089 HD
ATOM     18  H   UNL     1      -2.821  -4.403   1.492  0.00  0.00    -0.089 HD
ATOM     19  H   UNL     1      -4.313  -4.337   0.753  0.00  0.00    -0.089 HD
ENDBRANCH  11  16
ENDBRANCH   5  10
BRANCH   3  20
ATOM     20  C   UNL     1       0.762   0.110   1.291  0.00  0.00    +0.128 C 
BRANCH  20  22
ATOM     21  F   UNL     1       2.659   1.023  -3.081  0.00  0.00    -0.204 F 
ATOM     22  C   UNL     1       1.878  -0.060   0.295  0.00  0.00    +0.010 C 
ATOM     23  C   UNL     1       3.003  -0.817   0.599  0.00  0.00    +0.066 C 
ATOM     24  C   UNL     1       1.754   0.563  -0.941  0.00  0.00    +0.028 C 
ATOM     25  C   UNL     1       4.019  -0.953  -0.346  0.00  0.00    +0.012 C 
ATOM     26  C   UNL     1       2.771   0.427  -1.887  0.00  0.00    +0.140 C 
ATOM     27  C   UNL     1       3.903  -0.331  -1.589  0.00  0.00    +0.030 C 
BRANCH  23  29
ATOM     28  N   UNL     1       3.263  -1.988   2.896  0.00  0.00    -0.191 NA
ATOM     29  C   UNL     1       3.146  -1.464   1.868  0.00  0.00    +0.100 C 
ENDBRANCH  23  29
ENDBRANCH  20  22
ENDBRANCH   3  20
TORSDOF 5
