REMARK  Name = 71484494
REMARK  5 active torsions:
REMARK  status: ('A' for Active; 'I' for Inactive)
REMARK    1  A    between atoms: N_2  and  C_29
REMARK    2  A    between atoms: C_3  and  O_25
REMARK    3  A    between atoms: C_16  and  O_27
REMARK    4  A    between atoms: C_18  and  C_22
REMARK    5  A    between atoms: C_29  and  C_30
REMARK                            x       y       z     vdW  Elec       q    Type
REMARK                         _______ _______ _______ _____ _____    ______ ____
ROOT
ATOM      1  O   UNL     1      -2.788  -3.210  -0.451  0.00  0.00    -0.296 OA
ATOM      2  N   UNL     1       2.499   0.271   0.730  0.00  0.00    +0.392 N 
ATOM      3  C   UNL     1       0.964  -1.552  -0.302  0.00  0.00    +0.076 C 
ATOM      4  C   UNL     1       1.893  -0.347  -0.604  0.00  0.00    -0.024 C 
ATOM      5  C   UNL     1      -0.183  -1.067   0.638  0.00  0.00    +0.047 C 
ATOM      6  C   UNL     1       0.435  -0.553   1.966  0.00  0.00    -0.015 C 
ATOM      7  C   UNL     1       1.433   0.589   1.783  0.00  0.00    -0.072 C 
ATOM      8  C   UNL     1       1.111   0.702  -1.421  0.00  0.00    +0.008 C 
ATOM      9  C   UNL     1       0.390  -2.211  -1.591  0.00  0.00    +0.033 C 
ATOM     10  C   UNL     1      -0.944   0.116  -0.003  0.00  0.00    +0.009 C 
ATOM     11  C   UNL     1      -1.091  -2.280   0.971  0.00  0.00    +0.071 C 
ATOM     12  C   UNL     1      -0.303   0.955  -0.946  0.00  0.00    -0.025 C 
ATOM     13  C   UNL     1       3.562  -0.664   1.344  0.00  0.00    -0.096 C 
ATOM     14  C   UNL     1      -0.545  -3.377  -1.284  0.00  0.00    +0.067 C 
ATOM     15  C   UNL     1      -1.596  -2.953  -0.287  0.00  0.00    +0.151 C 
ATOM     16  C   UNL     1      -2.258   0.439   0.384  0.00  0.00    +0.134 C 
ATOM     17  C   UNL     1      -0.997   2.042  -1.504  0.00  0.00    -0.004 C 
ATOM     18  C   UNL     1      -2.932   1.528  -0.173  0.00  0.00    +0.086 C 
ATOM     19  C   UNL     1      -2.304   2.326  -1.121  0.00  0.00    +0.007 C 
ENDROOT
BRANCH  18  22
ATOM     20  O   UNL     1      -4.504   2.650   1.175  0.00  0.00    -0.270 OA
ATOM     21  N   UNL     1      -5.338   1.307  -0.487  0.00  0.00    -0.325 N 
ATOM     22  C   UNL     1      -4.290   1.870   0.232  0.00  0.00    +0.246 C 
ATOM     23  H   UNL     1      -6.269   1.514  -0.243  0.00  0.00    +0.145 HD
ATOM     24  H   UNL     1      -5.149   0.702  -1.240  0.00  0.00    +0.145 HD
ENDBRANCH  18  22
BRANCH   3  25
ATOM     25  O   UNL     1       1.779  -2.564   0.303  0.00  0.00    -0.388 OA
ATOM     26  H   UNL     1       2.172  -2.218   1.119  0.00  0.00    +0.210 HD
ENDBRANCH   3  25
BRANCH  16  27
ATOM     27  O   UNL     1      -2.919  -0.208   1.387  0.00  0.00    -0.506 OA
ATOM     28  H   UNL     1      -2.526  -0.948   1.806  0.00  0.00    +0.292 HD
ENDBRANCH  16  27
BRANCH   2  29
ATOM     29  C   UNL     1       3.264   1.576   0.421  0.00  0.00    -0.073 C 
BRANCH  29  30
ATOM     30  C   UNL     1       4.378   1.418  -0.557  0.00  0.00    -0.020 C 
ATOM     31  C   UNL     1       5.577   2.322  -0.492  0.00  0.00    -0.002 C 
ATOM     32  C   UNL     1       5.706   0.874  -0.111  0.00  0.00    -0.002 C 
ENDBRANCH  29  30
ENDBRANCH   2  29
TORSDOF 5
