REMARK  Name = 91758792
REMARK  5 active torsions:
REMARK  status: ('A' for Active; 'I' for Inactive)
REMARK    1  A    between atoms: N_3  and  C_20
REMARK    2  A    between atoms: N_4  and  C_12
REMARK    3  A    between atoms: C_7  and  C_34
REMARK    4  A    between atoms: C_25  and  C_32
REMARK    5  A    between atoms: C_34  and  O_35
REMARK                            x       y       z     vdW  Elec       q    Type
REMARK                         _______ _______ _______ _____ _____    ______ ____
ROOT
ATOM      1  O   UNL     1       0.905  -1.312  -0.904  0.00  0.00    -0.251 OA
ATOM      2  O   UNL     1      -2.282   2.005  -0.252  0.00  0.00    -0.269 OA
ATOM      3  N   UNL     1      -0.708   0.289  -0.460  0.00  0.00    -0.208 N 
ATOM      4  N   UNL     1       1.619   0.810  -0.190  0.00  0.00    -0.220 N 
ATOM      5  C   UNL     1       0.640  -0.166  -0.526  0.00  0.00    +0.321 C 
ATOM      6  C   UNL     1      -1.120   1.604  -0.221  0.00  0.00    +0.264 C 
ATOM      7  C   UNL     1      -0.025   2.546   0.081  0.00  0.00    +0.144 C 
ATOM      8  C   UNL     1       1.238   2.116   0.085  0.00  0.00    +0.085 C 
ENDROOT
BRANCH   4  12
ATOM      9  O   UNL     1       5.274  -2.404   0.527  0.00  0.00    -0.407 OA
ATOM     10  O   UNL     1       7.486  -3.058   0.591  0.00  0.00    -0.223 OA
ATOM     11  N   UNL     1       6.899  -0.870   0.005  0.00  0.00    -0.260 N 
ATOM     12  C   UNL     1       3.021   0.436  -0.158  0.00  0.00    +0.063 C 
ATOM     13  C   UNL     1       3.381  -0.868   0.193  0.00  0.00    +0.054 C 
ATOM     14  C   UNL     1       4.002   1.394  -0.480  0.00  0.00    +0.017 C 
ATOM     15  C   UNL     1       4.726  -1.171   0.207  0.00  0.00    +0.167 A 
ATOM     16  C   UNL     1       5.685  -0.230  -0.110  0.00  0.00    +0.100 A 
ATOM     17  C   UNL     1       5.360   1.064  -0.459  0.00  0.00    +0.022 C 
ATOM     18  C   UNL     1       6.656  -2.179   0.388  0.00  0.00    +0.422 A 
ATOM     19  C   UNL     1       8.177  -0.250  -0.240  0.00  0.00    +0.137 C 
ENDBRANCH   4  12
BRANCH   3  20
ATOM     20  C   UNL     1      -1.742  -0.700  -0.752  0.00  0.00    +0.107 C 
ATOM     21  C   UNL     1      -2.566  -0.321  -1.997  0.00  0.00    +0.030 C 
ATOM     22  C   UNL     1      -3.958  -0.938  -1.806  0.00  0.00    +0.028 C 
ATOM     23  C   UNL     1      -2.818  -0.791   0.290  0.00  0.00    -0.008 C 
ATOM     24  C   UNL     1      -4.076  -0.926  -0.314  0.00  0.00    -0.021 C 
ATOM     25  C   UNL     1      -5.225  -1.076   0.445  0.00  0.00    +0.067 C 
ATOM     26  C   UNL     1      -2.692  -0.812   1.671  0.00  0.00    -0.003 C 
ATOM     27  C   UNL     1      -5.104  -1.080   1.836  0.00  0.00    +0.004 C 
ATOM     28  C   UNL     1      -3.847  -0.950   2.444  0.00  0.00    -0.000 C 
BRANCH  25  32
ATOM     29  F   UNL     1      -6.922  -0.168  -0.976  0.00  0.00    -0.166 F 
ATOM     30  F   UNL     1      -6.665  -2.321  -1.004  0.00  0.00    -0.166 F 
ATOM     31  F   UNL     1      -7.569  -1.359   0.724  0.00  0.00    -0.166 F 
ATOM     32  C   UNL     1      -6.563  -1.227  -0.191  0.00  0.00    +0.418 C 
ENDBRANCH  25  32
ENDBRANCH   3  20
BRANCH   7  34
ATOM     33  O   UNL     1       0.533   4.856   0.166  0.00  0.00    -0.245 OA
ATOM     34  C   UNL     1      -0.256   3.959   0.401  0.00  0.00    +0.344 C 
BRANCH  34  35
ATOM     35  O   UNL     1      -1.462   4.098   0.987  0.00  0.00    -0.477 OA
ATOM     36  H   UNL     1      -2.004   3.347   1.128  0.00  0.00    +0.295 HD
ENDBRANCH  34  35
ENDBRANCH   7  34
TORSDOF 5
