REMARK  Name = 121488186
REMARK  8 active torsions:
REMARK  status: ('A' for Active; 'I' for Inactive)
REMARK    1  A    between atoms: C_7  and  C_19
REMARK    2  A    between atoms: C_11  and  O_14
REMARK    3  A    between atoms: O_14  and  C_18
REMARK    4  A    between atoms: C_19  and  N_21
REMARK    5  A    between atoms: C_22  and  C_24
REMARK    6  A    between atoms: C_24  and  N_26
REMARK    7  A    between atoms: C_27  and  C_29
REMARK    8  A    between atoms: C_29  and  N_30
REMARK                            x       y       z     vdW  Elec       q    Type
REMARK                         _______ _______ _______ _____ _____    ______ ____
ROOT
ATOM      1  S   UNL     1       1.989  -0.505   1.779  0.00  0.00    -0.056 S 
ATOM      2  O   UNL     1      -1.626  -1.681  -0.950  0.00  0.00    -0.273 OA
ATOM      3  N   UNL     1      -0.476  -1.132   1.024  0.00  0.00    -0.253 N 
ATOM      4  N   UNL     1       1.306  -1.031  -0.652  0.00  0.00    -0.384 NA
ATOM      5  C   UNL     1       3.223  -0.443   0.576  0.00  0.00    +0.132 C 
ATOM      6  C   UNL     1       2.665  -0.755  -0.668  0.00  0.00    +0.126 C 
ATOM      7  C   UNL     1      -1.587  -1.481   0.260  0.00  0.00    +0.249 C 
ATOM      8  C   UNL     1       0.851  -0.930   0.575  0.00  0.00    +0.213 C 
ATOM      9  C   UNL     1       4.586  -0.139   0.722  0.00  0.00    +0.029 C 
ATOM     10  C   UNL     1       3.504  -0.763  -1.804  0.00  0.00    +0.032 C 
ATOM     11  C   UNL     1       5.394  -0.154  -0.418  0.00  0.00    +0.144 C 
ATOM     12  C   UNL     1       4.862  -0.462  -1.665  0.00  0.00    +0.039 C 
ATOM     13  H   UNL     1      -0.632  -1.012   1.988  0.00  0.00    +0.158 HD
ENDROOT
BRANCH  11  14
ATOM     14  O   UNL     1       6.721   0.137  -0.303  0.00  0.00    -0.405 OA
BRANCH  14  18
ATOM     15  F   UNL     1       6.159   2.344  -0.105  0.00  0.00    -0.133 F 
ATOM     16  F   UNL     1       8.256   1.788  -0.366  0.00  0.00    -0.133 F 
ATOM     17  F   UNL     1       7.271   1.374   1.540  0.00  0.00    -0.133 F 
ATOM     18  C   UNL     1       7.088   1.414   0.203  0.00  0.00    +0.575 C 
ENDBRANCH  14  18
ENDBRANCH  11  14
BRANCH   7  19
ATOM     19  C   UNL     1      -2.817  -1.597   1.141  0.00  0.00    +0.180 C 
BRANCH  19  21
ATOM     20  O   UNL     1      -5.804  -1.252  -0.919  0.00  0.00    -0.273 OA
ATOM     21  N   UNL     1      -3.984  -1.946   0.340  0.00  0.00    -0.268 N 
ATOM     22  C   UNL     1      -4.812  -0.978  -0.238  0.00  0.00    +0.246 C 
ATOM     23  C   UNL     1      -4.228  -3.378   0.186  0.00  0.00    +0.115 C 
BRANCH  22  24
ATOM     24  C   UNL     1      -4.422   0.467   0.020  0.00  0.00    +0.176 C 
BRANCH  24  26
ATOM     25  O   UNL     1      -6.841   1.541   1.189  0.00  0.00    -0.277 OA
ATOM     26  N   UNL     1      -5.369   1.349  -0.599  0.00  0.00    -0.298 N 
ATOM     27  C   UNL     1      -6.514   1.822   0.038  0.00  0.00    +0.201 C 
ATOM     28  H   UNL     1      -5.200   1.636  -1.525  0.00  0.00    +0.150 HD
BRANCH  27  29
ATOM     29  C   UNL     1      -7.347   2.710  -0.863  0.00  0.00    +0.001 C 
BRANCH  29  30
ATOM     30  N   UNL     1      -8.048   3.685  -0.040  0.00  0.00    +0.386 N 
ATOM     31  H   UNL     1      -8.613   4.290  -0.637  0.00  0.00    -0.089 HD
ATOM     32  H   UNL     1      -7.370   4.249   0.471  0.00  0.00    -0.089 HD
ATOM     33  H   UNL     1      -8.654   3.199   0.621  0.00  0.00    -0.089 HD
ENDBRANCH  29  30
ENDBRANCH  27  29
ENDBRANCH  24  26
ENDBRANCH  22  24
ENDBRANCH  19  21
ENDBRANCH   7  19
TORSDOF 8
