REMARK  Name = 71727581
REMARK  6 active torsions:
REMARK  status: ('A' for Active; 'I' for Inactive)
REMARK    1  A    between atoms: N_2  and  C_22
REMARK    2  A    between atoms: C_5  and  C_11
REMARK    3  A    between atoms: N_9  and  C_18
REMARK    4  A    between atoms: C_22  and  C_25
REMARK    5  A    between atoms: C_22  and  C_31
REMARK    6  A    between atoms: C_31  and  O_32
REMARK                            x       y       z     vdW  Elec       q    Type
REMARK                         _______ _______ _______ _____ _____    ______ ____
ROOT
ATOM      1  O   UNL     1       1.003   1.772   2.125  0.00  0.00    -0.270 OA
ATOM      2  N   UNL     1       1.822   0.863   0.133  0.00  0.00    -0.249 N 
ATOM      3  C   UNL     1       0.894   1.004   1.170  0.00  0.00    +0.253 C 
ATOM      4  C   UNL     1       1.623  -0.027  -0.906  0.00  0.00    +0.068 C 
ATOM      5  C   UNL     1      -0.485  -0.723   0.058  0.00  0.00    +0.036 C 
ATOM      6  C   UNL     1      -0.321   0.136   1.081  0.00  0.00    +0.061 C 
ATOM      7  C   UNL     1       0.533  -0.798  -0.972  0.00  0.00    +0.019 C 
ENDROOT
BRANCH   5  11
ATOM      8  N   UNL     1      -2.879  -0.875  -0.013  0.00  0.00    -0.337 NA
ATOM      9  N   UNL     1      -5.222  -0.980  -0.083  0.00  0.00    -0.234 N 
ATOM     10  N   UNL     1      -4.022  -2.996  -0.044  0.00  0.00    -0.170 NA
ATOM     11  C   UNL     1      -1.709  -1.547   0.023  0.00  0.00    +0.146 C 
ATOM     12  C   UNL     1      -1.617  -2.924   0.028  0.00  0.00    +0.055 C 
ATOM     13  C   UNL     1      -3.979  -1.650  -0.045  0.00  0.00    +0.149 C 
ATOM     14  C   UNL     1      -2.817  -3.604  -0.007  0.00  0.00    +0.114 C 
ATOM     15  H   UNL     1      -5.997  -1.586  -0.105  0.00  0.00    +0.166 HD
BRANCH   9  18
ATOM     16  N   UNL     1      -6.867   0.797  -0.134  0.00  0.00    -0.196 N 
ATOM     17  N   UNL     1      -7.012   2.134  -0.139  0.00  0.00    -0.175 NA
ATOM     18  C   UNL     1      -5.568   0.384  -0.095  0.00  0.00    +0.130 C 
ATOM     19  C   UNL     1      -4.810   1.529  -0.074  0.00  0.00    +0.054 C 
ATOM     20  C   UNL     1      -8.049  -0.035  -0.168  0.00  0.00    +0.141 C 
ATOM     21  C   UNL     1      -5.752   2.575  -0.102  0.00  0.00    +0.121 C 
ENDBRANCH   9  18
ENDBRANCH   5  11
BRANCH   2  22
ATOM     22  C   UNL     1       3.042   1.660   0.119  0.00  0.00    +0.132 C 
BRANCH  22  25
ATOM     23 CL   UNL     1       7.907  -1.880   0.435  0.00  0.00    -0.080 Cl
ATOM     24  F   UNL     1       6.661  -0.808  -2.032  0.00  0.00    -0.203 F 
ATOM     25  C   UNL     1       4.265   0.771   0.197  0.00  0.00    +0.001 C 
ATOM     26  C   UNL     1       4.918   0.379  -0.972  0.00  0.00    +0.028 C 
ATOM     27  C   UNL     1       4.739   0.344   1.437  0.00  0.00    -0.002 C 
ATOM     28  C   UNL     1       6.044  -0.440  -0.900  0.00  0.00    +0.150 C 
ATOM     29  C   UNL     1       5.865  -0.475   1.509  0.00  0.00    +0.013 C 
ATOM     30  C   UNL     1       6.518  -0.867   0.340  0.00  0.00    +0.085 C 
ENDBRANCH  22  25
BRANCH  22  31
ATOM     31  C   UNL     1       3.068   2.586  -1.101  0.00  0.00    +0.162 C 
BRANCH  31  32
ATOM     32  O   UNL     1       2.207   3.695  -0.866  0.00  0.00    -0.380 OA
ATOM     33  H   UNL     1       2.221   4.284  -1.636  0.00  0.00    +0.211 HD
ENDBRANCH  31  32
ENDBRANCH  22  31
ENDBRANCH   2  22
TORSDOF 6
