REMARK  Name = 57827330
REMARK  4 active torsions:
REMARK  status: ('A' for Active; 'I' for Inactive)
REMARK    1  A    between atoms: C_2  and  C_13
REMARK    2  A    between atoms: C_5  and  N_22
REMARK    3  A    between atoms: C_23  and  C_27
REMARK    4  A    between atoms: C_30  and  C_33
REMARK                            x       y       z     vdW  Elec       q    Type
REMARK                         _______ _______ _______ _____ _____    ______ ____
ROOT
ATOM      1  F   UNL     1       3.942   2.690  -0.241  0.00  0.00    -0.204 F 
ATOM      2  C   UNL     1       2.453   0.841  -0.239  0.00  0.00    +0.029 C 
ATOM      3  C   UNL     1       1.145   0.357  -0.213  0.00  0.00    +0.015 C 
ATOM      4  C   UNL     1       2.688   2.216  -0.216  0.00  0.00    +0.138 C 
ATOM      5  C   UNL     1       0.073   1.247  -0.163  0.00  0.00    +0.050 C 
ATOM      6  C   UNL     1       1.616   3.106  -0.166  0.00  0.00    +0.031 C 
ATOM      7  C   UNL     1       0.308   2.622  -0.140  0.00  0.00    +0.017 C 
ENDROOT
BRANCH   2  13
ATOM      8  S   UNL     1       2.897  -1.479   2.293  0.00  0.00    -0.081 S 
ATOM      9  O   UNL     1       5.135  -1.087  -1.917  0.00  0.00    -0.354 OA
ATOM     10  N   UNL     1       4.552   0.061   0.838  0.00  0.00    -0.248 NA
ATOM     11  N   UNL     1       5.104  -0.301   3.086  0.00  0.00    -0.338 N 
ATOM     12  C   UNL     1       3.328  -1.634  -0.483  0.00  0.00    +0.065 C 
ATOM     13  C   UNL     1       3.624  -0.137  -0.294  0.00  0.00    +0.137 C 
ATOM     14  C   UNL     1       4.642  -2.147  -1.086  0.00  0.00    +0.118 C 
ATOM     15  C   UNL     1       4.445   0.125  -1.574  0.00  0.00    +0.169 C 
ATOM     16  C   UNL     1       2.891  -2.427   0.751  0.00  0.00    +0.070 C 
ATOM     17  C   UNL     1       4.485  -3.404  -1.925  0.00  0.00    +0.032 C 
ATOM     18  C   UNL     1       4.305  -0.470   1.988  0.00  0.00    +0.148 C 
ATOM     19  H   UNL     1       4.867  -0.731   3.939  0.00  0.00    +0.144 HD
ATOM     20  H   UNL     1       5.917   0.250   3.022  0.00  0.00    +0.144 HD
ENDBRANCH   2  13
BRANCH   5  22
ATOM     21  O   UNL     1      -2.537   2.720  -0.059  0.00  0.00    -0.268 OA
ATOM     22  N   UNL     1      -1.236   0.763  -0.138  0.00  0.00    -0.279 N 
ATOM     23  C   UNL     1      -2.427   1.499  -0.089  0.00  0.00    +0.265 C 
ATOM     24  H   UNL     1      -1.334  -0.216  -0.156  0.00  0.00    +0.155 HD
BRANCH  23  27
ATOM     25  N   UNL     1      -3.529  -0.646  -0.160  0.00  0.00    -0.262 NA
ATOM     26  N   UNL     1      -6.055   0.568  -0.070  0.00  0.00    -0.265 NA
ATOM     27  C   UNL     1      -3.675   0.693  -0.102  0.00  0.00    +0.132 C 
ATOM     28  C   UNL     1      -4.916   1.289  -0.058  0.00  0.00    +0.175 C 
ATOM     29  C   UNL     1      -4.668  -1.367  -0.172  0.00  0.00    +0.171 C 
ATOM     30  C   UNL     1      -5.909  -0.770  -0.128  0.00  0.00    +0.122 C 
BRANCH  30  33
ATOM     31  F   UNL     1      -8.298  -0.863  -0.093  0.00  0.00    -0.192 F 
ATOM     32  F   UNL     1      -7.237  -2.466   0.911  0.00  0.00    -0.192 F 
ATOM     33  C   UNL     1      -7.146  -1.598  -0.142  0.00  0.00    +0.356 C 
ENDBRANCH  30  33
ENDBRANCH  23  27
ENDBRANCH   5  22
TORSDOF 4
