REMARK  Name = 52939580
REMARK  4 active torsions:
REMARK  status: ('A' for Active; 'I' for Inactive)
REMARK    1  A    between atoms: C_1  and  S_7
REMARK    2  A    between atoms: C_2  and  S_11
REMARK    3  A    between atoms: S_11  and  N_14
REMARK    4  A    between atoms: N_14  and  O_16
REMARK                            x       y       z     vdW  Elec       q    Type
REMARK                         _______ _______ _______ _____ _____    ______ ____
ROOT
ATOM      1  C   UNL     1      -1.008  -0.349   0.077  0.00  0.00    +0.124 C 
ATOM      2  C   UNL     1      -0.306   0.839  -0.128  0.00  0.00    +0.141 C 
ATOM      3  C   UNL     1      -2.386  -0.317   0.291  0.00  0.00    +0.020 C 
ATOM      4  C   UNL     1      -0.982   2.059  -0.117  0.00  0.00    +0.021 C 
ATOM      5  C   UNL     1      -3.062   0.904   0.301  0.00  0.00    +0.001 C 
ATOM      6  C   UNL     1      -2.360   2.092   0.097  0.00  0.00    +0.001 C 
ENDROOT
BRANCH   1   7
ATOM      7  S   UNL     1      -0.205  -1.904   0.073  0.00  0.00    +0.012 S 
ATOM      8  O   UNL     1       1.198  -1.707   0.403  0.00  0.00    -0.169 OA
ATOM      9  O   UNL     1      -1.014  -2.823   0.858  0.00  0.00    -0.169 OA
ATOM     10  C   UNL     1      -0.272  -2.427  -1.625  0.00  0.00    +0.182 C 
ENDBRANCH   1   7
BRANCH   2  11
ATOM     11  S   UNL     1       1.423   0.850  -0.401  0.00  0.00    +0.082 S 
ATOM     12  O   UNL     1       1.843   2.217  -0.672  0.00  0.00    -0.151 OA
ATOM     13  O   UNL     1       1.721  -0.205  -1.358  0.00  0.00    -0.151 OA
BRANCH  11  14
ATOM     14  N   UNL     1       1.993   0.399   1.157  0.00  0.00    -0.071 NA
ATOM     15  H   UNL     1       1.638  -0.522   1.414  0.00  0.00    +0.181 HD
BRANCH  14  16
ATOM     16  O   UNL     1       3.419   0.372   1.045  0.00  0.00    -0.295 OA
ATOM     17  H   UNL     1       3.806   0.122   1.898  0.00  0.00    +0.238 HD
ENDBRANCH  14  16
ENDBRANCH  11  14
ENDBRANCH   2  11
TORSDOF 4
