REMARK  Name = 54766013
REMARK  5 active torsions:
REMARK  status: ('A' for Active; 'I' for Inactive)
REMARK    1  A    between atoms: C_3  and  C_11
REMARK    2  A    between atoms: C_4  and  C_18
REMARK    3  A    between atoms: C_5  and  C_24
REMARK    4  A    between atoms: C_24  and  N_25
REMARK    5  A    between atoms: N_25  and  C_28
REMARK                            x       y       z     vdW  Elec       q    Type
REMARK                         _______ _______ _______ _____ _____    ______ ____
ROOT
ATOM      1  N   UNL     1      -0.776  -1.616  -0.553  0.00  0.00    -0.315 N 
ATOM      2  N   UNL     1      -0.553   0.558  -0.947  0.00  0.00    -0.317 N 
ATOM      3  C   UNL     1       0.665   0.007  -0.638  0.00  0.00    +0.063 C 
ATOM      4  C   UNL     1       0.552  -1.341  -0.390  0.00  0.00    +0.085 C 
ATOM      5  C   UNL     1      -1.400  -0.446  -0.887  0.00  0.00    +0.164 C 
ATOM      6  H   UNL     1      -1.206  -2.496  -0.450  0.00  0.00    +0.148 HD
ATOM      7  H   UNL     1      -0.750   1.498  -1.165  0.00  0.00    +0.148 HD
ENDROOT
BRANCH   3  11
ATOM      8  N   UNL     1       3.095   2.682   0.293  0.00  0.00    -0.170 N 
ATOM      9  N   UNL     1       3.340   3.765   1.073  0.00  0.00    -0.150 NA
ATOM     10  N   UNL     1       5.138   3.347  -0.274  0.00  0.00    -0.206 NA
ATOM     11  C   UNL     1       1.887   0.834  -0.601  0.00  0.00    +0.031 C 
ATOM     12  C   UNL     1       1.951   1.881   0.248  0.00  0.00    +0.092 C 
ATOM     13  C   UNL     1       3.048   0.583  -1.460  0.00  0.00    +0.006 C 
ATOM     14  C   UNL     1       4.208   2.451  -0.519  0.00  0.00    +0.157 C 
ATOM     15  C   UNL     1       4.150   1.353  -1.418  0.00  0.00    +0.036 C 
ATOM     16  C   UNL     1       4.567   4.116   0.692  0.00  0.00    +0.219 C 
ENDBRANCH   3  11
BRANCH   4  18
ATOM     17  N   UNL     1       2.569  -1.890   0.687  0.00  0.00    -0.409 NA
ATOM     18  C   UNL     1       1.520  -2.347  -0.032  0.00  0.00    +0.127 C 
ATOM     19  C   UNL     1       1.355  -3.671  -0.408  0.00  0.00    +0.086 C 
ATOM     20  C   UNL     1       3.497  -2.806   1.044  0.00  0.00    +0.109 C 
ATOM     21  C   UNL     1       2.331  -4.583  -0.021  0.00  0.00    -0.016 C 
ATOM     22  C   UNL     1       3.425  -4.151   0.719  0.00  0.00    +0.023 C 
ATOM     23  C   UNL     1       4.659  -2.306   1.837  0.00  0.00    +0.066 C 
ENDBRANCH   4  18
BRANCH   5  24
ATOM     24  C   UNL     1      -2.852  -0.394  -1.136  0.00  0.00    +0.128 C 
BRANCH  24  25
ATOM     25  N   UNL     1      -3.566   0.191  -0.013  0.00  0.00    -0.328 N 
ATOM     26  H   UNL     1      -3.042   0.525   0.750  0.00  0.00    +0.147 HD
BRANCH  25  28
ATOM     27  F   UNL     1      -4.822   1.321   2.179  0.00  0.00    -0.203 F 
ATOM     28  C   UNL     1      -4.941   0.301   0.038  0.00  0.00    +0.073 C 
ATOM     29  C   UNL     1      -5.557   0.873   1.151  0.00  0.00    +0.153 C 
ATOM     30  C   UNL     1      -5.716  -0.163  -1.026  0.00  0.00    +0.017 C 
ATOM     31  C   UNL     1      -6.946   0.983   1.201  0.00  0.00    +0.031 C 
ATOM     32  C   UNL     1      -7.106  -0.053  -0.976  0.00  0.00    +0.001 C 
ATOM     33  C   UNL     1      -7.721   0.520   0.137  0.00  0.00    +0.002 C 
ENDBRANCH  25  28
ENDBRANCH  24  25
ENDBRANCH   5  24
TORSDOF 5
