REMARK  Name = 71059746
REMARK  1 active torsions:
REMARK  status: ('A' for Active; 'I' for Inactive)
REMARK    1  A    between atoms: C_8  and  C_17
REMARK                            x       y       z     vdW  Elec       q    Type
REMARK                         _______ _______ _______ _____ _____    ______ ____
ROOT
ATOM      1  N   UNL     1       2.138   1.561   0.205  0.00  0.00    -0.353 N 
ATOM      2  N   UNL     1       5.451  -0.841  -0.095  0.00  0.00    -0.242 NA
ATOM      3  C   UNL     1       1.673  -0.601  -0.080  0.00  0.00    +0.018 A 
ATOM      4  C   UNL     1       1.105   0.663   0.084  0.00  0.00    +0.057 A 
ATOM      5  C   UNL     1       3.094  -0.436  -0.052  0.00  0.00    +0.036 A 
ATOM      6  C   UNL     1       3.353   0.922   0.127  0.00  0.00    +0.060 A 
ATOM      7  C   UNL     1      -0.279   0.873   0.106  0.00  0.00    +0.017 C 
ATOM      8  C   UNL     1      -1.107  -0.243  -0.043  0.00  0.00    +0.003 C 
ATOM      9  C   UNL     1       0.816  -1.712  -0.229  0.00  0.00    +0.002 C 
ATOM     10  C   UNL     1      -0.569  -1.517  -0.208  0.00  0.00    +0.000 C 
ATOM     11  C   UNL     1       4.182  -1.310  -0.162  0.00  0.00    +0.100 C 
ATOM     12  C   UNL     1       4.645   1.434   0.200  0.00  0.00    +0.038 C 
ATOM     13  C   UNL     1       5.648   0.486   0.080  0.00  0.00    +0.100 C 
ATOM     14  H   UNL     1       2.024   2.531   0.332  0.00  0.00    +0.166 HD
ENDROOT
BRANCH   8  17
ATOM     15  F   UNL     1      -6.597   0.303   0.068  0.00  0.00    -0.183 F 
ATOM     16  N   UNL     1      -4.727  -0.977   0.479  0.00  0.00    -0.216 NA
ATOM     17  C   UNL     1      -2.544  -0.070  -0.027  0.00  0.00    +0.019 C 
ATOM     18  C   UNL     1      -3.130   1.109  -0.475  0.00  0.00    +0.005 C 
ATOM     19  C   UNL     1      -3.379  -1.073   0.436  0.00  0.00    +0.101 C 
ATOM     20  C   UNL     1      -4.513   1.246  -0.447  0.00  0.00    +0.050 C 
ATOM     21  C   UNL     1      -5.260   0.184   0.035  0.00  0.00    +0.222 C 
ENDBRANCH   8  17
TORSDOF 1
