REMARK  Name = 124173720
REMARK  4 active torsions:
REMARK  status: ('A' for Active; 'I' for Inactive)
REMARK    1  A    between atoms: C_13  and  N_24
REMARK    2  A    between atoms: C_18  and  C_23
REMARK    3  A    between atoms: N_24  and  C_26
REMARK    4  A    between atoms: C_26  and  C_30
REMARK                            x       y       z     vdW  Elec       q    Type
REMARK                         _______ _______ _______ _____ _____    ______ ____
ROOT
ATOM      1  O   UNL     1       1.411  -3.150   0.306  0.00  0.00    -0.473 OA
ATOM      2  N   UNL     1      -1.356  -1.919   0.150  0.00  0.00    -0.272 N 
ATOM      3  N   UNL     1      -1.340   0.278   0.343  0.00  0.00    -0.374 NA
ATOM      4  C   UNL     1      -2.632  -0.166   0.314  0.00  0.00    +0.190 C 
ATOM      5  C   UNL     1      -0.561  -0.794   0.248  0.00  0.00    +0.188 C 
ATOM      6  C   UNL     1      -0.957  -3.304   0.016  0.00  0.00    +0.141 C 
ATOM      7  C   UNL     1      -2.670  -1.529   0.198  0.00  0.00    +0.169 C 
ATOM      8  C   UNL     1       0.915  -0.730   0.252  0.00  0.00    +0.078 C 
ATOM      9  C   UNL     1       0.395  -3.472  -0.639  0.00  0.00    +0.227 C 
ATOM     10  C   UNL     1       1.784  -1.833   0.293  0.00  0.00    +0.144 C 
ATOM     11  C   UNL     1       1.504   0.553   0.254  0.00  0.00    +0.008 C 
ATOM     12  C   UNL     1       3.175  -1.648   0.384  0.00  0.00    +0.051 C 
ATOM     13  C   UNL     1       3.725  -0.371   0.389  0.00  0.00    +0.048 C 
ATOM     14  C   UNL     1       2.888   0.733   0.318  0.00  0.00    +0.015 C 
ATOM     15  O   UNL     1      -4.924   2.554   0.739  0.00  0.00    -0.432 OA
ATOM     16  O   UNL     1      -2.667   2.781   0.433  0.00  0.00    -0.226 OA
ATOM     17  N   UNL     1      -3.716   0.674   0.397  0.00  0.00    -0.194 N 
ATOM     18  C   UNL     1      -5.102   0.262   0.374  0.00  0.00    +0.195 C 
ATOM     19  C   UNL     1      -5.782   1.446   1.032  0.00  0.00    +0.236 C 
ATOM     20  C   UNL     1      -3.656   2.065   0.515  0.00  0.00    +0.411 C 
ENDROOT
BRANCH  18  23
ATOM     21  F   UNL     1      -5.313   1.132  -1.788  0.00  0.00    -0.196 F 
ATOM     22  F   UNL     1      -4.935  -1.002  -1.589  0.00  0.00    -0.196 F 
ATOM     23  C   UNL     1      -5.603   0.040  -1.052  0.00  0.00    +0.340 C 
ENDBRANCH  18  23
BRANCH  13  24
ATOM     24  N   UNL     1       5.122  -0.200   0.466  0.00  0.00    -0.327 N 
ATOM     25  H   UNL     1       5.691  -1.001   0.516  0.00  0.00    +0.147 HD
BRANCH  24  26
ATOM     26  C   UNL     1       5.749   1.086   0.475  0.00  0.00    +0.146 C 
ATOM     27  C   UNL     1       7.152   0.963   1.051  0.00  0.00    +0.031 C 
BRANCH  26  30
ATOM     28  O   UNL     1       5.894   0.919  -1.941  0.00  0.00    -0.274 OA
ATOM     29  N   UNL     1       5.704   3.003  -0.996  0.00  0.00    -0.327 N 
ATOM     30  C   UNL     1       5.793   1.629  -0.943  0.00  0.00    +0.237 C 
ATOM     31  H   UNL     1       5.723   3.465  -1.865  0.00  0.00    +0.145 HD
ATOM     32  H   UNL     1       5.622   3.524  -0.164  0.00  0.00    +0.145 HD
ENDBRANCH  26  30
ENDBRANCH  24  26
ENDBRANCH  13  24
TORSDOF 4
