REMARK  Name = 91503
REMARK  5 active torsions:
REMARK  status: ('A' for Active; 'I' for Inactive)
REMARK    1  A    between atoms: C_1  and  C_3
REMARK    2  A    between atoms: C_1  and  C_17
REMARK    3  A    between atoms: C_1  and  O_25
REMARK    4  A    between atoms: C_10  and  O_12
REMARK    5  A    between atoms: C_16  and  C_23
REMARK                            x       y       z     vdW  Elec       q    Type
REMARK                         _______ _______ _______ _____ _____    ______ ____
ROOT
ATOM      1  C   UNL     1      -0.566  -0.843   1.229  0.00  0.00    +0.114 C 
ENDROOT
BRANCH   1   3
ATOM      2  N   UNL     1       2.890  -2.506  -0.667  0.00  0.00    -0.244 NA
ATOM      3  C   UNL     1       0.668  -1.394   0.559  0.00  0.00    +0.005 C 
ATOM      4  C   UNL     1       1.744  -0.577   0.212  0.00  0.00    +0.019 C 
ATOM      5  C   UNL     1       0.692  -2.752   0.300  0.00  0.00    +0.019 C 
ATOM      6  C   UNL     1       2.855  -1.185  -0.409  0.00  0.00    +0.081 C 
ATOM      7  C   UNL     1       1.742   0.805   0.466  0.00  0.00    +0.038 C 
ATOM      8  C   UNL     1       1.821  -3.256  -0.312  0.00  0.00    +0.099 C 
ATOM      9  C   UNL     1       3.934  -0.377  -0.758  0.00  0.00    +0.022 C 
ATOM     10  C   UNL     1       2.834   1.589   0.107  0.00  0.00    +0.139 C 
ATOM     11  C   UNL     1       3.932   0.997  -0.506  0.00  0.00    +0.038 C 
BRANCH  10  12
ATOM     12  O   UNL     1       2.828   2.926   0.355  0.00  0.00    -0.471 OA
ATOM     13  C   UNL     1       3.983   3.666  -0.040  0.00  0.00    +0.252 C 
ENDBRANCH  10  12
ENDBRANCH   1   3
BRANCH   1  17
ATOM     14  N   UNL     1      -1.739  -0.562  -0.970  0.00  0.00    +0.390 N 
ATOM     15  C   UNL     1      -4.008   0.108   0.111  0.00  0.00    -0.006 C 
ATOM     16  C   UNL     1      -3.275   1.349  -0.447  0.00  0.00    -0.021 C 
ATOM     17  C   UNL     1      -1.829  -1.114   0.409  0.00  0.00    -0.026 C 
ATOM     18  C   UNL     1      -3.099  -0.606   1.128  0.00  0.00    -0.018 C 
ATOM     19  C   UNL     1      -1.878   0.914  -0.944  0.00  0.00    -0.077 C 
ATOM     20  C   UNL     1      -4.218  -0.857  -1.071  0.00  0.00    -0.023 C 
ATOM     21  C   UNL     1      -2.866  -1.119  -1.758  0.00  0.00    -0.077 C 
ATOM     22  H   UNL     1      -0.838  -0.809  -1.378  0.00  0.00    -0.079 HD
BRANCH  16  23
ATOM     23  C   UNL     1      -3.184   2.497   0.555  0.00  0.00    -0.002 C 
ATOM     24  C   UNL     1      -2.551   3.727  -0.067  0.00  0.00    -0.000 C 
ENDBRANCH  16  23
ENDBRANCH   1  17
BRANCH   1  25
ATOM     25  O   UNL     1      -0.709  -1.431   2.518  0.00  0.00    -0.382 OA
ATOM     26  H   UNL     1      -1.502  -1.076   2.949  0.00  0.00    +0.211 HD
ENDBRANCH   1  25
TORSDOF 5
