REMARK  Name = 90409366
REMARK  2 active torsions:
REMARK  status: ('A' for Active; 'I' for Inactive)
REMARK    1  A    between atoms: C_15  and  C_21
REMARK    2  A    between atoms: C_24  and  C_30
REMARK                            x       y       z     vdW  Elec       q    Type
REMARK                         _______ _______ _______ _____ _____    ______ ____
ROOT
ATOM      1  F   UNL     1       6.270  -3.623  -0.553  0.00  0.00    -0.205 F 
ATOM      2  O   UNL     1      -2.389   2.776   1.117  0.00  0.00    -0.270 OA
ATOM      3  N   UNL     1      -0.682   1.851  -0.188  0.00  0.00    -0.273 N 
ATOM      4  N   UNL     1       3.228   0.778   0.257  0.00  0.00    -0.142 N 
ATOM      5  N   UNL     1       2.759   2.786   0.918  0.00  0.00    -0.148 NA
ATOM      6  N   UNL     1       3.736   1.882   0.842  0.00  0.00    -0.036 NA
ATOM      7  N   UNL     1       3.403  -1.405  -0.533  0.00  0.00    -0.199 NA
ATOM      8  N   UNL     1       5.293  -0.279   0.449  0.00  0.00    -0.177 NA
ATOM      9  C   UNL     1       0.310   2.882   0.245  0.00  0.00    +0.115 C 
ATOM     10  C   UNL     1      -0.228   0.845  -1.194  0.00  0.00    +0.096 C 
ATOM     11  C   UNL     1       0.970   0.021  -0.682  0.00  0.00    +0.050 C 
ATOM     12  C   UNL     1       1.640   2.231   0.370  0.00  0.00    +0.096 C 
ATOM     13  C   UNL     1       1.920   0.957  -0.053  0.00  0.00    +0.147 C 
ATOM     14  C   UNL     1       0.327   4.061  -0.726  0.00  0.00    +0.028 C 
ATOM     15  C   UNL     1      -1.995   1.955   0.290  0.00  0.00    +0.250 C 
ATOM     16  C   UNL     1       4.010  -0.353   0.048  0.00  0.00    +0.110 C 
ATOM     17  C   UNL     1       4.190  -2.485  -0.720  0.00  0.00    +0.195 C 
ATOM     18  C   UNL     1       6.022  -1.393   0.233  0.00  0.00    +0.138 C 
ATOM     19  C   UNL     1       5.520  -2.537  -0.353  0.00  0.00    +0.163 C 
ENDROOT
BRANCH  15  21
ATOM     20 CL   UNL     1      -2.326  -0.673   1.816  0.00  0.00    -0.082 Cl
ATOM     21  C   UNL     1      -2.997   1.005  -0.211  0.00  0.00    +0.064 C 
ATOM     22  C   UNL     1      -3.230  -0.223   0.408  0.00  0.00    +0.066 C 
ATOM     23  C   UNL     1      -3.727   1.365  -1.344  0.00  0.00    +0.005 C 
ATOM     24  C   UNL     1      -4.193  -1.091  -0.106  0.00  0.00    +0.082 C 
ATOM     25  C   UNL     1      -4.690   0.496  -1.858  0.00  0.00    +0.000 C 
ATOM     26  C   UNL     1      -4.923  -0.732  -1.239  0.00  0.00    +0.005 C 
BRANCH  24  30
ATOM     27  F   UNL     1      -5.451  -3.109  -0.134  0.00  0.00    -0.166 F 
ATOM     28  F   UNL     1      -3.394  -3.247   0.557  0.00  0.00    -0.166 F 
ATOM     29  F   UNL     1      -4.899  -2.325   1.818  0.00  0.00    -0.166 F 
ATOM     30  C   UNL     1      -4.477  -2.417   0.524  0.00  0.00    +0.419 C 
ENDBRANCH  24  30
ENDBRANCH  15  21
TORSDOF 2
