REMARK  Name = 118598754
REMARK  1 active torsions:
REMARK  status: ('A' for Active; 'I' for Inactive)
REMARK    1  A    between atoms: C_15  and  N_19
REMARK                            x       y       z     vdW  Elec       q    Type
REMARK                         _______ _______ _______ _____ _____    ______ ____
ROOT
ATOM      1  O   UNL     1      -3.197  -3.188  -0.033  0.00  0.00    -0.269 OA
ATOM      2  O   UNL     1      -0.442   1.956  -0.163  0.00  0.00    -0.268 OA
ATOM      3  N   UNL     1      -1.537  -0.092  -0.110  0.00  0.00    -0.238 N 
ATOM      4  N   UNL     1      -3.680  -0.901   0.070  0.00  0.00    -0.288 N 
ATOM      5  C   UNL     1      -2.945   0.358   0.033  0.00  0.00    +0.124 C 
ATOM      6  C   UNL     1      -3.158   1.126   1.352  0.00  0.00    +0.038 C 
ATOM      7  C   UNL     1      -3.395   1.190  -1.184  0.00  0.00    +0.038 C 
ATOM      8  C   UNL     1      -4.814   1.740  -1.026  0.00  0.00    +0.003 C 
ATOM      9  C   UNL     1      -4.578   1.677   1.488  0.00  0.00    +0.003 C 
ATOM     10  C   UNL     1      -4.976   2.515   0.277  0.00  0.00    +0.000 C 
ATOM     11  C   UNL     1      -1.482  -1.475  -0.150  0.00  0.00    +0.105 C 
ATOM     12  C   UNL     1      -2.861  -2.018  -0.035  0.00  0.00    +0.260 C 
ATOM     13  C   UNL     1      -0.418   0.727  -0.194  0.00  0.00    +0.267 C 
ATOM     14  C   UNL     1      -0.321  -2.134  -0.274  0.00  0.00    -0.002 C 
ATOM     15  C   UNL     1       0.897   0.005  -0.334  0.00  0.00    +0.104 C 
ATOM     16  C   UNL     1       0.892  -1.339  -0.367  0.00  0.00    +0.016 C 
ATOM     17  C   UNL     1      -0.123  -3.619  -0.330  0.00  0.00    +0.033 C 
ATOM     18  H   UNL     1      -4.659  -0.955   0.160  0.00  0.00    +0.151 HD
ENDROOT
BRANCH  15  19
ATOM     19  N   UNL     1       2.013   0.786  -0.418  0.00  0.00    -0.298 N 
ATOM     20  N   UNL     1       3.484  -0.335   1.058  0.00  0.00    -0.233 NA
ATOM     21  N   UNL     1       5.865  -0.063   0.802  0.00  0.00    -0.234 NA
ATOM     22  C   UNL     1       3.314   0.491   0.004  0.00  0.00    +0.113 C 
ATOM     23  C   UNL     1       4.355   1.071  -0.691  0.00  0.00    +0.121 C 
ATOM     24  C   UNL     1       5.622   0.755  -0.243  0.00  0.00    +0.107 C 
ATOM     25  C   UNL     1       4.767  -0.566   1.398  0.00  0.00    +0.252 C 
ATOM     26  H   UNL     1       1.886   1.671  -0.830  0.00  0.00    +0.153 HD
ATOM     27  N   UNL     1       6.718   1.333  -0.929  0.00  0.00    -0.346 N 
ATOM     28  H   UNL     1       7.639   1.134  -0.643  0.00  0.00    +0.143 HD
ATOM     29  H   UNL     1       6.560   1.933  -1.694  0.00  0.00    +0.143 HD
ENDBRANCH  15  19
TORSDOF 1
