REMARK  Name = 10343454
REMARK  6 active torsions:
REMARK  status: ('A' for Active; 'I' for Inactive)
REMARK    1  A    between atoms: C_2  and  N_17
REMARK    2  A    between atoms: C_3  and  C_9
REMARK    3  A    between atoms: C_9  and  C_12
REMARK    4  A    between atoms: N_17  and  S_19
REMARK    5  A    between atoms: S_19  and  C_25
REMARK    6  A    between atoms: C_22  and  C_28
REMARK                            x       y       z     vdW  Elec       q    Type
REMARK                         _______ _______ _______ _____ _____    ______ ____
ROOT
ATOM      1 CL   UNL     1       4.448  -2.881  -2.052  0.00  0.00    -0.082 Cl
ATOM      2  C   UNL     1       2.846   0.532   0.410  0.00  0.00    +0.068 C 
ATOM      3  C   UNL     1       2.222  -0.710   0.465  0.00  0.00    +0.054 C 
ATOM      4  C   UNL     1       3.961   0.729  -0.399  0.00  0.00    +0.017 C 
ATOM      5  C   UNL     1       2.718  -1.767  -0.297  0.00  0.00    +0.016 C 
ATOM      6  C   UNL     1       4.457  -0.329  -1.161  0.00  0.00    +0.013 C 
ATOM      7  C   UNL     1       3.836  -1.577  -1.111  0.00  0.00    +0.058 C 
ENDROOT
BRANCH   3   9
ATOM      8  O   UNL     1       0.952  -0.368   2.398  0.00  0.00    -0.287 OA
ATOM      9  C   UNL     1       1.054  -0.940   1.305  0.00  0.00    +0.197 C 
BRANCH   9  12
ATOM     10  O   UNL     1      -3.033  -4.328  -0.195  0.00  0.00    -0.163 OA
ATOM     11  N   UNL     1      -2.090  -3.545   0.151  0.00  0.00    -0.127 N 
ATOM     12  C   UNL     1      -0.053  -1.856   0.899  0.00  0.00    +0.042 C 
ATOM     13  C   UNL     1      -0.323  -2.009  -0.437  0.00  0.00    +0.025 C 
ATOM     14  C   UNL     1      -0.757  -2.510   1.877  0.00  0.00    +0.025 C 
ATOM     15  C   UNL     1      -1.356  -2.866  -0.802  0.00  0.00    +0.121 C 
ATOM     16  C   UNL     1      -1.785  -3.361   1.486  0.00  0.00    +0.121 C 
ENDBRANCH   9  12
ENDBRANCH   3   9
BRANCH   2  17
ATOM     17  N   UNL     1       2.353   1.637   1.188  0.00  0.00    -0.215 N 
ATOM     18  H   UNL     1       2.410   1.630   2.171  0.00  0.00    +0.174 HD
BRANCH  17  19
ATOM     19  S   UNL     1       1.660   2.973   0.349  0.00  0.00    +0.074 S 
ATOM     20  O   UNL     1       1.585   4.098   1.274  0.00  0.00    -0.150 OA
ATOM     21  O   UNL     1       2.342   3.156  -0.926  0.00  0.00    -0.150 OA
BRANCH  19  25
ATOM     22  C   UNL     1      -2.532   1.580  -0.451  0.00  0.00    -0.023 C 
ATOM     23  C   UNL     1      -2.283   2.256   0.717  0.00  0.00    -0.003 C 
ATOM     24  C   UNL     1      -1.566   1.308  -1.387  0.00  0.00    -0.003 C 
ATOM     25  C   UNL     1       0.029   2.431   0.038  0.00  0.00    +0.125 C 
ATOM     26  C   UNL     1      -0.980   2.688   0.966  0.00  0.00    +0.020 C 
ATOM     27  C   UNL     1      -0.263   1.741  -1.138  0.00  0.00    +0.020 C 
BRANCH  22  28
ATOM     28  C   UNL     1      -3.968   1.104  -0.726  0.00  0.00    +0.019 C 
ATOM     29  C   UNL     1      -4.920   2.319  -0.764  0.00  0.00    +0.004 C 
ATOM     30  C   UNL     1      -4.420   0.140   0.392  0.00  0.00    +0.004 C 
ATOM     31  C   UNL     1      -4.132   0.354  -2.068  0.00  0.00    +0.004 C 
ENDBRANCH  22  28
ENDBRANCH  19  25
ENDBRANCH  17  19
ENDBRANCH   2  17
TORSDOF 6
