REMARK  Name = 448839
REMARK  6 active torsions:
REMARK  status: ('A' for Active; 'I' for Inactive)
REMARK    1  A    between atoms: C_7  and  C_16
REMARK    2  A    between atoms: C_16  and  O_17
REMARK    3  A    between atoms: C_16  and  C_19
REMARK    4  A    between atoms: C_19  and  O_20
REMARK    5  A    between atoms: C_19  and  C_22
REMARK    6  A    between atoms: C_22  and  O_23
REMARK                            x       y       z     vdW  Elec       q    Type
REMARK                         _______ _______ _______ _____ _____    ______ ____
ROOT
ATOM      1  O   UNL     1      -1.216  -2.388  -0.791  0.00  0.00    -0.206 OA
ATOM      2  N   UNL     1       0.362  -0.245  -0.568  0.00  0.00    -0.391 NA
ATOM      3  N   UNL     1      -0.797   2.147   0.336  0.00  0.00    -0.246 NA
ATOM      4  N   UNL     1      -2.901   1.001   0.497  0.00  0.00    -0.259 N 
ATOM      5  N   UNL     1      -3.112  -1.302  -0.076  0.00  0.00    -0.300 NA
ATOM      6  N   UNL     1      -4.940  -0.038   0.672  0.00  0.00    -0.320 N 
ATOM      7  C   UNL     1       1.081   0.883  -0.424  0.00  0.00    +0.141 C 
ATOM      8  C   UNL     1      -0.944  -0.145  -0.248  0.00  0.00    +0.255 C 
ATOM      9  C   UNL     1       0.512   2.057   0.019  0.00  0.00    +0.183 C 
ATOM     10  C   UNL     1      -1.536   1.025   0.199  0.00  0.00    +0.173 C 
ATOM     11  C   UNL     1      -1.767  -1.366  -0.394  0.00  0.00    +0.240 C 
ATOM     12  C   UNL     1      -3.614  -0.168   0.341  0.00  0.00    +0.249 C 
ATOM     13  H   UNL     1      -3.352   1.815   0.817  0.00  0.00    +0.157 HD
ATOM     14  H   UNL     1      -5.288   0.829   0.983  0.00  0.00    +0.146 HD
ATOM     15  H   UNL     1      -5.544  -0.812   0.598  0.00  0.00    +0.146 HD
ENDROOT
BRANCH   7  16
ATOM     16  C   UNL     1       2.530   0.826  -0.763  0.00  0.00    +0.190 C 
BRANCH  16  17
ATOM     17  O   UNL     1       2.699   0.568  -2.168  0.00  0.00    -0.376 OA
ATOM     18  H   UNL     1       3.646   0.532  -2.378  0.00  0.00    +0.211 HD
ENDBRANCH  16  17
BRANCH  16  19
ATOM     19  C   UNL     1       3.369  -0.222   0.014  0.00  0.00    +0.173 C 
BRANCH  19  20
ATOM     20  O   UNL     1       2.912  -1.533  -0.324  0.00  0.00    -0.379 OA
ATOM     21  H   UNL     1       2.958  -1.654  -1.286  0.00  0.00    +0.211 HD
ENDBRANCH  19  20
BRANCH  19  22
ATOM     22  C   UNL     1       3.293  -0.040   1.527  0.00  0.00    +0.169 C 
BRANCH  22  23
ATOM     23  O   UNL     1       4.068  -1.060   2.150  0.00  0.00    -0.379 OA
ATOM     24  H   UNL     1       4.027  -0.954   3.113  0.00  0.00    +0.211 HD
ENDBRANCH  22  23
ENDBRANCH  19  22
ENDBRANCH  16  19
ENDBRANCH   7  16
TORSDOF 6
