REMARK  Name = 73386748
REMARK  7 active torsions:
REMARK  status: ('A' for Active; 'I' for Inactive)
REMARK    1  A    between atoms: N_3  and  O_21
REMARK    2  A    between atoms: C_7  and  C_12
REMARK    3  A    between atoms: N_11  and  O_14
REMARK    4  A    between atoms: O_14  and  C_15
REMARK    5  A    between atoms: C_15  and  C_16
REMARK    6  A    between atoms: C_16  and  N_17
REMARK    7  A    between atoms: O_21  and  S_22
REMARK                            x       y       z     vdW  Elec       q    Type
REMARK                         _______ _______ _______ _____ _____    ______ ____
ROOT
ATOM      1  O   UNL     1      -1.400   0.484   2.284  0.00  0.00    -0.250 OA
ATOM      2  N   UNL     1       0.133   0.142   0.451  0.00  0.00    -0.254 N 
ATOM      3  N   UNL     1      -2.083   0.136   0.046  0.00  0.00    -0.126 N 
ATOM      4  C   UNL     1      -1.401  -0.380  -1.132  0.00  0.00    +0.127 C 
ATOM      5  C   UNL     1      -0.090   0.370  -0.976  0.00  0.00    +0.118 C 
ATOM      6  C   UNL     1      -1.073  -1.891  -1.011  0.00  0.00    +0.026 C 
ATOM      7  C   UNL     1       0.692  -1.162   0.785  0.00  0.00    +0.155 C 
ATOM      8  C   UNL     1      -0.249  -2.274   0.255  0.00  0.00    +0.031 C 
ATOM      9  C   UNL     1      -1.171   0.354   1.091  0.00  0.00    +0.332 C 
ENDROOT
BRANCH   7  12
ATOM     10  O   UNL     1       2.388  -2.174  -0.546  0.00  0.00    -0.271 OA
ATOM     11  N   UNL     1       2.916  -0.283   0.676  0.00  0.00    -0.192 N 
ATOM     12  C   UNL     1       2.079  -1.274   0.233  0.00  0.00    +0.263 C 
ATOM     13  H   UNL     1       2.628   0.400   1.325  0.00  0.00    +0.183 HD
BRANCH  11  14
ATOM     14  O   UNL     1       4.217  -0.309   0.140  0.00  0.00    -0.269 OA
BRANCH  14  15
ATOM     15  C   UNL     1       4.711   1.022   0.089  0.00  0.00    +0.147 C 
BRANCH  15  16
ATOM     16  C   UNL     1       6.117   1.000  -0.490  0.00  0.00    -0.051 C 
BRANCH  16  17
ATOM     17  N   UNL     1       6.657   2.349  -0.577  0.00  0.00    +0.382 N 
ATOM     18  H   UNL     1       7.599   2.313  -0.967  0.00  0.00    -0.089 HD
ATOM     19  H   UNL     1       6.691   2.762   0.355  0.00  0.00    -0.089 HD
ATOM     20  H   UNL     1       6.061   2.916  -1.180  0.00  0.00    -0.089 HD
ENDBRANCH  16  17
ENDBRANCH  15  16
ENDBRANCH  14  15
ENDBRANCH  11  14
ENDBRANCH   7  12
BRANCH   3  21
ATOM     21  O   UNL     1      -3.402  -0.227   0.272  0.00  0.00    -0.094 OA
BRANCH  21  22
ATOM     22  S   UNL     1      -4.467   0.865  -0.340  0.00  0.00    +0.258 S 
ATOM     23  O   UNL     1      -5.881   0.450   0.357  0.00  0.00    -0.020 OA
ATOM     24  O   UNL     1      -4.593   0.624  -1.765  0.00  0.00    -0.114 OA
ATOM     25  O   UNL     1      -4.101   2.178   0.159  0.00  0.00    -0.114 OA
ENDBRANCH  21  22
ENDBRANCH   3  21
TORSDOF 7
