REMARK  Name = 56961879
REMARK  4 active torsions:
REMARK  status: ('A' for Active; 'I' for Inactive)
REMARK    1  A    between atoms: N_1  and  C_10
REMARK    2  A    between atoms: N_9  and  C_16
REMARK    3  A    between atoms: C_23  and  C_27
REMARK    4  A    between atoms: N_26  and  C_30
REMARK                            x       y       z     vdW  Elec       q    Type
REMARK                         _______ _______ _______ _____ _____    ______ ____
ROOT
ATOM      1  N   UNL     1      -2.429   1.098   1.093  0.00  0.00    +0.389 N 
ATOM      2  N   UNL     1      -2.760  -1.743   1.052  0.00  0.00    -0.286 N 
ATOM      3  C   UNL     1      -3.895   1.030   1.116  0.00  0.00    -0.075 C 
ATOM      4  C   UNL     1      -1.764   0.274   2.116  0.00  0.00    -0.055 C 
ATOM      5  C   UNL     1      -4.424  -0.108   0.227  0.00  0.00    -0.001 C 
ATOM      6  C   UNL     1      -2.294  -1.152   2.311  0.00  0.00    +0.070 C 
ATOM      7  C   UNL     1      -4.181  -1.515   0.772  0.00  0.00    +0.091 C 
ATOM      8  H   UNL     1      -2.164   0.705   0.189  0.00  0.00    -0.080 HD
ATOM      9  N   UNL     1      -0.575  -1.848   0.161  0.00  0.00    -0.386 NA
ATOM     10  C   UNL     1      -1.873  -2.217   0.087  0.00  0.00    +0.183 C 
ATOM     11  C   UNL     1      -2.389  -3.046  -0.896  0.00  0.00    +0.044 C 
ATOM     12  C   UNL     1      -1.516  -3.527  -1.866  0.00  0.00    -0.015 C 
ATOM     13  C   UNL     1       0.244  -2.335  -0.798  0.00  0.00    +0.168 C 
ATOM     14  C   UNL     1      -0.173  -3.169  -1.823  0.00  0.00    +0.090 C 
ENDROOT
BRANCH   1  16
ATOM     15  N   UNL     1      -0.378   3.048  -1.224  0.00  0.00    +0.388 N 
ATOM     16  C   UNL     1      -1.962   2.482   1.196  0.00  0.00    -0.062 C 
ATOM     17  C   UNL     1      -2.499   3.313   0.025  0.00  0.00    -0.044 C 
ATOM     18  C   UNL     1      -0.431   2.530   1.196  0.00  0.00    -0.044 C 
ATOM     19  C   UNL     1      -1.842   2.938  -1.307  0.00  0.00    -0.079 C 
ATOM     20  C   UNL     1       0.166   2.179  -0.171  0.00  0.00    -0.079 C 
ATOM     21  H   UNL     1      -0.151   4.012  -0.981  0.00  0.00    -0.080 HD
BRANCH  15  22
ATOM     22  C   UNL     1       0.233   2.733  -2.515  0.00  0.00    -0.058 C 
ATOM     23  C   UNL     1       1.628   3.347  -2.580  0.00  0.00    -0.023 C 
ATOM     24  C   UNL     1       0.290   1.222  -2.719  0.00  0.00    -0.023 C 
ENDBRANCH  15  22
ENDBRANCH   1  16
BRANCH  13  27
ATOM     25  O   UNL     1       2.448  -2.357  -1.542  0.00  0.00    -0.267 OA
ATOM     26  N   UNL     1       1.958  -1.084   0.367  0.00  0.00    -0.278 N 
ATOM     27  C   UNL     1       1.635  -1.929  -0.705  0.00  0.00    +0.275 C 
ATOM     28  H   UNL     1       1.207  -0.827   0.949  0.00  0.00    +0.155 HD
BRANCH  26  30
ATOM     29  N   UNL     1       5.715   0.500   1.423  0.00  0.00    -0.242 NA
ATOM     30  C   UNL     1       3.221  -0.551   0.722  0.00  0.00    +0.054 C 
ATOM     31  C   UNL     1       4.346  -0.855  -0.038  0.00  0.00    +0.035 C 
ATOM     32  C   UNL     1       3.342   0.278   1.832  0.00  0.00    +0.035 C 
ATOM     33  C   UNL     1       5.558  -0.309   0.352  0.00  0.00    +0.100 C 
ATOM     34  C   UNL     1       4.600   0.773   2.138  0.00  0.00    +0.100 C 
ENDBRANCH  26  30
ENDBRANCH  13  27
TORSDOF 4
