REMARK  Name = 46189893
REMARK  4 active torsions:
REMARK  status: ('A' for Active; 'I' for Inactive)
REMARK    1  A    between atoms: C_1  and  C_8
REMARK    2  A    between atoms: C_2  and  C_15
REMARK    3  A    between atoms: C_15  and  O_16
REMARK    4  A    between atoms: O_16  and  C_20
REMARK                            x       y       z     vdW  Elec       q    Type
REMARK                         _______ _______ _______ _____ _____    ______ ____
ROOT
ATOM      1  C   UNL     1      -2.361  -0.672   0.084  0.00  0.00    -0.023 C 
ATOM      2  C   UNL     1      -1.373  -1.600   0.413  0.00  0.00    +0.017 C 
ATOM      3  C   UNL     1      -3.639  -1.108  -0.265  0.00  0.00    -0.004 C 
ATOM      4  C   UNL     1      -1.663  -2.965   0.393  0.00  0.00    -0.001 C 
ATOM      5  C   UNL     1      -3.929  -2.472  -0.286  0.00  0.00    -0.000 C 
ATOM      6  C   UNL     1      -2.941  -3.401   0.043  0.00  0.00    -0.000 C 
ENDROOT
BRANCH   1   8
ATOM      7  N   UNL     1      -2.844   3.618  -0.253  0.00  0.00    +0.384 N 
ATOM      8  C   UNL     1      -2.070   0.816   0.100  0.00  0.00    +0.018 C 
ATOM      9  C   UNL     1      -2.232   1.457  -1.289  0.00  0.00    -0.019 C 
ATOM     10  C   UNL     1      -2.932   1.568   1.128  0.00  0.00    -0.019 C 
ATOM     11  C   UNL     1      -1.975   2.963  -1.232  0.00  0.00    -0.081 C 
ATOM     12  C   UNL     1      -2.647   3.070   1.089  0.00  0.00    -0.081 C 
ATOM     13  H   UNL     1      -3.816   3.481  -0.528  0.00  0.00    -0.085 HD
ATOM     14  H   UNL     1      -2.609   4.610  -0.231  0.00  0.00    -0.085 HD
ENDBRANCH   1   8
BRANCH   2  15
ATOM     15  C   UNL     1       0.002  -1.157   0.791  0.00  0.00    +0.232 C 
BRANCH  15  16
ATOM     16  O   UNL     1       0.701  -0.747  -0.377  0.00  0.00    -0.466 OA
BRANCH  16  20
ATOM     17  F   UNL     1       2.769  -2.560  -0.547  0.00  0.00    -0.201 F 
ATOM     18  F   UNL     1       1.293   1.896   0.137  0.00  0.00    -0.201 F 
ATOM     19  F   UNL     1       5.913   0.877   0.297  0.00  0.00    -0.204 F 
ATOM     20  C   UNL     1       2.000  -0.342  -0.209  0.00  0.00    +0.194 C 
ATOM     21  C   UNL     1       3.037  -1.271  -0.297  0.00  0.00    +0.178 C 
ATOM     22  C   UNL     1       2.285   0.999   0.051  0.00  0.00    +0.178 C 
ATOM     23  C   UNL     1       4.358  -0.859  -0.126  0.00  0.00    +0.063 C 
ATOM     24  C   UNL     1       3.606   1.410   0.222  0.00  0.00    +0.063 C 
ATOM     25  C   UNL     1       4.643   0.481   0.133  0.00  0.00    +0.145 C 
ENDBRANCH  16  20
ENDBRANCH  15  16
ENDBRANCH   2  15
TORSDOF 4
