REMARK  Name = 8614
REMARK  4 active torsions:
REMARK  status: ('A' for Active; 'I' for Inactive)
REMARK    1  A    between atoms: N_2  and  C_12
REMARK    2  A    between atoms: C_3  and  C_6
REMARK    3  A    between atoms: C_12  and  C_14
REMARK    4  A    between atoms: C_14  and  O_15
REMARK                            x       y       z     vdW  Elec       q    Type
REMARK                         _______ _______ _______ _____ _____    ______ ____
ROOT
ATOM      1  O   UNL     1       0.628  -0.252  -1.748  0.00  0.00    -0.270 OA
ATOM      2  N   UNL     1       1.180   0.981   0.137  0.00  0.00    -0.291 N 
ATOM      3  C   UNL     1       0.285   0.289  -0.683  0.00  0.00    +0.247 C 
ATOM      4  H   UNL     1       0.836   1.384   0.967  0.00  0.00    +0.150 HD
ENDROOT
BRANCH   3   6
ATOM      5  I   UNL     1      -0.857  -2.820  -0.238  0.00  0.00    -0.042 I 
ATOM      6  C   UNL     1      -1.106   0.242  -0.249  0.00  0.00    +0.059 C 
ATOM      7  C   UNL     1      -1.780  -0.955  -0.005  0.00  0.00    +0.034 C 
ATOM      8  C   UNL     1      -1.764   1.460  -0.079  0.00  0.00    +0.005 C 
ATOM      9  C   UNL     1      -3.112  -0.933   0.408  0.00  0.00    +0.006 C 
ATOM     10  C   UNL     1      -3.096   1.482   0.335  0.00  0.00    +0.000 C 
ATOM     11  C   UNL     1      -3.770   0.285   0.578  0.00  0.00    +0.000 C 
ENDBRANCH   3   6
BRANCH   2  12
ATOM     12  C   UNL     1       2.584   1.135  -0.169  0.00  0.00    +0.201 C 
BRANCH  12  14
ATOM     13  O   UNL     1       4.649  -0.028   0.253  0.00  0.00    -0.248 OA
ATOM     14  C   UNL     1       3.433   0.024   0.393  0.00  0.00    +0.334 C 
BRANCH  14  15
ATOM     15  O   UNL     1       2.724  -0.912   1.065  0.00  0.00    -0.479 OA
ATOM     16  H   UNL     1       1.794  -0.828   1.144  0.00  0.00    +0.295 HD
ENDBRANCH  14  15
ENDBRANCH  12  14
ENDBRANCH   2  12
TORSDOF 4
