REMARK  Name = 86705695
REMARK  6 active torsions:
REMARK  status: ('A' for Active; 'I' for Inactive)
REMARK    1  A    between atoms: N_2  and  C_28
REMARK    2  A    between atoms: N_3  and  C_18
REMARK    3  A    between atoms: C_9  and  C_30
REMARK    4  A    between atoms: C_21  and  O_24
REMARK    5  A    between atoms: C_22  and  O_26
REMARK    6  A    between atoms: C_30  and  N_32
REMARK                            x       y       z     vdW  Elec       q    Type
REMARK                         _______ _______ _______ _____ _____    ______ ____
ROOT
ATOM      1  O   UNL     1       1.940  -0.987   2.198  0.00  0.00    -0.252 OA
ATOM      2  N   UNL     1       0.033   0.085   1.447  0.00  0.00    -0.243 N 
ATOM      3  N   UNL     1       2.147   0.411   0.349  0.00  0.00    -0.234 N 
ATOM      4  N   UNL     1      -3.877   1.907  -0.638  0.00  0.00    -0.303 N 
ATOM      5  N   UNL     1      -1.780   2.632  -1.516  0.00  0.00    -0.229 NA
ATOM      6  C   UNL     1      -0.634   0.905   0.483  0.00  0.00    +0.057 C 
ATOM      7  C   UNL     1      -2.044   1.045   0.346  0.00  0.00    +0.046 C 
ATOM      8  C   UNL     1       0.154   1.643  -0.407  0.00  0.00    +0.031 C 
ATOM      9  C   UNL     1      -4.326   1.065   0.338  0.00  0.00    +0.005 C 
ATOM     10  C   UNL     1       1.641   1.625  -0.286  0.00  0.00    +0.129 C 
ATOM     11  C   UNL     1      -2.509   1.904  -0.653  0.00  0.00    +0.133 C 
ATOM     12  C   UNL     1      -3.224   0.518   0.958  0.00  0.00    +0.012 C 
ATOM     13  C   UNL     1       1.417  -0.216   1.384  0.00  0.00    +0.315 C 
ATOM     14  C   UNL     1      -0.456   2.472  -1.347  0.00  0.00    +0.099 C 
ATOM     15  H   UNL     1      -4.451   2.435  -1.239  0.00  0.00    +0.153 HD
ENDROOT
BRANCH   3  18
ATOM     16  F   UNL     1       4.298   2.188   0.516  0.00  0.00    -0.200 F 
ATOM     17  F   UNL     1       2.761  -2.198  -0.450  0.00  0.00    -0.200 F 
ATOM     18  C   UNL     1       3.499   0.004   0.040  0.00  0.00    +0.117 C 
ATOM     19  C   UNL     1       4.543   0.925   0.136  0.00  0.00    +0.190 C 
ATOM     20  C   UNL     1       3.761  -1.308  -0.356  0.00  0.00    +0.190 C 
ATOM     21  C   UNL     1       5.066  -1.699  -0.655  0.00  0.00    +0.170 C 
ATOM     22  C   UNL     1       5.848   0.533  -0.163  0.00  0.00    +0.170 C 
ATOM     23  C   UNL     1       6.109  -0.779  -0.559  0.00  0.00    +0.079 C 
BRANCH  21  24
ATOM     24  O   UNL     1       5.322  -2.979  -1.041  0.00  0.00    -0.469 OA
ATOM     25  C   UNL     1       6.680  -3.309  -1.332  0.00  0.00    +0.253 C 
ENDBRANCH  21  24
BRANCH  22  26
ATOM     26  O   UNL     1       6.868   1.430  -0.070  0.00  0.00    -0.469 OA
ATOM     27  C   UNL     1       8.177   0.961  -0.391  0.00  0.00    +0.253 C 
ENDBRANCH  22  26
ENDBRANCH   3  18
BRANCH   2  28
ATOM     28  C   UNL     1      -0.746  -0.530   2.516  0.00  0.00    +0.100 C 
ATOM     29  C   UNL     1      -1.319  -1.865   2.087  0.00  0.00    +0.024 C 
ENDBRANCH   2  28
BRANCH   9  30
ATOM     30  C   UNL     1      -5.766   0.870   0.584  0.00  0.00    -0.035 C 
BRANCH  30  32
ATOM     31  O   UNL     1      -8.246  -1.995  -1.221  0.00  0.00    -0.358 OA
ATOM     32  N   UNL     1      -6.268  -0.399   0.060  0.00  0.00    +0.394 N 
ATOM     33  C   UNL     1      -7.501  -0.798   0.753  0.00  0.00    -0.044 C 
ATOM     34  C   UNL     1      -6.511  -0.307  -1.386  0.00  0.00    -0.044 C 
ATOM     35  C   UNL     1      -8.011  -2.118   0.182  0.00  0.00    +0.119 C 
ATOM     36  C   UNL     1      -7.046  -1.638  -1.907  0.00  0.00    +0.119 C 
ATOM     37  H   UNL     1      -5.555  -1.109   0.227  0.00  0.00    -0.079 HD
ENDBRANCH  30  32
ENDBRANCH   9  30
TORSDOF 6
