89808643
  -OEChem-05201911293D

 50 53  0     1  0  0  0  0  0999 V2000
   -3.9516    3.1885   -2.2305 Cl  0  0  0  0  0  0  0  0  0  0  0  0
   -3.2356    2.4286    2.0863 F   0  0  0  0  0  0  0  0  0  0  0  0
   -2.9895    3.9867    0.5899 F   0  0  0  0  0  0  0  0  0  0  0  0
   -4.8531    2.8835    0.7063 F   0  0  0  0  0  0  0  0  0  0  0  0
    6.0464    2.1776   -0.0300 O   0  0  0  0  0  0  0  0  0  0  0  0
   -3.0494   -2.9289    0.2082 N   0  0  0  0  0  0  0  0  0  0  0  0
    0.3432   -1.5249   -0.3778 N   0  0  0  0  0  0  0  0  0  0  0  0
    0.9288    0.1346    1.1842 N   0  0  0  0  0  0  0  0  0  0  0  0
    3.1831    0.9794    1.2934 N   0  0  0  0  0  0  0  0  0  0  0  0
    6.5931    0.5459    1.4855 N   0  0  0  0  0  0  0  0  0  0  0  0
   -3.6556   -4.2576   -0.0664 C   0  0  0  0  0  0  0  0  0  0  0  0
   -3.0586   -3.2632    1.6560 C   0  0  0  0  0  0  0  0  0  0  0  0
   -4.2392   -4.2076    1.3588 C   0  0  0  0  0  0  0  0  0  0  0  0
   -1.6828   -2.8731   -0.2975 C   0  0  0  0  0  0  0  0  0  0  0  0
   -1.0089   -1.5435    0.0767 C   0  0  2  0  0  0  0  0  0  0  0  0
   -1.7505   -0.3511   -0.4940 C   0  0  0  0  0  0  0  0  0  0  0  0
   -2.2730    0.6197    0.3605 C   0  0  0  0  0  0  0  0  0  0  0  0
    1.3272   -0.6734    0.1837 C   0  0  0  0  0  0  0  0  0  0  0  0
   -1.9106   -0.2248   -1.8740 C   0  0  0  0  0  0  0  0  0  0  0  0
   -2.9553    1.7170   -0.1649 C   0  0  0  0  0  0  0  0  0  0  0  0
    2.6269   -0.7119   -0.3132 C   0  0  0  0  0  0  0  0  0  0  0  0
   -2.5929    0.8724   -2.3993 C   0  0  0  0  0  0  0  0  0  0  0  0
   -3.1152    1.8434   -1.5448 C   0  0  0  0  0  0  0  0  0  0  0  0
    3.5472    0.1595    0.2922 C   0  0  0  0  0  0  0  0  0  0  0  0
   -3.4988    2.7357    0.7841 C   0  0  0  0  0  0  0  0  0  0  0  0
    3.0190   -1.5650   -1.3594 C   0  0  0  0  0  0  0  0  0  0  0  0
    4.8580    0.1494   -0.1783 C   0  0  0  0  0  0  0  0  0  0  0  0
    1.8939    0.9227    1.6850 C   0  0  0  0  0  0  0  0  0  0  0  0
    4.3355   -1.5542   -1.8097 C   0  0  0  0  0  0  0  0  0  0  0  0
    5.2557   -0.6960   -1.2183 C   0  0  0  0  0  0  0  0  0  0  0  0
    5.8623    1.0306    0.4074 C   0  0  0  0  0  0  0  0  0  0  0  0
   -2.1720   -3.7827    2.0416 H   0  0  0  0  0  0  0  0  0  0  0  0
   -4.3948   -4.2648   -0.8724 H   0  0  0  0  0  0  0  0  0  0  0  0
   -2.9512   -5.0846   -0.2230 H   0  0  0  0  0  0  0  0  0  0  0  0
   -3.2917   -2.4239    2.3178 H   0  0  0  0  0  0  0  0  0  0  0  0
   -4.2554   -5.1511    1.9091 H   0  0  0  0  0  0  0  0  0  0  0  0
   -5.2234   -3.7292    1.4238 H   0  0  0  0  0  0  0  0  0  0  0  0
   -1.7044   -2.9931   -1.3889 H   0  0  0  0  0  0  0  0  0  0  0  0
   -1.0679   -3.7065    0.0728 H   0  0  0  0  0  0  0  0  0  0  0  0
   -1.0152   -1.4867    1.1740 H   0  0  0  0  0  0  0  0  0  0  0  0
    0.4888   -1.8017   -1.3421 H   0  0  0  0  0  0  0  0  0  0  0  0
   -2.1448    0.5111    1.4343 H   0  0  0  0  0  0  0  0  0  0  0  0
   -1.5063   -0.9650   -2.5588 H   0  0  0  0  0  0  0  0  0  0  0  0
   -2.7075    0.9573   -3.4770 H   0  0  0  0  0  0  0  0  0  0  0  0
    2.3379   -2.2595   -1.8409 H   0  0  0  0  0  0  0  0  0  0  0  0
    1.6066    1.5859    2.4918 H   0  0  0  0  0  0  0  0  0  0  0  0
    4.6432   -2.2135   -2.6156 H   0  0  0  0  0  0  0  0  0  0  0  0
    6.2833   -0.6915   -1.5735 H   0  0  0  0  0  0  0  0  0  0  0  0
    6.4489   -0.3868    1.8592 H   0  0  0  0  0  0  0  0  0  0  0  0
    7.3001    1.1173    1.9360 H   0  0  0  0  0  0  0  0  0  0  0  0
  1 23  1  0  0  0  0
  2 25  1  0  0  0  0
  3 25  1  0  0  0  0
  4 25  1  0  0  0  0
  5 31  2  0  0  0  0
  6 11  1  0  0  0  0
  6 12  1  0  0  0  0
  6 14  1  0  0  0  0
  7 15  1  0  0  0  0
  7 18  1  0  0  0  0
  7 41  1  0  0  0  0
  8 18  2  0  0  0  0
  8 28  1  0  0  0  0
  9 24  1  0  0  0  0
  9 28  2  0  0  0  0
 10 31  1  0  0  0  0
 10 49  1  0  0  0  0
 10 50  1  0  0  0  0
 11 13  1  0  0  0  0
 11 33  1  0  0  0  0
 11 34  1  0  0  0  0
 12 13  1  0  0  0  0
 12 32  1  0  0  0  0
 12 35  1  0  0  0  0
 13 36  1  0  0  0  0
 13 37  1  0  0  0  0
 14 15  1  0  0  0  0
 14 38  1  0  0  0  0
 14 39  1  0  0  0  0
 15 16  1  0  0  0  0
 15 40  1  0  0  0  0
 16 17  2  0  0  0  0
 16 19  1  0  0  0  0
 17 20  1  0  0  0  0
 17 42  1  0  0  0  0
 18 21  1  0  0  0  0
 19 22  2  0  0  0  0
 19 43  1  0  0  0  0
 20 23  2  0  0  0  0
 20 25  1  0  0  0  0
 21 24  2  0  0  0  0
 21 26  1  0  0  0  0
 22 23  1  0  0  0  0
 22 44  1  0  0  0  0
 24 27  1  0  0  0  0
 26 29  2  0  0  0  0
 26 45  1  0  0  0  0
 27 30  2  0  0  0  0
 27 31  1  0  0  0  0
 28 46  1  0  0  0  0
 29 30  1  0  0  0  0
 29 47  1  0  0  0  0
 30 48  1  0  0  0  0
M  END
> <DATABASE_ID>
DB15431

> <DATABASE_NAME>
drugbank

> <ORIGINAL_SOURCE>
PUBCHEM

> <ORIGINAL_SOURCE_URL>
https://pubchem.ncbi.nlm.nih.gov/rest/pug/compound/inchikey/HXAUJHZZPCBFPN-QGZVFWFLSA-N/SDF?record_type=3d

> <SMILES>
NC(=O)C1=CC=CC2=C1N=CN=C2N[C@H](CN1CCC1)C1=CC(=C(Cl)C=C1)C(F)(F)F

> <INCHI_IDENTIFIER>
InChI=1S/C21H19ClF3N5O/c22-16-6-5-12(9-15(16)21(23,24)25)17(10-30-7-2-8-30)29-20-14-4-1-3-13(19(26)31)18(14)27-11-28-20/h1,3-6,9,11,17H,2,7-8,10H2,(H2,26,31)(H,27,28,29)/t17-/m1/s1

> <INCHI_KEY>
HXAUJHZZPCBFPN-QGZVFWFLSA-N

> <FORMULA>
C21H19ClF3N5O

> <MOLECULAR_WEIGHT>
449.86

> <EXACT_MASS>
449.1230224

> <JCHEM_ACCEPTOR_COUNT>
5

> <JCHEM_ATOM_COUNT>
50

> <JCHEM_AVERAGE_POLARIZABILITY>
41.985222743248066

> <JCHEM_BIOAVAILABILITY>
1

> <JCHEM_DONOR_COUNT>
2

> <JCHEM_FORMAL_CHARGE>
0

> <JCHEM_GHOSE_FILTER>
1

> <JCHEM_IUPAC>
4-{[(1S)-2-(azetidin-1-yl)-1-[4-chloro-3-(trifluoromethyl)phenyl]ethyl]amino}quinazoline-8-carboxamide

> <ALOGPS_LOGP>
3.35

> <JCHEM_LOGP>
3.516151153333333

> <ALOGPS_LOGS>
-4.37

> <JCHEM_MDDR_LIKE_RULE>
1

> <JCHEM_NUMBER_OF_RINGS>
4

> <JCHEM_PHYSIOLOGICAL_CHARGE>
1

> <JCHEM_PKA>
17.379120080938833

> <JCHEM_PKA_STRONGEST_ACIDIC>
14.094546412993212

> <JCHEM_PKA_STRONGEST_BASIC>
7.843510682897913

> <JCHEM_POLAR_SURFACE_AREA>
84.14

> <JCHEM_REFRACTIVITY>
114.363

> <JCHEM_ROTATABLE_BOND_COUNT>
7

> <JCHEM_RULE_OF_FIVE>
1

> <ALOGPS_SOLUBILITY>
1.93e-02 g/l

> <JCHEM_TRADITIONAL_IUPAC>
(2R)-14-fluoro-2-methyl-6,9,10,19-tetraazapentacyclo[14.2.1.0^{2,6}.0^{8,18}.0^{12,17}]nonadeca-1(18),8,12(17),13,15-pentaen-11-one

> <JCHEM_VEBER_RULE>
0

> <DRUGBANK_ID>
DB15431

> <DRUG_GROUPS>
investigational

> <GENERIC_NAME>
M-2698

> <SYNONYMS>
MSC2363318A

$$$$
