REMARK  Name = 11700495
REMARK  4 active torsions:
REMARK  status: ('A' for Active; 'I' for Inactive)
REMARK    1  A    between atoms: S_1  and  C_9
REMARK    2  A    between atoms: S_1  and  N_16
REMARK    3  A    between atoms: C_11  and  O_14
REMARK    4  A    between atoms: N_16  and  C_20
REMARK                            x       y       z     vdW  Elec       q    Type
REMARK                         _______ _______ _______ _____ _____    ______ ____
ROOT
ATOM      1  S   UNL     1       1.156   1.912   0.583  0.00  0.00    +0.142 S 
ATOM      2  O   UNL     1       0.777   2.937   1.553  0.00  0.00    -0.139 OA
ATOM      3  O   UNL     1       1.824   2.309  -0.654  0.00  0.00    -0.139 OA
ENDROOT
BRANCH   1   9
ATOM      4  F   UNL     1      -2.677   0.249  -3.310  0.00  0.00    -0.198 F 
ATOM      5  N   UNL     1      -2.143   0.220   0.235  0.00  0.00    -0.101 N 
ATOM      6  N   UNL     1      -1.162   0.662   1.036  0.00  0.00    -0.084 NA
ATOM      7  N   UNL     1      -0.712   1.090  -1.176  0.00  0.00    -0.313 NA
ATOM      8  N   UNL     1      -4.209  -0.826  -0.178  0.00  0.00    -0.192 NA
ATOM      9  C   UNL     1      -0.321   1.180   0.134  0.00  0.00    +0.235 C 
ATOM     10  C   UNL     1      -1.869   0.477  -1.085  0.00  0.00    +0.252 C 
ATOM     11  C   UNL     1      -3.296  -0.420   0.649  0.00  0.00    +0.314 C 
ATOM     12  C   UNL     1      -2.855   0.041  -1.992  0.00  0.00    +0.206 C 
ATOM     13  C   UNL     1      -3.952  -0.574  -1.517  0.00  0.00    +0.137 C 
BRANCH  11  14
ATOM     14  O   UNL     1      -3.343  -0.561   1.989  0.00  0.00    -0.444 OA
ATOM     15  C   UNL     1      -4.513  -1.215   2.455  0.00  0.00    +0.256 C 
ENDBRANCH  11  14
ENDBRANCH   1   9
BRANCH   1  16
ATOM     16  N   UNL     1       2.131   0.736   1.411  0.00  0.00    -0.201 N 
ATOM     17  H   UNL     1       2.273   0.766   2.385  0.00  0.00    +0.175 HD
BRANCH  16  20
ATOM     18  F   UNL     1       1.114  -1.861   1.346  0.00  0.00    -0.203 F 
ATOM     19  F   UNL     1       4.344   1.255  -0.206  0.00  0.00    -0.203 F 
ATOM     20  C   UNL     1       2.719  -0.287   0.583  0.00  0.00    +0.120 C 
ATOM     21  C   UNL     1       2.177  -1.565   0.585  0.00  0.00    +0.157 C 
ATOM     22  C   UNL     1       3.820   0.021  -0.205  0.00  0.00    +0.157 C 
ATOM     23  C   UNL     1       2.747  -2.554  -0.217  0.00  0.00    +0.031 C 
ATOM     24  C   UNL     1       4.390  -0.969  -1.006  0.00  0.00    +0.031 C 
ATOM     25  C   UNL     1       3.853  -2.256  -1.012  0.00  0.00    +0.005 C 
ENDBRANCH  16  20
ENDBRANCH   1  16
TORSDOF 4
