REMARK  Name = 86287635
REMARK  6 active torsions:
REMARK  status: ('A' for Active; 'I' for Inactive)
REMARK    1  A    between atoms: N_1  and  C_31
REMARK    2  A    between atoms: C_4  and  C_19
REMARK    3  A    between atoms: C_24  and  C_25
REMARK    4  A    between atoms: C_26  and  C_28
REMARK    5  A    between atoms: C_28  and  O_29
REMARK    6  A    between atoms: C_31  and  C_33
REMARK                            x       y       z     vdW  Elec       q    Type
REMARK                         _______ _______ _______ _____ _____    ______ ____
ROOT
ATOM      1  N   UNL     1       1.342   1.805   0.015  0.00  0.00    +0.398 N 
ATOM      2  N   UNL     1       1.594  -1.836  -0.973  0.00  0.00    -0.358 N 
ATOM      3  C   UNL     1       2.804   1.917   0.271  0.00  0.00    -0.052 C 
ATOM      4  C   UNL     1       0.942   0.636  -0.831  0.00  0.00    +0.009 C 
ATOM      5  C   UNL     1       3.328   0.660   1.022  0.00  0.00    +0.007 C 
ATOM      6  C   UNL     1       1.768  -0.572  -0.479  0.00  0.00    +0.014 A 
ATOM      7  C   UNL     1       2.865  -0.584   0.355  0.00  0.00    -0.013 A 
ATOM      8  C   UNL     1       3.361  -1.914   0.401  0.00  0.00    +0.013 A 
ATOM      9  C   UNL     1       3.653   2.201  -0.980  0.00  0.00    -0.023 C 
ATOM     10  C   UNL     1       2.545  -2.680  -0.439  0.00  0.00    +0.056 A 
ATOM     11  C   UNL     1       4.427  -2.548   1.071  0.00  0.00    +0.001 C 
ATOM     12  C   UNL     1       2.745  -4.050  -0.639  0.00  0.00    +0.017 C 
ATOM     13  C   UNL     1       4.636  -3.918   0.880  0.00  0.00    +0.000 C 
ATOM     14  C   UNL     1       3.807  -4.656   0.038  0.00  0.00    +0.001 C 
ATOM     15  H   UNL     1       0.931   1.616   0.929  0.00  0.00    -0.078 HD
ATOM     16  H   UNL     1       0.896  -2.103  -1.613  0.00  0.00    +0.166 HD
ENDROOT
BRANCH   4  19
ATOM     17  F   UNL     1      -0.855   0.700  -3.030  0.00  0.00    -0.204 F 
ATOM     18  F   UNL     1      -0.307  -0.057   1.625  0.00  0.00    -0.204 F 
ATOM     19  C   UNL     1      -0.546   0.330  -0.705  0.00  0.00    +0.019 C 
ATOM     20  C   UNL     1      -1.366   0.381  -1.832  0.00  0.00    +0.137 C 
ATOM     21  C   UNL     1      -1.088  -0.003   0.536  0.00  0.00    +0.137 C 
ATOM     22  C   UNL     1      -2.728   0.100  -1.718  0.00  0.00    +0.029 C 
ATOM     23  C   UNL     1      -2.449  -0.284   0.651  0.00  0.00    +0.029 C 
ATOM     24  C   UNL     1      -3.269  -0.233  -0.476  0.00  0.00    +0.005 C 
BRANCH  24  25
ATOM     25  C   UNL     1      -4.689  -0.526  -0.358  0.00  0.00    +0.007 C 
ATOM     26  C   UNL     1      -5.263  -1.213   0.654  0.00  0.00    +0.082 C 
BRANCH  26  28
ATOM     27  O   UNL     1      -7.514  -1.087  -0.197  0.00  0.00    -0.245 OA
ATOM     28  C   UNL     1      -6.720  -1.453   0.653  0.00  0.00    +0.338 C 
BRANCH  28  29
ATOM     29  O   UNL     1      -7.045  -2.155   1.763  0.00  0.00    -0.477 OA
ATOM     30  H   UNL     1      -6.379  -2.402   2.373  0.00  0.00    +0.295 HD
ENDBRANCH  28  29
ENDBRANCH  26  28
ENDBRANCH  24  25
ENDBRANCH   4  19
BRANCH   1  31
ATOM     31  C   UNL     1       0.778   3.061  -0.486  0.00  0.00    -0.043 C 
BRANCH  31  33
ATOM     32  F   UNL     1       2.067   4.718   0.533  0.00  0.00    -0.242 F 
ATOM     33  C   UNL     1       0.797   4.202   0.541  0.00  0.00    +0.115 C 
ATOM     34  C   UNL     1       0.525   3.712   1.961  0.00  0.00    +0.033 C 
ATOM     35  C   UNL     1      -0.146   5.345   0.172  0.00  0.00    +0.033 C 
ENDBRANCH  31  33
ENDBRANCH   1  31
TORSDOF 6
