REMARK  Name = 52920501
REMARK  9 active torsions:
REMARK  status: ('A' for Active; 'I' for Inactive)
REMARK    1  A    between atoms: N_1  and  C_12
REMARK    2  A    between atoms: C_5  and  O_27
REMARK    3  A    between atoms: C_9  and  C_15
REMARK    4  A    between atoms: C_15  and  S_16
REMARK    5  A    between atoms: S_16  and  N_19
REMARK    6  A    between atoms: N_19  and  C_21
REMARK    7  A    between atoms: C_21  and  C_22
REMARK    8  A    between atoms: C_22  and  N_23
REMARK    9  A    between atoms: O_27  and  C_35
REMARK                            x       y       z     vdW  Elec       q    Type
REMARK                         _______ _______ _______ _____ _____    ______ ____
ROOT
ATOM      1  N   UNL     1      -3.626  -2.081   0.919  0.00  0.00    -0.247 N 
ATOM      2  N   UNL     1      -3.411  -0.121  -0.353  0.00  0.00    -0.300 NA
ATOM      3  N   UNL     1      -5.508  -0.699   0.685  0.00  0.00    -0.170 NA
ATOM      4  C   UNL     1      -4.210  -0.909   0.391  0.00  0.00    +0.152 C 
ATOM      5  C   UNL     1      -4.002   0.989  -0.842  0.00  0.00    +0.295 C 
ATOM      6  C   UNL     1      -5.322   1.319  -0.614  0.00  0.00    +0.094 C 
ATOM      7  C   UNL     1      -6.034   0.429   0.164  0.00  0.00    +0.118 C 
ATOM      8  H   UNL     1      -4.246  -2.626   1.456  0.00  0.00    +0.165 HD
ENDROOT
BRANCH   1  12
ATOM      9  C   UNL     1       0.055  -2.315   0.597  0.00  0.00    +0.004 C 
ATOM     10  C   UNL     1      -1.229  -1.778   0.686  0.00  0.00    +0.013 C 
ATOM     11  C   UNL     1       0.238  -3.697   0.650  0.00  0.00    -0.002 C 
ATOM     12  C   UNL     1      -2.330  -2.622   0.829  0.00  0.00    +0.057 C 
ATOM     13  C   UNL     1      -0.863  -4.542   0.793  0.00  0.00    +0.001 C 
ATOM     14  C   UNL     1      -2.147  -4.004   0.882  0.00  0.00    +0.015 C 
BRANCH   9  15
ATOM     15  C   UNL     1       1.232  -1.412   0.445  0.00  0.00    +0.195 C 
BRANCH  15  16
ATOM     16  S   UNL     1       1.799  -1.536  -1.221  0.00  0.00    +0.045 S 
ATOM     17  O   UNL     1       2.285  -2.888  -1.443  0.00  0.00    -0.157 OA
ATOM     18  O   UNL     1       0.772  -0.977  -2.086  0.00  0.00    -0.157 OA
BRANCH  16  19
ATOM     19  N   UNL     1       3.122  -0.452  -1.198  0.00  0.00    -0.185 NA
ATOM     20  H   UNL     1       2.738   0.486  -1.083  0.00  0.00    +0.148 HD
BRANCH  19  21
ATOM     21  C   UNL     1       4.165  -0.620  -0.170  0.00  0.00    +0.068 C 
BRANCH  21  22
ATOM     22  C   UNL     1       5.502  -0.158  -0.731  0.00  0.00    -0.058 C 
BRANCH  22  23
ATOM     23  N   UNL     1       6.546  -0.289   0.278  0.00  0.00    +0.385 N 
ATOM     24  C   UNL     1       6.996  -1.679   0.377  0.00  0.00    -0.101 C 
ATOM     25  C   UNL     1       7.676   0.589  -0.031  0.00  0.00    -0.101 C 
ATOM     26  H   UNL     1       6.155  -0.010   1.178  0.00  0.00    -0.080 HD
ENDBRANCH  22  23
ENDBRANCH  21  22
ENDBRANCH  19  21
ENDBRANCH  16  19
ENDBRANCH  15  16
ENDBRANCH   9  15
ENDBRANCH   1  12
BRANCH   5  27
ATOM     27  O   UNL     1      -3.220   1.832  -1.613  0.00  0.00    -0.427 OA
BRANCH  27  35
ATOM     28  N   UNL     1       1.718   3.039   0.441  0.00  0.00    -0.316 N 
ATOM     29  C   UNL     1      -0.485   2.754   0.649  0.00  0.00    +0.017 C 
ATOM     30  C   UNL     1       0.578   2.710  -0.256  0.00  0.00    +0.048 C 
ATOM     31  C   UNL     1       1.415   3.289   1.752  0.00  0.00    +0.026 C 
ATOM     32  C   UNL     1       0.058   3.121   1.912  0.00  0.00    +0.012 C 
ATOM     33  C   UNL     1      -1.782   2.455   0.188  0.00  0.00    +0.039 C 
ATOM     34  C   UNL     1       0.407   2.380  -1.605  0.00  0.00    +0.018 C 
ATOM     35  C   UNL     1      -1.968   2.123  -1.159  0.00  0.00    +0.148 C 
ATOM     36  C   UNL     1      -0.889   2.087  -2.040  0.00  0.00    +0.039 C 
ATOM     37  C   UNL     1       2.459   3.666   2.722  0.00  0.00    +0.047 C 
ATOM     38  H   UNL     1       2.622   3.087   0.053  0.00  0.00    +0.152 HD
ENDBRANCH  27  35
ENDBRANCH   5  27
TORSDOF 9
