REMARK  Name = 397614
REMARK  8 active torsions:
REMARK  status: ('A' for Active; 'I' for Inactive)
REMARK    1  A    between atoms: C_2  and  C_13
REMARK    2  A    between atoms: C_3  and  O_32
REMARK    3  A    between atoms: C_4  and  C_21
REMARK    4  A    between atoms: C_5  and  O_34
REMARK    5  A    between atoms: C_6  and  C_29
REMARK    6  A    between atoms: C_9  and  O_36
REMARK    7  A    between atoms: C_12  and  O_38
REMARK    8  A    between atoms: C_18  and  O_19
REMARK                            x       y       z     vdW  Elec       q    Type
REMARK                         _______ _______ _______ _____ _____    ______ ____
ROOT
ATOM      1  O   UNL     1      -0.640  -0.240  -1.309  0.00  0.00    -0.476 OA
ATOM      2  C   UNL     1       0.093   0.106  -0.085  0.00  0.00    +0.184 C 
ATOM      3  C   UNL     1      -0.986   0.516   0.996  0.00  0.00    +0.175 C 
ATOM      4  C   UNL     1       0.852   1.450  -0.412  0.00  0.00    +0.077 C 
ATOM      5  C   UNL     1      -0.886   2.047   1.148  0.00  0.00    +0.152 C 
ATOM      6  C   UNL     1       0.590   2.329   0.830  0.00  0.00    +0.114 C 
ATOM      7  C   UNL     1      -2.223  -0.002   0.360  0.00  0.00    +0.076 C 
ATOM      8  C   UNL     1      -1.950  -0.397  -0.939  0.00  0.00    +0.143 C 
ATOM      9  C   UNL     1      -3.509  -0.089   0.868  0.00  0.00    +0.143 C 
ATOM     10  C   UNL     1      -2.933  -0.885  -1.778  0.00  0.00    +0.074 C 
ATOM     11  C   UNL     1      -4.518  -0.589   0.040  0.00  0.00    +0.074 C 
ATOM     12  C   UNL     1      -4.231  -0.983  -1.276  0.00  0.00    +0.145 C 
ENDROOT
BRANCH   2  13
ATOM     13  C   UNL     1       0.995  -1.070   0.325  0.00  0.00    +0.017 C 
ATOM     14  C   UNL     1       1.812  -0.965   1.450  0.00  0.00    +0.002 C 
ATOM     15  C   UNL     1       0.996  -2.244  -0.430  0.00  0.00    +0.002 C 
ATOM     16  C   UNL     1       2.631  -2.032   1.821  0.00  0.00    +0.037 C 
ATOM     17  C   UNL     1       1.814  -3.311  -0.059  0.00  0.00    +0.037 C 
ATOM     18  C   UNL     1       2.632  -3.205   1.066  0.00  0.00    +0.139 C 
BRANCH  18  19
ATOM     19  O   UNL     1       3.430  -4.246   1.429  0.00  0.00    -0.471 OA
ATOM     20  C   UNL     1       3.382  -5.416   0.614  0.00  0.00    +0.252 C 
ENDBRANCH  18  19
ENDBRANCH   2  13
BRANCH   4  21
ATOM     21  C   UNL     1       2.283   1.305  -0.901  0.00  0.00    -0.018 C 
ATOM     22  C   UNL     1       2.533   1.099  -2.255  0.00  0.00    -0.004 C 
ATOM     23  C   UNL     1       3.335   1.380   0.006  0.00  0.00    -0.004 C 
ATOM     24  C   UNL     1       3.847   0.965  -2.705  0.00  0.00    -0.000 C 
ATOM     25  C   UNL     1       4.649   1.246  -0.443  0.00  0.00    -0.000 C 
ATOM     26  C   UNL     1       4.905   1.039  -1.799  0.00  0.00    -0.000 C 
ENDBRANCH   4  21
BRANCH   6  29
ATOM     27  O   UNL     1       1.252   4.199  -0.504  0.00  0.00    -0.275 OA
ATOM     28  N   UNL     1       0.585   4.589   1.663  0.00  0.00    -0.329 N 
ATOM     29  C   UNL     1       0.840   3.785   0.577  0.00  0.00    +0.222 C 
ATOM     30  H   UNL     1       0.719   5.562   1.598  0.00  0.00    +0.145 HD
ATOM     31  H   UNL     1       0.269   4.191   2.506  0.00  0.00    +0.145 HD
ENDBRANCH   6  29
BRANCH   3  32
ATOM     32  O   UNL     1      -0.776  -0.110   2.252  0.00  0.00    -0.376 OA
ATOM     33  H   UNL     1       0.035   0.238   2.655  0.00  0.00    +0.211 HD
ENDBRANCH   3  32
BRANCH   5  34
ATOM     34  O   UNL     1      -1.728   2.701   0.200  0.00  0.00    -0.381 OA
ATOM     35  H   UNL     1      -2.657   2.516   0.411  0.00  0.00    +0.210 HD
ENDBRANCH   5  34
BRANCH   9  36
ATOM     36  O   UNL     1      -3.806   0.245   2.148  0.00  0.00    -0.471 OA
ATOM     37  C   UNL     1      -5.168   0.114   2.558  0.00  0.00    +0.252 C 
ENDBRANCH   9  36
BRANCH  12  38
ATOM     38  O   UNL     1      -5.228  -1.472  -2.066  0.00  0.00    -0.471 OA
ATOM     39  C   UNL     1      -4.872  -1.862  -3.391  0.00  0.00    +0.252 C 
ENDBRANCH  12  38
TORSDOF 8
