REMARK  Name = 5280378
REMARK  3 active torsions:
REMARK  status: ('A' for Active; 'I' for Inactive)
REMARK    1  A    between atoms: C_3  and  C_12
REMARK    2  A    between atoms: C_10  and  O_20
REMARK    3  A    between atoms: C_17  and  O_18
REMARK                            x       y       z     vdW  Elec       q    Type
REMARK                         _______ _______ _______ _____ _____    ______ ____
ROOT
ATOM      1  O   UNL     1      -1.745   1.848  -0.058  0.00  0.00    -0.450 OA
ATOM      2  O   UNL     1      -0.299  -1.967   0.031  0.00  0.00    -0.286 OA
ATOM      3  C   UNL     1       0.177   0.366   0.030  0.00  0.00    +0.077 C 
ATOM      4  C   UNL     1      -2.172  -0.541  -0.005  0.00  0.00    +0.074 C 
ATOM      5  C   UNL     1      -0.724  -0.819   0.024  0.00  0.00    +0.202 C 
ATOM      6  C   UNL     1      -2.609   0.783  -0.046  0.00  0.00    +0.151 C 
ATOM      7  C   UNL     1      -0.399   1.577  -0.009  0.00  0.00    +0.183 C 
ATOM      8  C   UNL     1      -3.099  -1.587   0.004  0.00  0.00    +0.009 C 
ATOM      9  C   UNL     1      -3.974   1.069  -0.078  0.00  0.00    +0.074 C 
ATOM     10  C   UNL     1      -4.901   0.026  -0.068  0.00  0.00    +0.137 C 
ATOM     11  C   UNL     1      -4.464  -1.299  -0.027  0.00  0.00    +0.037 C 
ENDROOT
BRANCH   3  12
ATOM     12  C   UNL     1       1.642   0.231   0.098  0.00  0.00    +0.006 C 
ATOM     13  C   UNL     1       2.285   0.180   1.336  0.00  0.00    +0.003 C 
ATOM     14  C   UNL     1       2.393   0.153  -1.077  0.00  0.00    +0.003 C 
ATOM     15  C   UNL     1       3.672   0.052   1.399  0.00  0.00    +0.037 C 
ATOM     16  C   UNL     1       3.780   0.025  -1.014  0.00  0.00    +0.037 C 
ATOM     17  C   UNL     1       4.420  -0.026   0.225  0.00  0.00    +0.139 C 
BRANCH  17  18
ATOM     18  O   UNL     1       5.774  -0.150   0.286  0.00  0.00    -0.471 OA
ATOM     19  C   UNL     1       6.477  -0.224  -0.953  0.00  0.00    +0.252 C 
ENDBRANCH  17  18
ENDBRANCH   3  12
BRANCH  10  20
ATOM     20  O   UNL     1      -6.234   0.301  -0.099  0.00  0.00    -0.505 OA
ATOM     21  H   UNL     1      -6.528   1.190  -0.126  0.00  0.00    +0.292 HD
ENDBRANCH  10  20
TORSDOF 3
