REMARK  Name = 53630042
REMARK  11 active torsions:
REMARK  status: ('A' for Active; 'I' for Inactive)
REMARK    1  A    between atoms: N_1  and  C_4
REMARK    2  A    between atoms: N_1  and  C_19
REMARK    3  A    between atoms: C_4  and  C_5
REMARK    4  A    between atoms: C_4  and  C_12
REMARK    5  A    between atoms: C_12  and  O_13
REMARK    6  A    between atoms: O_13  and  C_14
REMARK    7  A    between atoms: C_19  and  C_21
REMARK    8  A    between atoms: C_25  and  C_26
REMARK    9  A    between atoms: C_26  and  C_27
REMARK   10  A    between atoms: C_27  and  C_30
REMARK   11  A    between atoms: N_29  and  O_32
REMARK                            x       y       z     vdW  Elec       q    Type
REMARK                         _______ _______ _______ _____ _____    ______ ____
ROOT
ATOM      1  N   UNL     1      -0.648  -0.449   0.207  0.00  0.00    +0.395 N 
ATOM      2  H   UNL     1      -0.071  -1.258  -0.024  0.00  0.00    -0.083 HD
ATOM      3  H   UNL     1      -0.561  -0.221   1.198  0.00  0.00    -0.083 HD
ENDROOT
BRANCH   1   4
ATOM      4  C   UNL     1      -2.045  -0.760  -0.080  0.00  0.00    +0.040 C 
BRANCH   4   5
ATOM      5  C   UNL     1      -2.337  -2.208   0.312  0.00  0.00    -0.009 C 
ATOM      6  C   UNL     1      -1.426  -3.172  -0.459  0.00  0.00    -0.002 C 
ATOM      7  C   UNL     1      -3.816  -2.545   0.075  0.00  0.00    -0.002 C 
ATOM      8  C   UNL     1      -4.122  -4.003   0.409  0.00  0.00    -0.000 C 
ATOM      9  C   UNL     1      -1.736  -4.630  -0.124  0.00  0.00    -0.000 C 
ATOM     10  C   UNL     1      -3.208  -4.959  -0.352  0.00  0.00    -0.000 C 
ENDBRANCH   4   5
BRANCH   4  12
ATOM     11  O   UNL     1      -2.950   0.272   1.934  0.00  0.00    -0.252 OA
ATOM     12  C   UNL     1      -2.918   0.191   0.713  0.00  0.00    +0.297 C 
BRANCH  12  13
ATOM     13  O   UNL     1      -3.657   0.950  -0.151  0.00  0.00    -0.454 OA
BRANCH  13  14
ATOM     14  C   UNL     1      -4.524   1.902   0.454  0.00  0.00    +0.169 C 
ATOM     15  C   UNL     1      -3.840   3.258   0.545  0.00  0.00    +0.044 C 
ATOM     16  C   UNL     1      -5.701   2.174  -0.470  0.00  0.00    +0.044 C 
ATOM     17  C   UNL     1      -5.154   3.151  -1.510  0.00  0.00    +0.004 C 
ATOM     18  C   UNL     1      -3.941   3.825  -0.868  0.00  0.00    +0.004 C 
ENDBRANCH  13  14
ENDBRANCH  12  13
ENDBRANCH   4  12
ENDBRANCH   1   4
BRANCH   1  19
ATOM     19  C   UNL     1      -0.201   0.695  -0.574  0.00  0.00    -0.052 C 
BRANCH  19  21
ATOM     20  N   UNL     1       3.549   0.970  -1.016  0.00  0.00    -0.249 NA
ATOM     21  C   UNL     1       1.240   1.033  -0.300  0.00  0.00    -0.025 C 
ATOM     22  C   UNL     1       1.612   1.692   0.866  0.00  0.00    -0.004 C 
ATOM     23  C   UNL     1       2.238   0.697  -1.201  0.00  0.00    +0.092 C 
ATOM     24  C   UNL     1       2.951   1.991   1.093  0.00  0.00    +0.014 C 
ATOM     25  C   UNL     1       3.872   1.611   0.129  0.00  0.00    +0.059 C 
BRANCH  25  26
ATOM     26  C   UNL     1       5.318   1.916   0.338  0.00  0.00    +0.055 C 
BRANCH  26  27
ATOM     27  C   UNL     1       6.049   0.786   1.071  0.00  0.00    +0.093 C 
BRANCH  27  30
ATOM     28  O   UNL     1       5.133  -1.368   0.457  0.00  0.00    -0.273 OA
ATOM     29  N   UNL     1       7.092  -0.651  -0.534  0.00  0.00    -0.197 N 
ATOM     30  C   UNL     1       6.017  -0.528   0.313  0.00  0.00    +0.245 C 
ATOM     31  H   UNL     1       7.777   0.052  -0.615  0.00  0.00    +0.182 HD
BRANCH  29  32
ATOM     32  O   UNL     1       7.152  -1.838  -1.276  0.00  0.00    -0.295 OA
ATOM     33  H   UNL     1       7.942  -1.828  -1.839  0.00  0.00    +0.241 HD
ENDBRANCH  29  32
ENDBRANCH  27  30
ENDBRANCH  26  27
ENDBRANCH  25  26
ENDBRANCH  19  21
ENDBRANCH   1  19
TORSDOF 11
