REMARK  Name = 44123754
REMARK  11 active torsions:
REMARK  status: ('A' for Active; 'I' for Inactive)
REMARK    1  A    between atoms: C_3  and  C_22
REMARK    2  A    between atoms: C_4  and  C_7
REMARK    3  A    between atoms: N_6  and  C_15
REMARK    4  A    between atoms: C_8  and  N_12
REMARK    5  A    between atoms: C_15  and  O_16
REMARK    6  A    between atoms: O_16  and  P_17
REMARK    7  A    between atoms: P_17  and  O_20
REMARK    8  A    between atoms: C_22  and  C_23
REMARK    9  A    between atoms: C_26  and  C_29
REMARK   10  A    between atoms: C_29  and  O_30
REMARK   11  A    between atoms: O_30  and  C_32
REMARK                            x       y       z     vdW  Elec       q    Type
REMARK                         _______ _______ _______ _____ _____    ______ ____
ROOT
ATOM      1  O   UNL     1       2.565  -2.409  -1.415  0.00  0.00    -0.354 OA
ATOM      2  N   UNL     1       1.411  -3.145  -1.657  0.00  0.00    -0.081 NA
ATOM      3  C   UNL     1       0.861  -3.331  -0.454  0.00  0.00    +0.105 C 
ATOM      4  C   UNL     1       2.676  -2.175  -0.082  0.00  0.00    +0.175 C 
ATOM      5  C   UNL     1       1.616  -2.741   0.575  0.00  0.00    +0.058 C 
ENDROOT
BRANCH   4   7
ATOM      6  N   UNL     1       5.158   0.542   0.267  0.00  0.00    -0.266 N 
ATOM      7  C   UNL     1       3.835  -1.415   0.325  0.00  0.00    +0.048 C 
ATOM      8  C   UNL     1       4.070  -0.128  -0.137  0.00  0.00    +0.156 C 
ATOM      9  C   UNL     1       4.746  -1.987   1.207  0.00  0.00    +0.003 C 
ATOM     10  C   UNL     1       6.051   0.015   1.115  0.00  0.00    +0.064 C 
ATOM     11  C   UNL     1       5.868  -1.268   1.609  0.00  0.00    +0.016 C 
BRANCH   8  12
ATOM     12  N   UNL     1       3.170   0.489  -1.033  0.00  0.00    -0.303 NA
ATOM     13  H   UNL     1       3.345   1.403  -1.355  0.00  0.00    +0.121 HD
ATOM     14  H   UNL     1       2.368   0.005  -1.335  0.00  0.00    +0.121 HD
ENDBRANCH   8  12
BRANCH   6  15
ATOM     15  C   UNL     1       5.405   1.901  -0.221  0.00  0.00    +0.251 C 
BRANCH  15  16
ATOM     16  O   UNL     1       4.532   2.793   0.458  0.00  0.00    -0.250 OA
BRANCH  16  17
ATOM     17  P   UNL     1       4.222   4.259  -0.194  0.00  0.00    +0.504 P 
ATOM     18  O   UNL     1       5.490   4.834  -0.787  0.00  0.00    -0.225 OA
ATOM     19  O   UNL     1       3.406   5.061   0.796  0.00  0.00    -0.116 OA
BRANCH  17  20
ATOM     20  O   UNL     1       3.236   3.806  -1.415  0.00  0.00    -0.301 OA
ATOM     21  H   UNL     1       3.740   3.289  -2.063  0.00  0.00    +0.222 HD
ENDBRANCH  17  20
ENDBRANCH  16  17
ENDBRANCH  15  16
ENDBRANCH   6  15
ENDBRANCH   4   7
BRANCH   3  22
ATOM     22  C   UNL     1      -0.397  -4.085  -0.330  0.00  0.00    +0.075 C 
BRANCH  22  23
ATOM     23  C   UNL     1      -1.637  -3.222  -0.134  0.00  0.00    -0.016 C 
ATOM     24  C   UNL     1      -1.935  -2.706   1.127  0.00  0.00    -0.004 C 
ATOM     25  C   UNL     1      -2.474  -2.947  -1.216  0.00  0.00    -0.004 C 
ATOM     26  C   UNL     1      -3.907  -1.641   0.225  0.00  0.00    +0.021 C 
ATOM     27  C   UNL     1      -3.070  -1.916   1.307  0.00  0.00    -0.001 C 
ATOM     28  C   UNL     1      -3.609  -2.157  -1.036  0.00  0.00    -0.001 C 
BRANCH  26  29
ATOM     29  C   UNL     1      -5.119  -0.794   0.417  0.00  0.00    +0.234 C 
BRANCH  29  30
ATOM     30  O   UNL     1      -4.883   0.499  -0.127  0.00  0.00    -0.455 OA
BRANCH  30  32
ATOM     31  N   UNL     1      -7.014   1.008   0.637  0.00  0.00    -0.210 NA
ATOM     32  C   UNL     1      -5.892   1.417   0.003  0.00  0.00    +0.225 C 
ATOM     33  C   UNL     1      -5.711   2.691  -0.510  0.00  0.00    +0.058 C 
ATOM     34  C   UNL     1      -6.749   3.605  -0.364  0.00  0.00    +0.006 C 
ATOM     35  C   UNL     1      -8.001   1.924   0.761  0.00  0.00    +0.102 C 
ATOM     36  C   UNL     1      -7.919   3.222   0.283  0.00  0.00    +0.021 C 
ENDBRANCH  30  32
ENDBRANCH  29  30
ENDBRANCH  26  29
ENDBRANCH  22  23
ENDBRANCH   3  22
TORSDOF 11
