REMARK  Name = 24748573
REMARK  3 active torsions:
REMARK  status: ('A' for Active; 'I' for Inactive)
REMARK    1  A    between atoms: N_2  and  C_18
REMARK    2  A    between atoms: C_13  and  C_25
REMARK    3  A    between atoms: C_25  and  O_26
REMARK                            x       y       z     vdW  Elec       q    Type
REMARK                         _______ _______ _______ _____ _____    ______ ____
ROOT
ATOM      1  N   UNL     1       0.106   0.255   0.457  0.00  0.00    -0.391 NA
ATOM      2  N   UNL     1       2.127  -0.931   0.615  0.00  0.00    -0.288 N 
ATOM      3  N   UNL     1      -1.226  -4.534  -0.508  0.00  0.00    -0.243 NA
ATOM      4  C   UNL     1      -1.980  -0.848  -0.067  0.00  0.00    +0.098 C 
ATOM      5  C   UNL     1      -1.292  -2.103  -0.144  0.00  0.00    +0.011 C 
ATOM      6  C   UNL     1       0.095  -2.139   0.085  0.00  0.00    +0.044 C 
ATOM      7  C   UNL     1      -1.217   0.302   0.240  0.00  0.00    +0.119 C 
ATOM      8  C   UNL     1       0.729  -0.940   0.378  0.00  0.00    +0.183 C 
ATOM      9  C   UNL     1      -3.372  -0.691  -0.278  0.00  0.00    -0.015 C 
ATOM     10  C   UNL     1      -1.855   1.537   0.324  0.00  0.00    +0.035 C 
ATOM     11  C   UNL     1       0.802  -3.347   0.018  0.00  0.00    +0.024 C 
ATOM     12  C   UNL     1      -1.880  -3.349  -0.436  0.00  0.00    +0.095 C 
ATOM     13  C   UNL     1      -3.226   1.673   0.113  0.00  0.00    +0.077 C 
ATOM     14  C   UNL     1      -3.987   0.556  -0.189  0.00  0.00    +0.003 C 
ATOM     15  C   UNL     1       0.101  -4.501  -0.278  0.00  0.00    +0.099 C 
ATOM     16  H   UNL     1       2.469  -1.768   1.005  0.00  0.00    +0.155 HD
ENDROOT
BRANCH   2  18
ATOM     17 CL   UNL     1       3.795   3.059  -2.133  0.00  0.00    -0.082 Cl
ATOM     18  C   UNL     1       3.117   0.040   0.402  0.00  0.00    +0.051 C 
ATOM     19  C   UNL     1       2.981   0.958  -0.640  0.00  0.00    +0.026 C 
ATOM     20  C   UNL     1       4.236   0.090   1.234  0.00  0.00    +0.015 C 
ATOM     21  C   UNL     1       3.963   1.926  -0.849  0.00  0.00    +0.059 C 
ATOM     22  C   UNL     1       5.218   1.058   1.024  0.00  0.00    +0.002 C 
ATOM     23  C   UNL     1       5.081   1.976  -0.017  0.00  0.00    +0.011 C 
ENDBRANCH   2  18
BRANCH  13  25
ATOM     24  O   UNL     1      -3.269   4.038   0.470  0.00  0.00    -0.245 OA
ATOM     25  C   UNL     1      -3.853   2.981   0.208  0.00  0.00    +0.338 C 
BRANCH  25  26
ATOM     26  O   UNL     1      -5.193   2.935  -0.029  0.00  0.00    -0.477 OA
ATOM     27  H   UNL     1      -5.606   2.117  -0.225  0.00  0.00    +0.295 HD
ENDBRANCH  25  26
ENDBRANCH  13  25
TORSDOF 3
