REMARK  Name = 45101432
REMARK  2 active torsions:
REMARK  status: ('A' for Active; 'I' for Inactive)
REMARK    1  A    between atoms: C_2  and  C_11
REMARK    2  A    between atoms: C_5  and  C_20
REMARK                            x       y       z     vdW  Elec       q    Type
REMARK                         _______ _______ _______ _____ _____    ______ ____
ROOT
ATOM      1  O   UNL     1       2.789  -0.312  -1.428  0.00  0.00    -0.358 OA
ATOM      2  C   UNL     1       0.868  -0.035  -0.233  0.00  0.00    +0.117 C 
ATOM      3  C   UNL     1       1.568  -1.040  -1.149  0.00  0.00    +0.124 C 
ATOM      4  C   UNL     1       3.232  -0.172  -0.054  0.00  0.00    +0.126 C 
ATOM      5  C   UNL     1       2.025   0.506   0.600  0.00  0.00    +0.141 C 
ATOM      6  C   UNL     1       2.140  -2.253  -0.411  0.00  0.00    +0.033 C 
ATOM      7  C   UNL     1       3.303  -1.638   0.372  0.00  0.00    +0.033 C 
ENDROOT
BRANCH   2  11
ATOM      8  O   UNL     1       0.086  -1.143   1.710  0.00  0.00    -0.275 OA
ATOM      9  N   UNL     1      -1.500  -0.661   0.082  0.00  0.00    -0.284 N 
ATOM     10  N   UNL     1      -4.187   0.176  -0.358  0.00  0.00    +0.388 N 
ATOM     11  C   UNL     1      -0.210  -0.665   0.612  0.00  0.00    +0.228 C 
ATOM     12  C   UNL     1      -2.592  -1.302   0.815  0.00  0.00    +0.071 C 
ATOM     13  C   UNL     1      -1.885  -0.102  -1.218  0.00  0.00    +0.071 C 
ATOM     14  C   UNL     1      -3.763  -0.346   0.996  0.00  0.00    -0.055 C 
ATOM     15  C   UNL     1      -3.046   0.871  -1.069  0.00  0.00    -0.055 C 
ATOM     16  C   UNL     1      -5.403   1.055  -0.263  0.00  0.00    -0.101 C 
ATOM     17  H   UNL     1      -4.447  -0.631  -0.924  0.00  0.00    -0.080 HD
ENDBRANCH   2  11
BRANCH   5  20
ATOM     18  O   UNL     1       2.245   2.366  -0.824  0.00  0.00    -0.246 OA
ATOM     19  O   UNL     1       2.170   2.693   1.439  0.00  0.00    -0.246 OA
ATOM     20  C   UNL     1       2.160   2.002   0.382  0.00  0.00    +0.367 C 
ENDBRANCH   5  20
TORSDOF 2
