REMARK  Name = 71481187
REMARK  7 active torsions:
REMARK  status: ('A' for Active; 'I' for Inactive)
REMARK    1  A    between atoms: N_1  and  C_16
REMARK    2  A    between atoms: C_3  and  C_7
REMARK    3  A    between atoms: C_7  and  O_8
REMARK    4  A    between atoms: O_8  and  C_9
REMARK    5  A    between atoms: C_9  and  C_13
REMARK    6  A    between atoms: C_13  and  O_14
REMARK    7  A    between atoms: C_16  and  C_18
REMARK                            x       y       z     vdW  Elec       q    Type
REMARK                         _______ _______ _______ _____ _____    ______ ____
ROOT
ATOM      1  N   UNL     1       1.170   0.841   0.239  0.00  0.00    -0.261 N 
ATOM      2  N   UNL     1       1.002   3.038  -0.035  0.00  0.00    -0.224 NA
ATOM      3  C   UNL     1      -0.128   1.075  -0.118  0.00  0.00    +0.149 C 
ATOM      4  C   UNL     1      -0.208   2.438  -0.282  0.00  0.00    +0.122 C 
ATOM      5  C   UNL     1       1.809   2.049   0.276  0.00  0.00    +0.168 C 
ENDROOT
BRANCH   3   7
ATOM      6  O   UNL     1      -0.997  -1.147  -0.106  0.00  0.00    -0.243 OA
ATOM      7  C   UNL     1      -1.145   0.086  -0.274  0.00  0.00    +0.357 C 
BRANCH   7   8
ATOM      8  O   UNL     1      -2.360   0.625  -0.642  0.00  0.00    -0.441 OA
BRANCH   8   9
ATOM      9  C   UNL     1      -3.498  -0.257  -0.842  0.00  0.00    +0.224 C 
ATOM     10  C   UNL     1      -3.410  -1.222  -1.992  0.00  0.00    +0.055 C 
ATOM     11  C   UNL     1      -4.318  -0.030  -2.081  0.00  0.00    +0.055 C 
BRANCH   9  13
ATOM     12  O   UNL     1      -3.870  -1.713   0.964  0.00  0.00    -0.246 OA
ATOM     13  C   UNL     1      -4.151  -0.662   0.406  0.00  0.00    +0.354 C 
BRANCH  13  14
ATOM     14  O   UNL     1      -5.060   0.265   0.816  0.00  0.00    -0.442 OA
ATOM     15  C   UNL     1      -5.748  -0.047   2.032  0.00  0.00    +0.256 C 
ENDBRANCH  13  14
ENDBRANCH   9  13
ENDBRANCH   8   9
ENDBRANCH   7   8
ENDBRANCH   3   7
BRANCH   1  16
ATOM     16  C   UNL     1       1.808  -0.519   0.546  0.00  0.00    +0.101 C 
ATOM     17  C   UNL     1       1.472  -0.944   1.998  0.00  0.00    +0.027 C 
BRANCH  16  18
ATOM     18  C   UNL     1       3.253  -0.585   0.186  0.00  0.00    -0.004 C 
ATOM     19  C   UNL     1       3.633  -0.849  -1.130  0.00  0.00    -0.003 C 
ATOM     20  C   UNL     1       4.226  -0.383   1.165  0.00  0.00    -0.003 C 
ATOM     21  C   UNL     1       4.985  -0.910  -1.467  0.00  0.00    -0.000 C 
ATOM     22  C   UNL     1       5.578  -0.444   0.829  0.00  0.00    -0.000 C 
ATOM     23  C   UNL     1       5.958  -0.708  -0.488  0.00  0.00    -0.000 C 
ENDBRANCH  16  18
ENDBRANCH   1  16
TORSDOF 7
