REMARK  Name = 5373773
REMARK  8 active torsions:
REMARK  status: ('A' for Active; 'I' for Inactive)
REMARK    1  A    between atoms: C_1  and  C_3
REMARK    2  A    between atoms: C_2  and  C_12
REMARK    3  A    between atoms: C_6  and  O_9
REMARK    4  A    between atoms: C_12  and  O_13
REMARK    5  A    between atoms: O_13  and  C_14
REMARK    6  A    between atoms: C_14  and  C_15
REMARK    7  A    between atoms: C_15  and  O_16
REMARK    8  A    between atoms: O_16  and  C_17
REMARK                            x       y       z     vdW  Elec       q    Type
REMARK                         _______ _______ _______ _____ _____    ______ ____
ROOT
ATOM      1  C   UNL     1       0.752  -1.202   0.267  0.00  0.00    +0.007 C 
ATOM      2  C   UNL     1      -0.453  -0.678  -0.053  0.00  0.00    +0.082 C 
ENDROOT
BRANCH   1   3
ATOM      3  C   UNL     1       2.025  -0.508   0.156  0.00  0.00    +0.000 C 
ATOM      4  C   UNL     1       3.213  -1.238   0.107  0.00  0.00    +0.003 C 
ATOM      5  C   UNL     1       2.059   0.885   0.099  0.00  0.00    +0.003 C 
ATOM      6  C   UNL     1       4.469   0.820  -0.057  0.00  0.00    +0.139 C 
ATOM      7  C   UNL     1       4.436  -0.573   0.001  0.00  0.00    +0.037 C 
ATOM      8  C   UNL     1       3.281   1.549  -0.007  0.00  0.00    +0.037 C 
BRANCH   6   9
ATOM      9  O   UNL     1       5.661   1.469  -0.160  0.00  0.00    -0.471 OA
ATOM     10  C   UNL     1       6.838   0.662  -0.205  0.00  0.00    +0.252 C 
ENDBRANCH   6   9
ENDBRANCH   1   3
BRANCH   2  12
ATOM     11  O   UNL     1      -1.725  -2.640   0.505  0.00  0.00    -0.245 OA
ATOM     12  C   UNL     1      -1.681  -1.492   0.095  0.00  0.00    +0.341 C 
BRANCH  12  13
ATOM     13  O   UNL     1      -2.732  -0.726  -0.307  0.00  0.00    -0.443 OA
BRANCH  13  14
ATOM     14  C   UNL     1      -4.015  -1.355  -0.231  0.00  0.00    +0.241 C 
BRANCH  14  15
ATOM     15  C   UNL     1      -5.073  -0.380  -0.710  0.00  0.00    +0.189 C 
BRANCH  15  16
ATOM     16  O   UNL     1      -5.064   0.765   0.133  0.00  0.00    -0.350 OA
BRANCH  16  17
ATOM     17  C   UNL     1      -6.024   1.726  -0.283  0.00  0.00    +0.142 C 
ATOM     18  C   UNL     1      -5.967   2.917   0.649  0.00  0.00    +0.035 C 
ENDBRANCH  16  17
ENDBRANCH  15  16
ENDBRANCH  14  15
ENDBRANCH  13  14
ENDBRANCH  12  13
ENDBRANCH   2  12
TORSDOF 8
