REMARK  Name = 10450387
REMARK  4 active torsions:
REMARK  status: ('A' for Active; 'I' for Inactive)
REMARK    1  A    between atoms: N_2  and  C_11
REMARK    2  A    between atoms: C_4  and  C_20
REMARK    3  A    between atoms: C_20  and  C_21
REMARK    4  A    between atoms: C_21  and  N_22
REMARK                            x       y       z     vdW  Elec       q    Type
REMARK                         _______ _______ _______ _____ _____    ______ ____
ROOT
ATOM      1  S   UNL     1      -1.309  -3.389   0.158  0.00  0.00    -0.018 S 
ATOM      2  N   UNL     1      -1.904  -0.655   0.044  0.00  0.00    -0.270 N 
ATOM      3  N   UNL     1      -3.658  -2.046  -0.189  0.00  0.00    -0.294 N 
ATOM      4  C   UNL     1      -3.071   0.087  -0.129  0.00  0.00    +0.043 C 
ATOM      5  C   UNL     1      -2.258  -2.035   0.009  0.00  0.00    +0.142 C 
ATOM      6  C   UNL     1      -4.107  -0.755  -0.266  0.00  0.00    +0.074 C 
ATOM      7  H   UNL     1      -4.219  -2.852  -0.259  0.00  0.00    +0.154 HD
ENDROOT
BRANCH   2  11
ATOM      8  F   UNL     1       3.799   0.880   2.302  0.00  0.00    -0.201 F 
ATOM      9  F   UNL     1       4.989   0.238  -2.229  0.00  0.00    -0.204 F 
ATOM     10  O   UNL     1       1.254   0.199   1.806  0.00  0.00    -0.472 OA
ATOM     11  C   UNL     1      -0.596  -0.077   0.221  0.00  0.00    +0.127 C 
ATOM     12  C   UNL     1       0.352  -0.504  -0.898  0.00  0.00    +0.054 C 
ATOM     13  C   UNL     1       0.015  -0.474   1.560  0.00  0.00    +0.226 C 
ATOM     14  C   UNL     1       1.767  -0.129  -0.559  0.00  0.00    +0.018 C 
ATOM     15  C   UNL     1       2.135   0.186   0.756  0.00  0.00    +0.162 C 
ATOM     16  C   UNL     1       2.745  -0.117  -1.563  0.00  0.00    +0.029 C 
ATOM     17  C   UNL     1       3.453   0.545   1.052  0.00  0.00    +0.176 C 
ATOM     18  C   UNL     1       4.062   0.230  -1.263  0.00  0.00    +0.142 C 
ATOM     19  C   UNL     1       4.415   0.565   0.043  0.00  0.00    +0.062 C 
ENDBRANCH   2  11
BRANCH   4  20
ATOM     20  C   UNL     1      -3.088   1.570  -0.147  0.00  0.00    +0.019 C 
BRANCH  20  21
ATOM     21  C   UNL     1      -4.502   2.111  -0.352  0.00  0.00    -0.080 C 
BRANCH  21  22
ATOM     22  N   UNL     1      -4.495   3.570  -0.356  0.00  0.00    +0.381 N 
ATOM     23  H   UNL     1      -5.445   3.914  -0.494  0.00  0.00    -0.089 HD
ATOM     24  H   UNL     1      -3.899   3.905  -1.113  0.00  0.00    -0.089 HD
ATOM     25  H   UNL     1      -4.136   3.911   0.536  0.00  0.00    -0.089 HD
ENDBRANCH  21  22
ENDBRANCH  20  21
ENDBRANCH   4  20
TORSDOF 4
