REMARK  Name = 184820
REMARK  12 active torsions:
REMARK  status: ('A' for Active; 'I' for Inactive)
REMARK    1  A    between atoms: C_1  and  C_8
REMARK    2  A    between atoms: C_2  and  O_17
REMARK    3  A    between atoms: C_8  and  C_9
REMARK    4  A    between atoms: C_9  and  C_10
REMARK    5  A    between atoms: C_10  and  C_11
REMARK    6  A    between atoms: O_17  and  C_18
REMARK    7  A    between atoms: C_18  and  C_19
REMARK    8  A    between atoms: C_19  and  O_20
REMARK    9  A    between atoms: C_19  and  C_22
REMARK   10  A    between atoms: C_22  and  N_23
REMARK   11  A    between atoms: N_23  and  C_26
REMARK   12  A    between atoms: C_26  and  C_27
REMARK                            x       y       z     vdW  Elec       q    Type
REMARK                         _______ _______ _______ _____ _____    ______ ____
ROOT
ATOM      1  C   UNL     1       1.379   1.911   0.290  0.00  0.00    +0.069 C 
ATOM      2  C   UNL     1       2.659   1.423   0.028  0.00  0.00    +0.141 C 
ATOM      3  C   UNL     1       1.069   3.241   0.011  0.00  0.00    +0.006 C 
ATOM      4  C   UNL     1       3.629   2.266  -0.514  0.00  0.00    +0.037 C 
ATOM      5  C   UNL     1       2.039   4.085  -0.532  0.00  0.00    +0.000 C 
ATOM      6  C   UNL     1       3.319   3.597  -0.794  0.00  0.00    +0.003 C 
ENDROOT
BRANCH   1   8
ATOM      7  O   UNL     1       0.659   0.103   1.611  0.00  0.00    -0.291 OA
ATOM      8  C   UNL     1       0.352   1.048   0.857  0.00  0.00    +0.176 C 
BRANCH   8   9
ATOM      9  C   UNL     1      -1.130   1.300   0.527  0.00  0.00    +0.074 C 
BRANCH   9  10
ATOM     10  C   UNL     1      -1.973   0.023   0.509  0.00  0.00    +0.034 C 
BRANCH  10  11
ATOM     11  C   UNL     1      -3.413   0.311   0.173  0.00  0.00    -0.022 C 
ATOM     12  C   UNL     1      -4.325   0.589   1.192  0.00  0.00    -0.004 C 
ATOM     13  C   UNL     1      -3.836   0.299  -1.157  0.00  0.00    -0.004 C 
ATOM     14  C   UNL     1      -5.658   0.856   0.881  0.00  0.00    -0.000 C 
ATOM     15  C   UNL     1      -5.169   0.566  -1.467  0.00  0.00    -0.000 C 
ATOM     16  C   UNL     1      -6.080   0.845  -0.448  0.00  0.00    -0.000 C 
ENDBRANCH  10  11
ENDBRANCH   9  10
ENDBRANCH   8   9
ENDBRANCH   1   8
BRANCH   2  17
ATOM     17  O   UNL     1       2.984   0.120   0.297  0.00  0.00    -0.473 OA
BRANCH  17  18
ATOM     18  C   UNL     1       3.409  -0.674  -0.806  0.00  0.00    +0.232 C 
BRANCH  18  19
ATOM     19  C   UNL     1       3.739  -2.079  -0.304  0.00  0.00    +0.133 C 
BRANCH  19  20
ATOM     20  O   UNL     1       4.811  -1.988   0.639  0.00  0.00    -0.383 OA
ATOM     21  H   UNL     1       5.031  -2.874   0.965  0.00  0.00    +0.210 HD
ENDBRANCH  19  20
BRANCH  19  22
ATOM     22  C   UNL     1       2.558  -2.770   0.381  0.00  0.00    -0.048 C 
BRANCH  22  23
ATOM     23  N   UNL     1       1.435  -2.963  -0.527  0.00  0.00    +0.385 N 
ATOM     24  H   UNL     1       1.747  -3.505  -1.333  0.00  0.00    -0.084 HD
ATOM     25  H   UNL     1       1.095  -2.048  -0.822  0.00  0.00    -0.084 HD
BRANCH  23  26
ATOM     26  C   UNL     1       0.348  -3.672   0.134  0.00  0.00    -0.082 C 
BRANCH  26  27
ATOM     27  C   UNL     1      -0.824  -3.857  -0.827  0.00  0.00    -0.023 C 
ATOM     28  C   UNL     1      -1.983  -4.578  -0.154  0.00  0.00    -0.002 C 
ENDBRANCH  26  27
ENDBRANCH  23  26
ENDBRANCH  22  23
ENDBRANCH  19  22
ENDBRANCH  18  19
ENDBRANCH  17  18
ENDBRANCH   2  17
TORSDOF 12
