REMARK  Name = 46916694
REMARK  4 active torsions:
REMARK  status: ('A' for Active; 'I' for Inactive)
REMARK    1  A    between atoms: C_4  and  O_22
REMARK    2  A    between atoms: C_5  and  C_15
REMARK    3  A    between atoms: O_22  and  C_25
REMARK    4  A    between atoms: C_28  and  C_31
REMARK                            x       y       z     vdW  Elec       q    Type
REMARK                         _______ _______ _______ _____ _____    ______ ____
ROOT
ATOM      1  O   UNL     1       2.384   4.485  -0.991  0.00  0.00    -0.458 OA
ATOM      2  C   UNL     1       2.388   2.586   0.232  0.00  0.00    +0.072 C 
ATOM      3  C   UNL     1       1.602   3.506  -0.454  0.00  0.00    +0.148 C 
ATOM      4  C   UNL     1       1.756   1.496   0.857  0.00  0.00    +0.148 C 
ATOM      5  C   UNL     1      -0.392   2.330   0.064  0.00  0.00    +0.060 C 
ATOM      6  C   UNL     1       3.725   3.043   0.097  0.00  0.00    +0.039 C 
ATOM      7  C   UNL     1       0.216   3.420  -0.565  0.00  0.00    +0.042 C 
ATOM      8  C   UNL     1       3.667   4.196  -0.651  0.00  0.00    +0.123 C 
ATOM      9  C   UNL     1       0.362   1.384   0.763  0.00  0.00    +0.042 C 
ATOM     10  C   UNL     1       4.691   5.134  -1.132  0.00  0.00    +0.072 C 
ENDROOT
BRANCH   5  15
ATOM     11  O   UNL     1      -2.542   3.195  -0.135  0.00  0.00    -0.270 OA
ATOM     12  N   UNL     1      -2.323   0.870   0.095  0.00  0.00    -0.268 N 
ATOM     13  N   UNL     1      -3.932  -0.892   0.196  0.00  0.00    -0.252 NA
ATOM     14  N   UNL     1      -5.972   1.015  -0.067  0.00  0.00    -0.269 NA
ATOM     15  C   UNL     1      -1.837   2.180  -0.010  0.00  0.00    +0.251 C 
ATOM     16  C   UNL     1      -3.667   0.424   0.082  0.00  0.00    +0.131 C 
ATOM     17  C   UNL     1      -4.670   1.361  -0.047  0.00  0.00    +0.185 C 
ATOM     18  C   UNL     1      -6.236  -0.302   0.047  0.00  0.00    +0.057 C 
ATOM     19  C   UNL     1      -5.234  -1.239   0.176  0.00  0.00    +0.167 C 
ATOM     20  C   UNL     1      -7.665  -0.721   0.030  0.00  0.00    +0.049 C 
ATOM     21  H   UNL     1      -1.640   0.167   0.190  0.00  0.00    +0.156 HD
ENDBRANCH   5  15
BRANCH   4  22
ATOM     22  O   UNL     1       2.467   0.556   1.551  0.00  0.00    -0.454 OA
BRANCH  22  25
ATOM     23  N   UNL     1       2.120  -3.096   1.594  0.00  0.00    -0.186 NA
ATOM     24  N   UNL     1       2.409  -2.356  -0.681  0.00  0.00    -0.208 NA
ATOM     25  C   UNL     1       2.386  -0.753   1.115  0.00  0.00    +0.168 C 
ATOM     26  C   UNL     1       2.204  -1.808   1.985  0.00  0.00    +0.145 C 
ATOM     27  C   UNL     1       2.483  -1.090  -0.220  0.00  0.00    +0.202 C 
ATOM     28  C   UNL     1       2.229  -3.296   0.267  0.00  0.00    +0.087 C 
BRANCH  28  31
ATOM     29  O   UNL     1       2.989  -5.465   0.252  0.00  0.00    -0.259 OA
ATOM     30  N   UNL     1       1.124  -5.032  -1.089  0.00  0.00    -0.265 N 
ATOM     31  C   UNL     1       2.147  -4.669  -0.191  0.00  0.00    +0.312 C 
ATOM     32  C   UNL     1       0.149  -4.066  -1.590  0.00  0.00    +0.116 C 
ATOM     33  C   UNL     1       0.971  -6.395  -1.579  0.00  0.00    +0.116 C 
ENDBRANCH  28  31
ENDBRANCH  22  25
ENDBRANCH   4  22
TORSDOF 4
