REMARK  Name = 135565884
REMARK  6 active torsions:
REMARK  status: ('A' for Active; 'I' for Inactive)
REMARK    1  A    between atoms: C_4  and  C_13
REMARK    2  A    between atoms: C_8  and  C_36
REMARK    3  A    between atoms: C_9  and  C_21
REMARK    4  A    between atoms: C_18  and  C_19
REMARK    5  A    between atoms: C_26  and  O_27
REMARK    6  A    between atoms: O_27  and  C_28
REMARK                            x       y       z     vdW  Elec       q    Type
REMARK                         _______ _______ _______ _____ _____    ______ ____
ROOT
ATOM      1  N   UNL     1       1.635  -1.699   0.511  0.00  0.00    -0.240 N 
ATOM      2  N   UNL     1       1.926  -3.588  -0.882  0.00  0.00    -0.318 N 
ATOM      3  N   UNL     1       0.700  -0.877   1.022  0.00  0.00    -0.168 NA
ATOM      4  C   UNL     1       3.041  -1.592   0.887  0.00  0.00    +0.108 C 
ATOM      5  C   UNL     1       3.905  -2.340  -0.146  0.00  0.00    +0.046 C 
ATOM      6  C   UNL     1       3.312  -3.715  -0.459  0.00  0.00    +0.090 C 
ATOM      7  C   UNL     1       1.125  -2.658  -0.325  0.00  0.00    +0.131 A 
ATOM      8  C   UNL     1      -0.223  -2.406  -0.411  0.00  0.00    +0.103 A 
ATOM      9  C   UNL     1      -0.427  -1.302   0.442  0.00  0.00    +0.108 A 
ATOM     10  H   UNL     1       1.571  -4.186  -1.579  0.00  0.00    +0.148 HD
ENDROOT
BRANCH   4  13
ATOM     11  O   UNL     1       7.533   2.663   0.187  0.00  0.00    -0.270 OA
ATOM     12  N   UNL     1       5.295   2.043   0.316  0.00  0.00    -0.276 N 
ATOM     13  C   UNL     1       3.518  -0.149   1.027  0.00  0.00    +0.026 C 
ATOM     14  C   UNL     1       4.976  -0.099   1.505  0.00  0.00    +0.023 C 
ATOM     15  C   UNL     1       3.377   0.606  -0.301  0.00  0.00    +0.023 C 
ATOM     16  C   UNL     1       5.474   1.341   1.589  0.00  0.00    +0.094 C 
ATOM     17  C   UNL     1       3.918   2.033  -0.201  0.00  0.00    +0.094 C 
ATOM     18  C   UNL     1       6.390   2.672  -0.272  0.00  0.00    +0.249 C 
BRANCH  18  19
ATOM     19  C   UNL     1       6.166   3.409  -1.532  0.00  0.00    +0.058 C 
ATOM     20  C   UNL     1       7.165   3.496  -2.413  0.00  0.00    +0.005 C 
ENDBRANCH  18  19
ENDBRANCH   4  13
BRANCH   9  21
ATOM     21  C   UNL     1      -1.677  -0.642   0.723  0.00  0.00    +0.020 C 
ATOM     22  C   UNL     1      -2.471  -1.073   1.786  0.00  0.00    +0.005 C 
ATOM     23  C   UNL     1      -2.094   0.427  -0.070  0.00  0.00    +0.005 C 
ATOM     24  C   UNL     1      -3.682  -0.435   2.056  0.00  0.00    +0.038 C 
ATOM     25  C   UNL     1      -3.304   1.065   0.200  0.00  0.00    +0.038 C 
ATOM     26  C   UNL     1      -4.098   0.634   1.262  0.00  0.00    +0.145 C 
BRANCH  26  27
ATOM     27  O   UNL     1      -5.279   1.258   1.525  0.00  0.00    -0.453 OA
BRANCH  27  28
ATOM     28  C   UNL     1      -6.111   1.539   0.455  0.00  0.00    +0.145 C 
ATOM     29  C   UNL     1      -6.342   0.571  -0.522  0.00  0.00    +0.037 C 
ATOM     30  C   UNL     1      -6.718   2.791   0.353  0.00  0.00    +0.037 C 
ATOM     31  C   UNL     1      -7.180   0.854  -1.601  0.00  0.00    +0.003 C 
ATOM     32  C   UNL     1      -7.556   3.074  -0.726  0.00  0.00    +0.003 C 
ATOM     33  C   UNL     1      -7.787   2.106  -1.703  0.00  0.00    +0.000 C 
ENDBRANCH  27  28
ENDBRANCH  26  27
ENDBRANCH   9  21
BRANCH   8  36
ATOM     34  O   UNL     1      -0.829  -4.120  -1.908  0.00  0.00    -0.270 OA
ATOM     35  N   UNL     1      -2.512  -2.748  -1.171  0.00  0.00    -0.325 N 
ATOM     36  C   UNL     1      -1.166  -3.138  -1.204  0.00  0.00    +0.247 C 
ATOM     37  H   UNL     1      -3.179  -3.235  -1.707  0.00  0.00    +0.145 HD
ATOM     38  H   UNL     1      -2.790  -1.987  -0.612  0.00  0.00    +0.145 HD
ENDBRANCH   8  36
TORSDOF 6
