REMARK  Name = 119057475
REMARK  5 active torsions:
REMARK  status: ('A' for Active; 'I' for Inactive)
REMARK    1  A    between atoms: N_1  and  C_22
REMARK    2  A    between atoms: C_2  and  N_8
REMARK    3  A    between atoms: N_8  and  C_11
REMARK    4  A    between atoms: C_11  and  C_16
REMARK    5  A    between atoms: C_22  and  C_26
REMARK                            x       y       z     vdW  Elec       q    Type
REMARK                         _______ _______ _______ _____ _____    ______ ____
ROOT
ATOM      1  N   UNL     1      -1.244  -0.562   0.326  0.00  0.00    +0.387 N 
ATOM      2  C   UNL     1       1.662  -0.906   0.311  0.00  0.00    -0.066 C 
ATOM      3  C   UNL     1      -0.610  -1.497  -0.614  0.00  0.00    -0.079 C 
ATOM      4  C   UNL     1      -0.476  -0.461   1.575  0.00  0.00    -0.079 C 
ATOM      5  C   UNL     1       0.816  -1.055  -0.955  0.00  0.00    -0.044 C 
ATOM      6  C   UNL     1       0.954   0.016   1.308  0.00  0.00    -0.044 C 
ATOM      7  H   UNL     1      -1.257   0.360  -0.110  0.00  0.00    -0.080 HD
ENDROOT
BRANCH   2   8
ATOM      8  N   UNL     1       2.989  -0.394  -0.024  0.00  0.00    +0.389 N 
ATOM      9  H   UNL     1       2.931   0.615  -0.166  0.00  0.00    -0.084 HD
ATOM     10  H   UNL     1       3.312  -0.854  -0.875  0.00  0.00    -0.084 HD
BRANCH   8  11
ATOM     11  C   UNL     1       3.936  -0.672   1.045  0.00  0.00    -0.032 C 
BRANCH  11  16
ATOM     12  O   UNL     1       8.165  -0.950  -1.328  0.00  0.00    -0.467 OA
ATOM     13  O   UNL     1       8.986   1.431   0.063  0.00  0.00    -0.453 OA
ATOM     14  N   UNL     1       5.695   0.986   1.346  0.00  0.00    -0.151 NA
ATOM     15  N   UNL     1       6.932   1.496   1.095  0.00  0.00    -0.107 NA
ATOM     16  C   UNL     1       5.311  -0.149   0.726  0.00  0.00    +0.062 C 
ATOM     17  C   UNL     1       6.116  -0.823  -0.170  0.00  0.00    +0.056 C 
ATOM     18  C   UNL     1       7.369  -0.295  -0.432  0.00  0.00    +0.194 C 
ATOM     19  C   UNL     1       7.751   0.857   0.233  0.00  0.00    +0.278 C 
ATOM     20  C   UNL     1       9.277  -0.149  -1.740  0.00  0.00    +0.253 C 
ATOM     21  C   UNL     1       9.913   0.525  -0.540  0.00  0.00    +0.254 C 
ENDBRANCH  11  16
ENDBRANCH   8  11
ENDBRANCH   2   8
BRANCH   1  22
ATOM     22  C   UNL     1      -2.621  -0.969   0.603  0.00  0.00    -0.071 C 
BRANCH  22  26
ATOM     23  F   UNL     1      -4.869  -3.251  -0.119  0.00  0.00    -0.204 F 
ATOM     24  O   UNL     1      -5.016   3.712  -0.551  0.00  0.00    -0.270 OA
ATOM     25  N   UNL     1      -5.048   1.404  -0.394  0.00  0.00    -0.255 N 
ATOM     26  C   UNL     1      -3.560  -0.511  -0.504  0.00  0.00    +0.025 C 
ATOM     27  C   UNL     1      -3.639   1.042  -0.597  0.00  0.00    +0.101 C 
ATOM     28  C   UNL     1      -4.993  -0.888  -0.247  0.00  0.00    +0.018 C 
ATOM     29  C   UNL     1      -5.786   0.245  -0.201  0.00  0.00    +0.052 C 
ATOM     30  C   UNL     1      -7.149   0.243   0.016  0.00  0.00    +0.014 C 
ATOM     31  C   UNL     1      -5.588  -2.123  -0.074  0.00  0.00    +0.137 C 
ATOM     32  C   UNL     1      -5.621   2.656  -0.385  0.00  0.00    +0.253 C 
ATOM     33  C   UNL     1      -7.755  -0.997   0.195  0.00  0.00    +0.004 C 
ATOM     34  C   UNL     1      -6.975  -2.172   0.149  0.00  0.00    +0.029 C 
ATOM     35  C   UNL     1      -7.815   1.542   0.035  0.00  0.00    +0.006 C 
ATOM     36  C   UNL     1      -7.107   2.669  -0.151  0.00  0.00    +0.058 C 
ENDBRANCH  22  26
ENDBRANCH   1  22
TORSDOF 5
