REMARK  Name = 44595079
REMARK  6 active torsions:
REMARK  status: ('A' for Active; 'I' for Inactive)
REMARK    1  A    between atoms: N_1  and  C_33
REMARK    2  A    between atoms: N_3  and  C_14
REMARK    3  A    between atoms: C_6  and  C_30
REMARK    4  A    between atoms: C_11  and  N_18
REMARK    5  A    between atoms: N_17  and  S_23
REMARK    6  A    between atoms: S_23  and  C_26
REMARK                            x       y       z     vdW  Elec       q    Type
REMARK                         _______ _______ _______ _____ _____    ______ ____
ROOT
ATOM      1  N   UNL     1       4.680  -1.796   0.307  0.00  0.00    -0.309 N 
ATOM      2  N   UNL     1       3.485   0.240   0.096  0.00  0.00    -0.322 NA
ATOM      3  N   UNL     1       2.325   2.266  -0.114  0.00  0.00    -0.247 N 
ATOM      4  N   UNL     1       4.665   2.337  -0.026  0.00  0.00    -0.169 NA
ATOM      5  C   UNL     1       4.677  -0.383   0.193  0.00  0.00    +0.199 C 
ATOM      6  C   UNL     1       5.890   0.276   0.188  0.00  0.00    +0.118 C 
ATOM      7  C   UNL     1       3.551   1.581  -0.010  0.00  0.00    +0.150 C 
ATOM      8  C   UNL     1       5.822   1.649   0.075  0.00  0.00    +0.120 C 
ATOM      9  H   UNL     1       5.549  -2.254   0.379  0.00  0.00    +0.149 HD
ATOM     10  H   UNL     1       2.422   3.242  -0.189  0.00  0.00    +0.165 HD
ENDROOT
BRANCH   3  14
ATOM     11  C   UNL     1      -1.666   0.957  -0.164  0.00  0.00    +0.048 C 
ATOM     12  C   UNL     1      -1.350   2.214   0.352  0.00  0.00    +0.016 C 
ATOM     13  C   UNL     1      -0.656   0.135  -0.664  0.00  0.00    +0.016 C 
ATOM     14  C   UNL     1       0.985   1.827  -0.133  0.00  0.00    +0.058 C 
ATOM     15  C   UNL     1      -0.025   2.649   0.367  0.00  0.00    +0.017 C 
ATOM     16  C   UNL     1       0.669   0.570  -0.648  0.00  0.00    +0.017 C 
BRANCH  11  18
ATOM     17  N   UNL     1      -5.672  -0.383  -0.428  0.00  0.00    -0.156 NA
ATOM     18  N   UNL     1      -2.995   0.520  -0.180  0.00  0.00    -0.305 N 
ATOM     19  C   UNL     1      -5.380   1.078  -0.411  0.00  0.00    +0.117 C 
ATOM     20  C   UNL     1      -4.712  -1.130   0.434  0.00  0.00    +0.117 C 
ATOM     21  C   UNL     1      -3.968   1.321  -0.937  0.00  0.00    +0.110 C 
ATOM     22  C   UNL     1      -3.290  -0.914  -0.077  0.00  0.00    +0.110 C 
BRANCH  17  23
ATOM     23  S   UNL     1      -7.320  -0.806  -0.229  0.00  0.00    +0.044 S 
ATOM     24  O   UNL     1      -7.418  -2.242  -0.095  0.00  0.00    -0.157 OA
ATOM     25  O   UNL     1      -8.107  -0.076  -1.198  0.00  0.00    -0.157 OA
BRANCH  23  26
ATOM     26  C   UNL     1      -7.606  -0.084   1.366  0.00  0.00    +0.169 C 
ATOM     27  C   UNL     1      -9.030  -0.302   1.826  0.00  0.00    +0.029 C 
ENDBRANCH  23  26
ENDBRANCH  17  23
ENDBRANCH  11  18
ENDBRANCH   3  14
BRANCH   6  30
ATOM     28  O   UNL     1       7.697  -0.622   1.402  0.00  0.00    -0.270 OA
ATOM     29  N   UNL     1       7.801  -0.790  -0.882  0.00  0.00    -0.325 N 
ATOM     30  C   UNL     1       7.176  -0.393   0.296  0.00  0.00    +0.248 C 
ATOM     31  H   UNL     1       8.673  -1.246  -0.848  0.00  0.00    +0.145 HD
ATOM     32  H   UNL     1       7.371  -0.615  -1.751  0.00  0.00    +0.145 HD
ENDBRANCH   6  30
BRANCH   1  33
ATOM     33  C   UNL     1       3.472  -2.608   0.325  0.00  0.00    +0.071 C 
ATOM     34  C   UNL     1       3.497  -4.052  -0.083  0.00  0.00    +0.021 C 
ATOM     35  C   UNL     1       2.803  -3.040  -0.947  0.00  0.00    +0.021 C 
ENDBRANCH   1  33
TORSDOF 6
