REMARK  Name = 450656
REMARK  2 active torsions:
REMARK  status: ('A' for Active; 'I' for Inactive)
REMARK    1  A    between atoms: C_2  and  C_4
REMARK    2  A    between atoms: C_2  and  O_5
REMARK                            x       y       z     vdW  Elec       q    Type
REMARK                         _______ _______ _______ _____ _____    ______ ____
ROOT
ATOM      1  O   UNL     1      -0.547   1.300  -0.002  0.00  0.00    -0.247 OA
ATOM      2  C   UNL     1      -0.495   0.079  -0.001  0.00  0.00    +0.350 C 
ENDROOT
BRANCH   2   4
ATOM      3  F   UNL     1       1.860   0.081   0.006  0.00  0.00    -0.222 F 
ATOM      4  C   UNL     1       0.764  -0.728  -0.008  0.00  0.00    +0.301 C 
ENDBRANCH   2   4
BRANCH   2   5
ATOM      5  O   UNL     1      -1.582  -0.732   0.005  0.00  0.00    -0.478 OA
ATOM      6  H   UNL     1      -1.472  -1.662   0.005  0.00  0.00    +0.295 HD
ENDBRANCH   2   5
TORSDOF 2
