REMARK  Name = 9819382
REMARK  10 active torsions:
REMARK  status: ('A' for Active; 'I' for Inactive)
REMARK    1  A    between atoms: C_1  and  C_2
REMARK    2  A    between atoms: C_1  and  C_13
REMARK    3  A    between atoms: C_1  and  C_19
REMARK    4  A    between atoms: C_4  and  O_8
REMARK    5  A    between atoms: C_5  and  C_10
REMARK    6  A    between atoms: C_10  and  O_11
REMARK    7  A    between atoms: C_19  and  C_20
REMARK    8  A    between atoms: C_20  and  N_21
REMARK    9  A    between atoms: N_21  and  C_23
REMARK   10  A    between atoms: N_21  and  C_26
REMARK                            x       y       z     vdW  Elec       q    Type
REMARK                         _______ _______ _______ _____ _____    ______ ____
ROOT
ATOM      1  C   UNL     1      -0.398   0.738  -0.053  0.00  0.00    +0.045 C 
ENDROOT
BRANCH   1   2
ATOM      2  C   UNL     1      -0.528  -0.744  -0.381  0.00  0.00    +0.015 C 
ATOM      3  C   UNL     1      -1.236  -1.545   0.492  0.00  0.00    -0.003 C 
ATOM      4  C   UNL     1       0.059  -1.244  -1.525  0.00  0.00    +0.130 C 
ATOM      5  C   UNL     1      -1.363  -2.905   0.208  0.00  0.00    +0.007 C 
ATOM      6  C   UNL     1      -0.068  -2.603  -1.810  0.00  0.00    +0.036 C 
ATOM      7  C   UNL     1      -0.779  -3.434  -0.943  0.00  0.00    +0.001 C 
BRANCH   4   8
ATOM      8  O   UNL     1       0.754  -0.446  -2.383  0.00  0.00    -0.506 OA
ATOM      9  H   UNL     1       0.846   0.468  -2.202  0.00  0.00    +0.292 HD
ENDBRANCH   4   8
BRANCH   5  10
ATOM     10  C   UNL     1      -2.123  -3.794   1.133  0.00  0.00    +0.164 C 
BRANCH  10  11
ATOM     11  O   UNL     1      -1.238  -4.325   2.111  0.00  0.00    -0.377 OA
ATOM     12  H   UNL     1      -1.732  -4.903   2.714  0.00  0.00    +0.211 HD
ENDBRANCH  10  11
ENDBRANCH   5  10
ENDBRANCH   1   2
BRANCH   1  13
ATOM     13  C   UNL     1      -1.758   1.431  -0.071  0.00  0.00    -0.018 C 
ATOM     14  C   UNL     1      -2.287   1.819  -1.283  0.00  0.00    -0.004 C 
ATOM     15  C   UNL     1      -2.409   1.645   1.124  0.00  0.00    -0.004 C 
ATOM     16  C   UNL     1      -3.530   2.452  -1.300  0.00  0.00    -0.000 C 
ATOM     17  C   UNL     1      -3.652   2.278   1.106  0.00  0.00    -0.000 C 
ATOM     18  C   UNL     1      -4.213   2.681  -0.106  0.00  0.00    -0.000 C 
ENDBRANCH   1  13
BRANCH   1  19
ATOM     19  C   UNL     1       0.412   0.999   1.244  0.00  0.00    -0.014 C 
BRANCH  19  20
ATOM     20  C   UNL     1       1.741   0.235   1.270  0.00  0.00    -0.076 C 
BRANCH  20  21
ATOM     21  N   UNL     1       2.582   0.647   0.151  0.00  0.00    +0.390 N 
ATOM     22  H   UNL     1       2.092   0.423  -0.715  0.00  0.00    -0.080 HD
BRANCH  21  23
ATOM     23  C   UNL     1       2.819   2.091   0.191  0.00  0.00    -0.058 C 
ATOM     24  C   UNL     1       1.510   2.853   0.021  0.00  0.00    -0.023 C 
ATOM     25  C   UNL     1       3.518   2.477   1.488  0.00  0.00    -0.023 C 
ENDBRANCH  21  23
BRANCH  21  26
ATOM     26  C   UNL     1       3.853  -0.078   0.169  0.00  0.00    -0.058 C 
ATOM     27  C   UNL     1       3.611  -1.582   0.148  0.00  0.00    -0.023 C 
ATOM     28  C   UNL     1       4.726   0.356  -1.002  0.00  0.00    -0.023 C 
ENDBRANCH  21  26
ENDBRANCH  20  21
ENDBRANCH  19  20
ENDBRANCH   1  19
TORSDOF 10
