REMARK  Name = 68254185
REMARK  4 active torsions:
REMARK  status: ('A' for Active; 'I' for Inactive)
REMARK    1  A    between atoms: C_2  and  C_11
REMARK    2  A    between atoms: C_5  and  N_19
REMARK    3  A    between atoms: C_20  and  C_23
REMARK    4  A    between atoms: C_26  and  C_29
REMARK                            x       y       z     vdW  Elec       q    Type
REMARK                         _______ _______ _______ _____ _____    ______ ____
ROOT
ATOM      1  F   UNL     1      -4.063  -1.762   0.083  0.00  0.00    -0.204 F 
ATOM      2  C   UNL     1      -2.386  -0.085   0.195  0.00  0.00    +0.030 C 
ATOM      3  C   UNL     1      -1.034   0.258   0.191  0.00  0.00    +0.015 C 
ATOM      4  C   UNL     1      -2.766  -1.423   0.080  0.00  0.00    +0.138 C 
ATOM      5  C   UNL     1      -0.062  -0.736   0.072  0.00  0.00    +0.050 C 
ATOM      6  C   UNL     1      -1.794  -2.416  -0.039  0.00  0.00    +0.031 C 
ATOM      7  C   UNL     1      -0.443  -2.073  -0.043  0.00  0.00    +0.017 C 
ENDROOT
BRANCH   2  11
ATOM      8  S   UNL     1      -6.607   0.604   0.240  0.00  0.00    -0.054 S 
ATOM      9  N   UNL     1      -4.213   1.085  -0.931  0.00  0.00    -0.246 NA
ATOM     10  N   UNL     1      -6.104   1.022  -2.283  0.00  0.00    -0.338 N 
ATOM     11  C   UNL     1      -3.455   1.013   0.326  0.00  0.00    +0.126 C 
ATOM     12  C   UNL     1      -2.859   2.432   0.488  0.00  0.00    +0.034 C 
ATOM     13  C   UNL     1      -4.276   0.752   1.569  0.00  0.00    +0.007 C 
ATOM     14  C   UNL     1      -5.596   0.568   1.619  0.00  0.00    +0.036 C 
ATOM     15  C   UNL     1      -5.483   0.936  -1.066  0.00  0.00    +0.153 C 
ATOM     16  H   UNL     1      -7.079   0.902  -2.348  0.00  0.00    +0.144 HD
ATOM     17  H   UNL     1      -5.576   1.204  -3.094  0.00  0.00    +0.144 HD
ENDBRANCH   2  11
BRANCH   5  19
ATOM     18  O   UNL     1       2.375  -2.466  -0.158  0.00  0.00    -0.268 OA
ATOM     19  N   UNL     1       1.290  -0.392   0.067  0.00  0.00    -0.279 N 
ATOM     20  C   UNL     1       2.396  -1.245  -0.044  0.00  0.00    +0.267 C 
ATOM     21  H   UNL     1       1.492   0.568   0.151  0.00  0.00    +0.155 HD
BRANCH  20  23
ATOM     22  N   UNL     1       3.695   0.775   0.056  0.00  0.00    -0.239 NA
ATOM     23  C   UNL     1       3.722  -0.572  -0.046  0.00  0.00    +0.135 C 
ATOM     24  C   UNL     1       4.884  -1.319  -0.151  0.00  0.00    +0.024 C 
ATOM     25  C   UNL     1       6.097  -0.640  -0.150  0.00  0.00    +0.014 C 
ATOM     26  C   UNL     1       6.111   0.747  -0.046  0.00  0.00    +0.088 C 
ATOM     27  C   UNL     1       4.894   1.401   0.054  0.00  0.00    +0.109 C 
BRANCH  26  29
ATOM     28  N   UNL     1       8.339   2.062  -0.041  0.00  0.00    -0.191 NA
ATOM     29  C   UNL     1       7.339   1.472  -0.043  0.00  0.00    +0.102 C 
ENDBRANCH  26  29
ENDBRANCH  20  23
ENDBRANCH   5  19
TORSDOF 4
