REMARK  Name = 8365
REMARK  4 active torsions:
REMARK  status: ('A' for Active; 'I' for Inactive)
REMARK    1  A    between atoms: C_1  and  C_10
REMARK    2  A    between atoms: C_2  and  O_7
REMARK    3  A    between atoms: C_10  and  O_11
REMARK    4  A    between atoms: O_11  and  C_12
REMARK                            x       y       z     vdW  Elec       q    Type
REMARK                         _______ _______ _______ _____ _____    ______ ____
ROOT
ATOM      1  C   UNL     1      -0.405  -0.025   0.128  0.00  0.00    +0.109 C 
ATOM      2  C   UNL     1      -1.483  -0.856  -0.176  0.00  0.00    +0.140 C 
ATOM      3  C   UNL     1      -0.609   1.342   0.319  0.00  0.00    +0.009 C 
ATOM      4  C   UNL     1      -2.766  -0.320  -0.290  0.00  0.00    +0.037 C 
ATOM      5  C   UNL     1      -1.892   1.877   0.205  0.00  0.00    +0.000 C 
ATOM      6  C   UNL     1      -2.970   1.047  -0.100  0.00  0.00    +0.003 C 
ENDROOT
BRANCH   2   7
ATOM      7  O   UNL     1      -1.304  -2.193  -0.368  0.00  0.00    -0.505 OA
ATOM      8  H   UNL     1      -0.447  -2.566  -0.294  0.00  0.00    +0.292 HD
ENDBRANCH   2   7
BRANCH   1  10
ATOM      9  O   UNL     1       1.204  -1.713   0.627  0.00  0.00    -0.245 OA
ATOM     10  C   UNL     1       0.943  -0.564   0.250  0.00  0.00    +0.344 C 
BRANCH  10  11
ATOM     11  O   UNL     1       1.886   0.360  -0.106  0.00  0.00    -0.445 OA
BRANCH  11  12
ATOM     12  C   UNL     1       3.255  -0.053  -0.029  0.00  0.00    +0.209 C 
ATOM     13  C   UNL     1       4.141   1.097  -0.459  0.00  0.00    +0.051 C 
ENDBRANCH  11  12
ENDBRANCH  10  11
ENDBRANCH   1  10
TORSDOF 4
