REMARK  Name = 57920094
REMARK  11 active torsions:
REMARK  status: ('A' for Active; 'I' for Inactive)
REMARK    1  A    between atoms: C_1  and  C_6
REMARK    2  A    between atoms: C_1  and  N_19
REMARK    3  A    between atoms: C_1  and  C_32
REMARK    4  A    between atoms: N_4  and  C_11
REMARK    5  A    between atoms: C_11  and  C_12
REMARK    6  A    between atoms: C_12  and  O_13
REMARK    7  A    between atoms: C_12  and  C_15
REMARK    8  A    between atoms: C_15  and  O_16
REMARK    9  A    between atoms: C_22  and  O_24
REMARK   10  A    between atoms: O_24  and  C_26
REMARK   11  A    between atoms: C_32  and  C_33
REMARK                            x       y       z     vdW  Elec       q    Type
REMARK                         _______ _______ _______ _____ _____    ______ ____
ROOT
ATOM      1  C   UNL     1      -0.551  -1.212   0.923  0.00  0.00    +0.153 C 
ENDROOT
BRANCH   1   6
ATOM      2  O   UNL     1       0.003  -0.485  -1.312  0.00  0.00    -0.273 OA
ATOM      3  N   UNL     1       1.727  -0.802   0.249  0.00  0.00    -0.267 N 
ATOM      4  N   UNL     1       4.904  -0.226  -1.023  0.00  0.00    -0.206 N 
ATOM      5  N   UNL     1       4.122  -0.570   0.015  0.00  0.00    -0.163 NA
ATOM      6  C   UNL     1       0.405  -0.772  -0.187  0.00  0.00    +0.245 C 
ATOM      7  C   UNL     1       2.891  -0.512  -0.500  0.00  0.00    +0.153 C 
ATOM      8  C   UNL     1       2.887  -0.133  -1.856  0.00  0.00    +0.054 C 
ATOM      9  C   UNL     1       4.213   0.047  -2.167  0.00  0.00    +0.087 C 
ATOM     10  H   UNL     1       1.868  -1.056   1.190  0.00  0.00    +0.156 HD
BRANCH   4  11
ATOM     11  C   UNL     1       6.336  -0.172  -0.854  0.00  0.00    +0.148 C 
BRANCH  11  12
ATOM     12  C   UNL     1       6.787   1.094  -0.119  0.00  0.00    +0.161 C 
BRANCH  12  13
ATOM     13  O   UNL     1       6.644   0.879   1.287  0.00  0.00    -0.380 OA
ATOM     14  H   UNL     1       5.717   0.681   1.491  0.00  0.00    +0.211 HD
ENDBRANCH  12  13
BRANCH  12  15
ATOM     15  C   UNL     1       8.253   1.404  -0.412  0.00  0.00    +0.168 C 
BRANCH  15  16
ATOM     16  O   UNL     1       8.655   2.565   0.309  0.00  0.00    -0.379 OA
ATOM     17  H   UNL     1       9.586   2.757   0.119  0.00  0.00    +0.211 HD
ENDBRANCH  15  16
ENDBRANCH  12  15
ENDBRANCH  11  12
ENDBRANCH   4  11
ENDBRANCH   1   6
BRANCH   1  19
ATOM     18  O   UNL     1      -0.079   1.050   2.800  0.00  0.00    -0.270 OA
ATOM     19  N   UNL     1      -1.407  -0.092   1.218  0.00  0.00    -0.262 N 
ATOM     20  C   UNL     1      -2.704   0.115   0.610  0.00  0.00    +0.159 C 
ATOM     21  C   UNL     1      -1.084   0.917   2.121  0.00  0.00    +0.253 C 
ATOM     22  C   UNL     1      -3.113   1.381   1.269  0.00  0.00    +0.147 C 
ATOM     23  C   UNL     1      -2.216   1.865   2.134  0.00  0.00    +0.093 C 
BRANCH  22  24
ATOM     24  O   UNL     1      -4.316   1.958   0.979  0.00  0.00    -0.455 OA
BRANCH  24  26
ATOM     25 CL   UNL     1      -3.907   2.781  -1.887  0.00  0.00    -0.079 Cl
ATOM     26  C   UNL     1      -5.117   1.322   0.064  0.00  0.00    +0.155 C 
ATOM     27  C   UNL     1      -5.030   1.612  -1.298  0.00  0.00    +0.092 C 
ATOM     28  C   UNL     1      -6.032   0.373   0.518  0.00  0.00    +0.038 C 
ATOM     29  C   UNL     1      -5.858   0.952  -2.206  0.00  0.00    +0.014 C 
ATOM     30  C   UNL     1      -6.861  -0.287  -0.390  0.00  0.00    +0.003 C 
ATOM     31  C   UNL     1      -6.774   0.003  -1.752  0.00  0.00    +0.001 C 
ENDBRANCH  24  26
ENDBRANCH  22  24
ENDBRANCH   1  19
BRANCH   1  32
ATOM     32  C   UNL     1      -1.344  -2.448   0.481  0.00  0.00    +0.029 C 
BRANCH  32  33
ATOM     33  C   UNL     1      -0.481  -3.665   0.091  0.00  0.00    +0.002 C 
ATOM     34  C   UNL     1      -1.323  -4.846  -0.393  0.00  0.00    +0.000 C 
ATOM     35  C   UNL     1       0.372  -4.097   1.288  0.00  0.00    +0.000 C 
ENDBRANCH  32  33
ENDBRANCH   1  32
TORSDOF 11
