REMARK  Name = 24764487
REMARK  6 active torsions:
REMARK  status: ('A' for Active; 'I' for Inactive)
REMARK    1  A    between atoms: C_1  and  C_13
REMARK    2  A    between atoms: C_2  and  O_18
REMARK    3  A    between atoms: C_4  and  S_7
REMARK    4  A    between atoms: C_5  and  O_16
REMARK    5  A    between atoms: S_7  and  N_10
REMARK    6  A    between atoms: O_18  and  C_23
REMARK                            x       y       z     vdW  Elec       q    Type
REMARK                         _______ _______ _______ _____ _____    ______ ____
ROOT
ATOM      1  C   UNL     1      -0.989   1.684  -0.222  0.00  0.00    +0.015 C 
ATOM      2  C   UNL     1      -0.124   0.678  -0.655  0.00  0.00    +0.143 C 
ATOM      3  C   UNL     1      -2.268   1.357   0.229  0.00  0.00    +0.037 C 
ATOM      4  C   UNL     1      -1.817  -0.980  -0.185  0.00  0.00    +0.158 C 
ATOM      5  C   UNL     1      -2.682   0.025   0.248  0.00  0.00    +0.157 C 
ATOM      6  C   UNL     1      -0.538  -0.653  -0.637  0.00  0.00    +0.060 C 
ENDROOT
BRANCH   4   7
ATOM      7  S   UNL     1      -2.313  -2.658  -0.171  0.00  0.00    +0.060 S 
ATOM      8  O   UNL     1      -3.766  -2.705  -0.235  0.00  0.00    -0.153 OA
ATOM      9  O   UNL     1      -1.519  -3.379  -1.155  0.00  0.00    -0.153 OA
BRANCH   7  10
ATOM     10  N   UNL     1      -1.812  -3.128   1.393  0.00  0.00    -0.203 NA
ATOM     11  H   UNL     1      -2.043  -4.110   1.543  0.00  0.00    +0.144 HD
ATOM     12  H   UNL     1      -2.289  -2.556   2.089  0.00  0.00    +0.144 HD
ENDBRANCH   7  10
ENDBRANCH   4   7
BRANCH   1  13
ATOM     13  C   UNL     1      -0.563   3.115  -0.235  0.00  0.00    +0.025 C 
ATOM     14  C   UNL     1      -1.429   3.977  -1.171  0.00  0.00    +0.005 C 
ATOM     15  C   UNL     1      -0.539   3.733   1.175  0.00  0.00    +0.005 C 
ENDBRANCH   1  13
BRANCH   5  16
ATOM     16  O   UNL     1      -3.935  -0.271   0.693  0.00  0.00    -0.470 OA
ATOM     17  C   UNL     1      -4.748   0.822   1.115  0.00  0.00    +0.253 C 
ENDBRANCH   5  16
BRANCH   2  18
ATOM     18  O   UNL     1       1.128   0.981  -1.099  0.00  0.00    -0.448 OA
BRANCH  18  23
ATOM     19  N   UNL     1       4.175  -0.951  -0.372  0.00  0.00    -0.320 NA
ATOM     20  N   UNL     1       3.430   0.166   1.630  0.00  0.00    -0.167 NA
ATOM     21  N   UNL     1       2.965  -0.698  -2.399  0.00  0.00    -0.330 N 
ATOM     22  N   UNL     1       5.349  -1.184   1.646  0.00  0.00    -0.293 N 
ATOM     23  C   UNL     1       2.200   0.425  -0.423  0.00  0.00    +0.209 C 
ATOM     24  C   UNL     1       3.126  -0.404  -1.022  0.00  0.00    +0.226 C 
ATOM     25  C   UNL     1       2.404   0.678   0.918  0.00  0.00    +0.153 C 
ATOM     26  C   UNL     1       4.264  -0.629   0.933  0.00  0.00    +0.143 C 
ATOM     27  H   UNL     1       3.609  -1.287  -2.855  0.00  0.00    +0.145 HD
ATOM     28  H   UNL     1       2.209  -0.314  -2.899  0.00  0.00    +0.145 HD
ATOM     29  H   UNL     1       5.991  -1.772   1.186  0.00  0.00    +0.155 HD
ATOM     30  H   UNL     1       5.464  -0.983   2.603  0.00  0.00    +0.155 HD
ENDBRANCH  18  23
ENDBRANCH   2  18
TORSDOF 6
