REMARK  Name = 4147757
REMARK  8 active torsions:
REMARK  status: ('A' for Active; 'I' for Inactive)
REMARK    1  A    between atoms: C_1  and  C_20
REMARK    2  A    between atoms: C_4  and  O_7
REMARK    3  A    between atoms: O_7  and  C_8
REMARK    4  A    between atoms: C_8  and  C_9
REMARK    5  A    between atoms: C_9  and  C_11
REMARK    6  A    between atoms: C_12  and  C_16
REMARK    7  A    between atoms: C_16  and  O_18
REMARK    8  A    between atoms: C_20  and  C_25
REMARK                            x       y       z     vdW  Elec       q    Type
REMARK                         _______ _______ _______ _____ _____    ______ ____
ROOT
ATOM      1  C   UNL     1      -2.409   1.450  -0.497  0.00  0.00    -0.021 C 
ATOM      2  C   UNL     1      -1.579   0.913  -1.469  0.00  0.00    -0.001 C 
ATOM      3  C   UNL     1      -1.929   2.359   0.434  0.00  0.00    -0.001 C 
ATOM      4  C   UNL     1       0.258   2.206  -0.581  0.00  0.00    +0.139 C 
ATOM      5  C   UNL     1      -0.238   1.293  -1.512  0.00  0.00    +0.037 C 
ATOM      6  C   UNL     1      -0.588   2.739   0.392  0.00  0.00    +0.037 C 
ENDROOT
BRANCH   4   7
ATOM      7  O   UNL     1       1.567   2.577  -0.623  0.00  0.00    -0.475 OA
BRANCH   7   8
ATOM      8  C   UNL     1       2.180   2.934   0.615  0.00  0.00    +0.212 C 
BRANCH   8   9
ATOM      9  C   UNL     1       3.670   2.614   0.564  0.00  0.00    +0.093 C 
BRANCH   9  11
ATOM     10  N   UNL     1       4.030   0.729  -0.912  0.00  0.00    -0.248 NA
ATOM     11  C   UNL     1       3.934   1.141   0.364  0.00  0.00    +0.063 C 
ATOM     12  C   UNL     1       4.406  -1.498  -0.048  0.00  0.00    +0.023 C 
ATOM     13  C   UNL     1       4.056   0.333   1.472  0.00  0.00    +0.015 C 
ATOM     14  C   UNL     1       4.298  -1.019   1.253  0.00  0.00    +0.001 C 
ATOM     15  C   UNL     1       4.266  -0.591  -1.087  0.00  0.00    +0.096 C 
BRANCH  12  16
ATOM     16  C   UNL     1       4.668  -2.937  -0.316  0.00  0.00    +0.134 C 
ATOM     17  C   UNL     1       3.598  -3.857   0.284  0.00  0.00    +0.037 C 
BRANCH  16  18
ATOM     18  O   UNL     1       5.946  -3.313   0.214  0.00  0.00    -0.380 OA
ATOM     19  H   UNL     1       6.632  -2.737  -0.158  0.00  0.00    +0.211 HD
ENDBRANCH  16  18
ENDBRANCH  12  16
ENDBRANCH   9  11
ENDBRANCH   8   9
ENDBRANCH   7   8
ENDBRANCH   4   7
BRANCH   1  20
ATOM     20  C   UNL     1      -3.859   1.039  -0.451  0.00  0.00    +0.047 C 
BRANCH  20  25
ATOM     21  S   UNL     1      -3.672  -1.708  -0.461  0.00  0.00    -0.048 S 
ATOM     22  O   UNL     1      -6.146   0.568   1.434  0.00  0.00    -0.274 OA
ATOM     23  O   UNL     1      -5.560  -3.533  -0.608  0.00  0.00    -0.263 OA
ATOM     24  N   UNL     1      -6.043  -1.533   0.474  0.00  0.00    -0.246 N 
ATOM     25  C   UNL     1      -4.076  -0.177   0.432  0.00  0.00    +0.137 C 
ATOM     26  C   UNL     1      -5.525  -0.309   0.843  0.00  0.00    +0.239 C 
ATOM     27  C   UNL     1      -5.253  -2.419  -0.211  0.00  0.00    +0.279 C 
ATOM     28  H   UNL     1      -6.972  -1.769   0.700  0.00  0.00    +0.158 HD
ENDBRANCH  20  25
ENDBRANCH   1  20
TORSDOF 8
