REMARK  Name = 59215954
REMARK  3 active torsions:
REMARK  status: ('A' for Active; 'I' for Inactive)
REMARK    1  A    between atoms: C_2  and  C_24
REMARK    2  A    between atoms: C_5  and  C_12
REMARK    3  A    between atoms: N_23  and  C_29
REMARK                            x       y       z     vdW  Elec       q    Type
REMARK                         _______ _______ _______ _____ _____    ______ ____
ROOT
ATOM      1  N   UNL     1      -1.373  -2.186  -1.327  0.00  0.00    -0.357 N 
ATOM      2  C   UNL     1       0.614  -1.991  -0.355  0.00  0.00    +0.062 A 
ATOM      3  C   UNL     1      -0.125  -0.806  -0.113  0.00  0.00    -0.001 A 
ATOM      4  C   UNL     1      -0.181  -2.826  -1.107  0.00  0.00    +0.038 A 
ATOM      5  C   UNL     1      -1.350  -0.954  -0.725  0.00  0.00    +0.053 A 
ATOM      6  C   UNL     1       0.333   0.371   0.655  0.00  0.00    +0.033 C 
ATOM      7  C   UNL     1       0.065  -4.178  -1.647  0.00  0.00    +0.050 C 
ATOM      8  H   UNL     1      -2.129  -2.554  -1.839  0.00  0.00    +0.166 HD
ENDROOT
BRANCH   5  12
ATOM      9  F   UNL     1      -6.863   3.238  -1.675  0.00  0.00    -0.204 F 
ATOM     10  O   UNL     1      -2.895  -1.721   1.671  0.00  0.00    -0.270 OA
ATOM     11  N   UNL     1      -4.928  -0.525   1.801  0.00  0.00    -0.280 N 
ATOM     12  C   UNL     1      -2.492  -0.145  -0.841  0.00  0.00    +0.021 C 
ATOM     13  C   UNL     1      -3.576  -0.077   0.009  0.00  0.00    +0.056 C 
ATOM     14  C   UNL     1      -4.766   0.759  -0.100  0.00  0.00    +0.020 C 
ATOM     15  C   UNL     1      -5.553   0.447   1.012  0.00  0.00    +0.051 C 
ATOM     16  C   UNL     1      -3.699  -0.907   1.254  0.00  0.00    +0.250 C 
ATOM     17  C   UNL     1      -5.188   1.698  -1.022  0.00  0.00    +0.031 C 
ATOM     18  C   UNL     1      -6.773   1.050   1.247  0.00  0.00    +0.017 C 
ATOM     19  C   UNL     1      -6.421   2.322  -0.803  0.00  0.00    +0.140 C 
ATOM     20  C   UNL     1      -7.206   2.001   0.321  0.00  0.00    +0.031 C 
ATOM     21  H   UNL     1      -5.304  -0.892   2.633  0.00  0.00    +0.155 HD
ENDBRANCH   5  12
BRANCH   2  24
ATOM     22  O   UNL     1       2.298  -3.491   0.288  0.00  0.00    -0.270 OA
ATOM     23  N   UNL     1       2.851  -1.239   0.250  0.00  0.00    -0.301 N 
ATOM     24  C   UNL     1       1.991  -2.317   0.098  0.00  0.00    +0.247 C 
ATOM     25  H   UNL     1       2.510  -0.333   0.073  0.00  0.00    +0.150 HD
BRANCH  23  29
ATOM     26  O   UNL     1       6.183   2.193   1.805  0.00  0.00    -0.252 OA
ATOM     27  N   UNL     1       5.281   0.706   0.320  0.00  0.00    -0.262 N 
ATOM     28  N   UNL     1       6.080   2.850  -0.396  0.00  0.00    -0.261 N 
ATOM     29  C   UNL     1       4.226  -1.396   0.659  0.00  0.00    +0.093 C 
ATOM     30  C   UNL     1       5.162  -1.493  -0.543  0.00  0.00    +0.043 C 
ATOM     31  C   UNL     1       4.744  -0.153   1.375  0.00  0.00    +0.114 C 
ATOM     32  C   UNL     1       5.368  -0.035  -0.940  0.00  0.00    +0.097 C 
ATOM     33  C   UNL     1       5.856   1.934   0.639  0.00  0.00    +0.307 C 
ATOM     34  C   UNL     1       5.258   2.977  -1.595  0.00  0.00    +0.117 C 
ATOM     35  C   UNL     1       7.080   3.894  -0.212  0.00  0.00    +0.117 C 
ENDBRANCH  23  29
ENDBRANCH   2  24
TORSDOF 3
