REMARK  Name = 3035000
REMARK  4 active torsions:
REMARK  status: ('A' for Active; 'I' for Inactive)
REMARK    1  A    between atoms: C_4  and  O_22
REMARK    2  A    between atoms: C_4  and  C_25
REMARK    3  A    between atoms: C_25  and  C_26
REMARK    4  A    between atoms: C_26  and  O_27
REMARK                            x       y       z     vdW  Elec       q    Type
REMARK                         _______ _______ _______ _____ _____    ______ ____
ROOT
ATOM      1  O   UNL     1      -6.174  -0.706   1.577  0.00  0.00    -0.287 OA
ATOM      2  C   UNL     1       1.681  -0.202  -0.241  0.00  0.00    +0.033 C 
ATOM      3  C   UNL     1       0.860   1.049   0.132  0.00  0.00    +0.007 C 
ATOM      4  C   UNL     1       3.050   0.181   0.383  0.00  0.00    +0.141 C 
ATOM      5  C   UNL     1      -0.546   1.060  -0.495  0.00  0.00    +0.019 C 
ATOM      6  C   UNL     1       1.781   2.225  -0.196  0.00  0.00    +0.003 C 
ATOM      7  C   UNL     1       3.218   1.679   0.001  0.00  0.00    +0.032 C 
ATOM      8  C   UNL     1       0.943  -1.406   0.373  0.00  0.00    +0.028 C 
ATOM      9  C   UNL     1      -1.234  -0.315  -0.370  0.00  0.00    -0.042 C 
ATOM     10  C   UNL     1       1.808  -0.405  -1.778  0.00  0.00    +0.003 C 
ATOM     11  C   UNL     1      -1.387   2.177   0.153  0.00  0.00    +0.008 C 
ATOM     12  C   UNL     1      -2.728  -0.352  -0.787  0.00  0.00    +0.049 C 
ATOM     13  C   UNL     1      -0.536  -1.394   0.055  0.00  0.00    -0.034 C 
ATOM     14  C   UNL     1       4.007   2.514   1.007  0.00  0.00    +0.003 C 
ATOM     15  C   UNL     1      -2.827   2.190  -0.349  0.00  0.00    +0.023 C 
ATOM     16  C   UNL     1      -3.455   0.833  -0.144  0.00  0.00    -0.034 C 
ATOM     17  C   UNL     1      -2.818  -0.240  -2.329  0.00  0.00    +0.013 C 
ATOM     18  C   UNL     1      -3.417  -1.667  -0.444  0.00  0.00    -0.016 C 
ATOM     19  C   UNL     1      -4.557   0.713   0.614  0.00  0.00    +0.034 C 
ATOM     20  C   UNL     1      -4.514  -1.794   0.311  0.00  0.00    +0.038 C 
ATOM     21  C   UNL     1      -5.164  -0.605   0.889  0.00  0.00    +0.195 C 
ENDROOT
BRANCH   4  22
ATOM     22  O   UNL     1       3.056   0.040   1.799  0.00  0.00    -0.380 OA
ATOM     23  H   UNL     1       2.326   0.555   2.178  0.00  0.00    +0.211 HD
ENDBRANCH   4  22
BRANCH   4  25
ATOM     24  O   UNL     1       5.148  -0.144  -0.702  0.00  0.00    -0.291 OA
ATOM     25  C   UNL     1       4.208  -0.649  -0.089  0.00  0.00    +0.204 C 
BRANCH  25  26
ATOM     26  C   UNL     1       4.148  -2.127   0.231  0.00  0.00    +0.204 C 
BRANCH  26  27
ATOM     27  O   UNL     1       5.447  -2.654   0.398  0.00  0.00    -0.375 OA
ATOM     28  H   UNL     1       5.389  -3.601   0.602  0.00  0.00    +0.211 HD
ENDBRANCH  26  27
ENDBRANCH  25  26
ENDBRANCH   4  25
TORSDOF 4
