REMARK  Name = 9834479
REMARK  8 active torsions:
REMARK  status: ('A' for Active; 'I' for Inactive)
REMARK    1  A    between atoms: C_1  and  C_2
REMARK    2  A    between atoms: C_1  and  CA_12
REMARK    3  A    between atoms: C_5  and  O_8
REMARK    4  A    between atoms: O_8  and  C_9
REMARK    5  A    between atoms: C_9  and  C_11
REMARK    6  A    between atoms: CA_12  and  N_13
REMARK    7  A    between atoms: CA_12  and  C_18
REMARK    8  A    between atoms: C_18  and  O_19
REMARK                            x       y       z     vdW  Elec       q    Type
REMARK                         _______ _______ _______ _____ _____    ______ ____
ROOT
ATOM      1  C   UNL     1      -2.293   1.030   0.701  0.00  0.00    +0.015 C 
ENDROOT
BRANCH   1   2
ATOM      2  C   UNL     1      -0.852   0.633   0.475  0.00  0.00    -0.024 C 
ATOM      3  C   UNL     1      -0.400  -0.582   0.960  0.00  0.00    -0.001 C 
ATOM      4  C   UNL     1      -0.013   1.494  -0.213  0.00  0.00    -0.001 C 
ATOM      5  C   UNL     1       1.788  -0.093   0.060  0.00  0.00    +0.139 C 
ATOM      6  C   UNL     1       0.930  -0.948   0.752  0.00  0.00    +0.037 C 
ATOM      7  C   UNL     1       1.317   1.128  -0.422  0.00  0.00    +0.037 C 
BRANCH   5   8
ATOM      8  O   UNL     1       3.086  -0.450  -0.142  0.00  0.00    -0.472 OA
BRANCH   8   9
ATOM      9  C   UNL     1       4.044   0.603  -0.227  0.00  0.00    +0.243 C 
BRANCH   9  11
ATOM     10  F   UNL     1       5.773  -0.937  -0.534  0.00  0.00    -0.230 F 
ATOM     11  C   UNL     1       5.377   0.090   0.268  0.00  0.00    +0.240 C 
ENDBRANCH   9  11
ENDBRANCH   8   9
ENDBRANCH   5   8
ENDBRANCH   1   2
BRANCH   1  12
ATOM     12  CA  UNL     1      -3.224   0.565  -0.429  0.00  0.00    +0.040 C 
BRANCH  12  13
ATOM     13  N   UNL     1      -4.453   1.356  -0.413  0.00  0.00    +0.389 N 
ATOM     14  H1  UNL     1      -4.223   2.344  -0.521  0.00  0.00    -0.088 HD
ATOM     15  H2  UNL     1      -4.937   1.215   0.473  0.00  0.00    -0.088 HD
ATOM     16  H3  UNL     1      -5.056   1.063  -1.182  0.00  0.00    -0.088 HD
ENDBRANCH  12  13
BRANCH  12  18
ATOM     17  OXT UNL     1      -4.613  -1.268   0.373  0.00  0.00    -0.253 OA
ATOM     18  C   UNL     1      -3.641  -0.886  -0.266  0.00  0.00    +0.293 C 
BRANCH  18  19
ATOM     19  O   UNL     1      -2.826  -1.737  -0.943  0.00  0.00    -0.482 OA
ATOM     20  H   UNL     1      -2.092  -1.402  -1.419  0.00  0.00    +0.295 HD
ENDBRANCH  18  19
ENDBRANCH  12  18
ENDBRANCH   1  12
TORSDOF 8
