68254185
  -OEChem-05201911113D

 40 42  0     1  0  0  0  0  0999 V2000
   -6.6074    0.6041    0.2403 S   0  0  0  0  0  0  0  0  0  0  0  0
   -4.0627   -1.7621    0.0828 F   0  0  0  0  0  0  0  0  0  0  0  0
    2.3753   -2.4659   -0.1576 O   0  0  0  0  0  0  0  0  0  0  0  0
   -4.2134    1.0855   -0.9308 N   0  0  0  0  0  0  0  0  0  0  0  0
    1.2898   -0.3921    0.0668 N   0  0  0  0  0  0  0  0  0  0  0  0
   -6.1042    1.0223   -2.2832 N   0  0  0  0  0  0  0  0  0  0  0  0
    3.6954    0.7755    0.0563 N   0  0  0  0  0  0  0  0  0  0  0  0
    8.3386    2.0617   -0.0405 N   0  0  0  0  0  0  0  0  0  0  0  0
   -3.4546    1.0134    0.3260 C   0  0  1  0  0  0  0  0  0  0  0  0
   -2.3858   -0.0853    0.1953 C   0  0  0  0  0  0  0  0  0  0  0  0
   -2.8591    2.4318    0.4884 C   0  0  0  0  0  0  0  0  0  0  0  0
   -4.2762    0.7519    1.5685 C   0  0  0  0  0  0  0  0  0  0  0  0
   -1.0340    0.2581    0.1911 C   0  0  0  0  0  0  0  0  0  0  0  0
   -2.7661   -1.4225    0.0802 C   0  0  0  0  0  0  0  0  0  0  0  0
   -0.0623   -0.7355    0.0718 C   0  0  0  0  0  0  0  0  0  0  0  0
   -1.7944   -2.4162   -0.0389 C   0  0  0  0  0  0  0  0  0  0  0  0
   -0.4426   -2.0727   -0.0431 C   0  0  0  0  0  0  0  0  0  0  0  0
   -5.5961    0.5684    1.6192 C   0  0  0  0  0  0  0  0  0  0  0  0
   -5.4828    0.9363   -1.0656 C   0  0  0  0  0  0  0  0  0  0  0  0
    2.3963   -1.2451   -0.0436 C   0  0  0  0  0  0  0  0  0  0  0  0
    3.7218   -0.5723   -0.0464 C   0  0  0  0  0  0  0  0  0  0  0  0
    4.8839   -1.3194   -0.1511 C   0  0  0  0  0  0  0  0  0  0  0  0
    6.0971   -0.6399   -0.1502 C   0  0  0  0  0  0  0  0  0  0  0  0
    6.1107    0.7468   -0.0463 C   0  0  0  0  0  0  0  0  0  0  0  0
    4.8937    1.4015    0.0537 C   0  0  0  0  0  0  0  0  0  0  0  0
    7.3391    1.4719   -0.0430 C   0  0  0  0  0  0  0  0  0  0  0  0
   -2.2332    2.5243    1.3844 H   0  0  0  0  0  0  0  0  0  0  0  0
   -2.2654    2.7290   -0.3852 H   0  0  0  0  0  0  0  0  0  0  0  0
   -3.6585    3.1796    0.5797 H   0  0  0  0  0  0  0  0  0  0  0  0
   -3.7326    0.7141    2.5123 H   0  0  0  0  0  0  0  0  0  0  0  0
   -0.6953    1.2850    0.2769 H   0  0  0  0  0  0  0  0  0  0  0  0
   -2.0923   -3.4568   -0.1284 H   0  0  0  0  0  0  0  0  0  0  0  0
    0.2480   -2.8984   -0.1390 H   0  0  0  0  0  0  0  0  0  0  0  0
   -6.0674    0.3884    2.5797 H   0  0  0  0  0  0  0  0  0  0  0  0
    1.4879    0.6028    0.1506 H   0  0  0  0  0  0  0  0  0  0  0  0
   -5.5785    1.2095   -3.1300 H   0  0  0  0  0  0  0  0  0  0  0  0
   -7.1071    0.9011   -2.3725 H   0  0  0  0  0  0  0  0  0  0  0  0
    4.8762   -2.4010   -0.2322 H   0  0  0  0  0  0  0  0  0  0  0  0
    7.0233   -1.2033   -0.2312 H   0  0  0  0  0  0  0  0  0  0  0  0
    4.8358    2.4830    0.1375 H   0  0  0  0  0  0  0  0  0  0  0  0
  1 18  1  0  0  0  0
  1 19  1  0  0  0  0
  2 14  1  0  0  0  0
  3 20  2  0  0  0  0
  4  9  1  0  0  0  0
  4 19  2  0  0  0  0
  5 15  1  0  0  0  0
  5 20  1  0  0  0  0
  5 35  1  0  0  0  0
  6 19  1  0  0  0  0
  6 36  1  0  0  0  0
  6 37  1  0  0  0  0
  7 21  2  0  0  0  0
  7 25  1  0  0  0  0
  8 26  3  0  0  0  0
  9 10  1  0  0  0  0
  9 11  1  0  0  0  0
  9 12  1  0  0  0  0
 10 13  1  0  0  0  0
 10 14  2  0  0  0  0
 11 27  1  0  0  0  0
 11 28  1  0  0  0  0
 11 29  1  0  0  0  0
 12 18  2  0  0  0  0
 12 30  1  0  0  0  0
 13 15  2  0  0  0  0
 13 31  1  0  0  0  0
 14 16  1  0  0  0  0
 15 17  1  0  0  0  0
 16 17  2  0  0  0  0
 16 32  1  0  0  0  0
 17 33  1  0  0  0  0
 18 34  1  0  0  0  0
 20 21  1  0  0  0  0
 21 22  1  0  0  0  0
 22 23  2  0  0  0  0
 22 38  1  0  0  0  0
 23 24  1  0  0  0  0
 23 39  1  0  0  0  0
 24 25  2  0  0  0  0
 24 26  1  0  0  0  0
 25 40  1  0  0  0  0
M  END
> <DATABASE_ID>
DB15307

> <DATABASE_NAME>
drugbank

> <ORIGINAL_SOURCE>
PUBCHEM

> <ORIGINAL_SOURCE_URL>
https://pubchem.ncbi.nlm.nih.gov/rest/pug/compound/inchikey/VLLFGVHGKLDDLW-SFHVURJKSA-N/SDF?record_type=3d

> <SMILES>
C[C@]1(C=CSC(N)=N1)C1=CC(NC(=O)C2=NC=C(C=C2)C#N)=CC=C1F

> <INCHI_IDENTIFIER>
InChI=1S/C18H14FN5OS/c1-18(6-7-26-17(21)24-18)13-8-12(3-4-14(13)19)23-16(25)15-5-2-11(9-20)10-22-15/h2-8,10H,1H3,(H2,21,24)(H,23,25)/t18-/m0/s1

> <INCHI_KEY>
VLLFGVHGKLDDLW-SFHVURJKSA-N

> <FORMULA>
C18H14FN5OS

> <MOLECULAR_WEIGHT>
367.4

> <EXACT_MASS>
367.090309428

> <JCHEM_ACCEPTOR_COUNT>
5

> <JCHEM_ATOM_COUNT>
40

> <JCHEM_AVERAGE_POLARIZABILITY>
36.63915118291146

> <JCHEM_BIOAVAILABILITY>
1

> <JCHEM_DONOR_COUNT>
2

> <JCHEM_FORMAL_CHARGE>
0

> <JCHEM_GHOSE_FILTER>
1

> <JCHEM_IUPAC>
N-{3-[(4S)-2-amino-4-methyl-4H-1,3-thiazin-4-yl]-4-fluorophenyl}-5-cyanopyridine-2-carboxamide

> <ALOGPS_LOGP>
2.48

> <JCHEM_LOGP>
2.7018906960000004

> <ALOGPS_LOGS>
-4.34

> <JCHEM_MDDR_LIKE_RULE>
0

> <JCHEM_NUMBER_OF_RINGS>
3

> <JCHEM_PHYSIOLOGICAL_CHARGE>
1

> <JCHEM_PKA_STRONGEST_ACIDIC>
13.921844382634335

> <JCHEM_PKA_STRONGEST_BASIC>
7.1315427978357

> <JCHEM_POLAR_SURFACE_AREA>
104.16

> <JCHEM_REFRACTIVITY>
100.44480000000001

> <JCHEM_ROTATABLE_BOND_COUNT>
3

> <JCHEM_RULE_OF_FIVE>
1

> <ALOGPS_SOLUBILITY>
1.70e-02 g/l

> <JCHEM_TRADITIONAL_IUPAC>
(2R)-14-fluoro-2-methyl-6,9,10,19-tetraazapentacyclo[14.2.1.0^{2,6}.0^{8,18}.0^{12,17}]nonadeca-1(18),8,12(17),13,15-pentaen-11-one

> <JCHEM_VEBER_RULE>
0

> <DRUGBANK_ID>
DB15307

> <DRUG_GROUPS>
investigational

> <GENERIC_NAME>
Atabecestat

> <SYNONYMS>
JNJ-54861911

$$$$
