REMARK  Name = 71262247
REMARK  3 active torsions:
REMARK  status: ('A' for Active; 'I' for Inactive)
REMARK    1  A    between atoms: N_4  and  C_27
REMARK    2  A    between atoms: C_27  and  C_29
REMARK    3  A    between atoms: C_29  and  N_32
REMARK                            x       y       z     vdW  Elec       q    Type
REMARK                         _______ _______ _______ _____ _____    ______ ____
ROOT
ATOM      1  S   UNL     1       4.645   0.533  -0.371  0.00  0.00    +0.010 S 
ATOM      2  O   UNL     1       5.328   0.644  -1.648  0.00  0.00    -0.169 OA
ATOM      3  O   UNL     1       5.413   0.400   0.851  0.00  0.00    -0.169 OA
ATOM      4  N   UNL     1      -2.402  -0.652   0.444  0.00  0.00    -0.312 N 
ATOM      5  N   UNL     1       1.861   1.098   1.273  0.00  0.00    -0.228 N 
ATOM      6  N   UNL     1      -0.258   0.221   0.862  0.00  0.00    -0.317 NA
ATOM      7  N   UNL     1       0.216   2.553   0.483  0.00  0.00    -0.332 NA
ATOM      8  C   UNL     1       2.893   2.122   1.085  0.00  0.00    +0.129 C 
ATOM      9  C   UNL     1       3.589   1.961  -0.258  0.00  0.00    +0.178 C 
ATOM     10  C   UNL     1       2.346  -0.218   1.701  0.00  0.00    +0.131 C 
ATOM     11  C   UNL     1      -1.518   0.456   0.452  0.00  0.00    +0.181 C 
ATOM     12  C   UNL     1       2.594  -1.124   0.518  0.00  0.00    +0.015 C 
ATOM     13  C   UNL     1       3.567  -0.875  -0.465  0.00  0.00    +0.103 C 
ATOM     14  C   UNL     1       0.544   1.298   0.853  0.00  0.00    +0.204 C 
ATOM     15  C   UNL     1      -1.983   1.703   0.045  0.00  0.00    +0.142 C 
ATOM     16  C   UNL     1      -1.051   2.752   0.079  0.00  0.00    +0.134 C 
ATOM     17  C   UNL     1       1.806  -2.281   0.389  0.00  0.00    -0.001 C 
ATOM     18  C   UNL     1       3.739  -1.754  -1.540  0.00  0.00    +0.018 C 
ATOM     19  C   UNL     1      -3.305   1.923  -0.380  0.00  0.00    -0.015 C 
ATOM     20  C   UNL     1       1.974  -3.155  -0.686  0.00  0.00    -0.000 C 
ATOM     21  C   UNL     1       2.939  -2.890  -1.650  0.00  0.00    +0.001 C 
ATOM     22  C   UNL     1      -1.479   4.016  -0.321  0.00  0.00    +0.029 C 
ATOM     23  C   UNL     1      -3.706   3.196  -0.774  0.00  0.00    -0.025 C 
ATOM     24  C   UNL     1      -2.792   4.243  -0.745  0.00  0.00    -0.002 C 
ATOM     25  C   UNL     1      -5.107   3.436  -1.224  0.00  0.00    +0.031 C 
ATOM     26  H   UNL     1      -3.372  -0.482   0.444  0.00  0.00    +0.149 HD
ENDROOT
BRANCH   4  27
ATOM     27  C   UNL     1      -1.944  -2.003   0.436  0.00  0.00    +0.074 C 
BRANCH  27  29
ATOM     28  O   UNL     1      -3.927  -4.339  -0.961  0.00  0.00    -0.358 OA
ATOM     29  C   UNL     1      -3.118  -2.967   0.461  0.00  0.00    +0.025 C 
ATOM     30  C   UNL     1      -4.125  -2.934  -0.683  0.00  0.00    +0.126 C 
ATOM     31  C   UNL     1      -2.894  -4.417   0.047  0.00  0.00    +0.126 C 
BRANCH  29  32
ATOM     32  N   UNL     1      -3.842  -2.946   1.724  0.00  0.00    +0.387 N 
ATOM     33  H   UNL     1      -4.616  -3.610   1.684  0.00  0.00    -0.089 HD
ATOM     34  H   UNL     1      -4.207  -2.009   1.892  0.00  0.00    -0.089 HD
ATOM     35  H   UNL     1      -3.211  -3.206   2.482  0.00  0.00    -0.089 HD
ENDBRANCH  29  32
ENDBRANCH  27  29
ENDBRANCH   4  27
TORSDOF 3
