REMARK  Name = 24745335
REMARK  3 active torsions:
REMARK  status: ('A' for Active; 'I' for Inactive)
REMARK    1  A    between atoms: N_1  and  C_21
REMARK    2  A    between atoms: C_13  and  N_17
REMARK    3  A    between atoms: C_21  and  C_22
REMARK                            x       y       z     vdW  Elec       q    Type
REMARK                         _______ _______ _______ _____ _____    ______ ____
ROOT
ATOM      1  N   UNL     1      -2.988   0.451  -0.229  0.00  0.00    -0.311 N 
ATOM      2  N   UNL     1       0.900   1.869   0.010  0.00  0.00    -0.317 NA
ATOM      3  N   UNL     1      -1.473   2.280  -0.070  0.00  0.00    -0.317 NA
ATOM      4  N   UNL     1       0.053   4.056   0.086  0.00  0.00    -0.283 N 
ATOM      5  C   UNL     1       0.636   0.548  -0.070  0.00  0.00    +0.182 C 
ATOM      6  C   UNL     1      -1.664   0.947  -0.147  0.00  0.00    +0.179 C 
ATOM      7  C   UNL     1      -0.638   0.024  -0.152  0.00  0.00    +0.151 C 
ATOM      8  C   UNL     1      -0.185   2.666   0.004  0.00  0.00    +0.198 C 
ATOM      9  H   UNL     1      -3.734   1.093  -0.227  0.00  0.00    +0.149 HD
ATOM     10  H   UNL     1       0.976   4.394   0.142  0.00  0.00    +0.156 HD
ATOM     11  H   UNL     1      -0.703   4.686   0.086  0.00  0.00    +0.156 HD
ATOM     12  N   UNL     1       1.690  -0.341  -0.071  0.00  0.00    -0.288 N 
ATOM     13  C   UNL     1       3.818  -1.268   0.303  0.00  0.00    -0.040 C 
ATOM     14  C   UNL     1       2.956  -2.292  -0.428  0.00  0.00    +0.002 C 
ATOM     15  C   UNL     1       3.097   0.051   0.003  0.00  0.00    +0.072 C 
ATOM     16  C   UNL     1       1.538  -1.793  -0.153  0.00  0.00    +0.091 C 
ENDROOT
BRANCH  13  17
ATOM     17  N   UNL     1       5.205  -1.282  -0.129  0.00  0.00    +0.385 N 
ATOM     18  C   UNL     1       5.988  -0.282   0.587  0.00  0.00    -0.105 C 
ATOM     19  H   UNL     1       5.245  -1.083  -1.129  0.00  0.00    -0.084 HD
ATOM     20  H   UNL     1       5.596  -2.203   0.069  0.00  0.00    -0.084 HD
ENDBRANCH  13  17
BRANCH   1  21
ATOM     21  C   UNL     1      -3.285  -0.943  -0.313  0.00  0.00    +0.089 C 
BRANCH  21  22
ATOM     22  C   UNL     1      -4.761  -1.166  -0.363  0.00  0.00    +0.020 C 
ATOM     23  C   UNL     1      -5.555  -1.104   0.908  0.00  0.00    +0.002 C 
ATOM     24  C   UNL     1      -5.333  -2.422   0.225  0.00  0.00    +0.002 C 
ENDBRANCH  21  22
ENDBRANCH   1  21
TORSDOF 3
