REMARK  Name = 52913524
REMARK  9 active torsions:
REMARK  status: ('A' for Active; 'I' for Inactive)
REMARK    1  A    between atoms: C_1  and  C_10
REMARK    2  A    between atoms: C_4  and  C_24
REMARK    3  A    between atoms: C_5  and  C_22
REMARK    4  A    between atoms: C_8  and  O_13
REMARK    5  A    between atoms: C_9  and  O_15
REMARK    6  A    between atoms: C_11  and  O_17
REMARK    7  A    between atoms: C_12  and  C_19
REMARK    8  A    between atoms: C_19  and  O_20
REMARK    9  A    between atoms: C_24  and  C_27
REMARK                            x       y       z     vdW  Elec       q    Type
REMARK                         _______ _______ _______ _____ _____    ______ ____
ROOT
ATOM      1  C   UNL     1       1.600  -1.329   0.603  0.00  0.00    +0.007 C 
ATOM      2  C   UNL     1       0.595  -1.188  -0.354  0.00  0.00    -0.006 C 
ATOM      3  C   UNL     1       1.459  -2.261   1.631  0.00  0.00    -0.002 C 
ATOM      4  C   UNL     1      -0.552  -1.979  -0.282  0.00  0.00    -0.022 C 
ATOM      5  C   UNL     1      -0.693  -2.911   0.747  0.00  0.00    -0.026 C 
ATOM      6  C   UNL     1       0.312  -3.052   1.703  0.00  0.00    -0.005 C 
ENDROOT
BRANCH   1  10
ATOM      7  O   UNL     1       2.446   0.894   0.687  0.00  0.00    -0.347 OA
ATOM      8  C   UNL     1       3.596  -0.665  -0.803  0.00  0.00    +0.171 C 
ATOM      9  C   UNL     1       4.757   0.326  -0.928  0.00  0.00    +0.169 C 
ATOM     10  C   UNL     1       2.847  -0.470   0.524  0.00  0.00    +0.167 C 
ATOM     11  C   UNL     1       4.309   1.751  -0.606  0.00  0.00    +0.169 C 
ATOM     12  C   UNL     1       3.553   1.796   0.723  0.00  0.00    +0.174 C 
BRANCH   8  13
ATOM     13  O   UNL     1       4.113  -1.994  -0.846  0.00  0.00    -0.379 OA
ATOM     14  H   UNL     1       4.589  -2.130  -1.680  0.00  0.00    +0.211 HD
ENDBRANCH   8  13
BRANCH   9  15
ATOM     15  O   UNL     1       5.252   0.311  -2.268  0.00  0.00    -0.379 OA
ATOM     16  H   UNL     1       5.543  -0.586  -2.495  0.00  0.00    +0.211 HD
ENDBRANCH   9  15
BRANCH  11  17
ATOM     17  O   UNL     1       5.453   2.597  -0.524  0.00  0.00    -0.379 OA
ATOM     18  H   UNL     1       5.935   2.571  -1.366  0.00  0.00    +0.211 HD
ENDBRANCH  11  17
BRANCH  12  19
ATOM     19  C   UNL     1       2.999   3.188   1.012  0.00  0.00    +0.169 C 
BRANCH  19  20
ATOM     20  O   UNL     1       2.307   3.150   2.246  0.00  0.00    -0.379 OA
ATOM     21  H   UNL     1       1.949   4.030   2.443  0.00  0.00    +0.211 HD
ENDBRANCH  19  20
ENDBRANCH  12  19
ENDBRANCH   1  10
BRANCH   5  22
ATOM     22  C   UNL     1      -1.912  -3.768   0.845  0.00  0.00    +0.026 C 
ATOM     23  C   UNL     1      -1.658  -5.193   0.364  0.00  0.00    +0.005 C 
ENDBRANCH   5  22
BRANCH   4  24
ATOM     24  C   UNL     1      -1.615  -1.810  -1.317  0.00  0.00    +0.052 C 
BRANCH  24  27
ATOM     25  O   UNL     1      -2.810   2.732  -0.001  0.00  0.00    -0.468 OA
ATOM     26  O   UNL     1      -5.601   2.009  -0.009  0.00  0.00    -0.468 OA
ATOM     27  C   UNL     1      -2.665  -0.780  -0.955  0.00  0.00    -0.015 C 
ATOM     28  C   UNL     1      -2.282   0.526  -0.650  0.00  0.00    +0.036 C 
ATOM     29  C   UNL     1      -4.013  -1.140  -0.921  0.00  0.00    -0.001 C 
ATOM     30  C   UNL     1      -3.250   1.471  -0.310  0.00  0.00    +0.172 C 
ATOM     31  C   UNL     1      -4.601   1.118  -0.303  0.00  0.00    +0.172 C 
ATOM     32  C   UNL     1      -4.982  -0.192  -0.594  0.00  0.00    +0.040 C 
ATOM     33  C   UNL     1      -3.820   3.503   0.656  0.00  0.00    +0.253 C 
ATOM     34  C   UNL     1      -5.143   3.362  -0.070  0.00  0.00    +0.253 C 
ENDBRANCH  24  27
ENDBRANCH   4  24
TORSDOF 9
