REMARK  Name = 90008
REMARK  10 active torsions:
REMARK  status: ('A' for Active; 'I' for Inactive)
REMARK    1  A    between atoms: C_1  and  O_2
REMARK    2  A    between atoms: C_1  and  C_4
REMARK    3  A    between atoms: C_1  and  C_10
REMARK    4  A    between atoms: C_4  and  O_5
REMARK    5  A    between atoms: C_4  and  C_7
REMARK    6  A    between atoms: C_7  and  O_8
REMARK    7  A    between atoms: C_10  and  O_11
REMARK    8  A    between atoms: C_10  and  C_14
REMARK    9  A    between atoms: C_14  and  C_15
REMARK   10  A    between atoms: C_15  and  O_16
REMARK                            x       y       z     vdW  Elec       q    Type
REMARK                         _______ _______ _______ _____ _____    ______ ____
ROOT
ATOM      1  C   UNL     1      -0.616  -1.046   0.158  0.00  0.00    +0.174 C 
ENDROOT
BRANCH   1   2
ATOM      2  O   UNL     1      -0.569  -1.650  -1.132  0.00  0.00    -0.379 OA
ATOM      3  H   UNL     1      -1.471  -1.749  -1.475  0.00  0.00    +0.211 HD
ENDBRANCH   1   2
BRANCH   1   4
ATOM      4  C   UNL     1      -1.464   0.238   0.104  0.00  0.00    +0.169 C 
BRANCH   4   5
ATOM      5  O   UNL     1      -1.607   0.782   1.416  0.00  0.00    -0.379 OA
ATOM      6  H   UNL     1      -0.729   0.959   1.790  0.00  0.00    +0.211 HD
ENDBRANCH   4   5
BRANCH   4   7
ATOM      7  C   UNL     1      -2.864  -0.027  -0.451  0.00  0.00    +0.169 C 
BRANCH   7   8
ATOM      8  O   UNL     1      -3.579   1.204  -0.502  0.00  0.00    -0.379 OA
ATOM      9  H   UNL     1      -4.469   1.046  -0.854  0.00  0.00    +0.211 HD
ENDBRANCH   7   8
ENDBRANCH   4   7
ENDBRANCH   1   4
BRANCH   1  10
ATOM     10  C   UNL     1       0.802  -0.878   0.724  0.00  0.00    +0.200 C 
BRANCH  10  11
ATOM     11  O   UNL     1       1.419  -2.159   0.754  0.00  0.00    -0.375 OA
ATOM     12  H   UNL     1       0.855  -2.779   1.243  0.00  0.00    +0.211 HD
ENDBRANCH  10  11
BRANCH  10  14
ATOM     13  O   UNL     1       2.368  -0.313  -1.023  0.00  0.00    -0.291 OA
ATOM     14  C   UNL     1       1.714   0.071  -0.051  0.00  0.00    +0.209 C 
BRANCH  14  15
ATOM     15  C   UNL     1       1.754   1.516   0.405  0.00  0.00    +0.205 C 
BRANCH  15  16
ATOM     16  O   UNL     1       2.641   2.264  -0.402  0.00  0.00    -0.375 OA
ATOM     17  H   UNL     1       2.656   3.185  -0.098  0.00  0.00    +0.211 HD
ENDBRANCH  15  16
ENDBRANCH  14  15
ENDBRANCH  10  14
ENDBRANCH   1  10
TORSDOF 10
