REMARK  Name = 5280445
REMARK  5 active torsions:
REMARK  status: ('A' for Active; 'I' for Inactive)
REMARK    1  A    between atoms: C_5  and  C_12
REMARK    2  A    between atoms: C_8  and  O_22
REMARK    3  A    between atoms: C_10  and  O_24
REMARK    4  A    between atoms: C_15  and  O_18
REMARK    5  A    between atoms: C_17  and  O_20
REMARK                            x       y       z     vdW  Elec       q    Type
REMARK                         _______ _______ _______ _____ _____    ______ ____
ROOT
ATOM      1  O   UNL     1      -0.248   0.671  -0.129  0.00  0.00    -0.453 OA
ATOM      2  O   UNL     1      -2.109  -2.925   0.329  0.00  0.00    -0.286 OA
ATOM      3  C   UNL     1      -2.317  -0.586   0.062  0.00  0.00    +0.107 C 
ATOM      4  C   UNL     1      -1.618   0.610  -0.093  0.00  0.00    +0.154 C 
ATOM      5  C   UNL     1       0.470  -0.508   0.003  0.00  0.00    +0.149 C 
ATOM      6  C   UNL     1      -1.560  -1.840   0.193  0.00  0.00    +0.205 C 
ATOM      7  C   UNL     1      -0.088  -1.720   0.151  0.00  0.00    +0.080 C 
ATOM      8  C   UNL     1      -3.714  -0.588   0.091  0.00  0.00    +0.143 C 
ATOM      9  C   UNL     1      -2.312   1.813  -0.221  0.00  0.00    +0.074 C 
ATOM     10  C   UNL     1      -3.707   1.814  -0.193  0.00  0.00    +0.140 C 
ATOM     11  C   UNL     1      -4.406   0.617  -0.037  0.00  0.00    +0.073 C 
ENDROOT
BRANCH   5  12
ATOM     12  C   UNL     1       1.935  -0.329  -0.055  0.00  0.00    +0.038 C 
ATOM     13  C   UNL     1       2.516   0.854   0.407  0.00  0.00    +0.043 C 
ATOM     14  C   UNL     1       2.745  -1.342  -0.573  0.00  0.00    +0.006 C 
ATOM     15  C   UNL     1       3.899   1.023   0.352  0.00  0.00    +0.168 C 
ATOM     16  C   UNL     1       4.129  -1.173  -0.628  0.00  0.00    +0.040 C 
ATOM     17  C   UNL     1       4.706   0.009  -0.165  0.00  0.00    +0.167 C 
BRANCH  15  18
ATOM     18  O   UNL     1       4.452   2.183   0.806  0.00  0.00    -0.503 OA
ATOM     19  H   UNL     1       3.903   2.859   1.152  0.00  0.00    +0.292 HD
ENDBRANCH  15  18
BRANCH  17  20
ATOM     20  O   UNL     1       6.058   0.162  -0.223  0.00  0.00    -0.503 OA
ATOM     21  H   UNL     1       6.454   0.953   0.086  0.00  0.00    +0.292 HD
ENDBRANCH  17  20
ENDBRANCH   5  12
BRANCH   8  22
ATOM     22  O   UNL     1      -4.443  -1.729   0.240  0.00  0.00    -0.505 OA
ATOM     23  H   UNL     1      -4.008  -2.555   0.329  0.00  0.00    +0.292 HD
ENDBRANCH   8  22
BRANCH  10  24
ATOM     24  O   UNL     1      -4.388   2.987  -0.318  0.00  0.00    -0.505 OA
ATOM     25  H   UNL     1      -3.919   3.791  -0.423  0.00  0.00    +0.292 HD
ENDBRANCH  10  24
TORSDOF 5
