REMARK  Name = 19392
REMARK  5 active torsions:
REMARK  status: ('A' for Active; 'I' for Inactive)
REMARK    1  A    between atoms: N_2  and  C_15
REMARK    2  A    between atoms: C_15  and  C_16
REMARK    3  A    between atoms: C_16  and  N_17
REMARK    4  A    between atoms: C_16  and  C_21
REMARK    5  A    between atoms: C_21  and  N_22
REMARK                            x       y       z     vdW  Elec       q    Type
REMARK                         _______ _______ _______ _____ _____    ______ ____
ROOT
ATOM      1  S   UNL     1       2.651   0.842  -1.440  0.00  0.00    -0.084 S 
ATOM      2  N   UNL     1       0.525  -0.006   0.664  0.00  0.00    -0.288 N 
ATOM      3  C   UNL     1       1.532  -0.965   0.386  0.00  0.00    +0.058 C 
ATOM      4  C   UNL     1       0.643   1.389   0.436  0.00  0.00    +0.058 C 
ATOM      5  C   UNL     1       2.564  -0.688  -0.532  0.00  0.00    +0.043 C 
ATOM      6  C   UNL     1       1.587   1.898  -0.476  0.00  0.00    +0.043 C 
ATOM      7  C   UNL     1       1.571  -2.218   1.036  0.00  0.00    +0.015 C 
ATOM      8  C   UNL     1      -0.147   2.329   1.133  0.00  0.00    +0.015 C 
ATOM      9  C   UNL     1       3.565  -1.640  -0.798  0.00  0.00    +0.008 C 
ATOM     10  C   UNL     1       1.706   3.283  -0.692  0.00  0.00    +0.008 C 
ATOM     11  C   UNL     1       2.571  -3.158   0.771  0.00  0.00    +0.001 C 
ATOM     12  C   UNL     1      -0.022   3.704   0.919  0.00  0.00    +0.001 C 
ATOM     13  C   UNL     1       3.567  -2.870  -0.149  0.00  0.00    +0.001 C 
ATOM     14  C   UNL     1       0.903   4.182   0.004  0.00  0.00    +0.001 C 
ENDROOT
BRANCH   2  15
ATOM     15  C   UNL     1      -0.708  -0.486   1.301  0.00  0.00    +0.073 C 
BRANCH  15  16
ATOM     16  C   UNL     1      -1.934  -0.226   0.413  0.00  0.00    -0.059 C 
BRANCH  16  17
ATOM     17  N   UNL     1      -3.122  -0.722   1.119  0.00  0.00    +0.385 N 
ATOM     18  C   UNL     1      -3.261  -0.049   2.408  0.00  0.00    -0.101 C 
ATOM     19  C   UNL     1      -3.037  -2.168   1.299  0.00  0.00    -0.101 C 
ATOM     20  H   UNL     1      -3.949  -0.515   0.558  0.00  0.00    -0.080 HD
ENDBRANCH  16  17
BRANCH  16  21
ATOM     21  C   UNL     1      -1.871  -0.932  -0.956  0.00  0.00    -0.097 C 
BRANCH  21  22
ATOM     22  N   UNL     1      -3.063  -0.722  -1.772  0.00  0.00    +0.383 N 
ATOM     23  C   UNL     1      -2.970  -1.479  -3.021  0.00  0.00    -0.101 C 
ATOM     24  C   UNL     1      -3.249   0.702  -2.053  0.00  0.00    -0.101 C 
ATOM     25  H   UNL     1      -3.872  -1.057  -1.250  0.00  0.00    -0.080 HD
ENDBRANCH  21  22
ENDBRANCH  16  21
ENDBRANCH  15  16
ENDBRANCH   2  15
TORSDOF 5
