REMARK  Name = 51049992
REMARK  10 active torsions:
REMARK  status: ('A' for Active; 'I' for Inactive)
REMARK    1  A    between atoms: C_1  and  C_7
REMARK    2  A    between atoms: C_6  and  C_23
REMARK    3  A    between atoms: C_7  and  N_8
REMARK    4  A    between atoms: C_23  and  O_24
REMARK    5  A    between atoms: O_24  and  C_25
REMARK    6  A    between atoms: C_26  and  C_31
REMARK    7  A    between atoms: C_31  and  C_32
REMARK    8  A    between atoms: C_31  and  C_35
REMARK    9  A    between atoms: C_35  and  C_37
REMARK   10  A    between atoms: C_37  and  O_38
REMARK                            x       y       z     vdW  Elec       q    Type
REMARK                         _______ _______ _______ _____ _____    ______ ____
ROOT
ATOM      1  C   UNL     1      -1.937  -2.697   0.044  0.00  0.00    -0.043 C 
ATOM      2  C   UNL     1      -1.131  -2.934  -1.070  0.00  0.00    -0.007 C 
ATOM      3  C   UNL     1      -1.375  -2.185   1.214  0.00  0.00    -0.007 C 
ATOM      4  C   UNL     1       0.235  -2.659  -1.014  0.00  0.00    -0.001 C 
ATOM      5  C   UNL     1      -0.009  -1.910   1.270  0.00  0.00    -0.001 C 
ATOM      6  C   UNL     1       0.796  -2.147   0.156  0.00  0.00    +0.021 C 
ENDROOT
BRANCH   1   7
ATOM      7  C   UNL     1      -3.411  -2.994  -0.017  0.00  0.00    -0.050 C 
BRANCH   7   8
ATOM      8  N   UNL     1      -4.218  -1.804   0.255  0.00  0.00    +0.390 N 
ATOM      9  C   UNL     1      -6.456   0.073  -0.141  0.00  0.00    +0.033 C 
ATOM     10  C   UNL     1      -6.419  -0.953   1.006  0.00  0.00    -0.015 C 
ATOM     11  C   UNL     1      -5.025   0.364  -0.629  0.00  0.00    -0.015 C 
ATOM     12  C   UNL     1      -4.237  -0.918  -0.917  0.00  0.00    -0.076 C 
ATOM     13  C   UNL     1      -5.578  -2.186   0.656  0.00  0.00    -0.076 C 
ATOM     14  C   UNL     1      -7.182   1.340   0.261  0.00  0.00    -0.019 C 
ATOM     15  C   UNL     1      -7.355  -0.394  -1.285  0.00  0.00    -0.023 C 
ATOM     16  C   UNL     1      -8.308   1.519  -0.557  0.00  0.00    -0.004 C 
ATOM     17  C   UNL     1      -8.392   0.428  -1.508  0.00  0.00    -0.005 C 
ATOM     18  C   UNL     1      -6.878   2.253   1.258  0.00  0.00    -0.004 C 
ATOM     19  C   UNL     1      -9.149   2.608  -0.396  0.00  0.00    -0.000 C 
ATOM     20  C   UNL     1      -7.720   3.355   1.428  0.00  0.00    -0.000 C 
ATOM     21  C   UNL     1      -8.846   3.531   0.608  0.00  0.00    -0.000 C 
ATOM     22  H   UNL     1      -3.796  -1.291   1.028  0.00  0.00    -0.079 HD
ENDBRANCH   7   8
ENDBRANCH   1   7
BRANCH   6  23
ATOM     23  C   UNL     1       2.256  -1.850   0.215  0.00  0.00    +0.232 C 
BRANCH  23  24
ATOM     24  O   UNL     1       2.456  -0.443   0.141  0.00  0.00    -0.471 OA
BRANCH  24  25
ATOM     25  C   UNL     1       3.753  -0.003   0.144  0.00  0.00    +0.139 C 
ATOM     26  C   UNL     1       6.395   0.893   0.147  0.00  0.00    -0.010 C 
ATOM     27  C   UNL     1       4.027   1.363   0.074  0.00  0.00    +0.037 C 
ATOM     28  C   UNL     1       4.801  -0.921   0.215  0.00  0.00    +0.037 C 
ATOM     29  C   UNL     1       5.348   1.811   0.076  0.00  0.00    -0.000 C 
ATOM     30  C   UNL     1       6.122  -0.473   0.216  0.00  0.00    -0.000 C 
BRANCH  26  31
ATOM     31  C   UNL     1       7.808   1.371   0.149  0.00  0.00    +0.097 C 
BRANCH  31  32
ATOM     32  C   UNL     1       8.508   1.012   1.413  0.00  0.00    -0.087 C 
ATOM     33  C   UNL     1       9.086   0.715   2.424  0.00  0.00    -0.090 C 
ATOM     34  C   UNL     1       9.788   0.351   3.653  0.00  0.00    +0.090 C 
ENDBRANCH  31  32
BRANCH  31  35
ATOM     35  C   UNL     1       8.611   0.844  -1.071  0.00  0.00    +0.127 C 
BRANCH  35  37
ATOM     36  O   UNL     1       7.288   2.160  -2.644  0.00  0.00    -0.250 OA
ATOM     37  C   UNL     1       7.999   1.192  -2.414  0.00  0.00    +0.315 C 
BRANCH  37  38
ATOM     38  O   UNL     1       8.351   0.288  -3.366  0.00  0.00    -0.480 OA
ATOM     39  H   UNL     1       8.898  -0.438  -3.143  0.00  0.00    +0.295 HD
ENDBRANCH  37  38
ENDBRANCH  35  37
ENDBRANCH  31  35
ENDBRANCH  26  31
ENDBRANCH  24  25
ENDBRANCH  23  24
ENDBRANCH   6  23
TORSDOF 10
