REMARK  Name = 22565
REMARK  6 active torsions:
REMARK  status: ('A' for Active; 'I' for Inactive)
REMARK    1  A    between atoms: C_1  and  C_2
REMARK    2  A    between atoms: C_1  and  C_8
REMARK    3  A    between atoms: C_1  and  C_16
REMARK    4  A    between atoms: C_1  and  C_19
REMARK    5  A    between atoms: C_19  and  C_20
REMARK    6  A    between atoms: C_20  and  N_22
REMARK                            x       y       z     vdW  Elec       q    Type
REMARK                         _______ _______ _______ _____ _____    ______ ____
ROOT
ATOM      1  C   UNL     1       0.131  -0.268   0.040  0.00  0.00    +0.104 C 
ENDROOT
BRANCH   1   2
ATOM      2  C   UNL     1       0.124   1.288  -0.055  0.00  0.00    -0.011 C 
ATOM      3  C   UNL     1      -0.016   1.844  -1.291  0.00  0.00    -0.004 C 
ATOM      4  C   UNL     1       0.259   1.990   1.105  0.00  0.00    -0.004 C 
ATOM      5  C   UNL     1      -0.022   3.236  -1.375  0.00  0.00    -0.000 C 
ATOM      6  C   UNL     1       0.253   3.382   1.020  0.00  0.00    -0.000 C 
ATOM      7  C   UNL     1       0.113   4.005  -0.220  0.00  0.00    -0.000 C 
ENDBRANCH   1   2
BRANCH   1   8
ATOM      8  C   UNL     1       1.618  -0.697  -0.106  0.00  0.00    -0.011 C 
ATOM      9  C   UNL     1       2.506  -0.229   0.818  0.00  0.00    -0.004 C 
ATOM     10  C   UNL     1       1.943  -1.515  -1.148  0.00  0.00    -0.004 C 
ATOM     11  C   UNL     1       3.840  -0.613   0.688  0.00  0.00    -0.000 C 
ATOM     12  C   UNL     1       3.278  -1.900  -1.278  0.00  0.00    -0.000 C 
ATOM     13  C   UNL     1       4.226  -1.449  -0.360  0.00  0.00    -0.000 C 
ENDBRANCH   1   8
BRANCH   1  16
ATOM     14  O   UNL     1      -1.325  -0.066   2.025  0.00  0.00    -0.275 OA
ATOM     15  N   UNL     1      -0.013  -1.924   1.885  0.00  0.00    -0.328 N 
ATOM     16  C   UNL     1      -0.510  -0.734   1.388  0.00  0.00    +0.226 C 
ATOM     17  H   UNL     1      -0.362  -2.288   2.730  0.00  0.00    +0.145 HD
ATOM     18  H   UNL     1       0.689  -2.408   1.393  0.00  0.00    +0.145 HD
ENDBRANCH   1  16
BRANCH   1  19
ATOM     19  C   UNL     1      -0.818  -0.920  -1.055  0.00  0.00    -0.004 C 
BRANCH  19  20
ATOM     20  C   UNL     1      -2.327  -0.558  -1.021  0.00  0.00    -0.057 C 
ATOM     21  C   UNL     1      -3.070  -1.307  -2.132  0.00  0.00    -0.023 C 
BRANCH  20  22
ATOM     22  N   UNL     1      -2.954  -0.865   0.261  0.00  0.00    +0.385 N 
ATOM     23  C   UNL     1      -2.896  -2.302   0.530  0.00  0.00    -0.101 C 
ATOM     24  C   UNL     1      -4.341  -0.399   0.280  0.00  0.00    -0.101 C 
ATOM     25  H   UNL     1      -2.439  -0.378   0.995  0.00  0.00    -0.080 HD
ENDBRANCH  20  22
ENDBRANCH  19  20
ENDBRANCH   1  19
TORSDOF 6
