REMARK  Name = 37907
REMARK  5 active torsions:
REMARK  status: ('A' for Active; 'I' for Inactive)
REMARK    1  A    between atoms: C_1  and  N_2
REMARK    2  A    between atoms: C_1  and  C_8
REMARK    3  A    between atoms: C_1  and  O_13
REMARK    4  A    between atoms: C_8  and  C_9
REMARK    5  A    between atoms: O_13  and  C_15
REMARK                            x       y       z     vdW  Elec       q    Type
REMARK                         _______ _______ _______ _____ _____    ______ ____
ROOT
ATOM      1  C   UNL     1       0.816   0.286  -0.315  0.00  0.00    +0.308 C 
ENDROOT
BRANCH   1   2
ATOM      2  N   UNL     1       2.124   0.955  -0.214  0.00  0.00    -0.228 N 
ATOM      3  N   UNL     1       4.047   1.804  -0.838  0.00  0.00    -0.225 NA
ATOM      4  C   UNL     1       2.672   1.426   0.924  0.00  0.00    +0.091 C 
ATOM      5  C   UNL     1       2.959   1.191  -1.248  0.00  0.00    +0.171 C 
ATOM      6  C   UNL     1       3.875   1.953   0.516  0.00  0.00    +0.117 C 
ENDBRANCH   1   2
BRANCH   1   8
ATOM      7  O   UNL     1       0.401  -0.866   1.751  0.00  0.00    -0.290 OA
ATOM      8  C   UNL     1       0.762  -0.967   0.573  0.00  0.00    +0.210 C 
BRANCH   8   9
ATOM      9  C   UNL     1       1.208  -2.335   0.005  0.00  0.00    +0.057 C 
ATOM     10  C   UNL     1       2.676  -2.246  -0.430  0.00  0.00    +0.008 C 
ATOM     11  C   UNL     1       0.343  -2.808  -1.169  0.00  0.00    +0.008 C 
ATOM     12  C   UNL     1       1.087  -3.383   1.130  0.00  0.00    +0.008 C 
ENDBRANCH   8   9
ENDBRANCH   1   8
BRANCH   1  13
ATOM     13  O   UNL     1      -0.148   1.258   0.088  0.00  0.00    -0.453 OA
BRANCH  13  15
ATOM     14 CL   UNL     1      -5.855  -0.072  -0.275  0.00  0.00    -0.082 Cl
ATOM     15  C   UNL     1      -1.478   0.948   0.003  0.00  0.00    +0.141 C 
ATOM     16  C   UNL     1      -1.919   0.064  -0.976  0.00  0.00    +0.038 C 
ATOM     17  C   UNL     1      -2.378   1.520   0.896  0.00  0.00    +0.038 C 
ATOM     18  C   UNL     1      -3.275  -0.252  -1.063  0.00  0.00    +0.015 C 
ATOM     19  C   UNL     1      -3.734   1.205   0.810  0.00  0.00    +0.015 C 
ATOM     20  C   UNL     1      -4.182   0.319  -0.170  0.00  0.00    +0.058 C 
ENDBRANCH  13  15
ENDBRANCH   1  13
TORSDOF 5
