REMARK  Name = 52913813
REMARK  5 active torsions:
REMARK  status: ('A' for Active; 'I' for Inactive)
REMARK    1  A    between atoms: C_3  and  C_23
REMARK    2  A    between atoms: C_5  and  N_13
REMARK    3  A    between atoms: C_9  and  C_20
REMARK    4  A    between atoms: C_23  and  N_25
REMARK    5  A    between atoms: N_25  and  C_29
REMARK                            x       y       z     vdW  Elec       q    Type
REMARK                         _______ _______ _______ _____ _____    ______ ____
ROOT
ATOM      1  O   UNL     1      -0.797   1.188  -0.497  0.00  0.00    -0.440 OA
ATOM      2  O   UNL     1       1.163   3.409   2.293  0.00  0.00    -0.286 OA
ATOM      3  C   UNL     1       1.128  -0.109  -0.929  0.00  0.00    +0.030 C 
ATOM      4  C   UNL     1       0.521   0.928  -0.220  0.00  0.00    +0.147 C 
ATOM      5  C   UNL     1      -1.441   2.214   0.185  0.00  0.00    +0.202 C 
ATOM      6  C   UNL     1       1.253   1.648   0.721  0.00  0.00    +0.074 C 
ATOM      7  C   UNL     1       2.467  -0.422  -0.691  0.00  0.00    +0.005 C 
ATOM      8  C   UNL     1      -0.830   2.970   1.113  0.00  0.00    +0.096 C 
ATOM      9  C   UNL     1       3.198   0.301   0.252  0.00  0.00    +0.054 C 
ATOM     10  C   UNL     1       0.587   2.734   1.452  0.00  0.00    +0.203 C 
ATOM     11  C   UNL     1       2.594   1.339   0.962  0.00  0.00    +0.011 C 
ENDROOT
BRANCH   5  13
ATOM     12  O   UNL     1      -5.504   2.123  -0.600  0.00  0.00    -0.350 OA
ATOM     13  N   UNL     1      -2.747   2.395  -0.161  0.00  0.00    -0.274 N 
ATOM     14  C   UNL     1      -3.702   3.079   0.713  0.00  0.00    +0.126 C 
ATOM     15  C   UNL     1      -3.252   2.096  -1.501  0.00  0.00    +0.126 C 
ATOM     16  C   UNL     1      -5.013   2.302   0.731  0.00  0.00    +0.164 C 
ATOM     17  C   UNL     1      -4.583   1.362  -1.385  0.00  0.00    +0.164 C 
ENDBRANCH   5  13
BRANCH   9  20
ATOM     18  O   UNL     1       4.827  -0.878   1.364  0.00  0.00    -0.270 OA
ATOM     19  N   UNL     1       5.588   0.614  -0.266  0.00  0.00    -0.273 N 
ATOM     20  C   UNL     1       4.594  -0.028   0.495  0.00  0.00    +0.249 C 
ATOM     21  C   UNL     1       5.265   1.613  -1.283  0.00  0.00    +0.115 C 
ATOM     22  C   UNL     1       7.005   0.327  -0.092  0.00  0.00    +0.115 C 
ENDBRANCH   9  20
BRANCH   3  23
ATOM     23  C   UNL     1       0.368  -0.898  -1.944  0.00  0.00    +0.095 C 
ATOM     24  C   UNL     1       0.958  -0.819  -3.360  0.00  0.00    +0.026 C 
BRANCH  23  25
ATOM     25  N   UNL     1       0.290  -2.301  -1.565  0.00  0.00    -0.330 N 
ATOM     26  H   UNL     1       0.911  -2.936  -1.991  0.00  0.00    +0.147 HD
BRANCH  25  29
ATOM     27  F   UNL     1      -3.946  -2.060   0.614  0.00  0.00    -0.204 F 
ATOM     28  F   UNL     1      -0.876  -5.460   1.814  0.00  0.00    -0.204 F 
ATOM     29  C   UNL     1      -0.609  -2.786  -0.638  0.00  0.00    +0.049 C 
ATOM     30  C   UNL     1      -0.281  -3.899   0.136  0.00  0.00    +0.044 C 
ATOM     31  C   UNL     1      -1.847  -2.165  -0.476  0.00  0.00    +0.044 C 
ATOM     32  C   UNL     1      -2.757  -2.656   0.459  0.00  0.00    +0.144 C 
ATOM     33  C   UNL     1      -1.191  -4.391   1.071  0.00  0.00    +0.144 C 
ATOM     34  C   UNL     1      -2.429  -3.769   1.233  0.00  0.00    +0.059 C 
ENDBRANCH  25  29
ENDBRANCH  23  25
ENDBRANCH   3  23
TORSDOF 5
