8226
  -OEChem-10051719133D

 50 53  0     1  0  0  0  0  0999 V2000
   -2.4860    0.4702   -1.4665 O   0  0  0  0  0  0  0  0  0  0  0  0
   -6.0892   -0.2907    1.8259 O   0  0  0  0  0  0  0  0  0  0  0  0
    0.2253   -2.4600   -0.0025 N   0  0  1  0  0  0  0  0  0  0  0  0
    5.6035    0.1905    0.2103 N   0  0  0  0  0  0  0  0  0  0  0  0
   -3.5821    0.2779    0.5782 N   0  0  0  0  0  0  0  0  0  0  0  0
    1.3419   -1.5309   -0.3351 C   0  0  1  0  0  0  0  0  0  0  0  0
    1.0214   -0.0448    0.0074 C   0  0  0  0  0  0  0  0  0  0  0  0
    2.6667   -2.0468    0.3403 C   0  0  0  0  0  0  0  0  0  0  0  0
   -1.3726   -0.6147    0.3447 C   0  0  1  0  0  0  0  0  0  0  0  0
   -1.0672   -1.9016   -0.4257 C   0  0  0  0  0  0  0  0  0  0  0  0
    3.7412   -1.0220    0.2594 C   0  0  0  0  0  0  0  0  0  0  0  0
    2.1389    0.9249   -0.0326 C   0  0  0  0  0  0  0  0  0  0  0  0
    3.4030    0.3365    0.0909 C   0  0  0  0  0  0  0  0  0  0  0  0
   -0.2200    0.3415    0.3497 C   0  0  0  0  0  0  0  0  0  0  0  0
    4.5669    1.0868    0.0650 C   0  0  0  0  0  0  0  0  0  0  0  0
    0.4039   -3.7830   -0.6097 C   0  0  0  0  0  0  0  0  0  0  0  0
   -2.5260    0.0946   -0.2977 C   0  0  0  0  0  0  0  0  0  0  0  0
    5.1126   -1.0917    0.3315 C   0  0  0  0  0  0  0  0  0  0  0  0
    2.0928    2.3160   -0.1850 C   0  0  0  0  0  0  0  0  0  0  0  0
    4.5386    2.4740   -0.0850 C   0  0  0  0  0  0  0  0  0  0  0  0
    3.2742    3.0711   -0.2093 C   0  0  0  0  0  0  0  0  0  0  0  0
   -4.8047    0.9553    0.2115 C   0  0  1  0  0  0  0  0  0  0  0  0
   -5.4960    0.2479   -0.9617 C   0  0  0  0  0  0  0  0  0  0  0  0
   -5.7341    1.0274    1.4234 C   0  0  0  0  0  0  0  0  0  0  0  0
   -6.7531    0.9716   -1.4274 C   0  0  0  0  0  0  0  0  0  0  0  0
    1.4988   -1.5466   -1.4257 H   0  0  0  0  0  0  0  0  0  0  0  0
    3.0142   -2.9637   -0.1486 H   0  0  0  0  0  0  0  0  0  0  0  0
    2.4827   -2.2785    1.3975 H   0  0  0  0  0  0  0  0  0  0  0  0
   -1.5987   -0.8666    1.3886 H   0  0  0  0  0  0  0  0  0  0  0  0
   -1.8752   -2.6158   -0.2175 H   0  0  0  0  0  0  0  0  0  0  0  0
   -1.0753   -1.7344   -1.5122 H   0  0  0  0  0  0  0  0  0  0  0  0
   -0.4255    1.3667    0.6473 H   0  0  0  0  0  0  0  0  0  0  0  0
   -0.4487   -4.4317   -0.3765 H   0  0  0  0  0  0  0  0  0  0  0  0
    1.2815   -4.2954   -0.2051 H   0  0  0  0  0  0  0  0  0  0  0  0
    0.5010   -3.7270   -1.6998 H   0  0  0  0  0  0  0  0  0  0  0  0
    5.7877   -1.9259    0.4605 H   0  0  0  0  0  0  0  0  0  0  0  0
    1.1435    2.8331   -0.2977 H   0  0  0  0  0  0  0  0  0  0  0  0
    6.5834    0.4368    0.2303 H   0  0  0  0  0  0  0  0  0  0  0  0
    5.4463    3.0665   -0.1061 H   0  0  0  0  0  0  0  0  0  0  0  0
   -3.4699   -0.0111    1.5453 H   0  0  0  0  0  0  0  0  0  0  0  0
    3.2103    4.1503   -0.3310 H   0  0  0  0  0  0  0  0  0  0  0  0
   -4.5271    1.9722   -0.0919 H   0  0  0  0  0  0  0  0  0  0  0  0
   -4.8260    0.1868   -1.8250 H   0  0  0  0  0  0  0  0  0  0  0  0
   -5.7442   -0.7892   -0.7042 H   0  0  0  0  0  0  0  0  0  0  0  0
   -5.2359    1.5142    2.2694 H   0  0  0  0  0  0  0  0  0  0  0  0
   -6.6485    1.5901    1.2183 H   0  0  0  0  0  0  0  0  0  0  0  0
   -6.5517    2.0293   -1.6241 H   0  0  0  0  0  0  0  0  0  0  0  0
   -7.5608    0.8974   -0.6940 H   0  0  0  0  0  0  0  0  0  0  0  0
   -7.1188    0.5205   -2.3560 H   0  0  0  0  0  0  0  0  0  0  0  0
   -5.2727   -0.7657    2.0535 H   0  0  0  0  0  0  0  0  0  0  0  0
  1 17  2  0  0  0  0
  2 24  1  0  0  0  0
  2 50  1  0  0  0  0
  3  6  1  0  0  0  0
  3 10  1  0  0  0  0
  3 16  1  0  0  0  0
  4 15  1  0  0  0  0
  4 18  1  0  0  0  0
  4 38  1  0  0  0  0
  5 17  1  0  0  0  0
  5 22  1  0  0  0  0
  5 40  1  0  0  0  0
  6  7  1  0  0  0  0
  6  8  1  0  0  0  0
  6 26  1  0  0  0  0
  7 12  1  0  0  0  0
  7 14  2  0  0  0  0
  8 11  1  0  0  0  0
  8 27  1  0  0  0  0
  8 28  1  0  0  0  0
  9 10  1  0  0  0  0
  9 14  1  0  0  0  0
  9 17  1  0  0  0  0
  9 29  1  0  0  0  0
 10 30  1  0  0  0  0
 10 31  1  0  0  0  0
 11 13  1  0  0  0  0
 11 18  2  0  0  0  0
 12 13  2  0  0  0  0
 12 19  1  0  0  0  0
 13 15  1  0  0  0  0
 14 32  1  0  0  0  0
 15 20  2  0  0  0  0
 16 33  1  0  0  0  0
 16 34  1  0  0  0  0
 16 35  1  0  0  0  0
 18 36  1  0  0  0  0
 19 21  2  0  0  0  0
 19 37  1  0  0  0  0
 20 21  1  0  0  0  0
 20 39  1  0  0  0  0
 21 41  1  0  0  0  0
 22 23  1  0  0  0  0
 22 24  1  0  0  0  0
 22 42  1  0  0  0  0
 23 25  1  0  0  0  0
 23 43  1  0  0  0  0
 23 44  1  0  0  0  0
 24 45  1  0  0  0  0
 24 46  1  0  0  0  0
 25 47  1  0  0  0  0
 25 48  1  0  0  0  0
 25 49  1  0  0  0  0
M  END
> <DATABASE_ID>
DB00353

> <DATABASE_NAME>
drugbank

> <ORIGINAL_SOURCE>
PUBCHEM

> <ORIGINAL_SOURCE_URL>
https://pubchem.ncbi.nlm.nih.gov/rest/pug/compound/inchikey/UNBRKDKAWYKMIV-QWQRMKEZSA-N/SDF?record_type=3d

> <SMILES>
[H][C@@]12CC3=CNC4=CC=CC(=C34)C1=C[C@H](CN2C)C(=O)N[C@@H](CC)CO

> <INCHI_IDENTIFIER>
InChI=1S/C20H25N3O2/c1-3-14(11-24)22-20(25)13-7-16-15-5-4-6-17-19(15)12(9-21-17)8-18(16)23(2)10-13/h4-7,9,13-14,18,21,24H,3,8,10-11H2,1-2H3,(H,22,25)/t13-,14+,18-/m1/s1

> <INCHI_KEY>
UNBRKDKAWYKMIV-QWQRMKEZSA-N

> <FORMULA>
C20H25N3O2

> <MOLECULAR_WEIGHT>
339.4314

> <EXACT_MASS>
339.194677059

> <JCHEM_ACCEPTOR_COUNT>
3

> <JCHEM_AVERAGE_POLARIZABILITY>
38.72984221073561

> <JCHEM_BIOAVAILABILITY>
1

> <JCHEM_DONOR_COUNT>
3

> <JCHEM_FORMAL_CHARGE>
0

> <JCHEM_GHOSE_FILTER>
1

> <JCHEM_IUPAC>
(4R,7R)-N-[(2S)-1-hydroxybutan-2-yl]-6-methyl-6,11-diazatetracyclo[7.6.1.0²,⁷.0¹²,¹⁶]hexadeca-1(16),2,9,12,14-pentaene-4-carboxamide

> <ALOGPS_LOGP>
1.74

> <JCHEM_LOGP>
1.5932183806666667

> <ALOGPS_LOGS>
-3.22

> <JCHEM_MDDR_LIKE_RULE>
0

> <JCHEM_NUMBER_OF_RINGS>
4

> <JCHEM_PHYSIOLOGICAL_CHARGE>
1

> <JCHEM_PKA>
15.94889202988126

> <JCHEM_PKA_STRONGEST_ACIDIC>
14.997192550970546

> <JCHEM_PKA_STRONGEST_BASIC>
7.927308778613017

> <JCHEM_POLAR_SURFACE_AREA>
68.36

> <JCHEM_REFRACTIVITY>
99.5759

> <JCHEM_ROTATABLE_BOND_COUNT>
4

> <JCHEM_RULE_OF_FIVE>
1

> <ALOGPS_SOLUBILITY>
2.04e-01 g/l

> <JCHEM_TRADITIONAL_IUPAC>
methylergonovine

> <JCHEM_VEBER_RULE>
0

> <DRUGBANK_ID>
DB00353

> <SECONDARY_ACCESSION_NUMBERS>
APRD00739

> <DRUG_GROUPS>
approved

> <GENERIC_NAME>
Methylergometrine

> <SYNONYMS>
9,10-Didehydro-N-[1-(hydroxymethyl)-propyl]-D-lysergamide; D-lysergic acid 1-butanolamide; Ergotyl; Methylergobasin; Methylergometrin; Methylergometrine; Méthylergométrine; Methylergometrinum; Methylergonovine; Metilergometrina; Metilergometrinio

> <PRODUCTS>
Methergine; Methylergonovine Maleate

> <INTERNATIONAL_BRANDS>
Basofortina; Bledstop; Demergin; Ergogin; Ergomed; Ergomin; Ergotyl; Expogin; Glomethyl; Ingagen-M; Mem; Mergot; Mergotrex; Metenarin; Metermin; Méthergin; Methergin; Metherinal; Metherspan; Methovin; Methylergobrevin; Methylergometrin; Metilat; Metiler; Metilergometrina; Metrine; Metrol; Metvell; Myomergin; Myometril; Neo-ergo; Partan M; Pospargin; Satergin; Usamema; Utergin; Uterine; Uterjin; Uterowin; Utesel

> <SALTS>
Methylergometrine maleate; Methylergometrine tartrate

$$$$
