3033
  -OEChem-07161918143D

 30 31  0     0  0  0  0  0  0999 V2000
    1.9541    1.1500   -2.5078 Cl  0  0  0  0  0  0  0  0  0  0  0  0
    1.1377   -1.6392    2.1136 Cl  0  0  0  0  0  0  0  0  0  0  0  0
   -3.2620   -2.9284   -1.0647 O   0  0  0  0  0  0  0  0  0  0  0  0
   -2.7906   -1.9108    0.9092 O   0  0  0  0  0  0  0  0  0  0  0  0
    0.2679   -0.2051   -0.3990 N   0  0  0  0  0  0  0  0  0  0  0  0
   -2.0640    0.5139   -0.3769 C   0  0  0  0  0  0  0  0  0  0  0  0
   -0.7313    0.7178   -0.0192 C   0  0  0  0  0  0  0  0  0  0  0  0
   -2.4761   -0.6830   -1.1703 C   0  0  0  0  0  0  0  0  0  0  0  0
    1.6571   -0.2482   -0.1795 C   0  0  0  0  0  0  0  0  0  0  0  0
   -3.0382    1.4350    0.0081 C   0  0  0  0  0  0  0  0  0  0  0  0
   -0.3728    1.8429    0.7234 C   0  0  0  0  0  0  0  0  0  0  0  0
   -2.6797    2.5600    0.7506 C   0  0  0  0  0  0  0  0  0  0  0  0
   -1.3470    2.7640    1.1083 C   0  0  0  0  0  0  0  0  0  0  0  0
    2.5353    0.3477   -1.0918 C   0  0  0  0  0  0  0  0  0  0  0  0
    2.1740   -0.8865    0.9534 C   0  0  0  0  0  0  0  0  0  0  0  0
   -2.8480   -1.8749   -0.3123 C   0  0  0  0  0  0  0  0  0  0  0  0
    3.9124    0.3058   -0.8739 C   0  0  0  0  0  0  0  0  0  0  0  0
    3.5511   -0.9285    1.1713 C   0  0  0  0  0  0  0  0  0  0  0  0
    4.4203   -0.3324    0.2576 C   0  0  0  0  0  0  0  0  0  0  0  0
   -1.7086   -0.9792   -1.8930 H   0  0  0  0  0  0  0  0  0  0  0  0
   -3.3614   -0.4266   -1.7676 H   0  0  0  0  0  0  0  0  0  0  0  0
   -0.0861   -1.1146   -0.6780 H   0  0  0  0  0  0  0  0  0  0  0  0
   -4.0812    1.2885   -0.2604 H   0  0  0  0  0  0  0  0  0  0  0  0
    0.6569    2.0278    1.0167 H   0  0  0  0  0  0  0  0  0  0  0  0
   -3.4382    3.2769    1.0511 H   0  0  0  0  0  0  0  0  0  0  0  0
   -1.0683    3.6399    1.6868 H   0  0  0  0  0  0  0  0  0  0  0  0
    4.6037    0.7654   -1.5758 H   0  0  0  0  0  0  0  0  0  0  0  0
    3.9635   -1.4215    2.0480 H   0  0  0  0  0  0  0  0  0  0  0  0
    5.4925   -0.3651    0.4274 H   0  0  0  0  0  0  0  0  0  0  0  0
   -3.5025   -3.7011   -0.5102 H   0  0  0  0  0  0  0  0  0  0  0  0
  1 14  1  0  0  0  0
  2 15  1  0  0  0  0
  3 16  1  0  0  0  0
  3 30  1  0  0  0  0
  4 16  2  0  0  0  0
  5  7  1  0  0  0  0
  5  9  1  0  0  0  0
  5 22  1  0  0  0  0
  6  7  1  0  0  0  0
  6  8  1  0  0  0  0
  6 10  2  0  0  0  0
  7 11  2  0  0  0  0
  8 16  1  0  0  0  0
  8 20  1  0  0  0  0
  8 21  1  0  0  0  0
  9 14  2  0  0  0  0
  9 15  1  0  0  0  0
 10 12  1  0  0  0  0
 10 23  1  0  0  0  0
 11 13  1  0  0  0  0
 11 24  1  0  0  0  0
 12 13  2  0  0  0  0
 12 25  1  0  0  0  0
 13 26  1  0  0  0  0
 14 17  1  0  0  0  0
 15 18  2  0  0  0  0
 17 19  2  0  0  0  0
 17 27  1  0  0  0  0
 18 19  1  0  0  0  0
 18 28  1  0  0  0  0
 19 29  1  0  0  0  0
M  END
> <DATABASE_ID>
DB00586

> <DATABASE_NAME>
drugbank

> <ORIGINAL_SOURCE>
PUBCHEM

> <ORIGINAL_SOURCE_URL>
https://pubchem.ncbi.nlm.nih.gov/rest/pug/compound/inchikey/DCOPUUMXTXDBNB-UHFFFAOYSA-N/SDF?record_type=3d

> <SMILES>
OC(=O)CC1=CC=CC=C1NC1=C(Cl)C=CC=C1Cl

> <INCHI_IDENTIFIER>
InChI=1S/C14H11Cl2NO2/c15-10-5-3-6-11(16)14(10)17-12-7-2-1-4-9(12)8-13(18)19/h1-7,17H,8H2,(H,18,19)

> <INCHI_KEY>
DCOPUUMXTXDBNB-UHFFFAOYSA-N

> <FORMULA>
C14H11Cl2NO2

> <MOLECULAR_WEIGHT>
296.149

> <EXACT_MASS>
295.016684015

> <JCHEM_ACCEPTOR_COUNT>
3

> <JCHEM_ATOM_COUNT>
30

> <JCHEM_AVERAGE_POLARIZABILITY>
27.932580150425736

> <JCHEM_BIOAVAILABILITY>
1

> <JCHEM_DONOR_COUNT>
2

> <JCHEM_FORMAL_CHARGE>
0

> <JCHEM_GHOSE_FILTER>
1

> <JCHEM_IUPAC>
2-{2-[(2,6-dichlorophenyl)amino]phenyl}acetic acid

> <ALOGPS_LOGP>
4.98

> <JCHEM_LOGP>
4.259009233333334

> <ALOGPS_LOGS>
-4.82

> <JCHEM_MDDR_LIKE_RULE>
0

> <JCHEM_NUMBER_OF_RINGS>
2

> <JCHEM_PHYSIOLOGICAL_CHARGE>
-1

> <JCHEM_PKA>
16.40187487777428

> <JCHEM_PKA_STRONGEST_ACIDIC>
3.995651870366132

> <JCHEM_PKA_STRONGEST_BASIC>
-2.0760497458522584

> <JCHEM_POLAR_SURFACE_AREA>
49.33

> <JCHEM_REFRACTIVITY>
75.46140000000003

> <JCHEM_ROTATABLE_BOND_COUNT>
4

> <JCHEM_RULE_OF_FIVE>
1

> <ALOGPS_SOLUBILITY>
4.47e-03 g/l

> <JCHEM_TRADITIONAL_IUPAC>
{2-[(2,6-dichloro-3,4-dihydroxyphenyl)amino]phenyl}acetic acid

> <JCHEM_VEBER_RULE>
0

> <DRUGBANK_ID>
DB00586

> <SECONDARY_ACCESSION_NUMBERS>
APRD00527

> <DRUG_GROUPS>
approved; vet_approved

> <GENERIC_NAME>
Diclofenac

> <SYNONYMS>
[2-(2,6-dichloroanilino)phenyl]acetic acid; 2-((2,6-dichlorophenyl)amino)benzeneacetic acid; Diclofenac; Diclofenac acid; Diclofenaco; Diclofenacum

> <PRODUCTS>
Act Diclo-miso; Ambator Diclofenac Patch; Apo-diclo; Apo-diclo Rapide 50 Mg Tablets; Apo-diclo SR; Apo-diclofenac; Apo-diclofenac Ophthalmic; Arthrotec; Arthrotec 50; Arthrotec 75; Ava-diclofenac; Ava-diclofenac SR; Calcipotriene 0.005% / Diclofenac Sodium 3% / Hyaluronic Acid Sodium Salt 2% / Niacinamide 2%; Cambia; CapsFenac Pak; Capsinac; Cataflam; DFS 75mg DR/MS 25%/MENTH 6%/CAP 0.025% PAK; DS Prep PAK; DST Plus Pak; DeramsilkRx Anodynexa Pak; DermacinRx Inflammatral Pak; DermacinRx Lexitral PharmaPak; DermasilkRx DicloPak; Dfs 1.5%/ms 25%/menth 6%/cap 0.025% Pak; DiMentho; Diclo Gel 1% Pak; Diclo Gel 1% with Xrylix Sheets; DicloPR; Diclofenac; Diclofenac EC; Diclofenac Ect 25mg; Diclofenac Epolamine; Diclofenac K; Diclofenac Misoprostol; Diclofenac Potassium; Diclofenac SR; Diclofenac Sodium; Diclofenac Sodium 1.5%; Diclofenac Sodium 3 Percent; Diclofenac Sodium 3% / Hyaluronic Acid Sodium Salt 2% / Niacinamide 4%; Diclofenac Sodium D/R; Diclofenac Sodium Delayed Release; Diclofenac Sodium Delayed Release Delayed Release; Diclofenac Sodium Delayed-release; Diclofenac Sodium Dr; Diclofenac Sodium E/r; Diclofenac Sodium Extended-Release; Diclofenac Sodium Solution; Diclofenac Sodium Topical Solution; Diclofenac Sodium and Misoprostol; Diclofenac Sodium and Misoprostol Delayed-Release; Diclofenac Sodium delayed release; Diclofenac Sodium topical solution; Diclofenac Topical Solution; Diclofenac sodium; Diclofenac sodium and Misoprostol; Diclofenac-50; Diclofenac-SR; Diclofex DC; Diclopak; Diclosiacin; Diclostream; Diclotec; Diclotral Pak; Diclotrex; Diclovix; Diclozor; Dipentocaine Topical Cream Compounding Kit; Dom-diclofenac; Dom-diclofenac-SR; Dsg Pak; Dyloject; Dynabac 5.0; Flector; Flexipak; Fluorac; Gapeam Budibac; Gd-diclofenac/misoprostol 50; Gd-diclofenac/misoprostol 75; Infla-eze; Inflammacin; Inflammation Reduction Pack; Inflatherm; Innoprax-5; Jamp Diclofenac Topical Solution; Klofensaid II; Leximenth; Lexixryl; LidoPR; Lidovix Delayed Release; Lorvatus PharmaPak; Mint-diclofenac; Ntp-diclofenac Potassium; Ntp-diclofenac Sodium; Ntp-diclofenac Sodium SR; Nu-diclo Enteric Coated Tab 25mg; Nu-diclo Enteric Coated Tab 50mg; Nu-diclo Rapide; Nu-diclo SR - Srt 100mg; Nu-diclo SR - Srt 75mg; NuDiclo SoluPak; NuDiclo TabPak; NuDroxiPAK DSDR-50; NuDroxiPAK DSDR-75; Nuvya; PMS-diclofenac; PMS-diclofenac K; PMS-diclofenac-SR; PMS-diclofenac-misoprostol; Pennsaid; Penta-diclofenac - 25mg; Penta-diclofenac - 50mg; PrevidolRx Analgesic Pak; PrevidolRx Plus Analgesic Pak; Pro-diclo Rapide - 50; Rho-diclofenac; Riva-diclofenac 100mg SR Tablets; Riva-diclofenac 50mg Tablets; Riva-diclofenac 75mg SR Tablets; Riva-diclofenac-K 50mg Tablets; Sandoz Diclofenac; Sandoz Diclofenac Misoprostol; Sandoz Diclofenac Ophtha; Sandoz Diclofenac Rapide; Sandoz-diclofenac; Sandoz-diclofenac SR; Solaravix; Solaraze; Sure Result DSS Premium Pak; Taro-diclofenac; Taro-diclofenac Tab 25mg; Taro-diclofenac Tab 50mg; Teva-diclofenac; Teva-diclofenac EC; Teva-diclofenac SR; Teva-diclofenac-K; Topical Nerve Pain; TriXylitral; Varophen; VennGel One; Vofenal 0.1%; Voltaren; Voltaren Emulgel; Voltaren Emulgel Back & Muscle Pain; Voltaren Emulgel Extra Strength; Voltaren Emulgel Joint Pain Extra Strength; Voltaren Emulgel Joint Pain Regular Strength; Voltaren Ophtha; Voltaren Rapide Tablets 50mg; Voltaren SR; Voltaren Tab 25mg; Voltaren XR; Vopac MDS - Anti-Inflammatory Management Kit with Metered Dose Bottle; Xelitral; Xenaflamm; Xrylix; Zipsor; Zorvolex; Zyvodol

> <INTERNATIONAL_BRANDS>
Aclonac; Allvoran; Ecofenac; Effekton; Nu-Diclo; Primofenac; Prophenatin; Rhumalgan; Voltarol

> <SALTS>
Diclofenac diethylamine; Diclofenac epolamine; Diclofenac potassium; Diclofenac sodium

$$$$
