60753
  -OEChem-10051719123D

 62 62  0     1  0  0  0  0  0999 V2000
   -6.4856   -0.2029   -1.3796 S   0  0  0  0  0  0  0  0  0  0  0  0
   -0.6542   -0.4981    3.2808 O   0  0  0  0  0  0  0  0  0  0  0  0
   -7.9255   -0.3199   -1.5153 O   0  0  0  0  0  0  0  0  0  0  0  0
   -5.8519    1.1003   -1.3482 O   0  0  0  0  0  0  0  0  0  0  0  0
    2.2669    2.0223   -0.2108 N   0  0  2  0  0  0  0  0  0  0  0  0
   -5.9851   -1.1633   -0.0404 N   0  0  0  0  0  0  0  0  0  0  0  0
    3.1406    1.1278   -0.9609 C   0  0  0  0  0  0  0  0  0  0  0  0
    0.8957    1.9491   -0.7186 C   0  0  0  0  0  0  0  0  0  0  0  0
    4.3758    0.7745   -0.1325 C   0  0  0  0  0  0  0  0  0  0  0  0
    0.1931    0.6846   -0.2233 C   0  0  0  0  0  0  0  0  0  0  0  0
    5.3014   -0.1722   -0.9011 C   0  0  0  0  0  0  0  0  0  0  0  0
    0.1105    0.6635    1.3058 C   0  0  0  0  0  0  0  0  0  0  0  0
    6.5758   -0.5353   -0.1332 C   0  0  0  0  0  0  0  0  0  0  0  0
    2.7596    3.3992   -0.2769 C   0  0  0  0  0  0  0  0  0  0  0  0
   -0.6112   -0.5769    1.8548 C   0  0  2  0  0  0  0  0  0  0  0  0
    7.4653   -1.5391   -0.8700 C   0  0  0  0  0  0  0  0  0  0  0  0
   -2.0284   -0.7313    1.3539 C   0  0  0  0  0  0  0  0  0  0  0  0
    8.7267   -1.8554   -0.0652 C   0  0  0  0  0  0  0  0  0  0  0  0
    1.8581    4.3429    0.5009 C   0  0  0  0  0  0  0  0  0  0  0  0
   -2.9548    0.2918    1.5561 C   0  0  0  0  0  0  0  0  0  0  0  0
   -2.4109   -1.8973    0.6906 C   0  0  0  0  0  0  0  0  0  0  0  0
    9.6309   -2.8277   -0.8062 C   0  0  0  0  0  0  0  0  0  0  0  0
   -4.2634    0.1489    1.0950 C   0  0  0  0  0  0  0  0  0  0  0  0
   -3.7194   -2.0402    0.2295 C   0  0  0  0  0  0  0  0  0  0  0  0
   -4.6458   -1.0170    0.4316 C   0  0  0  0  0  0  0  0  0  0  0  0
   -5.7643   -1.1284   -2.7167 C   0  0  0  0  0  0  0  0  0  0  0  0
    2.6431    0.1817   -1.2002 H   0  0  0  0  0  0  0  0  0  0  0  0
    3.4317    1.5641   -1.9258 H   0  0  0  0  0  0  0  0  0  0  0  0
    0.2593    2.7728   -0.3861 H   0  0  0  0  0  0  0  0  0  0  0  0
    0.8799    1.9814   -1.8161 H   0  0  0  0  0  0  0  0  0  0  0  0
    4.0705    0.2995    0.8085 H   0  0  0  0  0  0  0  0  0  0  0  0
    4.9462    1.6719    0.1300 H   0  0  0  0  0  0  0  0  0  0  0  0
   -0.8155    0.6787   -0.6537 H   0  0  0  0  0  0  0  0  0  0  0  0
    0.6806   -0.2268   -0.5839 H   0  0  0  0  0  0  0  0  0  0  0  0
    4.7548   -1.0927   -1.1414 H   0  0  0  0  0  0  0  0  0  0  0  0
    5.5817    0.2881   -1.8568 H   0  0  0  0  0  0  0  0  0  0  0  0
    1.1175    0.6836    1.7419 H   0  0  0  0  0  0  0  0  0  0  0  0
   -0.3757    1.5782    1.6689 H   0  0  0  0  0  0  0  0  0  0  0  0
    7.1464    0.3807    0.0642 H   0  0  0  0  0  0  0  0  0  0  0  0
    6.2982   -0.9516    0.8432 H   0  0  0  0  0  0  0  0  0  0  0  0
    2.8461    3.7536   -1.3120 H   0  0  0  0  0  0  0  0  0  0  0  0
    3.7563    3.4638    0.1722 H   0  0  0  0  0  0  0  0  0  0  0  0
   -0.0271   -1.4702    1.6021 H   0  0  0  0  0  0  0  0  0  0  0  0
    6.9031   -2.4624   -1.0543 H   0  0  0  0  0  0  0  0  0  0  0  0
    7.7444   -1.1293   -1.8482 H   0  0  0  0  0  0  0  0  0  0  0  0
    9.2823   -0.9319    0.1356 H   0  0  0  0  0  0  0  0  0  0  0  0
    8.4515   -2.2862    0.9045 H   0  0  0  0  0  0  0  0  0  0  0  0
    2.4050    5.2685    0.7156 H   0  0  0  0  0  0  0  0  0  0  0  0
    1.5526    3.9213    1.4648 H   0  0  0  0  0  0  0  0  0  0  0  0
    0.9694    4.6433   -0.0622 H   0  0  0  0  0  0  0  0  0  0  0  0
   -2.6792    1.2027    2.0802 H   0  0  0  0  0  0  0  0  0  0  0  0
   -1.7003   -2.7025    0.5251 H   0  0  0  0  0  0  0  0  0  0  0  0
    9.9514   -2.4114   -1.7665 H   0  0  0  0  0  0  0  0  0  0  0  0
   10.5256   -3.0407   -0.2128 H   0  0  0  0  0  0  0  0  0  0  0  0
    9.1158   -3.7747   -0.9965 H   0  0  0  0  0  0  0  0  0  0  0  0
    0.2627   -0.4368    3.5989 H   0  0  0  0  0  0  0  0  0  0  0  0
   -4.9773    0.9488    1.2730 H   0  0  0  0  0  0  0  0  0  0  0  0
   -4.0059   -2.9525   -0.2873 H   0  0  0  0  0  0  0  0  0  0  0  0
   -6.3191   -2.1364   -0.0524 H   0  0  0  0  0  0  0  0  0  0  0  0
   -6.1390   -2.1531   -2.6835 H   0  0  0  0  0  0  0  0  0  0  0  0
   -4.6770   -1.1027   -2.6290 H   0  0  0  0  0  0  0  0  0  0  0  0
   -6.0676   -0.6554   -3.6536 H   0  0  0  0  0  0  0  0  0  0  0  0
  1  3  2  0  0  0  0
  1  4  2  0  0  0  0
  1  6  1  0  0  0  0
  1 26  1  0  0  0  0
  2 15  1  0  0  0  0
  2 56  1  0  0  0  0
  5  7  1  0  0  0  0
  5  8  1  0  0  0  0
  5 14  1  0  0  0  0
  6 25  1  0  0  0  0
  6 59  1  0  0  0  0
  7  9  1  0  0  0  0
  7 27  1  0  0  0  0
  7 28  1  0  0  0  0
  8 10  1  0  0  0  0
  8 29  1  0  0  0  0
  8 30  1  0  0  0  0
  9 11  1  0  0  0  0
  9 31  1  0  0  0  0
  9 32  1  0  0  0  0
 10 12  1  0  0  0  0
 10 33  1  0  0  0  0
 10 34  1  0  0  0  0
 11 13  1  0  0  0  0
 11 35  1  0  0  0  0
 11 36  1  0  0  0  0
 12 15  1  0  0  0  0
 12 37  1  0  0  0  0
 12 38  1  0  0  0  0
 13 16  1  0  0  0  0
 13 39  1  0  0  0  0
 13 40  1  0  0  0  0
 14 19  1  0  0  0  0
 14 41  1  0  0  0  0
 14 42  1  0  0  0  0
 15 17  1  0  0  0  0
 15 43  1  0  0  0  0
 16 18  1  0  0  0  0
 16 44  1  0  0  0  0
 16 45  1  0  0  0  0
 17 20  2  0  0  0  0
 17 21  1  0  0  0  0
 18 22  1  0  0  0  0
 18 46  1  0  0  0  0
 18 47  1  0  0  0  0
 19 48  1  0  0  0  0
 19 49  1  0  0  0  0
 19 50  1  0  0  0  0
 20 23  1  0  0  0  0
 20 51  1  0  0  0  0
 21 24  2  0  0  0  0
 21 52  1  0  0  0  0
 22 53  1  0  0  0  0
 22 54  1  0  0  0  0
 22 55  1  0  0  0  0
 23 25  2  0  0  0  0
 23 57  1  0  0  0  0
 24 25  1  0  0  0  0
 24 58  1  0  0  0  0
 26 60  1  0  0  0  0
 26 61  1  0  0  0  0
 26 62  1  0  0  0  0
M  END
> <DATABASE_ID>
DB00308

> <DATABASE_NAME>
drugbank

> <ORIGINAL_SOURCE>
PUBCHEM

> <ORIGINAL_SOURCE_URL>
https://pubchem.ncbi.nlm.nih.gov/rest/pug/compound/inchikey/ALOBUEHUHMBRLE-UHFFFAOYSA-N/SDF?record_type=3d

> <SMILES>
CCCCCCCN(CC)CCCC(O)C1=CC=C(NS(C)(=O)=O)C=C1

> <INCHI_IDENTIFIER>
InChI=1S/C20H36N2O3S/c1-4-6-7-8-9-16-22(5-2)17-10-11-20(23)18-12-14-19(15-13-18)21-26(3,24)25/h12-15,20-21,23H,4-11,16-17H2,1-3H3

> <INCHI_KEY>
ALOBUEHUHMBRLE-UHFFFAOYSA-N

> <FORMULA>
C20H36N2O3S

> <MOLECULAR_WEIGHT>
384.576

> <EXACT_MASS>
384.244663718

> <JCHEM_ACCEPTOR_COUNT>
4

> <JCHEM_AVERAGE_POLARIZABILITY>
46.45346141936455

> <JCHEM_BIOAVAILABILITY>
1

> <JCHEM_DONOR_COUNT>
2

> <JCHEM_FORMAL_CHARGE>
0

> <JCHEM_GHOSE_FILTER>
1

> <JCHEM_IUPAC>
N-(4-{4-[ethyl(heptyl)amino]-1-hydroxybutyl}phenyl)methanesulfonamide

> <ALOGPS_LOGP>
4.72

> <JCHEM_LOGP>
2.5426521951915055

> <ALOGPS_LOGS>
-4.91

> <JCHEM_MDDR_LIKE_RULE>
0

> <JCHEM_NUMBER_OF_RINGS>
1

> <JCHEM_PHYSIOLOGICAL_CHARGE>
1

> <JCHEM_PKA>
14.462657225568144

> <JCHEM_PKA_STRONGEST_ACIDIC>
9.720054597587202

> <JCHEM_PKA_STRONGEST_BASIC>
10.396987315808701

> <JCHEM_POLAR_SURFACE_AREA>
69.64

> <JCHEM_REFRACTIVITY>
109.18159999999999

> <JCHEM_ROTATABLE_BOND_COUNT>
13

> <JCHEM_RULE_OF_FIVE>
1

> <ALOGPS_SOLUBILITY>
4.73e-03 g/l

> <JCHEM_TRADITIONAL_IUPAC>
ibutilide

> <JCHEM_VEBER_RULE>
0

> <DRUGBANK_ID>
DB00308

> <SECONDARY_ACCESSION_NUMBERS>
APRD01025

> <DRUG_GROUPS>
approved

> <GENERIC_NAME>
Ibutilide

> <SYNONYMS>
Ibutilid; Ibutilida; Ibutilide; Ibutilidum; N-(4-{4-[ethyl(heptyl)amino]-1-hydroxybutyl}phenyl)methanesulfonamide

> <PRODUCTS>
Corvert; Ibutilide Fumarate

> <SALTS>
Ibutilide fumarate

$$$$
