5566
  -OEChem-10051719243D

 52 55  0     0  0  0  0  0  0999 V2000
   -0.9115   -2.6737   -1.4913 S   0  0  0  0  0  0  0  0  0  0  0  0
   -6.1881    1.2890   -0.2607 F   0  0  0  0  0  0  0  0  0  0  0  0
   -5.2253    1.4078    1.6792 F   0  0  0  0  0  0  0  0  0  0  0  0
   -4.5897    2.7257    0.0705 F   0  0  0  0  0  0  0  0  0  0  0  0
    2.5124    1.3371   -0.4724 N   0  0  0  0  0  0  0  0  0  0  0  0
    5.3697    1.7702   -0.3901 N   0  0  0  0  0  0  0  0  0  0  0  0
   -0.3672   -0.4324    0.5932 N   0  0  0  0  0  0  0  0  0  0  0  0
    3.0880    2.4955    0.2216 C   0  0  0  0  0  0  0  0  0  0  0  0
    3.3781    0.9237   -1.5837 C   0  0  0  0  0  0  0  0  0  0  0  0
    1.1631    1.6350   -0.9486 C   0  0  0  0  0  0  0  0  0  0  0  0
    4.5033    2.1841    0.7205 C   0  0  0  0  0  0  0  0  0  0  0  0
    4.7939    0.6130   -1.0859 C   0  0  0  0  0  0  0  0  0  0  0  0
    0.2018    1.9354    0.2055 C   0  0  0  0  0  0  0  0  0  0  0  0
    0.0732    0.8131    1.2348 C   0  0  0  0  0  0  0  0  0  0  0  0
    6.7182    1.4707    0.0874 C   0  0  0  0  0  0  0  0  0  0  0  0
   -1.6738   -0.4566    0.0430 C   0  0  0  0  0  0  0  0  0  0  0  0
    0.5223   -1.5359    0.6304 C   0  0  0  0  0  0  0  0  0  0  0  0
   -2.0489   -1.4391   -0.8944 C   0  0  0  0  0  0  0  0  0  0  0  0
    0.3647   -2.6255   -0.2489 C   0  0  0  0  0  0  0  0  0  0  0  0
   -2.6654    0.4714    0.4302 C   0  0  0  0  0  0  0  0  0  0  0  0
    1.5781   -1.6142    1.5648 C   0  0  0  0  0  0  0  0  0  0  0  0
   -3.9569    0.4403   -0.1030 C   0  0  0  0  0  0  0  0  0  0  0  0
   -3.3484   -1.4628   -1.4315 C   0  0  0  0  0  0  0  0  0  0  0  0
    1.2455   -3.7207   -0.2030 C   0  0  0  0  0  0  0  0  0  0  0  0
   -4.2978   -0.5259   -1.0373 C   0  0  0  0  0  0  0  0  0  0  0  0
    2.4477   -2.7074    1.6093 C   0  0  0  0  0  0  0  0  0  0  0  0
    2.2832   -3.7602    0.7223 C   0  0  0  0  0  0  0  0  0  0  0  0
   -4.9701    1.4426    0.3380 C   0  0  0  0  0  0  0  0  0  0  0  0
    2.5081    2.7622    1.1102 H   0  0  0  0  0  0  0  0  0  0  0  0
    3.1123    3.3762   -0.4343 H   0  0  0  0  0  0  0  0  0  0  0  0
    3.4209    1.7018   -2.3579 H   0  0  0  0  0  0  0  0  0  0  0  0
    2.9729    0.0183   -2.0520 H   0  0  0  0  0  0  0  0  0  0  0  0
    1.1723    2.4922   -1.6351 H   0  0  0  0  0  0  0  0  0  0  0  0
    0.7747    0.7862   -1.5244 H   0  0  0  0  0  0  0  0  0  0  0  0
    4.9106    3.0876    1.1903 H   0  0  0  0  0  0  0  0  0  0  0  0
    4.4589    1.4049    1.4938 H   0  0  0  0  0  0  0  0  0  0  0  0
    4.7680   -0.2666   -0.4280 H   0  0  0  0  0  0  0  0  0  0  0  0
    5.4149    0.3544   -1.9521 H   0  0  0  0  0  0  0  0  0  0  0  0
    0.4759    2.8635    0.7195 H   0  0  0  0  0  0  0  0  0  0  0  0
   -0.7705    2.1656   -0.2441 H   0  0  0  0  0  0  0  0  0  0  0  0
   -0.6080    1.0993    2.0450 H   0  0  0  0  0  0  0  0  0  0  0  0
    1.0416    0.7643    1.7317 H   0  0  0  0  0  0  0  0  0  0  0  0
    7.3726    1.2063   -0.7506 H   0  0  0  0  0  0  0  0  0  0  0  0
    6.7294    0.6447    0.8077 H   0  0  0  0  0  0  0  0  0  0  0  0
    7.1608    2.3514    0.5658 H   0  0  0  0  0  0  0  0  0  0  0  0
   -2.4661    1.2376    1.1743 H   0  0  0  0  0  0  0  0  0  0  0  0
    1.7421   -0.8699    2.3364 H   0  0  0  0  0  0  0  0  0  0  0  0
   -3.6351   -2.2144   -2.1644 H   0  0  0  0  0  0  0  0  0  0  0  0
    1.1313   -4.5574   -0.8894 H   0  0  0  0  0  0  0  0  0  0  0  0
   -5.2941   -0.5701   -1.4671 H   0  0  0  0  0  0  0  0  0  0  0  0
    3.2437   -2.7374    2.3477 H   0  0  0  0  0  0  0  0  0  0  0  0
    2.9554   -4.6121    0.7533 H   0  0  0  0  0  0  0  0  0  0  0  0
  1 18  1  0  0  0  0
  1 19  1  0  0  0  0
  2 28  1  0  0  0  0
  3 28  1  0  0  0  0
  4 28  1  0  0  0  0
  5  8  1  0  0  0  0
  5  9  1  0  0  0  0
  5 10  1  0  0  0  0
  6 11  1  0  0  0  0
  6 12  1  0  0  0  0
  6 15  1  0  0  0  0
  7 14  1  0  0  0  0
  7 16  1  0  0  0  0
  7 17  1  0  0  0  0
  8 11  1  0  0  0  0
  8 29  1  0  0  0  0
  8 30  1  0  0  0  0
  9 12  1  0  0  0  0
  9 31  1  0  0  0  0
  9 32  1  0  0  0  0
 10 13  1  0  0  0  0
 10 33  1  0  0  0  0
 10 34  1  0  0  0  0
 11 35  1  0  0  0  0
 11 36  1  0  0  0  0
 12 37  1  0  0  0  0
 12 38  1  0  0  0  0
 13 14  1  0  0  0  0
 13 39  1  0  0  0  0
 13 40  1  0  0  0  0
 14 41  1  0  0  0  0
 14 42  1  0  0  0  0
 15 43  1  0  0  0  0
 15 44  1  0  0  0  0
 15 45  1  0  0  0  0
 16 18  2  0  0  0  0
 16 20  1  0  0  0  0
 17 19  1  0  0  0  0
 17 21  2  0  0  0  0
 18 23  1  0  0  0  0
 19 24  2  0  0  0  0
 20 22  2  0  0  0  0
 20 46  1  0  0  0  0
 21 26  1  0  0  0  0
 21 47  1  0  0  0  0
 22 25  1  0  0  0  0
 22 28  1  0  0  0  0
 23 25  2  0  0  0  0
 23 48  1  0  0  0  0
 24 27  1  0  0  0  0
 24 49  1  0  0  0  0
 25 50  1  0  0  0  0
 26 27  2  0  0  0  0
 26 51  1  0  0  0  0
 27 52  1  0  0  0  0
M  END
> <DATABASE_ID>
DB00831

> <DATABASE_NAME>
drugbank

> <ORIGINAL_SOURCE>
PUBCHEM

> <ORIGINAL_SOURCE_URL>
https://pubchem.ncbi.nlm.nih.gov/rest/pug/compound/inchikey/ZEWQUBUPAILYHI-UHFFFAOYSA-N/SDF?record_type=3d

> <SMILES>
CN1CCN(CCCN2C3=CC=CC=C3SC3=C2C=C(C=C3)C(F)(F)F)CC1

> <INCHI_IDENTIFIER>
InChI=1S/C21H24F3N3S/c1-25-11-13-26(14-12-25)9-4-10-27-17-5-2-3-6-19(17)28-20-8-7-16(15-18(20)27)21(22,23)24/h2-3,5-8,15H,4,9-14H2,1H3

> <INCHI_KEY>
ZEWQUBUPAILYHI-UHFFFAOYSA-N

> <FORMULA>
C21H24F3N3S

> <MOLECULAR_WEIGHT>
407.496

> <EXACT_MASS>
407.164303088

> <JCHEM_ACCEPTOR_COUNT>
3

> <JCHEM_AVERAGE_POLARIZABILITY>
41.94441396365014

> <JCHEM_BIOAVAILABILITY>
1

> <JCHEM_DONOR_COUNT>
0

> <JCHEM_FORMAL_CHARGE>
0

> <JCHEM_GHOSE_FILTER>
1

> <JCHEM_IUPAC>
10-[3-(4-methylpiperazin-1-yl)propyl]-2-(trifluoromethyl)-10H-phenothiazine

> <ALOGPS_LOGP>
4.87

> <JCHEM_LOGP>
4.655923626666667

> <ALOGPS_LOGS>
-4.67

> <JCHEM_MDDR_LIKE_RULE>
0

> <JCHEM_NUMBER_OF_RINGS>
4

> <JCHEM_PHYSIOLOGICAL_CHARGE>
1

> <JCHEM_PKA_STRONGEST_BASIC>
8.389157008062217

> <JCHEM_POLAR_SURFACE_AREA>
9.72

> <JCHEM_REFRACTIVITY>
110.97530000000002

> <JCHEM_ROTATABLE_BOND_COUNT>
5

> <JCHEM_RULE_OF_FIVE>
1

> <ALOGPS_SOLUBILITY>
8.76e-03 g/l

> <JCHEM_TRADITIONAL_IUPAC>
trifluoperazine

> <JCHEM_VEBER_RULE>
1

> <DRUGBANK_ID>
DB00831

> <SECONDARY_ACCESSION_NUMBERS>
APRD00173; DB08616

> <DRUG_GROUPS>
approved; investigational

> <GENERIC_NAME>
Trifluoperazine

> <SYNONYMS>
10-[3-(4-methyl-1-piperazinyl)propyl]-2-(trifluoromethyl)-10H-phenothiazine; Trifluoperazina; TrifluopÃ©razine; Trifluoperazine; Trifluoperazinum; trifluoromethyl-10-(3'-(1-methyl-4-piperazinyl)propyl)phenothiazine; Trifluoroperazine; Trifluperazine

> <PRODUCTS>
Novo-flurazine Tab 1mg; Novo-flurazine Tab 20mg; Novo-trifluzine - Tab 10mg; Novo-trifluzine - Tab 2mg; Novo-trifluzine - Tab 5mg; PMS Trifluoperazine HCl Syrup 11.8mg/ml; PMS Trifluoperazine Tab 10mg; PMS Trifluoperazine Tab 1mg; PMS Trifluoperazine Tab 20mg; PMS Trifluoperazine Tab 2mg; PMS Trifluoperazine Tab 5mg; PMS-trifluoperazine HCl Syr 1.18mg/ml; Stelabid Forte; Stelabid No 1; Stelabid No 2; Stelazine Tab 10mg; Stelazine Tab 1mg; Stelazine Tab 2mg; Stelazine Tab 5mg; Terfluzine Concentrate; Terfluzine-1; Terfluzine-10; Terfluzine-2; Terfluzine-5; Trifluoperazine; Trifluoperazine 10mg Tablets; Trifluoperazine 1mg Tablets; Trifluoperazine 2mg Tablets; Trifluoperazine 5mg Tablets; Trifluoperazine Hydrochloride; Trifluoperazine Tab 10mg; Trifluoperazine Tab 1mg; Trifluoperazine Tab 2mg; Trifluoperazine Tab 5mg

> <INTERNATIONAL_BRANDS>
Eskazine; Eskazinyl; Jatroneural; Modalina; Stelazine; Terfluzine; Trifluoperaz; Triftazin

> <SALTS>
Trifluoperazine hydrochloride

$$$$
