3676
  -OEChem-11291911483D

 39 39  0     0  0  0  0  0  0999 V2000
    0.6658   -0.1341    1.4612 O   0  0  0  0  0  0  0  0  0  0  0  0
    3.0943   -0.0513    0.1541 N   0  0  0  0  0  0  0  0  0  0  0  0
   -0.3988   -0.3956   -0.6150 N   0  0  0  0  0  0  0  0  0  0  0  0
    1.9647   -0.7259   -0.4841 C   0  0  0  0  0  0  0  0  0  0  0  0
    2.9035    1.3985    0.1306 C   0  0  0  0  0  0  0  0  0  0  0  0
    4.3466   -0.4130   -0.5090 C   0  0  0  0  0  0  0  0  0  0  0  0
   -1.7556   -0.1301   -0.3123 C   0  0  0  0  0  0  0  0  0  0  0  0
    0.6855   -0.3834    0.2600 C   0  0  0  0  0  0  0  0  0  0  0  0
   -2.5858   -1.1738    0.0688 C   0  0  0  0  0  0  0  0  0  0  0  0
   -2.2323    1.1693   -0.4028 C   0  0  0  0  0  0  0  0  0  0  0  0
    4.0688    2.1164    0.7901 C   0  0  0  0  0  0  0  0  0  0  0  0
    4.5916   -1.9108   -0.4404 C   0  0  0  0  0  0  0  0  0  0  0  0
   -3.9233   -0.9124    0.3660 C   0  0  0  0  0  0  0  0  0  0  0  0
   -3.5698    1.4306   -0.1054 C   0  0  0  0  0  0  0  0  0  0  0  0
   -2.0884   -2.5795    0.1705 C   0  0  0  0  0  0  0  0  0  0  0  0
   -1.3515    2.3053   -0.8116 C   0  0  0  0  0  0  0  0  0  0  0  0
   -4.4152    0.3898    0.2790 C   0  0  0  0  0  0  0  0  0  0  0  0
    1.8847   -0.4518   -1.5436 H   0  0  0  0  0  0  0  0  0  0  0  0
    2.0397   -1.8162   -0.4137 H   0  0  0  0  0  0  0  0  0  0  0  0
    2.7853    1.7718   -0.8951 H   0  0  0  0  0  0  0  0  0  0  0  0
    2.0086    1.7019    0.6821 H   0  0  0  0  0  0  0  0  0  0  0  0
    4.3689   -0.0807   -1.5546 H   0  0  0  0  0  0  0  0  0  0  0  0
    5.2034    0.0400   -0.0004 H   0  0  0  0  0  0  0  0  0  0  0  0
   -0.2548   -0.8084   -1.5341 H   0  0  0  0  0  0  0  0  0  0  0  0
    4.3240    1.6745    1.7594 H   0  0  0  0  0  0  0  0  0  0  0  0
    4.9621    2.1381    0.1583 H   0  0  0  0  0  0  0  0  0  0  0  0
    3.7962    3.1622    0.9729 H   0  0  0  0  0  0  0  0  0  0  0  0
    4.4517   -2.2992    0.5743 H   0  0  0  0  0  0  0  0  0  0  0  0
    3.9507   -2.4717   -1.1274 H   0  0  0  0  0  0  0  0  0  0  0  0
    5.6255   -2.1273   -0.7326 H   0  0  0  0  0  0  0  0  0  0  0  0
   -4.5959   -1.7110    0.6676 H   0  0  0  0  0  0  0  0  0  0  0  0
   -3.9698    2.4393   -0.1669 H   0  0  0  0  0  0  0  0  0  0  0  0
   -1.6513   -2.9034   -0.7798 H   0  0  0  0  0  0  0  0  0  0  0  0
   -1.3364   -2.6621    0.9619 H   0  0  0  0  0  0  0  0  0  0  0  0
   -2.8950   -3.2811    0.4096 H   0  0  0  0  0  0  0  0  0  0  0  0
   -0.8715    2.0953   -1.7733 H   0  0  0  0  0  0  0  0  0  0  0  0
   -1.9161    3.2364   -0.9311 H   0  0  0  0  0  0  0  0  0  0  0  0
   -0.5811    2.4817   -0.0539 H   0  0  0  0  0  0  0  0  0  0  0  0
   -5.4566    0.5935    0.5110 H   0  0  0  0  0  0  0  0  0  0  0  0
  1  8  2  0  0  0  0
  2  4  1  0  0  0  0
  2  5  1  0  0  0  0
  2  6  1  0  0  0  0
  3  7  1  0  0  0  0
  3  8  1  0  0  0  0
  3 24  1  0  0  0  0
  4  8  1  0  0  0  0
  4 18  1  0  0  0  0
  4 19  1  0  0  0  0
  5 11  1  0  0  0  0
  5 20  1  0  0  0  0
  5 21  1  0  0  0  0
  6 12  1  0  0  0  0
  6 22  1  0  0  0  0
  6 23  1  0  0  0  0
  7  9  2  0  0  0  0
  7 10  1  0  0  0  0
  9 13  1  0  0  0  0
  9 15  1  0  0  0  0
 10 14  2  0  0  0  0
 10 16  1  0  0  0  0
 11 25  1  0  0  0  0
 11 26  1  0  0  0  0
 11 27  1  0  0  0  0
 12 28  1  0  0  0  0
 12 29  1  0  0  0  0
 12 30  1  0  0  0  0
 13 17  2  0  0  0  0
 13 31  1  0  0  0  0
 14 17  1  0  0  0  0
 14 32  1  0  0  0  0
 15 33  1  0  0  0  0
 15 34  1  0  0  0  0
 15 35  1  0  0  0  0
 16 36  1  0  0  0  0
 16 37  1  0  0  0  0
 16 38  1  0  0  0  0
 17 39  1  0  0  0  0
M  END
> <DATABASE_ID>
DB00281

> <DATABASE_NAME>
drugbank

> <ORIGINAL_SOURCE>
PUBCHEM

> <ORIGINAL_SOURCE_URL>
https://pubchem.ncbi.nlm.nih.gov/rest/pug/compound/inchikey/NNJVILVZKWQKPM-UHFFFAOYSA-N/SDF?record_type=3d

> <SMILES>
CCN(CC)CC(=O)NC1=C(C)C=CC=C1C

> <INCHI_IDENTIFIER>
InChI=1S/C14H22N2O/c1-5-16(6-2)10-13(17)15-14-11(3)8-7-9-12(14)4/h7-9H,5-6,10H2,1-4H3,(H,15,17)

> <INCHI_KEY>
NNJVILVZKWQKPM-UHFFFAOYSA-N

> <FORMULA>
C14H22N2O

> <MOLECULAR_WEIGHT>
234.3373

> <EXACT_MASS>
234.173213336

> <JCHEM_ACCEPTOR_COUNT>
2

> <JCHEM_ATOM_COUNT>
39

> <JCHEM_AVERAGE_POLARIZABILITY>
27.765610056988027

> <JCHEM_BIOAVAILABILITY>
1

> <JCHEM_DONOR_COUNT>
1

> <JCHEM_FORMAL_CHARGE>
0

> <JCHEM_GHOSE_FILTER>
1

> <JCHEM_IUPAC>
2-(diethylamino)-N-(2,6-dimethylphenyl)acetamide

> <ALOGPS_LOGP>
1.81

> <JCHEM_LOGP>
2.842913359666667

> <ALOGPS_LOGS>
-2.60

> <JCHEM_MDDR_LIKE_RULE>
0

> <JCHEM_NUMBER_OF_RINGS>
1

> <JCHEM_PHYSIOLOGICAL_CHARGE>
1

> <JCHEM_PKA_STRONGEST_ACIDIC>
13.775423132503196

> <JCHEM_PKA_STRONGEST_BASIC>
7.754504502964598

> <JCHEM_POLAR_SURFACE_AREA>
32.34

> <JCHEM_REFRACTIVITY>
73.92960000000001

> <JCHEM_ROTATABLE_BOND_COUNT>
5

> <JCHEM_RULE_OF_FIVE>
1

> <ALOGPS_SOLUBILITY>
5.93e-01 g/l

> <JCHEM_TRADITIONAL_IUPAC>
palladium(2+) (4S,5S,14R,15R)-10-acetyl-4-(2-carboxyethyl)-15-ethyl-2-(2-methoxy-2-oxoethyl)-5,9,14,19-tetramethyl-20-[(2-sulfoethyl)carbamoyl]-21,22,23,24-tetraazapentacyclo[16.2.1.1^{3,6}.1^{8,11}.1^{13,16}]tetracosa-1,3(24),6,8,10,12,16(22),17,19-nonaene-21,23-diide

> <JCHEM_VEBER_RULE>
1

> <DRUGBANK_ID>
DB00281

> <SECONDARY_ACCESSION_NUMBERS>
APRD00479; DB05291

> <DRUG_GROUPS>
approved; vet_approved

> <GENERIC_NAME>
Lidocaine

> <SYNONYMS>
2-(Diethylamino)-2',6'-acetoxylidide; 2-(Diethylamino)-N-(2,6-dimethylphenyl)acetamide; alpha-diethylamino-2,6-dimethylacetanilide; LidocaÃ­na; Lidocaina; Lidocaine; Lidocainum; Lignocaine; Î±-diethylamino-2,6-dimethylacetanilide

> <PRODUCTS>
0.4% Lidocaine Hydrochloride and 5% Dextrose Injection USP; 1% Lidocaine Hci; 10 Person ANSI; 1st Medxpatch With Lidocaine 4%; 1st Medxpatch With Lidocaine 4%-rx; 1st RELIEF TOPICAL; 2% Lidocaine Hci; 2% Lidocaine and Epinephrine 1:100,000 Injection USP; 25 Person ANSI; 3 Step First Aid Kit; 3-Step First Aid Kit; 4007 First Aid Kit; 4013 First Aid Kit; 4017 First Aid Kit; 4019 First Aid Kit; 4022 First Aid Kit; 4032 First Aid Kit; 4042 First Aid Kit; 4043 First Aid Kit; 4044 First Aid Kit; 4045 First Aid Kit; 4047 Fist Aid Kit; 4048 Fist Aid Kit; 4049 First Aid Kit; 4050 First Aid Kit; 4051 First Aid Kit; 4052 First Aid Kit; 4056 First Aid Kit; 4064 First Aid Kit; 4065 First Aid Kit; 4066 First Aid Kit; 4067 First Aid Kit; 4068 First Aid Kit; 4069 First Aid Kit; 4074 First Aid Kit; 4076 First Aid Kit; 4078 First Aid Kit; 4079 First Aid Kit; 4081 First Aid Kit; 4082 First Aid Kit; 4083 First Aid Kit; 4084 First Aid Kit; 4085 First Aid Kit; 4086 First Aid Kit; 4087 First Aid Kit; 4088 First Aid Kit; 4089 First Aid Kit; 4090 First Aid Kit; 4097 First Aid Kit; 4098 First Aid Kit; 4099 First Aid Kit; 4100 First Aid Kit; 4101 First Aid Kit; 4102 First Aid Kit; 4103 First Aid Kit; 4104 First Aid Kit; 4105 First Aid Kit; 4106 First Aid Kit; 4107 First Aid Kit; 4108 First Aid Kit; 4109 First Aid Kit; 4110 First Aid Kit; 4111 First Aid Kit; 4112 First Aid Kit; 4113 First Aid Kit; 4114 First Aid Kit; 4115 First Aid Kit; 4116 First Aid Kit; 4117 First Aid Kit; 4118 First Aid Kit; 4119 First Aid Kit; 4120 First Aid Kit; 4121 First Aid Kit; 4128 First Aid Kit; 4129 First Aid Kit; 4131 First Aid Kit; 4132 First Aid Kit; 4133 First Aid Kit; 4134 First Aid Kit; 4136 First Aid Kit; 4138 First Aid Kit; 4139 First Aid Kit; 4140 First Aid Kit; 4141 First Aid Kit; 4142 First Aid Kit; 4144 First Aid Kit; 4146 First Aid Kit; 4147 First Aid Kit; 4148 First Aid Kit; 4149 First Aid Kit; 4150 First Aid Kit; 4151 First Aid Kit; 4152 First Aid Kit; 4153 First Aid Kit; 4154 First Aid Kit; 4155 First Aid Kit; 4156 First Aid Kit; 4157 First Aid Kit; 4159 First Aid Kit; 4162 First Aid Kit; 4163 First Aid Kit; 4166 First Aid Kit; 4167 First Aid Kit; 4168 First Aid Kit; 4171 First Aid Kit; 4172 First Aid Kit; 4173 First Aid Kit; 4184 First Aid Kit; 4185 First Aid Kit; 4186 First Aid Kit; 4187 First Aid Kit; 4188 First Aid Kit; 4189 First Aid Kit; 4190 First Aid Kit; 4191 First Aid Kit; 4192 First Aid Kit; 4193 First Aid Kit; 4194 First Aid Kit; 4195 First Aid Kit; 4196 First Aid Kit; 4197 First Aid Kit; 4198 First Aid Kit; 4199 First Aid Kit; 4200 First Aid Kit; 4201 First Aid Kit; 4202 First Aid Kit; 4203 First Aid Kit; 4204 First Aid Kit; 4205 First Aid Kit; 4206 First Aid Kit; 4207 First Aid Kit; 4208 First Aid Kit; 4210 First Aid Kit; 4212 First Aid Kit; 4216 First Aid Kit; 4218 First Aid Kit; 4219 First Aid Kit; 4220 First Aid Kit; 4222 First Aid Kit; 4223 First Aid Kit; 4224 First Aid Kit; 4225 First Aid Kit; 4227 First Aid Kit; 4228 First Aid Kit; 4231First Aid Kit; 4234 First Aid Kit; 4235 First Aid Kit; 4236 First Aid Kit; 4237 First Aid Kit; 4238 First Aid Kit; 4239 First Aid Kit; 4243 First Aid Kit; 4245 First Aid Kit; 4246 First Aid Kit; 4247 First Aid Kit; 4248 First Aid Kit; 4249 First Aid Kit; 4250 First Aid Kit; 4251 First Aid Kit; 4252 First Aid Kit; 4253 First Aid Kit; 4254 First Aid Kit; 4255 First Aid Kit; 4256 First Aid Kit; 4257 First Aid Kit; 4258 First Aid Kit; 4259 First Aid Kit; 4260 First Aid Kit; 4261 First Aid Kit; 4264 First Aid Kit; 4265 First Aid Kit; 4266 First Aid Kit; 4267 First Aid Kit; 4269 First Aid Kit; 4270 First Aid Kit; 4271 First Aid Kit; 4272 First Aid Kit; 4273 First Aid Kit; 4274 First Aid Kit; 4275 First Aid Kit; 4276 First Aid Kit; 4277 First Aid Kit; 4278 First Aid Kit; 4279 First Aid Kit; 4280 First Aid Kit; 4281 First Aid Kit; 4282 First Aid Kit; 4283 First Aid Kit; 4284 First Aid Kit; 4285 First Aid Kit; 4286 First Aid Kit; 4288 First Aid Kit; 4289 First Aid Kit; 4290 First Aid Kit; 4291 First Aid Kit; 4293 First Aid Kit; 4295 First Aid Kit; 4298 First Aid Kit; 4299 First Aid Kit; 4300 First Aid Kit; 4301 First Aid Kit; 4302 First Aid Kit; 4303 First Aid Kit; 4304 First Aid Kit; 4305 First Aid Kit; 4306 First Aid Kit; 4307 First Aid Kit; 4308 First Aid Kit; 4309 First Aid Kit; 4310 First Aid Kit; 4311 First Aid Kit; 4312 First Aid Kit; 4313 First Aid Kit; 4318 First Aid Kit; 4319 First Aid Kit; 4320 First Aid Kit; 4321 First Aid Kit; 4322 First Aid Kit; 4323 First Aid Kit; 4326 First Aid Kit; 4327 First Aid Kit; 4329 First Aid Kit; 4330 First Aid Kit; 4331 First Aid Kit; 4332 First Aid Kit; 4333 First Aid Kit; 4334 First Aid Kit; 4335 First Aid Kit; 4336 First Aid Kit; 4337 First Aid Kit; 4338 First Aid Kit; 4340 First Aid Kit; 4342 First Aid Kit; 4344 First Aid Kit; 4345 First Aid Kit; 4346 First Aid Kit; 4347 First Aid Kit; 4348 First Aid Kit; 4349 First Aid Kit; 4350 First Aid Kit; 4351 First Aid Kit; 4352 First Aid Kit; 4353 First Aid Kit; 4357 First Aid Kit; 4359 First Aid Kit; 4360 First Aid Kit; 4362 First Aid Kit; 4363 First Aid Kit; 4364 First Aid Kit; 4365 First Aid Kit; 4369 First Aid Kit; 4370 First Aid Kit; 4371 First Aid Kit; 4372 First Aid Kit; 4373 First Aid Kit; 4374 First Aid Kit; 4375 First Aid Kit; 4376 First Aid Kit; 4378 First Aid Kit; 4379 First Aid Kit; 4380 First Aid Kit; 4389 First Aid Kit; 4390 First Aid Kit; 4391 First Aid Kit; 4392 First Aid Kit; 4395 First Aid Kit; 4396 First Aid Kit; 4397 First Aid Kit; 4400 First Aid Kit; 4401 First Aid Kit; 4402 First Aid Kit; 5% Xylocaine Mpf With Glucose 7.5% Injection; 50 Person ANSI; ACME FIRST AID Contains 404 PIECES; ACME Small Cuts and Burns; ACTIVE-PAC with Gabapentin; ADVANCED NUMB Topical Anesthetic; ARC Emergency Preparedness FIRST AID Contains 202 PIECES; ARC FIRST AID Contains 1000 PIECES; ARC FIRST AID Contains 101 PIECES; ARC FIRST AID Contains 101 PIECES Hardcase; ARC FIRST AID Contains 303 PIECES; ARC FIRST AID Contains 303 PIECES HARDCASE; ARC FIRST AID Contains 404 PIECES; ARC FIRST AID Emergency Preparedness Contains 167 PIECES; Absorbine jr. Lidocaine; Accucaine; Acme Home/Office/Auto Kit; Activate Joint and Muscle Relief; Acunistat-30; Acunistat-60; Adazin; Advanced DNA Medicated Collection; Advanced DNA Medicated Collection Kit II; Advanced DNA Medicated Collection Kit III; Aerowound Blood Clotting First Aid; Afassco Burn Gel; Afassco First Aid Burn Cream; Aflexeryl-LC; After Bite Wipe; After Burn; After Cuts and Scrapes; After Sun Burn Relief Lidocaine Continuous Spray; After Sun Gel; After Sun Soothing Spray; AfterBurn; Aftersun Cooling CVS; AgonEaze; Akten; Alcoholada Gel Pain Relieving Pain; Alcoholada Pain Relieving; Alocane; Alocane Emergency Burn; Alocane Emergency Burn Pads; Alocane On The Go; Alocane Plus; Alocane Severe Sunburn; Aloe; Aloe Burn Relief; Aloe Gel Pain Reliever Well at Walgreens; Aloe Ice Sunburn Relief; Aloe Ice Sunburn Relief Jelly; Aloe Vera Gel; Ambator Lidocaine Patch; Amino Rip Muscle Pain Relief; Amniocentesis Tray 1%; Amour CBD; Ana-Lex; AnaMantle HC; Analgesic; Anecream; Anecream 5; Anesta; Anestacon; Anestafoam; Anesthetic; Anodyne Ile; Anodyne LPT; AnodyneRx; Anorectal; Anorectal Equate; Anorectal Walgreens; Antecubital Cent Venous Catheterization Kit; Antibacterial Lidocaine Wound Gel; Antibiotic Cream Plus Pain Relief; Antibiotic Cream Plus Pain Relief for Kids; Antibiotic Cream for Kids; Antibiotic Free Wound Gel and Pain Relief; Antibiotic Plus Pain Relief Cream; Antiseptic; Antiseptic Formula Filled Swab; Apicaine-X; Apr15; Aprizio Pak; Arrow Central Venous Catheterization Kit; Arrow Multi-lumen Central Venous Catheter Kit; Arrow Pneumothorax Kit; Arrow Two-lumen Central Venous Cathetar Kit; Arrow Two-lumen Jugular Catheterization Kit; Arthrogram Tray 1%; Aspercreme; Aspercreme Lidocaine XL; Aspercreme with Lidocaine; Aspercreme with Lidocaine Dry; Aspercreme with Lidocaine Foot Pain Creme; Aspercreme with Lidocaine No-Mess Applicator; Aspercreme with Lidocaine Pain Relieving Creme; Aspercreme with Lidocaine XL; Assured; Assured Bikini Smooth Cream; Assured Pain Relief; Astero; Atelocollagen Implant; Atendia; Aubio Life Sciences Lip; Australian Gold Aloe Freeze Gel with Lidocaine; Auto 157; AvaDerm; Avalin External Analgesic Patch; Avalin-RX; Avon Foot Works Therapeutic Cracked Heel Relief Cream; BLUE ACME SLEEVE FIRST AID Contains 1000 PIECES; BZ Step Pain Relief Cream; Baciguent Plus Pain Reliever Ont; Bactine First Aid Spray; Bactine First Aid Spray Liq; Bactine Max; Bactine Original First Aid; Bactine Pain Relieving; Bakers Best Arthritis Pain Relief; Banana Boat Sooth-A-caine Spray Gel; Banana Boat Sooth-A-caine W.moist.aloe V.gel; Banana Boat Soothacaine Spray Gel; Band-Aid Brand Hurt-Free Antiseptic Pain Relieving; Band-Aid Brand Hurt-Free Antiseptic Wash; Band-aid Brand Antiseptic Wash; Basic Biopsy Tray 1%; Basic Care Endure; Basic Care Lidocaine; BeKoool Itch Relief; Bed Bug Instant Bite Relief; Bene Patch; BenePatch; Benzalkonium Chloride and Lidocaine Hydrochloride; Benzocaine 20% / Lidocaine 10% / Tetracaine 10%; Beta Inject Kit; Betacaine Gel; Betalido Kit; Bikini Relief; Bikini Zone; Bikini Zone Medicated; Bikini Zone Medicated CREME; Bikini Zone Topical Analgesic Gel; Bio-Scriptives Lidum; Bio-Scriptives Lidum Hemorroidal (Anorectal); Bio-Scriptives Lidum Topical Analgesic; Biotic-Plus; Bite and Sting Relief Wipe; Bl; Blood Clotting First Aid; Blt 2; Blue Tube; Blue-Emu Lidocaine Pain Relief Cream; BonaDur; Bottoms Up; Braline Patch; Budpak First Aid; Burn; Burn Cream; Burn First Aid; Burn Jel; Burn Jel 20 mg/g; Burn Jel Plus; Burn Mist; Burn N Bite; Burn Relief; Burn Relief CVS; Burn Relief Cream; Burn Relief Extra Strength Kool-Down; Burn Relief Gel; Burn Relief Gel With Lidocaine; Burn Relief Kol-Down; Burn Relief Leader; Burn Relief Pain Reliever Well at Walgreens; Burn Relief Professional Bio-Kool; Burn Relief Professional Kool-Down; Burn Relief Signature Care; Burn ReliefPreferred Plus Ph Preferred Plus Pharmacy; Burn ReliefRelief; Burn Treatment; Burn relief aloe Daylogic; Burn with Aloe; Burn with Lidocaine; BurnX Pain Relieving Burn; BurnZone; Burncare Kit; Burncare Spray; Burnrelief; Bus and Classroom Yellow; CANNA NUMB Pain Relief; CANNA NUMB Roll On; CBD Clinic - Mild Pain Therapy; CBD Clinic Pain Relief - Level 1; CBD MIST Topical Anesthetic; CBD Medic - Odor-Free Serious Relief; CBD pain cream; CBDMEDIC Itch and Rash; CLIN-LIDO-Single Use Kit; CLM Patch; COOL CURE Pain Relief; CVS All Purpose First Aid Kit; CVS Antiseptic Wash; CVS Bacitracin with Pain Relief; CVS Burn Relief w/Lido 8oz; CVS Cold and Hot; CVS First Aid Kit; CVS Health Aftersun Aloe Vera Cooling; CVS Health All Purpose Kit; CVS Health Antibiotic Free Wound and Pain Relief; CVS Health Antiseptic Wound Wash; CVS Health Cold and Hot Roll-On; CVS Health Lidocaine Pain Relief; CVS Health Lidocaine Pain-Relieving; CVS Health XL Lidocaine Pain Relief; CVS Lidocaine Maximum Strength; CVS Pain Relief; CVS Pain Relieving First Aid Antiseptic; CYHOT Cream with Lidocaine Well at WAlgreens; Cacitrix; Cadira Compliant Blood Stat; Care Bus and Classroom Yellow; Caribbean Breeze Burn Relief; Carpal Comfort; Cathejell; Cbd-kings With Lidocaine 4%; Central Vein Catheterization Kit; Central Venous Catetherization Kit; Central Venous Catheter Expanded Kit; Chi-Myst Resolve Topical; Chi-Myst Synergy Topical; Cicloferon; CidalEaze; Cimetidine 10% / Lidocaine 5% / Salicylic Acid 40%; Coachs First Aid Contains 102 Pieces; Cold Sore TREATMENT; Cold Sore Treatment; Cold and Heat Lidocaine Patch Plus Menthol; Comfort EZ Extra Strength Pain Relief Patch; Comfort EZ Extra StrengthTransdermal Patch; Comfort EZ Pain Relief Patch; Comfortcaine; Comfortox Lidocaine; Complete Antibiotic Ointment; Continuous Epidural Anesthesia Tray; Cooling Gel; Coralite Lidocaine Pain Relief; Coralite Odor Free Pain Relief; Curacaine; Cutiecaine; Cutiecaine-5%; D-Care 100X; DAYMARK FAK-35 First Aid; DERMA ICE BURN RELIEF with Aloe Vera; DG Health Pain Relieving; DG health; DX1 OraGenomic Medicated DNA Collection Screen; DX2 OraGenomic Medicated DNA Collection Screen; DYNAMO DELAY Black Label; Dbk; De La Cruz Mercurochrome; Deeveeant Numb; DentiPatch; Dentsply 2% Lidocaine With Epinephrine 1:100,000; Dentsply 2% Lidocaine With Epinephrine 1:50,000; Depo-medrol With Lidocaine; Derma Gel Relief; Derma Numb; Derma Numb Pain Relief; Derma-Caine; DermaNumb Analgesic; DermaNumb Anesthetic Gel; DermaNumb Tattoo Anesthetic; DermaNumb Tattoo Anesthetic Gel; DermacinRx Cinlone-I CPI; DermacinRx Cinlone-II CPI; DermacinRx DPN Pak; DermacinRx Empricaine; DermacinRx Lexifen; DermacinRx Lido V Pak; DermacinRx Lidotral; DermacinRx PHN Pak; DermacinRx Prikaan; DermacinRx Prizopak; DermacinRx ZRM Pak; Dermatologic Relief; Dermazyl; Desert Harvest RELEVEUM; Dexlido Kit; Dexlido-M Kit; Dibucaine HCl 0.5% / Lidocaine 15% / Phenylephrine HCl 1% / Prilocaine 5%; Diclovix; Discount Drug Mart Pain Relief Patches; Disposable Convenience Kit (Single Shot Epidural); Doans Pain Relieving; Dollar General Pain Relieving Patch with Lidocaine; Dologesic Roll-On; Dolor-parche With Lidocaine-RX; Doloracin/l Rx With Lidocaine; Dolotranz; Dr. Numb; Dr. Richs Numbing; Dr. Scholl's Cracked Heel Relief Cream; Dragon Pain Numbing Topical Analgesic; Dragon Pain Relief; Duane Reade Aloe Vera Pain Relieving; Duane Reade Burn Relief Pain Relieving Gel; Duocaine; DyNAmic Kit; DyNAmic Plus Pak Kit; Dynamo Delay; Dynarex Burn Cream; Dyural 40 Kit; Dyural 80 Kit; Dyural L Kit; Dyural LM Kit; Dyve Comfort L; ECOLAB Blood Clotting; ECOLAB Burn; ECOLAB Burn Cream; ENDURE Male Genital Desensitizing; EQUATE Sunburn relief with Aloe After Sun; EXTRA STRENGTH AND MUSCLE RELIEF 900 mg; EXTRA STRENGTH JOINT AND MUSCLE RELIEF 1500 mg; Ear Pain MD; Easy Care First Aid - All Purpose; Easy Care First Aid AfterBurn; Easy Care First Aid Chest - Home and Workshop; Easy Care First Aid Kit - Comprehensive; Ebsl-5; Ebss-5; Eclipse Topical Anesthetic; Eha; Elite; Elite PAIN RELIEF; Emla; Emla Cream; Emla Patch; Endoxcin; Endurance Rx Male Desensitizer; Endure; Epidural Anesthesia Tray; Equaline Lidocaine; Equate After Sun Gel With Lidocaine; Equate Pain Relief Cream; Equate Pain Relieving Cream Lidocaine; Exchange Select Burn Relief Pain Relieving; Expanded Multi-med Kit; Exsel Aloe; Extra Strength AfterTAT; Extra Strength AfterTAT Slime; Extra Strength First Aid; Extra Strength Foot Care Liquid Gel; Extra Strength Liquid Bedsore Relief Gel; Extra Strength Liquid Burn Relief Gel; Extra Strength Liquid Hemorrhoid Relief Gel; Extra Strength Liquid Insect Bite Relief Gel; Extra Strength Liquid Numbing Gel; Extra Strength Naturally HL Foot Care; Extra Strength Naturally HL Warming Ice; Extra Strength Naturally Hl Foot Care; Extra Strength Naturally Hl Hand Care; Extra Strength Naturally Hl Itch Relief; Extra Strength Naturally Hl Sunburn Relief; Extra Strength Naturally Hl Warming Ice; Extra Strength Numbify Anorectal; Extra Strength Numbing Gel; Extra Strength Postherpetic Neuralgia; Extra Strength Postherpetic Neuralgia Care; Extra Strength Postherpetic Neuralgia Relief; Extra Strength Postpartum Relief; Extra Strength PreTAT; Extra Strength Pruritis Care; Extra Strength Pruritis Relief; Extra Strength Scar Prevention; Extra Strength Shingle Chickenpox Relief; Extra Strength Shingles Chickenpox Relief; Extra Strength Skin Repair; Extra Strength Skin repair; Extra Strength Sunburn Relief; Extra Strength Wound Care; Ez Pain Relieving; FAK Care4 Bus and School Yellow ORM D; FAK Large Office First Aid kit; FIRST AID Contains 1000 PIECES; FIRST AID Contains 101 PIECES; FIRST AID Contains 101 PIECES HARDCASE; FIRST AID Contains 202 PIECES; FIRST AID Contains 303 PIECES; FIRST AID Contains 303 PIECES HARDCASE; FIRST AID Contains 404 PIECES; FIRST BXN Mouthwash; FIRST Mouthwash BLM; Family Medic First Aid Treatment - Liq; Family Medic First-aid Treatment Liquid; Family Medic First-aid Treatment Lotion; Feel Better Now; First Aid; First Aid Antiseptic; First Aid Antiseptic Pain Relieving; First Aid Antiseptic Rite Aid pharmacy; First Aid Antiseptic Swabs; First Aid Antiseptic Well at Walgreens; First Aid Burn; First Aid Burn Cream; First Aid Burn Relief Rite Aid; First Aid Kit 64058024; First Aid Kit Medication Filled Swabs; First Aid Macimum Sterngth Bacitraycin Plus; First Aid Only Burn; First Aid Only Burn Mist; First Aid Only First Aid/ Burn; First Aid Pocket Pack - 40 Pieces; First Aid Research Bacitraycin Plus Maximum Vertical; First Aid Spray; First Aid Triple Antibiotic with Pain Reliever; First Aid Value Pack - 77 Pieces; First Aid and Burn; First aid and Burn; FirstCare Pain Relief Gel Patch; Fluocinolone Acetonide 0.025% / Lidocaine HCl Monohydrate 1%; Fonow; Foot Hangover; Foot Works Cracked Heel; Foot Works Healthy Cracked Heel Cream; Footworks Healthy Cracked Heel Cream; Footworks Maximum Strength Cracked Heel; Fortacin; Fossaoprin SPG2; Fossaoprin SPG4; Freds Antiseptic Wash; Fruit of the Earth Aloe Vera Cool Blue; Fruit of the Earth Cool Blue Aloe Mist Continuous; Fsk-5; GENUINE FIRST AID Emergency Preparedness Contains 167 PIECES HARDCASE; GENUINE FIRST AID Emergency Preparedness Contains 167 Pieces; GFA First Aid; GFA First Aid 16 Unit Metal Case; GFA First Aid 24 Unit Metal Case; GFA First Aid 36 Unit Metal Case; GFA First Aid 75 Person Metal Case; GOOD NEIGHBOR PHARMACY FIRST AID Contains 202 PIECES; GPL Pak; Gabacaine; Gardeners Skin Remedy Topical Analgesic Gel; GelAzul Roll-On; Gen 7t; Gen7T; Gen7T Plus; General Numb; Genetic Amniocentesis Tray Kit; Genuine First Aid Burn; Genuine First Aid Burn Antiseptic Pain Relief With Aloe; Genuine First Aid Industrial First Aid; Gigi Anesthetic Numbing; Glydo; Gold Bond Medicated Pain and Itch Relief; Gold Bond Pain and Itch; Good Neighbor Pharmacy Aloe Vera; Good Neighbor Pharmacy Burn Relief Aloe Extra; Good Neighbor Pharmacy Emergency Preparedness and First Aid Contains 167 Pieces; Good Sense endure; GoodSense Burn Relief Gel; GoodSense Pain Relief; Green Guard Derma-Caine; Green Guard Derma-Caine Burn; Green Guard Super Stat Blood Clotting First Aid; Greencaine Blast; H-Paxin; H-Releve Hemorrhoidal; H2Ocean Nothing Tattoo Glide And Soothing Balm; HAWAIIAN Tropic; HEM-EASY RELIEF Herbal Hemorrhoidal; HUMCO Mercuroclear; HUSH Fast Acting Topical Anesthetic; Haku Kalima; Harmony Neur Pain Relief; Harmony Neuro 4% Lidocaine Pain Relief 500mg; Harmony Neuro Pain Relief; Harmony Numbing Cream; Harmony Products LLC.; Hawaiian Tropic After Sun AprÃ¨s Soleil Sunburn Relief Soulagement Des Coups De Soleil; Healerz for Noses; Health Mart Lidocaine; HemAway; Hemorrhoid Master Hemorrhoid and Fissure; Hemorrhoid Relief; Hemorrhoid Relief Cream; Hemorrhoid and Fissure Dr. Butler; Hemorrhoidal; Hemorrhoidal Relief Cream; Hempvana Pain Relief; Holy Water Mercy In A Bottle; Hot Cold Lidocaine With Menthol; Hot and Cold Cream with Lidocaine Pain Relieving; Hot and Cold Cream with Lidocaine- RA Pain Relieving; Hot and Cold Lidocaine with Menthol Patch Pain Relief; Hot and Cold with Lidocaine Pain Relieving; Hot and Cold with Lidocaine-Careone Pain Relieving; Hot and Cold with Lidocaine-RA Pain Relieving; Hush Anesthetic; Hustle Helper; Hyaluronic Acid 60mg and Lidocaine 2% PF; Hydrocath Central Venous Catheter Kit; I.C.E. Lidocaine Gel - Gel Lidocaine; IV Infusion CPI; Icy Hot; Icy Hot Lidocaine Dry; Icy Hot Lidocaine Pain Relieving Cream Plus Menthol; Icy Hot with Lidocaine; Icy Hot with Lidocaine Pain Relieving; Inflammation Reduction Pack; Innoprax-5; Insta Relief DM; Instant Burn Relief; Instant Burn Relief Aloe Extra CVS; Instant Cool Skin Instant Relief. Sudden Results; Instillagel; Interarticular Joint Kit; Itch Relief; Itch relief Cream; Iwk-5; JOINT AND MUSCLE RELIEF 450 mg; JOINT AND MUSCLE RELIEF 750 mg; JTT Physicians Joint, Tunnel and Trigger; Jampocaine 2% Viscous Solution; Jampocaine 5%; Jamshidi Bone Marrow Biopsy Tray; Jamshidi Menghini Soft Tissue Biopsy Tray; Jelido; K-Mart SmartSense First Aid Contains 101 Pieces; K-Mart SmartSense First Aid Contains 303 Pieces; K10-lido; K2k; K40-lido; KDS Lab Liquid Styptic; KY Duration for Men; Keepan A; Kendra SKIN PROTECTION and PAIN RELIEF FOR HAIR REMOVAL; Ketorocaine L Kit; Ketorocaine LM Kit; Kit Breakroom Office First Aid; Kit Large Office First Aid; Kope Pain relief gel; Kroger Aloe Vera Pain Relieving; Kroger Burn Relief Aloe; LIDOCAINE HCl; LMR Plus; LP Lite PAK; LUCKY SUPERSOFT sunburn relief; Large ANSI First Aid Kit; Laryng O Jet Kit; Laryng-O-Jet; Leader After Sun Cooling; Leader Burn Relief; Leader PAIN RELIEF PATCHES; Leep RediKit; Lenza Pro; LenzaGel; LenzaPatch; Leva Set with Occlusive Dressing; LevigoLT; LevigoSP; LexiLido; Leximenth; LiProZonePak; Lid O Creme Roll On; LidAll; Lidenza Patch; Lidenzal 1%; Lidenzal 2%; Lido AID; Lido Bdk; Lido E.R.CREME ROLL ON; Lido GB-300; Lido King; Lido Rx; Lido-K; Lido-Prilo Caine Pack; Lido-RX 4.1; Lido-Sorb External; Lido-mp40; LidoCream 10; LidoCream 4; LidoCream 5; LidoFLEX; LidoFLEX Elbow, Single Pouch; LidoPatch; LidoPatch Pain Relief; LidoPlus Pain Relief; LidoPlus Pain Relief Patch; LidoPro; LidoPro Patch; LidoPure Patch; LidoRxKit; LidoSport Pain Relief; LidoSport Pain Relief Patch; LidoStat; LidoStream; LidoVir; LidoWorx; LidoXib; Lidocaine; Lidocaine 0.2% In 5% Dextrose Inj; Lidocaine 15% / Phenylephrine HCl 0.25% / Prilocaine 5%; Lidocaine 2% / Mupirocin 2%; Lidocaine 2% and Epinephrine 1:100 000; Lidocaine 2% and Epinephrine 1:100,000; Lidocaine 2% and Epinephrine 1:100,000 Injection; Lidocaine 2% and Epinephrine 1:50 000; Lidocaine 2% and Epinephrine 1:50,000; Lidocaine 2.5% and Prilocaine 2.5% Cream; Lidocaine 23% / Tetracaine 7%; Lidocaine 3% Topical Anesthetic Cream; Lidocaine 30%; Lidocaine 4 Percent PLUS; Lidocaine 4%; Lidocaine 4% Cream; Lidocaine 4% plus Menthol 1%; Lidocaine 5%; Lidocaine 7% / Tetracaine 7%; Lidocaine HCl; Lidocaine HCl - Hydrocortisone Acetate; Lidocaine HCl - Hydrocortisone Acetate with Aloe; Lidocaine HCl 0.2% and Dextrose 5% Inj; Lidocaine HCl 0.4% and 5% Dextrose Inj; Lidocaine HCl 0.8% and 5% Dextrose Inj; Lidocaine HCl 3.88%; Lidocaine HCl 4 Percent and Menthol 4 Percent; Lidocaine HCl 4%; Lidocaine HCl 4% Menthol 1%; Lidocaine HCl Hydrocortisone Acetate; Lidocaine HCl Inj 1%; Lidocaine HCl Inj 10mg/ml USP; Lidocaine HCl Inj 20mg/ml; Lidocaine HCl Injection; Lidocaine HCl Injection USP 1% (50 Mg/5ml); Lidocaine HCl Injection USP 1% (50mg/5ml); Lidocaine HCl Injection With Preservative; Lidocaine HCl Jelly 2%; Lidocaine HCl Topical Solution; Lidocaine HCl and Dextrose 5% Inj USP; Lidocaine HCl and Hydrocortisone Acetate; Lidocaine Hci; Lidocaine Hci and Dextrose; Lidocaine Hci and Epinephrine; Lidocaine Hci and Epinephrine With Epinephrine; Lidocaine Hydrochloride; Lidocaine Hydrochloride - Hydrocortisone Acetate; Lidocaine Hydrochloride 0.5% and Epinephrine 1:200000 Injection USP; Lidocaine Hydrochloride 1.5% and Epinephrine 1:200000 Injection USP; Lidocaine Hydrochloride 1.5% and Epinephrine 1:200000 Injection USP Test Dose; Lidocaine Hydrochloride Gel; Lidocaine Hydrochloride Hydrocortisone Acetate; Lidocaine Hydrochloride Injection; Lidocaine Hydrochloride Injection USP; Lidocaine Hydrochloride Injection USP 0.5%; Lidocaine Hydrochloride Injection USP 2%; Lidocaine Hydrochloride Injection, USP 1%; Lidocaine Hydrochloride Monohydrate; Lidocaine Hydrochloride Solution; Lidocaine Hydrochloride Topical Solution USP; Lidocaine Hydrochloride Viscous; Lidocaine Hydrochloride and 5% Dextrose Injection USP; Lidocaine Hydrochloride and Dextrose; Lidocaine Hydrochloride and Epinephrine; Lidocaine Hydrochloride and Epinephrine Bitartrate; Lidocaine Hydrochloride and Epinephrine Injection USP; Lidocaine Hydrochloride and Hydrocortisone Acetate; Lidocaine Hydrochloride, Hydrocortisone Acetate; Lidocaine Injection BP; Lidocaine Maximum Strength; Lidocaine Menthol Pain Relief; Lidocaine Ointment USP; Lidocaine Ointment USP, 5%; Lidocaine Ont 5% Graham Flavored; Lidocaine Pain Relief Gel Patch; Lidocaine Pain Relief Patch; Lidocaine Pain Relief Roll-On; Lidocaine Pain Relieving Creme; Lidocaine Patch; Lidocaine Plus Maximum Strength Pain Relieving Cream; Lidocaine Viscous; Lidocaine and Epinephrine Inj.usp 2% 1:100000; Lidocaine and Prilocaine; Lidocaine and Prilocaine Cream; Lidocaine and Tetracaine; Lidocaine hydrochloride; Lidocaine plus Menthol; Lidocaine-Prilocaine-Cream Base; Lidocaine4; Lidocare 03; Lidocare Arm, Neck, Leg; Lidocare Mist; Lidocin; Lidocoll; Lidodan 4% Topical Solution; Lidodan Cream 4%; Lidodan Cream 5%; Lidodan Endotracheal Non-aerosol Spray; Lidodan Jelly 2%; Lidodan Jelly 2%(single Use Syringe); Lidodan Ointment 5%; Lidodan Viscous 2%; Lidoderm; Lidoderm 5; Lidodextrapine; Lidodose; Lidolog Kit; Lidomax 5; Lidomyxin; Lidonexe; Lidopac; Lidopatch; Lidopen; Lidopin; Lidopril; Lidopril XR; Lidopro; Lidosite; Lidosporin Cream; Lidosporin Ear Drops; Lidothal Relief; Lidothol; Lidothol Gel; Lidotrans 5 Pak; Lidovex; Lidovin; Lidovix Delayed Release; Lidoxryl; Lidozen; Lidozion; Lidozol; LifeStyles EPIC Male Genital Desensitizer; Lignospan Forte; Lignospan Speciale Inj; Lignospan Standard; Limencin; Lipocaine 5; Lipovite; Liprotek; Lipsorex Plus; Liquid Sex; Livixil Pak; Lixtraxen 1%; Lmx4; Lmx5; Lorenza Pain Relief Patch; Lt; Lumbar Puncture Tray 1%; Lumbar Puncture Tray 1% Pediatric/infant; Lyracaine Gel; MAKESENSE First Aid; MAXIMUM STRENGTH Lidocaine Plus Menthol; MAXOCAINE Topical Anesthetic; MLK F1 Kit; MLK F3 Kit; MLK F4 Kit; MLK Kit F2; MTX Topical Pain; MaL; Male Genital Desensitizer Stud 100; Marbeta L Kit; Marlido 25 Kit; Marlido Kit; Max 4 Men - Max Control Male Sex Prolong Unscented; Maxilene 4; Maxilene 5; Maximum Stremgth Pain Relief Good Sense; Maximum Stremgth Pain Relieving DG Health; Maximum Strength Burn Relief Aloe Gel Scherer Labs; Maximum Strength Cold and Hot CVS; Maximum Strength Pain Relief; Maximum strength Lidocaine Patch; Maximun Strength Lidocaine Patch Plus Menthol; Maxocaine Pain Relieving Roll-ON; Med Numb; Medi-First Burn; Medi-First First Aid Burn Cream; Medi-First Plus Burn Cream; Medi-Quik First Aid Antiseptic; Medi-derm / L With Lidocaine; Medi-derm / L With Lidocaine Rx; Medi-patch With Lidocaine; Medi-patch With Lidocaine Rx; Medi-quik First Aid Spray; Medi-quik First-aid Spray - Aer Top; Medi-sulting Topical Pain Relief; MediFirst Burn; MediNumb; Medicated Buccal DNA Collection Kit; Medicated Buccal DNA Collection Kit 2; Medicated DNA Collection Kit; Medicated Pain Relief Foot CVS; Medolor Pak Lidocaine and Prilocaine Cream Kit; Meijer Aloe Gel; Meijer Analgesic Lidocaine Topical Analgesic; Meijer Burn Relief Aloe Vera Pain Relieving Gel; Meijer Odor Free Analgesic Pain Relieving Topical Analgesic; Meijer Pain Relief Patches; Mencaine; Menthocin Patch with Lidocaine; Menthocin Patch with Lidocaine - Strong; Mentholatum Lidocaine Heat; Mentholatum Lidocaine Ice; Mentholix; Mericaine; Miami Beach Burn Relief; Microcaine Topical Analgesic; Microvix L; Microvix LP; Minims Lidocaine and Fluorescein; Mld; Mlp A-1; Mlp A-2; Mueller First Aid Antiseptic; Multi-Specialty Kit; Multi-lumen Central Venous Cathet Kit; MyDerm; Myelogram Tray 1%; NATURES CRAFT LIDOCAINE Male Genital Desensitizer; NORTH Antiseptic First Aid; NULIDO Lidocaine Patch Plus Menthol; Nanonumb; Naturally HL Extra Strength Bedsore Numbing; Naturally HL Extra Strength Burn Numbing; Naturally HL Extra Strength Hand Care; Naturally HL Extra Strength Hemorrhoid Numbing; Naturally HL Extra Strength Insect Bite Numbing; Naturally HL Extra Strength Numbing; Natureplex Lidocaine 4%; Ndc 72934- 5010-4 Benzocaine 20% / Lidocaine 8% / Tetracaine 4%.; Neo-bex Injectable; Neptune Ice; Neptune Ice Patch; Neurcaine; NeuroMed 7 Topical Pain Relief; NeuroMed AR; NeuroMed Topical Anesthetic 7; Neutrogena Anti-itch Moisturizer; No-AD Aloe Vera Gel 98% Pure; No-AD Sunburn Relief Gel; North Burn Jel; North Burn Relief; Nothing; Nox-A-Sting; NuLido; Numb 100; Numb 520; Numb Master; Numb Nuts; Numb Skin; Numb Soothe; Numb Zone; Numb520; Numbify Tropical Gold; Numbing Cream; Numbing Hemorrhoidal Label; Numbing Label; Numbs Up; Numpot Topical Anesthetic; Numquick Analgesic; Numquick Topical Analgesic; Numstick; Nuvakaan; Ocean Breeze Pain Relief; Ocean Potion Instant Burn Relief Ice; Octocaine 100; Octocaine 100 Needleject Inj; Octocaine 50; Octocaine HCl 2% Epinephrine 1:100000; Octocaine HCl 2% Epinephrine 1:50000; Odorless Analgesic Roll-on Meijer; Odynia-R Regular; Odynia-U; Odynia-UUltra Patch Ultra Patch; Omeza Lavage; Omnitrenidol; Oraqix; Ori-power; Otizol HC Liq; Ozonol Antibiotic Plus - Ointment; Ozonol Antibiotic Plus Ont; Ozonol Antibiotics Plus; P-Care 100MX; P-Care D40MX; P-Care D80MX; P-Care K40MX; P-Care K80MX; P-Care X; PM External; PMS-lidocaine Viscous 2%; PRILOVIX Lite; PRILOVIX Lite Plus; PRILOVIX Plus; PRILOVIX UltraLite; PRILOVIX Ultralite Plus; Pacing Catheter Introducer Kit Acp-001px; Pain Prescriptives 4; Pain Prescriptives 5; Pain Relief; Pain Relief CVS; Pain Relief Cream; Pain Relief Equate; Pain Relief Lidocaine; Pain Relief Patch; Pain Relief Patches; Pain Relief Rite Aid; Pain Relief Roll-on; Pain Relief Roll-on Good Sense; Pain Relief Roll-on Rite Aid; Pain Relief Signature Care; Pain Relief Well at Walgreens; Pain Relieving; Pain Relieving Burn Gel; Pain Relieving Cleansing; Pain Relieving Cleansing Spray; Pain Relieving Well at walgreens; Pain and Itch Relief 4% Lidocaine; PainGo KFT; Panama Jack Burn Relief Gel; Panama Jack Burn Relief Gel with Lidocaine; Paracentesis Tray W Boasberg Catheter Set; Paraid Burn; Percutaneous Sheath Introducer Kit Hl-09883; Percutaneous Sheath Introducer Tray; Performance Brands Steel Releaf Pain Relieving Liquid; Permavan External Patch; Pharmacist Choice Pain Relief Patch; Pharmacist Choice TSX Transdermal Patch; PharmapureRx Lidocaine HCl 4.12%; PharmapureRx Menthotral; Pharmassist Soothenel Gel; Phenyl-Lido; Physician EZ Use Joint Tunnel and Trigger Kit; Planticin Advanced Topical Pain Relief; Pleura-seal Thoracentesis Kit; Pliaglis; Plum Smooth Plumb Numb Gelee; Plush anesthetics L; Point Of Care L2; Point Of Care L5; Point Of Care LM DEP 2; Point Relief LidoSpot; Point Relief LidoSpot with Menthol; Poly-Prep; Polyderm Antibiotic Ointment; Polysporin Antibiotic Burn Cream; Polysporin Burn Formula Cream; Polysporin Cold Sore Ointment; Polysporin Complete; Polysporin Plus Pain Relief; Polysporin Plus Pain Relief Ear Drops; Polysporin for Kids; Polysporin for Stitches; Pomoda Dragon Pain Numbing; Pre-wax Pain Relief; Pre-wax Spray; Preattached Lta Kit; Precaine; Predator; Preginot; Prelidopine Pre-Operative System; Premier Value Pain Relief Patches; Premium Lidocaine; Premium Lidocaine 5% Extra; Premium Scar Patch; Premjact; Premjact Male Desensitizer Pound International; Preparation H Rapid Relief; Prikaan; Prikaan Lite; Prilo Patch; Prilolid; Prilopentin; Prilovix; Prilovixil; Priloxx LP External Kit; Prizotral; Pro-C-Dure 1 Kit; Pro-C-Dure 2 Kit; Pro-C-Dure 3 Kit; Pro-C-Dure 4 Kit; ProCoMycin; ProStat Blood Clotting First Aid; Procicept L Lidocaine 4%; Professional Medicated DNA Collection; Prolayed; Prolayed Lidocaine Male Genital Desensitizer; Prolida; Promescent; Proplex Lidocaine; Provenza; Publix Burn Relief; Publix Burn Relief ALOE VERA; Pure-Aid; Puroxcin; QKit Procedure Tray; Quality Choice Pain Relief Patches; Racestyptine Cord; Re-Lieved Lidocaine Patch; ReCellTis; ReCellTis Wound Cream; Ready America First Aid Outdoor- 107 Pieces; ReadySharp Anesthetics plus Betamethasone; ReadySharp Anesthetics plus Dexamethasone; ReadySharp Anesthetics plus Ketorolac; ReadySharp Anesthetics plus MethylPrednisolone 80; ReadySharp Lidocaine; ReadySharp-A; ReadySharp-K; ReadySharp-P40; ReadySharp-P80; Reciphexamine; Recovery Numb; RectaGel HC; RectaSmoothe; RectiCare Complete; Recticare; Recticare Advanced; Rediburn Burn Gel Skin Protectant; Redicare Burn Gel; Refill 3; Regenecare Ha; Regenecare Hydrogel; Relador Pak Plus; Relador Pak with Occlusive Dressing; Releevia LM Patch; RelivBliss; Relyyks; Rematex; Remaxazon External Patch; Renovo Lido5; Renuu Patch; Res-Q Analgesic Topical Pain Relief; Res-Q Analgesic Topical Pain Relief Spray; Res-Q Topical Analgesic Soothing; Res-Q Topical Analgesic Soothing Gel; Ricora; Rite Aid Burn Relief; Rite Aid Lidocaine Roll on; Rite aid Pain Relief Cream Lidocaine 4%; Rugby Lidocaine; Rugby PAIN RELIEF PATCHES; SUGAR BRANDS Rescue Pain Relief and Recovery; SYREN Intimate Relief Topical Pain Relief; Safetec Burn Gel; Safetec Burn Spray; Safetec Sting Relief; Salonpas LIDOCAINE PLUS; Salonpas LIDOCAINE Pain Relieving; Sanoba; Satohap Lidocaine 4% Menthol 1% Pain Relieving Cream; Satohap Lidocaine Hydrochloride 4 Percent Pain Relieving; Scadexe; Scar Patch; Scar Zone Burn Extra Strength Burn Relief Topical Analgesic and Antiseptic; Scar Zone Burn Gel; Scar Zone Burn Topical Analgesic and Antiseptic; Select Brand Burn Relief; Sera Relief Ultimate Rapid Soothing Creme; Shave Zone; Silvera Pain Relief Patch; Simplicity Desensitizing; Simply Numb Endure; Single-shot Epidural Anesthesia Tray; Sinsinpas Lidocaine Pain Relieving; Siterol; Skin Envy Soothing Cream; Skullduggery Pain Relief and Skin Protection for Tattoos; Skyn Endurance Delay For Men; Small Cuts and Burns; SmartRx Gaba Kit; Smartshield After Sun; Solarcaine; Solarcaine First Aid Lidocaine Spray; Solarcaine Medicated First Aid Lotion; Solarcaine Medicated Lidocaine Gel; Solarcaine cool aloe; Sole Serum; Solmara; Solmate Burn Relief Gel; Sonacaine Topical Anesthetic With Menthol; Soothee Patch; Soothing Gel With Lidocaine; Sore Relief; Sore relief; Soulus Rp Rash and Pain; Soundbody; Spinal Anaesthesia Tray; Spinal Anesthesia Tray; Spinal Anesthesia Tray 1%; Stallion; Stama Pro; Standard ANSI First Aid; StaphAseptic; Sting Relief; Sting Relief Pad; Stud 100; Sun Burn Relief Cream; SunBurnt PLUS Pain Relief; Sunburn Pain Reliever CVS; Sunburn Pain Reliever Well at Walgreens; Sunburn Pain relief; Sunburn Relief; Sunburn Relief Gel; Sunmed Motion; Suntone After Sun Burn Relief Gel with Lidocaine; Superior Pain and Itch Relief; Superior pain and itch relief; Swabplus Piercing Care Swabs; Swiss Navy Endurance Rx Pro; Swiss Navy EnduranceRx; Sx1 Medicated Post-Operative System; Synera; Synvexia; Synvexia TC; TLC Plus Anesthetic G; TLC Plus Anesthetic S; Tecnu First Aid; Terocin; Terrasil Cold Sore Treatment Max; Terrasil Itch, Rash and Pain Relief; Terrasil Itch, Rash and Pain Relief MAX; Terrasil Rash and Pain Relief; Tetrakam; Thera Care Pain Therapy; Thoracentesis Tray 1%; Tiger delayspray; Top Safety First Aid Burn Cream; TopCare Pain Relief Maximum Strength; Topcare Pain Relief Patches; Topicaine; Topicaine 5; Topical Anesthetic Anorectal Cream Numb and Number; Topical Pain Relief; Totally Fun After Sun; Tpr20; Transderm-IQ; Transderm-iQ; Tranzarel; TriXylitral; Tribioticlc Lc Lc; Triderma Pain Relief; Triple Antibiotic; Tucks Multi-Care Relief Kit (Tucks Hemorrhoidal and Tucks Medicated Cooling 40 Count); Uber Numb; Uber Numb Topical Anesthetic; Ultimate Lidocaine Pain Relief Patch; Unburn; Unburn-gel 2.5%; Up and Up Lidocaine Pain Relief; Up and Up Pain Relieving Cleansing; VIVA Patch; VacuStim Black; VacuStim Silver; Velma Pain Relief Patch; Veltrix; Venia Patch Premium Pain Patch; Venipuncture CPI; Venipuncture Px1; Vexa; Viadur; WPR Plus; Walg Aftrsn Burn Relief; Walgreen Pain Relieving Fragrance Free; Walgreens; Walgreens Aloe Vera Burn Relief Pain Relieving; Walgreens Aloe Vera Pain Relieving; Walgreens Burn relief; Walgreens First Aid Antiseptic; Walgreens PAIN RELIEVING; Water-jel Burn Jel-2%; Watkins Burn Cream; Welly Superhero Supplies Kit; Western Family Aloe Vera Moisturizing; Workvie; Workvie Roll On; Wound Debridement Kit; Wound and Burn Care Refill Pack; X3 On The Go First Aid Bite Relief Spray; X3 On The Go First Aid Burn Relief Spray; X3 On-the-GO First Aid Burn Relief Spray; XeroBurn Burn Gel; Xolido; Xpacaine; Xryliderm; Xylocaine; Xylocaine - Mpf 5% With Glucose 7.5%; Xylocaine 0.5%; Xylocaine 0.5% W Epinephrine 1:100000; Xylocaine 0.5% W Epinephrine 1:200000; Xylocaine 1%; Xylocaine 1% W Epinephrine 1:100000; Xylocaine 1% W Epinephrine 1:200000; Xylocaine 1.5%; Xylocaine 1.5% W Epinephrine 1:200000; Xylocaine 1.5% W Epinephrine 1:200000 Test Dose; Xylocaine 2%; Xylocaine 2% Epidural; Xylocaine 2% W Epinephrine 1:100000; Xylocaine 2% W Epinephrine 1:200000; Xylocaine 2% With Epinephrine 1:200000; Xylocaine 5% Spinal; Xylocaine Co2 Inj; Xylocaine Dental Lidocaine HCl 2% and Epinephrine 1:100,000; Xylocaine Dental Lidocaine Hydrochloride 2% and Epinephrine 1:50,000; Xylocaine Endotracheal; Xylocaine Jelly 2%; Xylocaine MPF; Xylocaine Mpf; Xylocaine Mpf 1%; Xylocaine Mpf 1.5% With Epinephrine; Xylocaine Ointment 5%; Xylocaine Oral Spray; Xylocaine Topical 4%; Xylocaine Topical 5%; Xylocaine Viscous 2%; Xylocaine with epinephrine; Xylocaine(r) -mpf (lidocaine Hci and Epinephrine); Xylocaine-MPF; Xylocaine-mpf, 2%; Xylocard; Xylocard One Gm Additive Unit 20% Inj; Xylonor; Xylonor Gel; Xylonor Spray; Xyralid; Your Label Here Blood Clotting First Aid; Your Logo Here Antiseptic First Aid; Yowch Extra Strength for minor burns; Yowch extra strength for insect bites and stings; Yowch for insect bites and stings by Pain Balm; Yowch for minor burns by Pain Balm; Zcaine; Zcaine Fast Acting Anesthetic; Zensa; Zeruvia; Zeyocaine; Zilacaine Patch; Zilactin-L; Zilactin-L Early Relief Cold Sore Liquid; Zims Lido Freeze; Zims Max Freeze; Zingo; Zionodil External; Ztlido; Zyvodol; biochemistry PAIN RELIEF FOOT ACTIVE; curacaine Transdermal Corporation; eLenza Patch; lidoForte Hemorrhoidal; miaderm-L radiation relief

> <INTERNATIONAL_BRANDS>
After Burn Double Strength Gel; After Burn Double Strength Spray; After Burn Gel; After Burn Spray; Alphacaine; Anestacon Jelly; DermaFlex; Dilocaine; Esracaine; L-Caine; Lidoject-1; Lidoject-2; LidoPain SP; Norwood Sunburn Spray; Xilocaina; Xylocaine

> <SALTS>
Lidocaine hydrochloride; Lidocaine hydrochloride anhydrous

$$$$
