8944
  -OEChem-02061916233D

 54 56  0     0  0  0  0  0  0999 V2000
   -2.9506    1.9319   -0.2039 O   0  0  0  0  0  0  0  0  0  0  0  0
   -1.9545    1.5324    1.8418 O   0  0  0  0  0  0  0  0  0  0  0  0
    0.7107   -0.8269    0.3013 N   0  0  0  0  0  0  0  0  0  0  0  0
    8.4556    0.4029    0.2346 N   0  0  0  0  0  0  0  0  0  0  0  0
   -2.2160   -0.2609    0.2330 C   0  0  0  0  0  0  0  0  0  0  0  0
   -1.2935   -0.2293   -1.0125 C   0  0  0  0  0  0  0  0  0  0  0  0
   -1.5313   -1.1367    1.3135 C   0  0  0  0  0  0  0  0  0  0  0  0
    0.1641    0.1124   -0.6824 C   0  0  0  0  0  0  0  0  0  0  0  0
   -0.0583   -0.7792    1.5478 C   0  0  0  0  0  0  0  0  0  0  0  0
   -3.6375   -0.7742   -0.0517 C   0  0  0  0  0  0  0  0  0  0  0  0
    2.1215   -0.5379    0.5577 C   0  0  0  0  0  0  0  0  0  0  0  0
   -2.3442    1.1609    0.7430 C   0  0  0  0  0  0  0  0  0  0  0  0
    2.9425   -0.6313   -0.7289 C   0  0  0  0  0  0  0  0  0  0  0  0
   -3.9833   -1.1775   -1.3387 C   0  0  0  0  0  0  0  0  0  0  0  0
   -4.5717   -0.8325    0.9791 C   0  0  0  0  0  0  0  0  0  0  0  0
    4.4034   -0.3573   -0.4745 C   0  0  0  0  0  0  0  0  0  0  0  0
   -5.2727   -1.6428   -1.5967 C   0  0  0  0  0  0  0  0  0  0  0  0
   -5.8611   -1.2979    0.7210 C   0  0  0  0  0  0  0  0  0  0  0  0
   -6.2116   -1.7030   -0.5668 C   0  0  0  0  0  0  0  0  0  0  0  0
   -3.1368    3.3063    0.1490 C   0  0  0  0  0  0  0  0  0  0  0  0
    4.8775    0.9426   -0.5620 C   0  0  0  0  0  0  0  0  0  0  0  0
    5.2480   -1.4100   -0.1560 C   0  0  0  0  0  0  0  0  0  0  0  0
   -3.8173    4.0222   -0.9983 C   0  0  0  0  0  0  0  0  0  0  0  0
    6.2287    1.1961   -0.3256 C   0  0  0  0  0  0  0  0  0  0  0  0
    6.5992   -1.1566    0.0805 C   0  0  0  0  0  0  0  0  0  0  0  0
    7.0895    0.1466   -0.0043 C   0  0  0  0  0  0  0  0  0  0  0  0
   -1.6533    0.4793   -1.7696 H   0  0  0  0  0  0  0  0  0  0  0  0
   -1.2804   -1.2199   -1.4892 H   0  0  0  0  0  0  0  0  0  0  0  0
   -2.0546   -1.0687    2.2758 H   0  0  0  0  0  0  0  0  0  0  0  0
   -1.5901   -2.1924    1.0116 H   0  0  0  0  0  0  0  0  0  0  0  0
    0.2449    1.1505   -0.3356 H   0  0  0  0  0  0  0  0  0  0  0  0
    0.6803    0.0464   -1.6434 H   0  0  0  0  0  0  0  0  0  0  0  0
    0.3488   -1.5165    2.2517 H   0  0  0  0  0  0  0  0  0  0  0  0
    0.0418    0.1973    2.0345 H   0  0  0  0  0  0  0  0  0  0  0  0
    2.2428    0.4563    1.0093 H   0  0  0  0  0  0  0  0  0  0  0  0
    2.5150   -1.2638    1.2813 H   0  0  0  0  0  0  0  0  0  0  0  0
    2.6284    0.0915   -1.4884 H   0  0  0  0  0  0  0  0  0  0  0  0
    2.8278   -1.6229   -1.1866 H   0  0  0  0  0  0  0  0  0  0  0  0
   -3.3002   -1.1423   -2.1792 H   0  0  0  0  0  0  0  0  0  0  0  0
   -4.3230   -0.5164    1.9882 H   0  0  0  0  0  0  0  0  0  0  0  0
   -5.5475   -1.9558   -2.5999 H   0  0  0  0  0  0  0  0  0  0  0  0
   -6.5928   -1.3432    1.5224 H   0  0  0  0  0  0  0  0  0  0  0  0
   -7.2160   -2.0642   -0.7680 H   0  0  0  0  0  0  0  0  0  0  0  0
   -2.1627    3.7670    0.3476 H   0  0  0  0  0  0  0  0  0  0  0  0
   -3.7600    3.3708    1.0479 H   0  0  0  0  0  0  0  0  0  0  0  0
    4.2152    1.7676   -0.8085 H   0  0  0  0  0  0  0  0  0  0  0  0
    4.8748   -2.4278   -0.0857 H   0  0  0  0  0  0  0  0  0  0  0  0
   -4.7848    3.5600   -1.2206 H   0  0  0  0  0  0  0  0  0  0  0  0
   -3.2141    3.9500   -1.9092 H   0  0  0  0  0  0  0  0  0  0  0  0
   -3.9758    5.0780   -0.7619 H   0  0  0  0  0  0  0  0  0  0  0  0
    6.5985    2.2159   -0.3940 H   0  0  0  0  0  0  0  0  0  0  0  0
    7.2597   -1.9829    0.3304 H   0  0  0  0  0  0  0  0  0  0  0  0
    9.0800   -0.3576    0.4682 H   0  0  0  0  0  0  0  0  0  0  0  0
    8.8116    1.3476    0.1739 H   0  0  0  0  0  0  0  0  0  0  0  0
  1 12  1  0  0  0  0
  1 20  1  0  0  0  0
  2 12  2  0  0  0  0
  3  8  1  0  0  0  0
  3  9  1  0  0  0  0
  3 11  1  0  0  0  0
  4 26  1  0  0  0  0
  4 53  1  0  0  0  0
  4 54  1  0  0  0  0
  5  6  1  0  0  0  0
  5  7  1  0  0  0  0
  5 10  1  0  0  0  0
  5 12  1  0  0  0  0
  6  8  1  0  0  0  0
  6 27  1  0  0  0  0
  6 28  1  0  0  0  0
  7  9  1  0  0  0  0
  7 29  1  0  0  0  0
  7 30  1  0  0  0  0
  8 31  1  0  0  0  0
  8 32  1  0  0  0  0
  9 33  1  0  0  0  0
  9 34  1  0  0  0  0
 10 14  2  0  0  0  0
 10 15  1  0  0  0  0
 11 13  1  0  0  0  0
 11 35  1  0  0  0  0
 11 36  1  0  0  0  0
 13 16  1  0  0  0  0
 13 37  1  0  0  0  0
 13 38  1  0  0  0  0
 14 17  1  0  0  0  0
 14 39  1  0  0  0  0
 15 18  2  0  0  0  0
 15 40  1  0  0  0  0
 16 21  2  0  0  0  0
 16 22  1  0  0  0  0
 17 19  2  0  0  0  0
 17 41  1  0  0  0  0
 18 19  1  0  0  0  0
 18 42  1  0  0  0  0
 19 43  1  0  0  0  0
 20 23  1  0  0  0  0
 20 44  1  0  0  0  0
 20 45  1  0  0  0  0
 21 24  1  0  0  0  0
 21 46  1  0  0  0  0
 22 25  2  0  0  0  0
 22 47  1  0  0  0  0
 23 48  1  0  0  0  0
 23 49  1  0  0  0  0
 23 50  1  0  0  0  0
 24 26  2  0  0  0  0
 24 51  1  0  0  0  0
 25 26  1  0  0  0  0
 25 52  1  0  0  0  0
M  END
> <DATABASE_ID>
DB00913

> <DATABASE_NAME>
drugbank

> <ORIGINAL_SOURCE>
PUBCHEM

> <ORIGINAL_SOURCE_URL>
https://pubchem.ncbi.nlm.nih.gov/rest/pug/compound/inchikey/LKYQLAWMNBFNJT-UHFFFAOYSA-N/SDF?record_type=3d

> <SMILES>
CCOC(=O)C1(CCN(CCC2=CC=C(N)C=C2)CC1)C1=CC=CC=C1

> <INCHI_IDENTIFIER>
InChI=1S/C22H28N2O2/c1-2-26-21(25)22(19-6-4-3-5-7-19)13-16-24(17-14-22)15-12-18-8-10-20(23)11-9-18/h3-11H,2,12-17,23H2,1H3

> <INCHI_KEY>
LKYQLAWMNBFNJT-UHFFFAOYSA-N

> <FORMULA>
C22H28N2O2

> <MOLECULAR_WEIGHT>
352.4699

> <EXACT_MASS>
352.21507815

> <JCHEM_ACCEPTOR_COUNT>
3

> <JCHEM_ATOM_COUNT>
54

> <JCHEM_AVERAGE_POLARIZABILITY>
40.98114828100659

> <JCHEM_BIOAVAILABILITY>
1

> <JCHEM_DONOR_COUNT>
1

> <JCHEM_FORMAL_CHARGE>
0

> <JCHEM_GHOSE_FILTER>
1

> <JCHEM_IUPAC>
ethyl 1-[2-(4-aminophenyl)ethyl]-4-phenylpiperidine-4-carboxylate

> <ALOGPS_LOGP>
4.05

> <JCHEM_LOGP>
3.6400087643333334

> <ALOGPS_LOGS>
-4.46

> <JCHEM_MDDR_LIKE_RULE>
1

> <JCHEM_NUMBER_OF_RINGS>
3

> <JCHEM_PHYSIOLOGICAL_CHARGE>
1

> <JCHEM_PKA_STRONGEST_BASIC>
8.877914258147797

> <JCHEM_POLAR_SURFACE_AREA>
55.56

> <JCHEM_REFRACTIVITY>
106.55170000000001

> <JCHEM_ROTATABLE_BOND_COUNT>
7

> <JCHEM_RULE_OF_FIVE>
1

> <ALOGPS_SOLUBILITY>
1.24e-02 g/l

> <JCHEM_TRADITIONAL_IUPAC>
paricalcitol

> <JCHEM_VEBER_RULE>
0

> <DRUGBANK_ID>
DB00913

> <SECONDARY_ACCESSION_NUMBERS>
APRD00741

> <DRUG_GROUPS>
approved; illicit

> <GENERIC_NAME>
Anileridine

> <SYNONYMS>
1-[2-(4-aminophenyl)ethyl]-4-phenyl-4-piperidinecarboxlic acid ethyl ester; Anileridina; Anileridine; Anileridinum; ethyl 1-(2-(4-aminophenyl)ethyl)-4-phenyl-4-piperidinecarboxylate; ethyl 1-(4-aminophenethyl)-4-phenylisonipecotate; ethyl 1-(p-aminophenethyl)-4-phenylisonipecotate; N-(β-(p-aminophenyl)ethyl)-4-phenyl-4-carbethoxypiperidine; N-β-(p-aminophenyl)ethylnormeperidine

> <PRODUCTS>
Leritine Inj 25mg/ml; Leritine Tablets 25mg

> <INTERNATIONAL_BRANDS>
Apodol; Leritine

> <SALTS>
Anileridine hydrochloride; Anileridine phosphate

$$$$
