3025
  -OEChem-04151912133D

 54 55  0     0  0  0  0  0  0999 V2000
    3.5524   -1.3311   -0.1336 O   0  0  0  0  0  0  0  0  0  0  0  0
   -1.6824    0.1783   -1.7485 O   0  0  0  0  0  0  0  0  0  0  0  0
   -5.3488   -1.4112    0.4884 N   0  0  0  0  0  0  0  0  0  0  0  0
   -1.6487   -1.1759    0.1335 N   0  0  0  0  0  0  0  0  0  0  0  0
    2.9167    0.8907    0.0711 N   0  0  0  0  0  0  0  0  0  0  0  0
   -4.0135   -0.8623    0.6866 C   0  0  0  0  0  0  0  0  0  0  0  0
   -2.9782   -1.7192   -0.0271 C   0  0  0  0  0  0  0  0  0  0  0  0
   -6.2640   -0.9305    1.5255 C   0  0  0  0  0  0  0  0  0  0  0  0
   -5.8588   -1.0619   -0.8390 C   0  0  0  0  0  0  0  0  0  0  0  0
    0.2796    0.1833   -0.4642 C   0  0  0  0  0  0  0  0  0  0  0  0
   -6.4232    0.5790    1.4605 C   0  0  0  0  0  0  0  0  0  0  0  0
   -7.2229   -1.6841   -1.0844 C   0  0  0  0  0  0  0  0  0  0  0  0
    0.6101    1.5235   -0.2225 C   0  0  0  0  0  0  0  0  0  0  0  0
   -1.0842   -0.2520   -0.7498 C   0  0  0  0  0  0  0  0  0  0  0  0
    1.9592    1.8371    0.0445 C   0  0  0  0  0  0  0  0  0  0  0  0
    1.2640   -0.7941   -0.4376 C   0  0  0  0  0  0  0  0  0  0  0  0
    5.8256   -2.0431    0.1224 C   0  0  0  0  0  0  0  0  0  0  0  0
    2.5560   -0.3911   -0.1674 C   0  0  0  0  0  0  0  0  0  0  0  0
    4.8654   -0.8622    0.1491 C   0  0  0  0  0  0  0  0  0  0  0  0
    7.2561   -1.6132    0.4346 C   0  0  0  0  0  0  0  0  0  0  0  0
   -0.3635    2.5367   -0.2423 C   0  0  0  0  0  0  0  0  0  0  0  0
    2.2870    3.1685    0.2846 C   0  0  0  0  0  0  0  0  0  0  0  0
   -0.0077    3.8601    0.0013 C   0  0  0  0  0  0  0  0  0  0  0  0
    1.3193    4.1761    0.2649 C   0  0  0  0  0  0  0  0  0  0  0  0
    8.2043   -2.8015    0.4494 C   0  0  0  0  0  0  0  0  0  0  0  0
   -3.7497   -0.8585    1.7532 H   0  0  0  0  0  0  0  0  0  0  0  0
   -3.9313    0.1771    0.3430 H   0  0  0  0  0  0  0  0  0  0  0  0
   -3.1732   -1.8027   -1.1001 H   0  0  0  0  0  0  0  0  0  0  0  0
   -2.9622   -2.7322    0.3905 H   0  0  0  0  0  0  0  0  0  0  0  0
   -5.8700   -1.2075    2.5122 H   0  0  0  0  0  0  0  0  0  0  0  0
   -7.2395   -1.4255    1.4760 H   0  0  0  0  0  0  0  0  0  0  0  0
   -5.8843    0.0151   -1.0397 H   0  0  0  0  0  0  0  0  0  0  0  0
   -5.1990   -1.4857   -1.6043 H   0  0  0  0  0  0  0  0  0  0  0  0
   -1.1093   -1.4819    0.9383 H   0  0  0  0  0  0  0  0  0  0  0  0
   -5.4810    1.1247    1.5612 H   0  0  0  0  0  0  0  0  0  0  0  0
   -6.9411    0.9228    0.5610 H   0  0  0  0  0  0  0  0  0  0  0  0
   -7.0472    0.8985    2.3041 H   0  0  0  0  0  0  0  0  0  0  0  0
   -7.2365   -2.7475   -0.8217 H   0  0  0  0  0  0  0  0  0  0  0  0
   -8.0225   -1.1742   -0.5388 H   0  0  0  0  0  0  0  0  0  0  0  0
   -7.4732   -1.6099   -2.1487 H   0  0  0  0  0  0  0  0  0  0  0  0
    5.4900   -2.7981    0.8446 H   0  0  0  0  0  0  0  0  0  0  0  0
    5.7802   -2.5282   -0.8607 H   0  0  0  0  0  0  0  0  0  0  0  0
    1.0391   -1.8390   -0.6261 H   0  0  0  0  0  0  0  0  0  0  0  0
    4.8884   -0.3952    1.1418 H   0  0  0  0  0  0  0  0  0  0  0  0
    5.1729   -0.1282   -0.6063 H   0  0  0  0  0  0  0  0  0  0  0  0
    7.5984   -0.8875   -0.3122 H   0  0  0  0  0  0  0  0  0  0  0  0
    7.2915   -1.1155    1.4107 H   0  0  0  0  0  0  0  0  0  0  0  0
   -1.4125    2.3268   -0.4315 H   0  0  0  0  0  0  0  0  0  0  0  0
    3.3196    3.4420    0.4940 H   0  0  0  0  0  0  0  0  0  0  0  0
   -0.7628    4.6401   -0.0116 H   0  0  0  0  0  0  0  0  0  0  0  0
    7.9087   -3.5301    1.2110 H   0  0  0  0  0  0  0  0  0  0  0  0
    9.2233   -2.4706    0.6735 H   0  0  0  0  0  0  0  0  0  0  0  0
    8.2166   -3.3054   -0.5223 H   0  0  0  0  0  0  0  0  0  0  0  0
    1.6058    5.2060    0.4569 H   0  0  0  0  0  0  0  0  0  0  0  0
  1 18  1  0  0  0  0
  1 19  1  0  0  0  0
  2 14  2  0  0  0  0
  3  6  1  0  0  0  0
  3  8  1  0  0  0  0
  3  9  1  0  0  0  0
  4  7  1  0  0  0  0
  4 14  1  0  0  0  0
  4 34  1  0  0  0  0
  5 15  1  0  0  0  0
  5 18  2  0  0  0  0
  6  7  1  0  0  0  0
  6 26  1  0  0  0  0
  6 27  1  0  0  0  0
  7 28  1  0  0  0  0
  7 29  1  0  0  0  0
  8 11  1  0  0  0  0
  8 30  1  0  0  0  0
  8 31  1  0  0  0  0
  9 12  1  0  0  0  0
  9 32  1  0  0  0  0
  9 33  1  0  0  0  0
 10 13  1  0  0  0  0
 10 14  1  0  0  0  0
 10 16  2  0  0  0  0
 11 35  1  0  0  0  0
 11 36  1  0  0  0  0
 11 37  1  0  0  0  0
 12 38  1  0  0  0  0
 12 39  1  0  0  0  0
 12 40  1  0  0  0  0
 13 15  1  0  0  0  0
 13 21  2  0  0  0  0
 15 22  2  0  0  0  0
 16 18  1  0  0  0  0
 16 43  1  0  0  0  0
 17 19  1  0  0  0  0
 17 20  1  0  0  0  0
 17 41  1  0  0  0  0
 17 42  1  0  0  0  0
 19 44  1  0  0  0  0
 19 45  1  0  0  0  0
 20 25  1  0  0  0  0
 20 46  1  0  0  0  0
 20 47  1  0  0  0  0
 21 23  1  0  0  0  0
 21 48  1  0  0  0  0
 22 24  1  0  0  0  0
 22 49  1  0  0  0  0
 23 24  2  0  0  0  0
 23 50  1  0  0  0  0
 24 54  1  0  0  0  0
 25 51  1  0  0  0  0
 25 52  1  0  0  0  0
 25 53  1  0  0  0  0
M  END
> <DATABASE_ID>
DB00527

> <DATABASE_NAME>
drugbank

> <ORIGINAL_SOURCE>
PUBCHEM

> <ORIGINAL_SOURCE_URL>
https://pubchem.ncbi.nlm.nih.gov/rest/pug/compound/inchikey/PUFQVTATUTYEAL-UHFFFAOYSA-N/SDF?record_type=3d

> <SMILES>
CCCCOC1=NC2=CC=CC=C2C(=C1)C(=O)NCCN(CC)CC

> <INCHI_IDENTIFIER>
InChI=1S/C20H29N3O2/c1-4-7-14-25-19-15-17(16-10-8-9-11-18(16)22-19)20(24)21-12-13-23(5-2)6-3/h8-11,15H,4-7,12-14H2,1-3H3,(H,21,24)

> <INCHI_KEY>
PUFQVTATUTYEAL-UHFFFAOYSA-N

> <FORMULA>
C20H29N3O2

> <MOLECULAR_WEIGHT>
343.4632

> <EXACT_MASS>
343.225977187

> <JCHEM_ACCEPTOR_COUNT>
4

> <JCHEM_ATOM_COUNT>
54

> <JCHEM_AVERAGE_POLARIZABILITY>
40.78018722504145

> <JCHEM_BIOAVAILABILITY>
1

> <JCHEM_DONOR_COUNT>
1

> <JCHEM_FORMAL_CHARGE>
0

> <JCHEM_GHOSE_FILTER>
1

> <JCHEM_IUPAC>
2-butoxy-N-[2-(diethylamino)ethyl]quinoline-4-carboxamide

> <ALOGPS_LOGP>
3.79

> <JCHEM_LOGP>
3.698162542000002

> <ALOGPS_LOGS>
-3.95

> <JCHEM_MDDR_LIKE_RULE>
0

> <JCHEM_NUMBER_OF_RINGS>
2

> <JCHEM_PHYSIOLOGICAL_CHARGE>
1

> <JCHEM_PKA_STRONGEST_ACIDIC>
14.574410406505184

> <JCHEM_PKA_STRONGEST_BASIC>
9.044345732073333

> <JCHEM_POLAR_SURFACE_AREA>
54.46

> <JCHEM_REFRACTIVITY>
102.12100000000001

> <JCHEM_ROTATABLE_BOND_COUNT>
10

> <JCHEM_RULE_OF_FIVE>
1

> <ALOGPS_SOLUBILITY>
3.89e-02 g/l

> <JCHEM_TRADITIONAL_IUPAC>
dibucaine

> <JCHEM_VEBER_RULE>
0

> <DRUGBANK_ID>
DB00527

> <SECONDARY_ACCESSION_NUMBERS>
APRD00915

> <DRUG_GROUPS>
approved; vet_approved

> <GENERIC_NAME>
Cinchocaine

> <SYNONYMS>
2-butoxy-N-(2-(diethylamino)ethyl)cinchoninamide; 2-butoxy-N-(α-diethylaminoethyl)cinchoninamide; 2-butoxy-N-(β-diethylaminoethyl)cinchoninamide; 2-butoxy-N-[2-(diethylamino)ethyl]-4-quinolinecarboxamide; 2-Butoxy-quinoline-4-carboxylic acid (2-diethylamino-ethyl)-amide; 2-butoxyquinoline-4-carboxylic acid diethylaminoethylamide; 2-N-butoxy-N-(2-diethylaminoethyl)cinchoninamide; Cinchocaine; Cinchocainum; Cincocainio; Dibucaine; N-(2-(diethylamino)ethyl)-2-butoxycinchoninamide; α-butyloxycinchonic acid-γ-diethylethylenediamine; α-butyloxycinchoninic acid diethylethylenediamide

> <PRODUCTS>
CVS Hemorrhoidal Topical Analgesic; Dibucaine; Dibucaine HCl 0.5% / Lidocaine 15% / Phenylephrine HCl 1% / Prilocaine 5%; Dibucaine Topical Anesthetic 1% Hemorrhoidal; Nupercainal; Nupercainal Anesthetic Ointment 1%; Nupercainal Antiseptic Cream; Precaine; Proctol Ointment; Proctol Suppositories; Proctosedyl; Proctosedyl Ointment; Proctosedyl Sup; Proctosedyl Suppositories; Proctosone Ont; Proctosone Sup; Sandoz Proctomyxin HC; Sandoz Proctomyxin HC Suppositories; T.R.U.E. Test Thin-Layer Rapid Use Patch Test; Teva-proctosone

> <INTERNATIONAL_BRANDS>
Cincain; Nupercaine; Sovcaine

> <SALTS>
Cinchocaine hydrochloride

$$$$
