3955
  -OEChem-10051719243D

 67 70  0     0  0  0  0  0  0999 V2000
    9.4863    1.4097    0.3868 Cl  0  0  0  0  0  0  0  0  0  0  0  0
    3.8280   -1.9095    0.7297 O   0  0  0  0  0  0  0  0  0  0  0  0
   -4.4042   -0.4860   -2.0520 O   0  0  0  0  0  0  0  0  0  0  0  0
    0.9732   -0.2168   -0.6960 N   0  0  0  0  0  0  0  0  0  0  0  0
   -2.8834    1.1154   -2.6417 N   0  0  0  0  0  0  0  0  0  0  0  0
    3.7970   -0.5999    0.1428 C   0  0  0  0  0  0  0  0  0  0  0  0
    3.3233   -0.7055   -1.3253 C   0  0  0  0  0  0  0  0  0  0  0  0
    2.7724    0.2462    0.9311 C   0  0  0  0  0  0  0  0  0  0  0  0
    1.8498   -1.1110   -1.4588 C   0  0  0  0  0  0  0  0  0  0  0  0
    1.3258   -0.2194    0.7280 C   0  0  0  0  0  0  0  0  0  0  0  0
   -0.4283   -0.5939   -0.8780 C   0  0  0  0  0  0  0  0  0  0  0  0
   -1.3407    0.4149   -0.1620 C   0  0  0  0  0  0  0  0  0  0  0  0
   -2.8894    0.1390   -0.2345 C   0  0  0  0  0  0  0  0  0  0  0  0
    5.2383   -0.0916    0.2059 C   0  0  0  0  0  0  0  0  0  0  0  0
   -3.0626   -1.3098    0.3582 C   0  0  0  0  0  0  0  0  0  0  0  0
   -3.7366    1.1434    0.6055 C   0  0  0  0  0  0  0  0  0  0  0  0
   -3.4414    0.2222   -1.7208 C   0  0  0  0  0  0  0  0  0  0  0  0
    6.2476   -0.7761   -0.4695 C   0  0  0  0  0  0  0  0  0  0  0  0
    5.5401    1.0560    0.9375 C   0  0  0  0  0  0  0  0  0  0  0  0
   -3.3002   -1.4047    1.6890 C   0  0  0  0  0  0  0  0  0  0  0  0
   -5.0814    0.9354    0.6669 C   0  0  0  0  0  0  0  0  0  0  0  0
   -2.9596   -2.3450   -0.5102 C   0  0  0  0  0  0  0  0  0  0  0  0
   -3.0758    2.1626    1.2219 C   0  0  0  0  0  0  0  0  0  0  0  0
    7.5617   -0.3120   -0.4132 C   0  0  0  0  0  0  0  0  0  0  0  0
    6.8543    1.5202    0.9936 C   0  0  0  0  0  0  0  0  0  0  0  0
    7.8651    0.8361    0.3184 C   0  0  0  0  0  0  0  0  0  0  0  0
   -3.4531   -2.6878    2.2142 C   0  0  0  0  0  0  0  0  0  0  0  0
   -5.8392    1.8340    1.4178 C   0  0  0  0  0  0  0  0  0  0  0  0
   -3.1127   -3.6282    0.0148 C   0  0  0  0  0  0  0  0  0  0  0  0
   -3.8335    3.0611    1.9730 C   0  0  0  0  0  0  0  0  0  0  0  0
   -2.3049    2.4232   -2.3595 C   0  0  0  0  0  0  0  0  0  0  0  0
   -2.9411    0.7806   -4.0614 C   0  0  0  0  0  0  0  0  0  0  0  0
   -3.3594   -3.7996    1.3770 C   0  0  0  0  0  0  0  0  0  0  0  0
   -5.2152    2.8968    2.0708 C   0  0  0  0  0  0  0  0  0  0  0  0
    3.4721    0.2584   -1.8313 H   0  0  0  0  0  0  0  0  0  0  0  0
    3.9130   -1.4502   -1.8736 H   0  0  0  0  0  0  0  0  0  0  0  0
    2.9911    0.2027    2.0061 H   0  0  0  0  0  0  0  0  0  0  0  0
    2.8253    1.2980    0.6191 H   0  0  0  0  0  0  0  0  0  0  0  0
    1.5861   -1.0649   -2.5229 H   0  0  0  0  0  0  0  0  0  0  0  0
    1.7185   -2.1547   -1.1455 H   0  0  0  0  0  0  0  0  0  0  0  0
    1.1699   -1.2063    1.1812 H   0  0  0  0  0  0  0  0  0  0  0  0
    0.7403    0.5008    1.3040 H   0  0  0  0  0  0  0  0  0  0  0  0
   -0.6725   -0.6001   -1.9462 H   0  0  0  0  0  0  0  0  0  0  0  0
   -0.5597   -1.6087   -0.4944 H   0  0  0  0  0  0  0  0  0  0  0  0
   -1.0671    1.4173   -0.4936 H   0  0  0  0  0  0  0  0  0  0  0  0
   -1.1119    0.3785    0.9084 H   0  0  0  0  0  0  0  0  0  0  0  0
    2.9559   -2.3235    0.6307 H   0  0  0  0  0  0  0  0  0  0  0  0
    6.0369   -1.6792   -1.0350 H   0  0  0  0  0  0  0  0  0  0  0  0
    4.7955    1.6203    1.4874 H   0  0  0  0  0  0  0  0  0  0  0  0
   -3.3349   -0.5724    2.3807 H   0  0  0  0  0  0  0  0  0  0  0  0
   -5.5850    0.1129    0.1718 H   0  0  0  0  0  0  0  0  0  0  0  0
   -2.7377   -2.2473   -1.5659 H   0  0  0  0  0  0  0  0  0  0  0  0
   -2.0109    2.3439    1.1823 H   0  0  0  0  0  0  0  0  0  0  0  0
    8.3397   -0.8565   -0.9423 H   0  0  0  0  0  0  0  0  0  0  0  0
    7.0771    2.4154    1.5688 H   0  0  0  0  0  0  0  0  0  0  0  0
   -3.6342   -2.8224    3.2766 H   0  0  0  0  0  0  0  0  0  0  0  0
   -6.9149    1.7053    1.4954 H   0  0  0  0  0  0  0  0  0  0  0  0
   -3.0317   -4.4945   -0.6352 H   0  0  0  0  0  0  0  0  0  0  0  0
   -3.3486    3.8894    2.4815 H   0  0  0  0  0  0  0  0  0  0  0  0
   -2.5286    2.7541   -1.3485 H   0  0  0  0  0  0  0  0  0  0  0  0
   -2.7391    3.1560   -3.0475 H   0  0  0  0  0  0  0  0  0  0  0  0
   -1.2251    2.3793   -2.5253 H   0  0  0  0  0  0  0  0  0  0  0  0
   -1.9481    0.9158   -4.5001 H   0  0  0  0  0  0  0  0  0  0  0  0
   -3.2544   -0.2563   -4.2122 H   0  0  0  0  0  0  0  0  0  0  0  0
   -3.6569    1.4467   -4.5518 H   0  0  0  0  0  0  0  0  0  0  0  0
   -3.4741   -4.7989    1.7866 H   0  0  0  0  0  0  0  0  0  0  0  0
   -5.8051    3.5963    2.6558 H   0  0  0  0  0  0  0  0  0  0  0  0
  1 26  1  0  0  0  0
  2  6  1  0  0  0  0
  2 47  1  0  0  0  0
  3 17  2  0  0  0  0
  4  9  1  0  0  0  0
  4 10  1  0  0  0  0
  4 11  1  0  0  0  0
  5 17  1  0  0  0  0
  5 31  1  0  0  0  0
  5 32  1  0  0  0  0
  6  7  1  0  0  0  0
  6  8  1  0  0  0  0
  6 14  1  0  0  0  0
  7  9  1  0  0  0  0
  7 35  1  0  0  0  0
  7 36  1  0  0  0  0
  8 10  1  0  0  0  0
  8 37  1  0  0  0  0
  8 38  1  0  0  0  0
  9 39  1  0  0  0  0
  9 40  1  0  0  0  0
 10 41  1  0  0  0  0
 10 42  1  0  0  0  0
 11 12  1  0  0  0  0
 11 43  1  0  0  0  0
 11 44  1  0  0  0  0
 12 13  1  0  0  0  0
 12 45  1  0  0  0  0
 12 46  1  0  0  0  0
 13 15  1  0  0  0  0
 13 16  1  0  0  0  0
 13 17  1  0  0  0  0
 14 18  2  0  0  0  0
 14 19  1  0  0  0  0
 15 20  2  0  0  0  0
 15 22  1  0  0  0  0
 16 21  2  0  0  0  0
 16 23  1  0  0  0  0
 18 24  1  0  0  0  0
 18 48  1  0  0  0  0
 19 25  2  0  0  0  0
 19 49  1  0  0  0  0
 20 27  1  0  0  0  0
 20 50  1  0  0  0  0
 21 28  1  0  0  0  0
 21 51  1  0  0  0  0
 22 29  2  0  0  0  0
 22 52  1  0  0  0  0
 23 30  2  0  0  0  0
 23 53  1  0  0  0  0
 24 26  2  0  0  0  0
 24 54  1  0  0  0  0
 25 26  1  0  0  0  0
 25 55  1  0  0  0  0
 27 33  2  0  0  0  0
 27 56  1  0  0  0  0
 28 34  2  0  0  0  0
 28 57  1  0  0  0  0
 29 33  1  0  0  0  0
 29 58  1  0  0  0  0
 30 34  1  0  0  0  0
 30 59  1  0  0  0  0
 31 60  1  0  0  0  0
 31 61  1  0  0  0  0
 31 62  1  0  0  0  0
 32 63  1  0  0  0  0
 32 64  1  0  0  0  0
 32 65  1  0  0  0  0
 33 66  1  0  0  0  0
 34 67  1  0  0  0  0
M  END
> <DATABASE_ID>
DB00836

> <DATABASE_NAME>
drugbank

> <ORIGINAL_SOURCE>
PUBCHEM

> <ORIGINAL_SOURCE_URL>
https://pubchem.ncbi.nlm.nih.gov/rest/pug/compound/inchikey/RDOIQAHITMMDAJ-UHFFFAOYSA-N/SDF?record_type=3d

> <SMILES>
CN(C)C(=O)C(CCN1CCC(O)(CC1)C1=CC=C(Cl)C=C1)(C1=CC=CC=C1)C1=CC=CC=C1

> <INCHI_IDENTIFIER>
InChI=1S/C29H33ClN2O2/c1-31(2)27(33)29(24-9-5-3-6-10-24,25-11-7-4-8-12-25)19-22-32-20-17-28(34,18-21-32)23-13-15-26(30)16-14-23/h3-16,34H,17-22H2,1-2H3

> <INCHI_KEY>
RDOIQAHITMMDAJ-UHFFFAOYSA-N

> <FORMULA>
C29H33ClN2O2

> <MOLECULAR_WEIGHT>
477.038

> <EXACT_MASS>
476.223056017

> <JCHEM_ACCEPTOR_COUNT>
3

> <JCHEM_AVERAGE_POLARIZABILITY>
52.66924387425545

> <JCHEM_BIOAVAILABILITY>
1

> <JCHEM_DONOR_COUNT>
1

> <JCHEM_FORMAL_CHARGE>
0

> <JCHEM_GHOSE_FILTER>
0

> <JCHEM_IUPAC>
4-[4-(4-chlorophenyl)-4-hydroxypiperidin-1-yl]-N,N-dimethyl-2,2-diphenylbutanamide

> <ALOGPS_LOGP>
4.44

> <JCHEM_LOGP>
4.771190858666666

> <ALOGPS_LOGS>
-5.74

> <JCHEM_MDDR_LIKE_RULE>
1

> <JCHEM_NUMBER_OF_RINGS>
4

> <JCHEM_PHYSIOLOGICAL_CHARGE>
1

> <JCHEM_PKA_STRONGEST_ACIDIC>
13.964882601505003

> <JCHEM_PKA_STRONGEST_BASIC>
9.409298603197188

> <JCHEM_POLAR_SURFACE_AREA>
43.78

> <JCHEM_REFRACTIVITY>
139.31900000000002

> <JCHEM_ROTATABLE_BOND_COUNT>
7

> <JCHEM_RULE_OF_FIVE>
1

> <ALOGPS_SOLUBILITY>
8.60e-04 g/l

> <JCHEM_TRADITIONAL_IUPAC>
imodium

> <JCHEM_VEBER_RULE>
0

> <DRUGBANK_ID>
DB00836

> <SECONDARY_ACCESSION_NUMBERS>
APRD00275

> <DRUG_GROUPS>
approved

> <GENERIC_NAME>
Loperamide

> <SYNONYMS>
Loperamid; Loperamida; LopÃ©ramide; Loperamide; Loperamidum

> <PRODUCTS>
7 Select Anti Diarrheal; A D; ANTI-DIARRHEAL LOPERAMIDE HCL, 2 mg caplets; Alti-loperamide - 2mg Caplet; Anti Diarrheal; Anti Diarrheal Anti Gas; Anti Diarrheal Plus Anti Gas; Anti Diarrheal and Anti Gas; Anti-Diarrheal; Anti-Diarrheal Loperamide HCl; Anti-Diarrheal loperamide HCl; Anti-diarrheal; Anti-diarrheal Caplets - 2mg; Antidiarrheal Relief; Apo-loperamide; Basic Care Loperamide Hydrochloride and Simethicone; Basic Care loperamide hydrochloride; Berkley and Jensen Anti Diarrheal; Care One Anti Diarrheal; Care One anti diarrheal loperamide hydrochloride; CareOne Diarrhea Control; CareOne Diarrhea and Gas Control; CareOne Loperamide Hydrochloride; CareOne loperamide hydrochloride; Circle K Anti-Diarrheal; Core Values Anti Diarrheal; Dg Health Anti Diarrheal; Dg Health Anti Diarrheal Anti Gas; Dg Health Loperamide Hydrochloride; Diahalt Caplets - 2mg; Diarr-eze; Diarr-eze - Liq Orl 0.2mg/ml; Diarrhea Relief; Diarrhea Relief - Caplets 2mg; Diarrhea Relief Liquid Gels; Doc in the Box All Day Supply; Dom-loperamide Caplets 2mg; Dom-loperamide Hydrochloride Solution-orl; Enterocina; Equaline Anti Diarrheal; Equaline Anti Diarrheal Plus Anti Gas; Equaline Loperamide Hydrochloride; Equaline loperamide hydrochloride; Equate Anti Diarrheal Anti Gas; Equate Loperamide Hydrochloride; Equate anti diarrheal; Fad First Aid Direct Anti-diarrheal; Family Wellness Anti Diarrheal; Family Wellness Anti Diarrheal Plus Anti Gas; Gadavyt Loperamide HCl; Good Neighbor Pharmacy Anti Diarrheal; Good Neighbor Pharmacy Anti Diarrheal Anti Gas; Good Neighbor Pharmacy Loperamide Hydrochloride; Good Sense Anti Diarrheal; Good Sense Anti Diarrheal Anti Gas; Good Sense Loperamide Hydrochloride; Good Sense anti diarrheal; Good Sense antidiarrheal; Handy Solutions Anti-Diarrheal; Harmon Face Values Anti Diarrheal; Harris Teeter Anti Diarrheal; Harris Teeter Loperamide Hydrochloride; Health Mart Anti Diarrheal; Health Mart Anti Diarrheal Anti Gas; Health Mart Loperamide Hydrochloride; Healthy Accents Anti Diarrheal; IMODIUM Multi-Symptom Relief; Imodium; Imodium - Caplet 2mg; Imodium A-D; Imodium AD; Imodium Calming Liquid; Imodium Cap 2mg; Imodium Caplets 2mg; Imodium Complete; Imodium Complete Chewable Tablets; Imodium Liqui-gels; Imodium Oral Sol 0.2mg/ml; Imodium Quick Dissolve; Kirkland Signature Anti Diarrheal; Leader Anti Diarrheal; Leader Anti-diarrheal; Leader Loperamide; Leader Loperamide Hydrochloride; Lil Drug Store Anti-Diarrheal; Lil Drug Store Anti-Diarrheal Soft Gelatin; Loperacap; Loperamide; Loperamide HCl; Loperamide HCl Anti-Diarrheal; Loperamide Hydrochloride; Loperamide Hydrochloride and Simethicone; Loperamide hydrochloride; Loperamide-2; MEDIQUE Diamode; Medex Anti-Diarrheal Relief; Meds on the Go; PHL-loperamide; PMS-loperamide - Caplet 2mg; PMS-loperamide Hydrochloride Solution.2mg/ml; Physicians Care Anti-Diarrheal; Preferred Plus Loperamide; Preferred Plus Loperamide Hydrochloride; Rexall Anti Diarrheal; Rhoxal-loperamide; Riva-loperamide; Rx Act Anti Diarrheal; Sandoz Loperamide; ShopRite Anti Diarrheal; Signature Care Anti Diarrheal; Signature Care Anti Diarrheal Anti Gas; Simply Right Anti Diarrheal; Smart Sense Anti Diarrheal; Smart Sense Loperamide Hydrochloride; Smart Sense anti diarrheal; Stomach Relief Anti Diarrheal; Sunmark Anti Diarrheal; Sunmark Loperamide Hydrochloride; Teva-loperamide; Topcare Anti Diarrheal; Topcare Anti Diarrheal Anti Gas; Topcare Loperamide Hydrochloride; Up and Up Anti Diarrheal Anti Gas; Up and Up anti diarrheal; Vaprino A-D; good neighbor pharmacy Loperamide hydrochloride

> <INTERNATIONAL_BRANDS>
Dimor; Fortasec; Kaopectate II; Lopedium; Lopedium express; Lopex; Maalox Anti-Diarrheal; Pepto Diarrhea Control

> <SALTS>
Loperamide hydrochloride

$$$$
