5288826
  -OEChem-10051719113D

 40 44  0     1  0  0  0  0  0999 V2000
   -1.9930   -0.4740    1.2005 O   0  0  0  0  0  0  0  0  0  0  0  0
   -2.7826   -2.5168   -0.2218 O   0  0  0  0  0  0  0  0  0  0  0  0
   -3.6220    1.8421    0.5579 O   0  0  0  0  0  0  0  0  0  0  0  0
    3.1777   -0.0101    0.4474 N   0  0  2  0  0  0  0  0  0  0  0  0
    0.3699   -0.7149    0.6616 C   0  0  1  0  0  0  0  0  0  0  0  0
    1.2913   -1.3046   -0.4170 C   0  0  2  0  0  0  0  0  0  0  0  0
    2.3441   -0.2023   -0.7640 C   0  0  1  0  0  0  0  0  0  0  0  0
   -0.9377   -1.4750    0.9848 C   0  0  2  0  0  0  0  0  0  0  0  0
    1.1988   -0.3907    1.9201 C   0  0  0  0  0  0  0  0  0  0  0  0
   -0.2516    0.5302    0.1205 C   0  0  0  0  0  0  0  0  0  0  0  0
    1.6887    1.1052   -1.3279 C   0  0  0  0  0  0  0  0  0  0  0  0
    2.4315    0.4754    1.6126 C   0  0  0  0  0  0  0  0  0  0  0  0
    0.3384    1.4306   -0.7480 C   0  0  0  0  0  0  0  0  0  0  0  0
   -1.3631   -2.5067   -0.0924 C   0  0  2  0  0  0  0  0  0  0  0  0
    0.5066   -1.8183   -1.5971 C   0  0  0  0  0  0  0  0  0  0  0  0
   -1.5672    0.6306    0.5136 C   0  0  0  0  0  0  0  0  0  0  0  0
   -0.7155   -2.3492   -1.4425 C   0  0  0  0  0  0  0  0  0  0  0  0
    4.3733    0.7916    0.2084 C   0  0  0  0  0  0  0  0  0  0  0  0
   -0.4184    2.5415   -1.1246 C   0  0  0  0  0  0  0  0  0  0  0  0
   -2.3310    1.7217    0.1620 C   0  0  0  0  0  0  0  0  0  0  0  0
   -1.7382    2.6936   -0.6541 C   0  0  0  0  0  0  0  0  0  0  0  0
    1.8278   -2.1759   -0.0118 H   0  0  0  0  0  0  0  0  0  0  0  0
    3.0029   -0.6035   -1.5465 H   0  0  0  0  0  0  0  0  0  0  0  0
   -0.8451   -2.0128    1.9373 H   0  0  0  0  0  0  0  0  0  0  0  0
    1.5366   -1.3335    2.3712 H   0  0  0  0  0  0  0  0  0  0  0  0
    0.5899    0.1174    2.6790 H   0  0  0  0  0  0  0  0  0  0  0  0
    1.5474    0.9596   -2.4075 H   0  0  0  0  0  0  0  0  0  0  0  0
    2.3530    1.9680   -1.2194 H   0  0  0  0  0  0  0  0  0  0  0  0
    2.1271    1.5205    1.4760 H   0  0  0  0  0  0  0  0  0  0  0  0
    3.0801    0.4584    2.4975 H   0  0  0  0  0  0  0  0  0  0  0  0
   -1.0772   -3.5067    0.2593 H   0  0  0  0  0  0  0  0  0  0  0  0
    0.9601   -1.7947   -2.5831 H   0  0  0  0  0  0  0  0  0  0  0  0
   -1.2300   -2.7505   -2.3109 H   0  0  0  0  0  0  0  0  0  0  0  0
    4.1500    1.8479    0.0287 H   0  0  0  0  0  0  0  0  0  0  0  0
    4.9380    0.4055   -0.6472 H   0  0  0  0  0  0  0  0  0  0  0  0
    5.0444    0.7352    1.0730 H   0  0  0  0  0  0  0  0  0  0  0  0
   -0.0062    3.2824   -1.8043 H   0  0  0  0  0  0  0  0  0  0  0  0
   -2.3121    3.5638   -0.9645 H   0  0  0  0  0  0  0  0  0  0  0  0
   -3.1557   -2.6446    0.6672 H   0  0  0  0  0  0  0  0  0  0  0  0
   -3.8483    1.0686    1.1031 H   0  0  0  0  0  0  0  0  0  0  0  0
  1  8  1  0  0  0  0
  1 16  1  0  0  0  0
  2 14  1  0  0  0  0
  2 39  1  0  0  0  0
  3 20  1  0  0  0  0
  3 40  1  0  0  0  0
  4  7  1  0  0  0  0
  4 12  1  0  0  0  0
  4 18  1  0  0  0  0
  5  6  1  0  0  0  0
  5  8  1  0  0  0  0
  5  9  1  0  0  0  0
  5 10  1  0  0  0  0
  6  7  1  0  0  0  0
  6 15  1  0  0  0  0
  6 22  1  0  0  0  0
  7 11  1  0  0  0  0
  7 23  1  0  0  0  0
  8 14  1  0  0  0  0
  8 24  1  0  0  0  0
  9 12  1  0  0  0  0
  9 25  1  0  0  0  0
  9 26  1  0  0  0  0
 10 13  2  0  0  0  0
 10 16  1  0  0  0  0
 11 13  1  0  0  0  0
 11 27  1  0  0  0  0
 11 28  1  0  0  0  0
 12 29  1  0  0  0  0
 12 30  1  0  0  0  0
 13 19  1  0  0  0  0
 14 17  1  0  0  0  0
 14 31  1  0  0  0  0
 15 17  2  0  0  0  0
 15 32  1  0  0  0  0
 16 20  2  0  0  0  0
 17 33  1  0  0  0  0
 18 34  1  0  0  0  0
 18 35  1  0  0  0  0
 18 36  1  0  0  0  0
 19 21  2  0  0  0  0
 19 37  1  0  0  0  0
 20 21  1  0  0  0  0
 21 38  1  0  0  0  0
M  END
> <DATABASE_ID>
DB00295

> <DATABASE_NAME>
drugbank

> <ORIGINAL_SOURCE>
PUBCHEM

> <ORIGINAL_SOURCE_URL>
https://pubchem.ncbi.nlm.nih.gov/rest/pug/compound/inchikey/BQJCRHHNABKAKU-KBQPJGBKSA-N/SDF?record_type=3d

> <SMILES>
[H][C@@]12OC3=C(O)C=CC4=C3[C@@]11CCN(C)[C@]([H])(C4)[C@]1([H])C=C[C@@H]2O

> <INCHI_IDENTIFIER>
InChI=1S/C17H19NO3/c1-18-7-6-17-10-3-5-13(20)16(17)21-15-12(19)4-2-9(14(15)17)8-11(10)18/h2-5,10-11,13,16,19-20H,6-8H2,1H3/t10-,11+,13-,16-,17-/m0/s1

> <INCHI_KEY>
BQJCRHHNABKAKU-KBQPJGBKSA-N

> <FORMULA>
C17H19NO3

> <MOLECULAR_WEIGHT>
285.3377

> <EXACT_MASS>
285.136493479

> <JCHEM_ACCEPTOR_COUNT>
4

> <JCHEM_AVERAGE_POLARIZABILITY>
29.951034386845045

> <JCHEM_BIOAVAILABILITY>
1

> <JCHEM_DONOR_COUNT>
2

> <JCHEM_FORMAL_CHARGE>
0

> <JCHEM_GHOSE_FILTER>
1

> <JCHEM_IUPAC>
(1S,5R,13R,14S,17R)-4-methyl-12-oxa-4-azapentacyclo[9.6.1.0¹,¹³.0⁵,¹⁷.0⁷,¹⁸]octadeca-7(18),8,10,15-tetraene-10,14-diol

> <ALOGPS_LOGP>
0.99

> <JCHEM_LOGP>
0.8952108197005931

> <ALOGPS_LOGS>
-1.45

> <JCHEM_MDDR_LIKE_RULE>
0

> <JCHEM_NUMBER_OF_RINGS>
5

> <JCHEM_PHYSIOLOGICAL_CHARGE>
1

> <JCHEM_PKA>
13.78310964250598

> <JCHEM_PKA_STRONGEST_ACIDIC>
10.25560977784915

> <JCHEM_PKA_STRONGEST_BASIC>
9.1215849853492

> <JCHEM_POLAR_SURFACE_AREA>
52.93

> <JCHEM_REFRACTIVITY>
80.12240000000001

> <JCHEM_ROTATABLE_BOND_COUNT>
0

> <JCHEM_RULE_OF_FIVE>
1

> <ALOGPS_SOLUBILITY>
1.02e+01 g/l

> <JCHEM_TRADITIONAL_IUPAC>
morph

> <JCHEM_VEBER_RULE>
0

> <DRUGBANK_ID>
DB00295

> <SECONDARY_ACCESSION_NUMBERS>
APRD00215; DB05354

> <DRUG_GROUPS>
approved; investigational

> <GENERIC_NAME>
Morphine

> <SYNONYMS>
(−)-morphine; (5alpha,6alpha)-17-methyl-7,8-didehydro-4,5-epoxymorphinan-3,6-diol; (5alpha,6alpha)-didehydro-4,5-epoxy-17-methylmorphinan-3,6-diol; (5R,6S,9R,13S,14R)-4,5-epoxy-N-methyl-7-morphinen-3,6-diol; (5α,6α)-17-methyl-7,8-didehydro-4,5-epoxymorphinan-3,6-diol; (5α,6α)-didehydro-4,5-epoxy-17-methylmorphinan-3,6-diol; (7R,7AS,12bs)-3-methyl-2,3,4,4a,7,7a-hexahydro-1H-4,12-methano[1]benzofuro[3,2-e]isoquinoline-7,9-diol; Anhydrous morphine; Morfina; Morphia; Morphin; Morphine; Morphinum; Morphium

> <PRODUCTS>
Arymo ER; Astramorph; Astramorph PF; Avinza; Bar-morphine SR; DepoDur; Doloral 1; Doloral 5 Sirop 5mg/ml; Duramorph; Embeda; Infumorph 200; Infumorph 200/Infumorph 500; Infumorph 500; Kadian; Kadian ER; M-ediat; M-eslon; M.O.S. 10 Syrup 10mg/ml; M.O.S. 10 Tablets 10mg; M.O.S. 20 Concentrate 20mg/ml; M.O.S. SR Tablets 30mg; M.O.S. SR Tablets 60mg; M.O.S. Sulphate 10mg Tab; M.O.S. Sulphate 25mg Tab; M.O.S. Sulphate 50mg Tab; M.O.S. Sulphate 5mg Tab; M.O.S. Syrup 1.0 mg/ml; M.O.S. Syrup 5mg/ml; M.O.S.- 10; M.O.S.- 20; M.O.S.- 30; M.O.S.-20 Tab 20mg; M.O.S.-40 Tab 40mg; M.O.S.-50 Concentrate Liq 50mg/ml; M.O.S.-60 Tab 60mg; MS Contin; Mitigo; MorphaBond; MorphaBond ER; Morphine Extra-forte; Morphine Forte; Morphine Hp 25 - 25mg/ml; Morphine Hp 50 - 50mg/ml USP; Morphine Lp Epidural; Morphine SR; Morphine Sulfate; Morphine Sulfate ER; Morphine Sulfate Extended Release; Morphine Sulfate Extended-Release; Morphine Sulfate Extended-release; Morphine Sulfate Inj 10mg/ml USP; Morphine Sulfate Inj 15mg/ml USP; Morphine Sulfate Inj 1mg/ml USP; Morphine Sulfate Inj 2mg/ml USP; Morphine Sulfate Inj 5mg/ml USP; Morphine Sulfate Injection BP; Morphine Sulfate Injection Sdz; Morphine Sulfate Injection USP; Morphine Sulfate Injection, USP; Morphine Sulfate Oral Solution; Morphine Sulfate Oral Solution CII; Morphine Sulphate Inj 1mg/ml BP; Morphine Sulphate Injection 1mg/ml; Morphine Sulphate Injection 2mg/ml; Morphine Sulphate Injection 50mg/ml; Morphine Sulphate Injection B.P. 25mg/ml; Morphine Sulphate Injection B.P. 50mg/ml; Morphine Sulphate Injection Bp 2mg/ml; Morphine Sulphate Injection, USP; Morphine Sulphate Injection, USP Liq50mg/ml; Morphine Sulphate Injection,usp Liq 1.1mg/ml; Morphine sulfate; Morphine sulfate solution; Morphine-epd; Ms Contin; Ms Contin CR; Ms Contin Srt 100mg; Ms Contin Srt 15mg; Ms Contin Srt 200mg; Ms Contin Srt 30mg; Ms Contin Srt 60mg; Ms Contin Suppositories - 100mg; Ms Contin Suppositories - 200mg; Ms Contin Suppositories - 30mg; Ms Contin Suppositories - 60mg; Ms Contin Tablets; Ms Contin XL Capsules; Ms Ir Sup 10mg; Ms Ir Sup 20mg; Ms Ir Sup 30mg; Ms.ir; Ntp-morphine SR; Opium; Opium Tincture; Opium Tincture Deodorized; Oramorph SR Sustained Release; Oramorph SR Tablets 100mg; Oramorph SR Tablets 30mg; Oramorph SR Tablets 60mg; PMS-morphine Sulfate SR 100 mg; PMS-morphine Sulfate SR 15 mg; PMS-morphine Sulfate SR 200 mg; PMS-morphine Sulfate SR 30 mg; PMS-morphine Sulfate SR 60 mg; Paregoric; Ratio-morphine; Roxanol; Sandoz Morphine SR; Statex Dps 50mg/ml; Statex Drops 20mg/ml; Statex Suppositories 20mg; Statex Suppositories 30mg; Statex Suppositories 5mg; Statex Syrup 10mg/ml; Statex Syrup 1mg/ml; Statex Syrup 5mg/ml; Statex Tab 10mg; Statex Tab 5mg; Statex Tablet 25mg; Statex Tablets 50mg; Statex-suppositories 10mg; Teva-morphine SR; Zomorph

> <INTERNATIONAL_BRANDS>
Kapanol; MSIR; Oramorph

> <SALTS>
Morphine acetate; Morphine hydrochloride; Morphine mesylate; Morphine nitrate; Morphine phosphate; Morphine sulfate; Morphine sulfate pentahydrate; Morphine tartrate

$$$$
