145742
  -OEChem-11291912073D

 17 17  0     1  0  0  0  0  0999 V2000
    2.1617   -0.9509   -0.1119 O   0  0  0  0  0  0  0  0  0  0  0  0
    1.5688    1.2164   -0.4953 O   0  0  0  0  0  0  0  0  0  0  0  0
   -0.7807    0.9314    0.7770 N   0  0  0  0  0  0  0  0  0  0  0  0
    0.0834   -0.2476    0.7251 C   0  0  1  0  0  0  0  0  0  0  0  0
   -0.7235   -1.3171   -0.0031 C   0  0  0  0  0  0  0  0  0  0  0  0
   -1.9888   -0.6106   -0.4752 C   0  0  0  0  0  0  0  0  0  0  0  0
   -1.6499    0.8635   -0.3933 C   0  0  0  0  0  0  0  0  0  0  0  0
    1.3289    0.1149   -0.0235 C   0  0  0  0  0  0  0  0  0  0  0  0
    0.3625   -0.5522    1.7389 H   0  0  0  0  0  0  0  0  0  0  0  0
   -0.9873   -2.1429    0.6671 H   0  0  0  0  0  0  0  0  0  0  0  0
   -0.1919   -1.7411   -0.8624 H   0  0  0  0  0  0  0  0  0  0  0  0
   -2.2798   -0.9157   -1.4848 H   0  0  0  0  0  0  0  0  0  0  0  0
   -2.8187   -0.8485    0.2018 H   0  0  0  0  0  0  0  0  0  0  0  0
   -1.1204    1.1932   -1.2945 H   0  0  0  0  0  0  0  0  0  0  0  0
   -2.5424    1.4831   -0.2694 H   0  0  0  0  0  0  0  0  0  0  0  0
   -0.2509    1.8003    0.8023 H   0  0  0  0  0  0  0  0  0  0  0  0
    2.9837   -0.7341   -0.6014 H   0  0  0  0  0  0  0  0  0  0  0  0
  1  8  1  0  0  0  0
  1 17  1  0  0  0  0
  2  8  2  0  0  0  0
  3  4  1  0  0  0  0
  3  7  1  0  0  0  0
  3 16  1  0  0  0  0
  4  5  1  0  0  0  0
  4  8  1  0  0  0  0
  4  9  1  0  0  0  0
  5  6  1  0  0  0  0
  5 10  1  0  0  0  0
  5 11  1  0  0  0  0
  6  7  1  0  0  0  0
  6 12  1  0  0  0  0
  6 13  1  0  0  0  0
  7 14  1  0  0  0  0
  7 15  1  0  0  0  0
M  END
> <DATABASE_ID>
DB00172

> <DATABASE_NAME>
drugbank

> <ORIGINAL_SOURCE>
PUBCHEM

> <ORIGINAL_SOURCE_URL>
https://pubchem.ncbi.nlm.nih.gov/rest/pug/compound/inchikey/ONIBWKKTOPOVIA-BYPYZUCNSA-N/SDF?record_type=3d

> <SMILES>
OC(=O)[C@@H]1CCCN1

> <INCHI_IDENTIFIER>
InChI=1S/C5H9NO2/c7-5(8)4-2-1-3-6-4/h4,6H,1-3H2,(H,7,8)/t4-/m0/s1

> <INCHI_KEY>
ONIBWKKTOPOVIA-BYPYZUCNSA-N

> <FORMULA>
C5H9NO2

> <MOLECULAR_WEIGHT>
115.1305

> <EXACT_MASS>
115.063328537

> <JCHEM_ACCEPTOR_COUNT>
3

> <JCHEM_ATOM_COUNT>
17

> <JCHEM_AVERAGE_POLARIZABILITY>
11.50403298353395

> <JCHEM_BIOAVAILABILITY>
1

> <JCHEM_DONOR_COUNT>
2

> <JCHEM_FORMAL_CHARGE>
0

> <JCHEM_GHOSE_FILTER>
0

> <JCHEM_IUPAC>
(2S)-pyrrolidine-2-carboxylic acid

> <ALOGPS_LOGP>
-2.71

> <JCHEM_LOGP>
-2.568638276039985

> <ALOGPS_LOGS>
0.50

> <JCHEM_MDDR_LIKE_RULE>
0

> <JCHEM_NUMBER_OF_RINGS>
1

> <JCHEM_PHYSIOLOGICAL_CHARGE>
0

> <JCHEM_PKA_STRONGEST_ACIDIC>
1.9406707712827915

> <JCHEM_PKA_STRONGEST_BASIC>
11.332026115136207

> <JCHEM_POLAR_SURFACE_AREA>
49.33

> <JCHEM_REFRACTIVITY>
28.064299999999996

> <JCHEM_ROTATABLE_BOND_COUNT>
1

> <JCHEM_RULE_OF_FIVE>
1

> <ALOGPS_SOLUBILITY>
3.65e+02 g/l

> <JCHEM_TRADITIONAL_IUPAC>
palladium(2+) (4S,5S,14R,15R)-10-acetyl-4-(2-carboxyethyl)-15-ethyl-2-(2-methoxy-2-oxoethyl)-5,9,14,19-tetramethyl-20-[(2-sulfoethyl)carbamoyl]-21,22,23,24-tetraazapentacyclo[16.2.1.1^{3,6}.1^{8,11}.1^{13,16}]tetracosa-1,3(24),6,8,10,12,16(22),17,19-nonaene-21,23-diide

> <JCHEM_VEBER_RULE>
0

> <DRUGBANK_ID>
DB00172

> <SECONDARY_ACCESSION_NUMBERS>
NUTR00047

> <DRUG_GROUPS>
nutraceutical

> <GENERIC_NAME>
Proline

> <SYNONYMS>
(-)-2-Pyrrolidinecarboxylic acid; (−)-(S)-proline; (−)-2-pyrrolidinecarboxylic acid; (−)-proline; (2S)-pyrrolidine-2-carboxylic acid; (S)-2-Carboxypyrrolidine; (S)-2-Pyrrolidinecarboxylic acid; (S)-pyrrolidine-2-carboxylic acid; 2-Pyrrolidinecarboxylic acid; L-(−)-proline; L-alpha-pyrrolidinecarboxylic acid; L-Prolin; L-Proline; L-pyrrolidine-2-carboxylic acid; L-α-pyrrolidinecarboxylic acid; P; Prolina; Proline; Prolinum

> <PRODUCTS>
2.5% Travasol Amino Acid Injection With Electrolytes In 10% Dextrose; 2.5% Travasol Amino Acid Injection With Electrolytes In 10% Dextrose Clinimix; 2.5% Travasol Amino Acid Injection Without Electrolytes In 10% Dextrose Quickmix; 2.5%travasol Amino Acid InJ.W.eleC.W.25%dex; 2.75% Travas. Amino Acid InJ.W.elecw.25%dex; 2.75% Travasol Amino Acid Injection With Electrolytes In 25% Dextrose Quickmix; 2.75% Travasol Amino Acid Injection With Electrolytes In 5% Dextrose Quickmix; 2.75%travasol Amino Acid InJ.W.eleC.W.5%dex.; 20% Prosol; 4.25% Amino Acid Injection Without Electrolytes In 20% Dextrose Quickmix; 4.25% Travasol Amino Acid Injection With Electrolytes In 10% Dextrose; 4.25% Travasol Amino Acid Injection With Electrolytes In 20% Dextrose; 4.25% Travasol Amino Acid Injection With Electrolytes In 20% Dextrose Quickmix; 4.25% Travasol Amino Acid Injection With Electrolytes In 25% Dextrose; 4.25% Travasol Amino Acid Injection With Electrolytes In 5% Dextrose Quickmix; 4.25% Travasol Amino Acid Injection Without Electrlytes In 10% Dextrose; 4.25% Travasol Amino Acid Injection Without Electrolytes In 20% Dextrose; 4.25% Travasol Amino Acid Injection Without Electrolytes In 25% Dextrose; 4.25% Travasol Amino Acid Without Electrolytes In 5% Dextrose Quickmix; 4.25%trav. Amino Acid InJ.W.O.elect.5%dext.; 4.25%travasol Amino Acid InJ.W.elecw.5%dex.; 5% Travasol Amino Acid Injection With Electrolytes In 20% Dextrose; 5% Travasol Amino Acid Injection Without Electrolytes In 20% Dextrose; 5% Travasol Amino Acid Injection Without Electrolytes In 25% Dextrose; 8.5% Freamine III; Aminosyn; Aminosyn 10% W Electrolytes; Aminosyn 3.5% M; Aminosyn 5%; Aminosyn 7%; Aminosyn 8.5%; Aminosyn 8.5% Injection With Electrolytes; Aminosyn HF; Aminosyn II; Aminosyn II 10% With Electrolytes; Aminosyn II 5% Inj; Aminosyn II 7% Injection; Aminosyn II 7% M In 10% Dextrose(dual Chamber); Aminosyn II 7% With 10% Dextrose; Aminosyn II 7% With 50% Dextrose; Aminosyn II 8.5% Injection; Aminosyn II 8.5% M In 20% Dextrose (dual Chamber); Aminosyn II 8.5% With 50% Dextrose; Aminosyn II In Dextrose Injection; Aminosyn II and Dextrose; Aminosyn II in Dextrose; Aminosyn II with Electrolytes; Aminosyn II with Electrolytes in Dextrose with Calcium; Aminosyn Sulfite Free; Aminosyn-PF; Aminosyn-PF 10%; Aminosyn-PF 7%; Clinimix; Clinimix 2.5% Travasol Aa Without Electrolytes In 10% Dextrose Injec; Clinimix E; Clinisol; FreAmine HBC; FreAmine III; HepatAmine; Hepatasol; Kabiven; Novamine; Nutrineal Pd4; Olimel 3.3% E; Olimel 4.4%; Olimel 4.4% E; Olimel 5.7%; Olimel 5.7% E; Olimel 7.6%; Olimel 7.6% E; Perikabiven; Periolimel 2.5% E; Plenamine; Premasol - sulfite-free (Amino Acid); Primene; Primene 10%; Primene 10%-liq IV; ProSol; ProcalAmine; Quick Mix 2.5% Travasol Aa With Electrolytes With 25% Dextrose Injec; RenAmin; Renamin (amino Acids) Injection; Smofkabiven; Smofkabiven Electrolyte Free; Smofkabiven Peripheral; Synthamin; Travasol; Travasol Amino Acid Inj 5.5%; Travasol Amino Acid Inj 8.5%; Travasol E; Travasol Inj Without Electrolytes 5.5%; Travasol Inj Without Electrolytes 8.5%; TrophAmine; Vamin 18 Electrolyte-free; Vamin N

$$$$
