19150
  -OEChem-10051719213D

 47 49  0     1  0  0  0  0  0999 V2000
    0.0816    0.8888    0.6352 S   0  0  0  0  0  0  0  0  0  0  0  0
   -0.4258   -3.5840   -0.5264 O   0  0  0  0  0  0  0  0  0  0  0  0
   -4.5765    1.4906    0.5980 O   0  0  0  0  0  0  0  0  0  0  0  0
   -4.0049   -2.4484   -0.2377 O   0  0  0  0  0  0  0  0  0  0  0  0
    3.4438   -1.3839    1.9481 O   0  0  0  0  0  0  0  0  0  0  0  0
   -2.9848   -2.0399   -2.2432 O   0  0  0  0  0  0  0  0  0  0  0  0
   -6.3191    2.1971   -0.7443 O   0  0  0  0  0  0  0  0  0  0  0  0
   -1.0986   -1.4551    0.2322 N   0  0  0  0  0  0  0  0  0  0  0  0
    1.9697   -1.4825    0.1612 N   0  0  0  0  0  0  0  0  0  0  0  0
    5.5645   -1.4331    0.1785 N   0  0  0  0  0  0  0  0  0  0  0  0
   -0.2813   -0.7808    1.2243 C   0  0  1  0  0  0  0  0  0  0  0  0
    0.7873   -1.8579    0.9359 C   0  0  1  0  0  0  0  0  0  0  0  0
   -0.3185   -2.5482    0.0873 C   0  0  0  0  0  0  0  0  0  0  0  0
   -2.2593   -0.9499   -0.2592 C   0  0  0  0  0  0  0  0  0  0  0  0
   -2.5961    0.3498   -0.0819 C   0  0  0  0  0  0  0  0  0  0  0  0
   -1.6772    1.3726    0.5825 C   0  0  0  0  0  0  0  0  0  0  0  0
   -3.9016    0.9652   -0.5255 C   0  0  0  0  0  0  0  0  0  0  0  0
    3.2211   -1.2734    0.7435 C   0  0  0  0  0  0  0  0  0  0  0  0
   -3.1023   -1.8610   -1.0477 C   0  0  0  0  0  0  0  0  0  0  0  0
    4.2874   -0.8696   -0.2688 C   0  0  1  0  0  0  0  0  0  0  0  0
    4.3434    0.6362   -0.4226 C   0  0  0  0  0  0  0  0  0  0  0  0
    3.5492    1.2464   -1.3772 C   0  0  0  0  0  0  0  0  0  0  0  0
    5.1869    1.3668    0.3952 C   0  0  0  0  0  0  0  0  0  0  0  0
   -5.7873    2.0867    0.3521 C   0  0  0  0  0  0  0  0  0  0  0  0
    3.6005    2.6331   -1.5189 C   0  0  0  0  0  0  0  0  0  0  0  0
    5.2379    2.7535    0.2535 C   0  0  0  0  0  0  0  0  0  0  0  0
    4.4447    3.3866   -0.7035 C   0  0  0  0  0  0  0  0  0  0  0  0
   -6.3845    2.5944    1.6295 C   0  0  0  0  0  0  0  0  0  0  0  0
   -0.7042   -0.8345    2.2345 H   0  0  0  0  0  0  0  0  0  0  0  0
    1.0480   -2.4557    1.8182 H   0  0  0  0  0  0  0  0  0  0  0  0
    1.8870   -1.3530   -0.8443 H   0  0  0  0  0  0  0  0  0  0  0  0
   -2.0191    1.5639    1.6056 H   0  0  0  0  0  0  0  0  0  0  0  0
   -1.7162    2.3195    0.0337 H   0  0  0  0  0  0  0  0  0  0  0  0
   -4.5500    0.2360   -1.0225 H   0  0  0  0  0  0  0  0  0  0  0  0
   -3.6942    1.7684   -1.2436 H   0  0  0  0  0  0  0  0  0  0  0  0
    4.0598   -1.3272   -1.2399 H   0  0  0  0  0  0  0  0  0  0  0  0
    5.4890   -2.4489    0.2283 H   0  0  0  0  0  0  0  0  0  0  0  0
    6.2831   -1.2426   -0.5197 H   0  0  0  0  0  0  0  0  0  0  0  0
   -4.5912   -3.0662   -0.7246 H   0  0  0  0  0  0  0  0  0  0  0  0
    2.8887    0.6689   -2.0171 H   0  0  0  0  0  0  0  0  0  0  0  0
    5.8024    0.9060    1.1615 H   0  0  0  0  0  0  0  0  0  0  0  0
    2.9823    3.1260   -2.2634 H   0  0  0  0  0  0  0  0  0  0  0  0
    5.8918    3.3413    0.8912 H   0  0  0  0  0  0  0  0  0  0  0  0
    4.4835    4.4665   -0.8127 H   0  0  0  0  0  0  0  0  0  0  0  0
   -7.3463    3.0699    1.4170 H   0  0  0  0  0  0  0  0  0  0  0  0
   -6.5515    1.7610    2.3165 H   0  0  0  0  0  0  0  0  0  0  0  0
   -5.7203    3.3368    2.0788 H   0  0  0  0  0  0  0  0  0  0  0  0
  1 11  1  0  0  0  0
  1 16  1  0  0  0  0
  2 13  2  0  0  0  0
  3 17  1  0  0  0  0
  3 24  1  0  0  0  0
  4 19  1  0  0  0  0
  4 39  1  0  0  0  0
  5 18  2  0  0  0  0
  6 19  2  0  0  0  0
  7 24  2  0  0  0  0
  8 11  1  0  0  0  0
  8 13  1  0  0  0  0
  8 14  1  0  0  0  0
  9 12  1  0  0  0  0
  9 18  1  0  0  0  0
  9 31  1  0  0  0  0
 10 20  1  0  0  0  0
 10 37  1  0  0  0  0
 10 38  1  0  0  0  0
 11 12  1  0  0  0  0
 11 29  1  0  0  0  0
 12 13  1  0  0  0  0
 12 30  1  0  0  0  0
 14 15  2  0  0  0  0
 14 19  1  0  0  0  0
 15 16  1  0  0  0  0
 15 17  1  0  0  0  0
 16 32  1  0  0  0  0
 16 33  1  0  0  0  0
 17 34  1  0  0  0  0
 17 35  1  0  0  0  0
 18 20  1  0  0  0  0
 20 21  1  0  0  0  0
 20 36  1  0  0  0  0
 21 22  2  0  0  0  0
 21 23  1  0  0  0  0
 22 25  1  0  0  0  0
 22 40  1  0  0  0  0
 23 26  2  0  0  0  0
 23 41  1  0  0  0  0
 24 28  1  0  0  0  0
 25 27  2  0  0  0  0
 25 42  1  0  0  0  0
 26 27  1  0  0  0  0
 26 43  1  0  0  0  0
 27 44  1  0  0  0  0
 28 45  1  0  0  0  0
 28 46  1  0  0  0  0
 28 47  1  0  0  0  0
M  END
> <DATABASE_ID>
DB00689

> <DATABASE_NAME>
drugbank

> <ORIGINAL_SOURCE>
PUBCHEM

> <ORIGINAL_SOURCE_URL>
https://pubchem.ncbi.nlm.nih.gov/rest/pug/compound/inchikey/FUBBGQLTSCSAON-PBFPGSCMSA-N/SDF?record_type=3d

> <SMILES>
[H][C@]12SCC(COC(C)=O)=C(N1C(=O)[C@H]2NC(=O)[C@H](N)C1=CC=CC=C1)C(O)=O

> <INCHI_IDENTIFIER>
InChI=1S/C18H19N3O6S/c1-9(22)27-7-11-8-28-17-13(16(24)21(17)14(11)18(25)26)20-15(23)12(19)10-5-3-2-4-6-10/h2-6,12-13,17H,7-8,19H2,1H3,(H,20,23)(H,25,26)/t12-,13-,17-/m1/s1

> <INCHI_KEY>
FUBBGQLTSCSAON-PBFPGSCMSA-N

> <FORMULA>
C18H19N3O6S

> <MOLECULAR_WEIGHT>
405.425

> <EXACT_MASS>
405.099456045

> <JCHEM_ACCEPTOR_COUNT>
6

> <JCHEM_AVERAGE_POLARIZABILITY>
37.64055912926436

> <JCHEM_BIOAVAILABILITY>
1

> <JCHEM_DONOR_COUNT>
3

> <JCHEM_FORMAL_CHARGE>
0

> <JCHEM_GHOSE_FILTER>
0

> <JCHEM_IUPAC>
(6R,7R)-3-[(acetyloxy)methyl]-7-[(2R)-2-amino-2-phenylacetamido]-8-oxo-5-thia-1-azabicyclo[4.2.0]oct-2-ene-2-carboxylic acid

> <ALOGPS_LOGP>
0.54

> <JCHEM_LOGP>
-2.9842465413384374

> <ALOGPS_LOGS>
-3.44

> <JCHEM_MDDR_LIKE_RULE>
1

> <JCHEM_NUMBER_OF_RINGS>
3

> <JCHEM_PHYSIOLOGICAL_CHARGE>
0

> <JCHEM_PKA>
11.787101614623854

> <JCHEM_PKA_STRONGEST_ACIDIC>
3.338954501407238

> <JCHEM_PKA_STRONGEST_BASIC>
7.4383533699090165

> <JCHEM_POLAR_SURFACE_AREA>
139.03

> <JCHEM_REFRACTIVITY>
99.89980000000003

> <JCHEM_ROTATABLE_BOND_COUNT>
7

> <JCHEM_RULE_OF_FIVE>
1

> <ALOGPS_SOLUBILITY>
1.48e-01 g/l

> <JCHEM_TRADITIONAL_IUPAC>
cephaloglycin

> <JCHEM_VEBER_RULE>
0

> <DRUGBANK_ID>
DB00689

> <SECONDARY_ACCESSION_NUMBERS>
APRD00858

> <DRUG_GROUPS>
approved

> <GENERIC_NAME>
Cephaloglycin

> <SYNONYMS>
7-(2-D-alpha-Aminophenylacetamido)cephalosporanic acid; 7-(D-2-Amino-2-phenylacetamido)-3-acetoxymethyl-delta(sup3)-cephem-4-carboxylic acid; 7-(D-alpha-Aminophenyl-acetamido)cephalosporanic acid; Cefaloglicina; Cefaloglycin; Cefaloglycine; Cefaloglycinum; CEG; Cephaloglycin anhydrous; Cephaloglycine; Cephaoglycin acid; D-(-)-Cephaloglycin; D-Cephaloglycine

> <INTERNATIONAL_BRANDS>
Kafocin

> <SALTS>
Cefaloglycin dihydrate; Cefaloglycin monohydrate

$$$$
