4906
  -OEChem-10051719223D

 36 36  0     1  0  0  0  0  0999 V2000
   -0.7432    1.2197   -1.5006 O   0  0  0  0  0  0  0  0  0  0  0  0
   -3.0836    0.5844    0.0671 N   0  0  0  0  0  0  0  0  0  0  0  0
    0.2729    0.5688    0.5128 N   0  0  0  0  0  0  0  0  0  0  0  0
   -1.9849    1.4148    0.5546 C   0  0  1  0  0  0  0  0  0  0  0  0
   -2.7637   -0.8284    0.2037 C   0  0  0  0  0  0  0  0  0  0  0  0
   -3.9165   -1.6853   -0.3131 C   0  0  0  0  0  0  0  0  0  0  0  0
   -0.7594    1.0588   -0.2835 C   0  0  0  0  0  0  0  0  0  0  0  0
   -2.3569    2.8864    0.4163 C   0  0  0  0  0  0  0  0  0  0  0  0
    1.5550    0.1382    0.0961 C   0  0  0  0  0  0  0  0  0  0  0  0
    2.4719   -0.3248    1.0264 C   0  0  0  0  0  0  0  0  0  0  0  0
   -3.6156   -3.1684   -0.1615 C   0  0  0  0  0  0  0  0  0  0  0  0
    1.8644    0.1924   -1.2541 C   0  0  0  0  0  0  0  0  0  0  0  0
    3.7304   -0.7448    0.5957 C   0  0  0  0  0  0  0  0  0  0  0  0
    2.1507   -0.3882    2.4845 C   0  0  0  0  0  0  0  0  0  0  0  0
    3.1228   -0.2276   -1.6847 C   0  0  0  0  0  0  0  0  0  0  0  0
    4.0558   -0.6961   -0.7598 C   0  0  0  0  0  0  0  0  0  0  0  0
   -1.8136    1.2109    1.6184 H   0  0  0  0  0  0  0  0  0  0  0  0
   -1.8747   -1.1089   -0.3714 H   0  0  0  0  0  0  0  0  0  0  0  0
   -2.5740   -1.0743    1.2561 H   0  0  0  0  0  0  0  0  0  0  0  0
   -3.9348    0.7988    0.5861 H   0  0  0  0  0  0  0  0  0  0  0  0
   -4.8366   -1.4519    0.2366 H   0  0  0  0  0  0  0  0  0  0  0  0
   -4.1059   -1.4639   -1.3706 H   0  0  0  0  0  0  0  0  0  0  0  0
   -2.5723    3.1541   -0.6246 H   0  0  0  0  0  0  0  0  0  0  0  0
   -3.2369    3.1316    1.0207 H   0  0  0  0  0  0  0  0  0  0  0  0
   -1.5289    3.5218    0.7496 H   0  0  0  0  0  0  0  0  0  0  0  0
    0.0941    0.5067    1.5108 H   0  0  0  0  0  0  0  0  0  0  0  0
   -2.7212   -3.4478   -0.7276 H   0  0  0  0  0  0  0  0  0  0  0  0
   -3.4540   -3.4309    0.8889 H   0  0  0  0  0  0  0  0  0  0  0  0
   -4.4537   -3.7649   -0.5353 H   0  0  0  0  0  0  0  0  0  0  0  0
    1.2049    0.5381   -2.0351 H   0  0  0  0  0  0  0  0  0  0  0  0
    4.4695   -1.1128    1.3024 H   0  0  0  0  0  0  0  0  0  0  0  0
    2.9914   -0.7787    3.0686 H   0  0  0  0  0  0  0  0  0  0  0  0
    1.9249    0.6104    2.8731 H   0  0  0  0  0  0  0  0  0  0  0  0
    1.2986   -1.0527    2.6627 H   0  0  0  0  0  0  0  0  0  0  0  0
    3.3777   -0.1908   -2.7400 H   0  0  0  0  0  0  0  0  0  0  0  0
    5.0356   -1.0232   -1.0952 H   0  0  0  0  0  0  0  0  0  0  0  0
  1  7  2  0  0  0  0
  2  4  1  0  0  0  0
  2  5  1  0  0  0  0
  2 20  1  0  0  0  0
  3  7  1  0  0  0  0
  3  9  1  0  0  0  0
  3 26  1  0  0  0  0
  4  7  1  0  0  0  0
  4  8  1  0  0  0  0
  4 17  1  0  0  0  0
  5  6  1  0  0  0  0
  5 18  1  0  0  0  0
  5 19  1  0  0  0  0
  6 11  1  0  0  0  0
  6 21  1  0  0  0  0
  6 22  1  0  0  0  0
  8 23  1  0  0  0  0
  8 24  1  0  0  0  0
  8 25  1  0  0  0  0
  9 10  1  0  0  0  0
  9 12  2  0  0  0  0
 10 13  2  0  0  0  0
 10 14  1  0  0  0  0
 11 27  1  0  0  0  0
 11 28  1  0  0  0  0
 11 29  1  0  0  0  0
 12 15  1  0  0  0  0
 12 30  1  0  0  0  0
 13 16  1  0  0  0  0
 13 31  1  0  0  0  0
 14 32  1  0  0  0  0
 14 33  1  0  0  0  0
 14 34  1  0  0  0  0
 15 16  2  0  0  0  0
 15 35  1  0  0  0  0
 16 36  1  0  0  0  0
M  END
> <DATABASE_ID>
DB00750

> <DATABASE_NAME>
drugbank

> <ORIGINAL_SOURCE>
PUBCHEM

> <ORIGINAL_SOURCE_URL>
https://pubchem.ncbi.nlm.nih.gov/rest/pug/compound/inchikey/MVFGUOIZUNYYSO-UHFFFAOYSA-N/SDF?record_type=3d

> <SMILES>
CCCNC(C)C(=O)NC1=CC=CC=C1C

> <INCHI_IDENTIFIER>
InChI=1S/C13H20N2O/c1-4-9-14-11(3)13(16)15-12-8-6-5-7-10(12)2/h5-8,11,14H,4,9H2,1-3H3,(H,15,16)

> <INCHI_KEY>
MVFGUOIZUNYYSO-UHFFFAOYSA-N

> <FORMULA>
C13H20N2O

> <MOLECULAR_WEIGHT>
220.3107

> <EXACT_MASS>
220.157563272

> <JCHEM_ACCEPTOR_COUNT>
2

> <JCHEM_AVERAGE_POLARIZABILITY>
25.976297247961284

> <JCHEM_BIOAVAILABILITY>
1

> <JCHEM_DONOR_COUNT>
2

> <JCHEM_FORMAL_CHARGE>
0

> <JCHEM_GHOSE_FILTER>
1

> <JCHEM_IUPAC>
N-(2-methylphenyl)-2-(propylamino)propanamide

> <ALOGPS_LOGP>
1.87

> <JCHEM_LOGP>
2.6809227156666666

> <ALOGPS_LOGS>
-2.83

> <JCHEM_MDDR_LIKE_RULE>
0

> <JCHEM_NUMBER_OF_RINGS>
1

> <JCHEM_PHYSIOLOGICAL_CHARGE>
1

> <JCHEM_PKA_STRONGEST_ACIDIC>
13.509081505542508

> <JCHEM_PKA_STRONGEST_BASIC>
8.815906516402368

> <JCHEM_POLAR_SURFACE_AREA>
41.13

> <JCHEM_REFRACTIVITY>
67.86300000000001

> <JCHEM_ROTATABLE_BOND_COUNT>
5

> <JCHEM_RULE_OF_FIVE>
1

> <ALOGPS_SOLUBILITY>
3.26e-01 g/l

> <JCHEM_TRADITIONAL_IUPAC>
prilocaine

> <JCHEM_VEBER_RULE>
0

> <DRUGBANK_ID>
DB00750

> <SECONDARY_ACCESSION_NUMBERS>
APRD00180

> <DRUG_GROUPS>
approved

> <GENERIC_NAME>
Prilocaine

> <SYNONYMS>
2-(Propylamino)-o-propionotoluidide; 2-Methyl-alpha-propylaminopropionanilide; alpha-n-Propylamino-2-methylpropionanilide; N-(2-Methylphenyl)-2-(propylamino)propanamide; o-Methyl-2-propylaminopropionanilide; o-Methyl-alpha-propylaminopropionanilide; Prilocain; Prilocaina; PrilocaÃ¯ne; Prilocaine; Prilocaine base; Prilocainum; Propitocaine

> <PRODUCTS>
4% Citanest Forte Dental With Epinephrine 1:200,000; 4% Citanest Plain Dental; AgonEaze; Anodyne LPT; Aprizio Pak; Cadira Compliant Blood Stat; Citanest Forte; Citanest Forte DENTAL; Citanest Plain; Dentsply 4% Prilocaine Hydrochloride Dental Injection; Dentsply 4% Prilocaine and Epinephrine Injection 1:200,000; DermacinRx Cinlone-I CPI; DermacinRx Cinlone-II CPI; DermacinRx Empricaine; DermacinRx Prikaan; DermacinRx Prizopak; Dibucaine HCl 0.5% / Lidocaine 15% / Phenylephrine HCl 1% / Prilocaine 5%; Dolotranz; Emla; Emla Cream; Emla Patch; Fortacin; IV Infusion CPI; Inflammation Reduction Pack; LP Lite PAK; Leva Set with Occlusive Dressing; LiProZonePak; Lido Bdk; Lido-Prilo Caine Pack; Lidocaine 2.5% and Prilocaine 2.5% Cream; Lidocaine and Prilocaine; Lidocaine and Prilocaine Cream; Lidocaine-Prilocaine-Cream Base; Lidopril; Lidopril XR; Livixil Pak; Medolor Pak Lidocaine and Prilocaine Cream Kit; Microvix L; Microvix LP; Nuvakaan; Oraqix; PRILOVIX Lite; PRILOVIX Lite Plus; PRILOVIX Plus; PRILOVIX UltraLite; PRILOVIX Ultralite Plus; PainGo KFT; Prikaan; Prikaan Lite; Prilo Patch; Prilocaine; Prilocaine HCl 4% Epineph 1:200000inj; Prilocaine Hydrochloride; Prilocaine Hydrochloride with Epinephrine; Prilolid; Prilopentin; Prilovix; Prilovixil; Priloxx LP External Kit; Prizotral; Relador Pak Plus; Relador Pak with Occlusive Dressing; Venipuncture CPI; Zyvodol

> <INTERNATIONAL_BRANDS>
Citanest; Prilotekal; Takipril; Xylonest

> <SALTS>
Prilocaine hydrochloride

$$$$
