6323481
  -OEChem-10051719083D

 49 48  0     1  0  0  0  0  0999 V2000
   -1.2434   -2.9429   -0.3646 P   0  0  1  0  0  0  0  0  0  0  0  0
    0.9628    0.7538   -0.0505 O   0  0  0  0  0  0  0  0  0  0  0  0
   -0.0672   -1.8406   -0.2443 O   0  0  0  0  0  0  0  0  0  0  0  0
    3.6211    0.0785    0.3634 O   0  0  0  0  0  0  0  0  0  0  0  0
   -2.6148   -2.1204   -0.1129 O   0  0  0  0  0  0  0  0  0  0  0  0
   -1.2648   -3.2755   -1.9486 O   0  0  0  0  0  0  0  0  0  0  0  0
   -1.0650   -4.1491    0.5123 O   0  0  0  0  0  0  0  0  0  0  0  0
   -0.0108    2.0365    1.6017 O   0  0  0  0  0  0  0  0  0  0  0  0
    5.1278   -1.5369   -0.3027 O   0  0  0  0  0  0  0  0  0  0  0  0
   -3.6295   -0.2913    1.8371 O   0  0  0  0  0  0  0  0  0  0  0  0
   -4.3064    1.6634    0.8966 O   0  0  0  0  0  0  0  0  0  0  0  0
   -4.7720    0.4823   -1.4965 N   0  0  0  0  0  0  0  0  0  0  0  0
    1.3096   -0.2378    0.9218 C   0  0  1  0  0  0  0  0  0  0  0  0
    0.1670   -1.2415    1.0260 C   0  0  0  0  0  0  0  0  0  0  0  0
    2.6003   -0.9083    0.4695 C   0  0  0  0  0  0  0  0  0  0  0  0
    0.0091    2.7888   -0.7111 C   0  0  0  0  0  0  0  0  0  0  0  0
    0.3003    1.8459    0.4341 C   0  0  0  0  0  0  0  0  0  0  0  0
   -0.7560    4.0273   -0.2513 C   0  0  0  0  0  0  0  0  0  0  0  0
   -2.8984   -0.9620   -0.8789 C   0  0  0  0  0  0  0  0  0  0  0  0
   -4.2420   -0.3833   -0.4443 C   0  0  1  0  0  0  0  0  0  0  0  0
   -1.0146    4.9829   -1.4047 C   0  0  0  0  0  0  0  0  0  0  0  0
    4.8495   -0.3758   -0.0365 C   0  0  0  0  0  0  0  0  0  0  0  0
    5.8120    0.7869   -0.0988 C   0  0  0  0  0  0  0  0  0  0  0  0
   -4.0800    0.4654    0.8022 C   0  0  0  0  0  0  0  0  0  0  0  0
    7.2055    0.3535   -0.5190 C   0  0  0  0  0  0  0  0  0  0  0  0
    1.4958    0.2303    1.8966 H   0  0  0  0  0  0  0  0  0  0  0  0
   -0.7512   -0.7394    1.3453 H   0  0  0  0  0  0  0  0  0  0  0  0
    0.4070   -2.0251    1.7522 H   0  0  0  0  0  0  0  0  0  0  0  0
    2.4688   -1.3673   -0.5177 H   0  0  0  0  0  0  0  0  0  0  0  0
    2.9027   -1.6764    1.1908 H   0  0  0  0  0  0  0  0  0  0  0  0
    0.9645    3.0873   -1.1572 H   0  0  0  0  0  0  0  0  0  0  0  0
   -0.5813    2.2472   -1.4588 H   0  0  0  0  0  0  0  0  0  0  0  0
   -0.1900    4.5492    0.5296 H   0  0  0  0  0  0  0  0  0  0  0  0
   -1.7123    3.7303    0.1961 H   0  0  0  0  0  0  0  0  0  0  0  0
   -2.0911   -0.2312   -0.7591 H   0  0  0  0  0  0  0  0  0  0  0  0
   -2.9339   -1.2626   -1.9319 H   0  0  0  0  0  0  0  0  0  0  0  0
   -4.9696   -1.1734   -0.2263 H   0  0  0  0  0  0  0  0  0  0  0  0
   -0.0745    5.3258   -1.8485 H   0  0  0  0  0  0  0  0  0  0  0  0
   -1.6089    4.5008   -2.1874 H   0  0  0  0  0  0  0  0  0  0  0  0
   -1.5645    5.8614   -1.0531 H   0  0  0  0  0  0  0  0  0  0  0  0
    5.4263    1.5172   -0.8179 H   0  0  0  0  0  0  0  0  0  0  0  0
    5.8603    1.2500    0.8924 H   0  0  0  0  0  0  0  0  0  0  0  0
   -4.9049   -0.0582   -2.3505 H   0  0  0  0  0  0  0  0  0  0  0  0
   -5.6968    0.8185   -1.2293 H   0  0  0  0  0  0  0  0  0  0  0  0
   -0.5949   -3.8928   -2.3121 H   0  0  0  0  0  0  0  0  0  0  0  0
    7.6192   -0.3765    0.1847 H   0  0  0  0  0  0  0  0  0  0  0  0
    7.1909   -0.1095   -1.5113 H   0  0  0  0  0  0  0  0  0  0  0  0
    7.8787    1.2155   -0.5534 H   0  0  0  0  0  0  0  0  0  0  0  0
   -3.5110    0.2395    2.6534 H   0  0  0  0  0  0  0  0  0  0  0  0
  1  3  1  0  0  0  0
  1  5  1  0  0  0  0
  1  6  1  0  0  0  0
  1  7  2  0  0  0  0
  2 13  1  0  0  0  0
  2 17  1  0  0  0  0
  3 14  1  0  0  0  0
  4 15  1  0  0  0  0
  4 22  1  0  0  0  0
  5 19  1  0  0  0  0
  6 45  1  0  0  0  0
  8 17  2  0  0  0  0
  9 22  2  0  0  0  0
 10 24  1  0  0  0  0
 10 49  1  0  0  0  0
 11 24  2  0  0  0  0
 12 20  1  0  0  0  0
 12 43  1  0  0  0  0
 12 44  1  0  0  0  0
 13 14  1  0  0  0  0
 13 15  1  0  0  0  0
 13 26  1  0  0  0  0
 14 27  1  0  0  0  0
 14 28  1  0  0  0  0
 15 29  1  0  0  0  0
 15 30  1  0  0  0  0
 16 17  1  0  0  0  0
 16 18  1  0  0  0  0
 16 31  1  0  0  0  0
 16 32  1  0  0  0  0
 18 21  1  0  0  0  0
 18 33  1  0  0  0  0
 18 34  1  0  0  0  0
 19 20  1  0  0  0  0
 19 35  1  0  0  0  0
 19 36  1  0  0  0  0
 20 24  1  0  0  0  0
 20 37  1  0  0  0  0
 21 38  1  0  0  0  0
 21 39  1  0  0  0  0
 21 40  1  0  0  0  0
 22 23  1  0  0  0  0
 23 25  1  0  0  0  0
 23 41  1  0  0  0  0
 23 42  1  0  0  0  0
 25 46  1  0  0  0  0
 25 47  1  0  0  0  0
 25 48  1  0  0  0  0
M  END
> <DATABASE_ID>
DB00144

> <DATABASE_NAME>
drugbank

> <ORIGINAL_SOURCE>
PUBCHEM

> <ORIGINAL_SOURCE_URL>
https://pubchem.ncbi.nlm.nih.gov/rest/pug/compound/inchikey/UNJJBGNPUUVVFQ-ZJUUUORDSA-N/SDF?record_type=3d

> <SMILES>
CCCC(=O)O[C@H](COC(=O)CC)COP(O)(=O)OC[C@H](N)C(O)=O

> <INCHI_IDENTIFIER>
InChI=1S/C13H24NO10P/c1-3-5-12(16)24-9(6-21-11(15)4-2)7-22-25(19,20)23-8-10(14)13(17)18/h9-10H,3-8,14H2,1-2H3,(H,17,18)(H,19,20)/t9-,10+/m1/s1

> <INCHI_KEY>
UNJJBGNPUUVVFQ-ZJUUUORDSA-N

> <FORMULA>
C13H24NO10P

> <MOLECULAR_WEIGHT>
385.3041

> <EXACT_MASS>
385.113782505

> <JCHEM_ACCEPTOR_COUNT>
7

> <JCHEM_AVERAGE_POLARIZABILITY>
35.58252897815828

> <JCHEM_BIOAVAILABILITY>
1

> <JCHEM_DONOR_COUNT>
3

> <JCHEM_FORMAL_CHARGE>
0

> <JCHEM_GHOSE_FILTER>
0

> <JCHEM_IUPAC>
(2S)-2-amino-3-({[(2R)-2-(butanoyloxy)-3-(propanoyloxy)propoxy](hydroxy)phosphoryl}oxy)propanoic acid

> <ALOGPS_LOGP>
-1.02

> <JCHEM_LOGP>
-1.6207098594369584

> <ALOGPS_LOGS>
-2.02

> <JCHEM_MDDR_LIKE_RULE>
0

> <JCHEM_NUMBER_OF_RINGS>
0

> <JCHEM_PHYSIOLOGICAL_CHARGE>
-1

> <JCHEM_PKA>
2.17839601565745

> <JCHEM_PKA_STRONGEST_ACIDIC>
1.4680339991867495

> <JCHEM_PKA_STRONGEST_BASIC>
9.376604467850063

> <JCHEM_POLAR_SURFACE_AREA>
171.67999999999998

> <JCHEM_REFRACTIVITY>
81.8088

> <JCHEM_ROTATABLE_BOND_COUNT>
15

> <JCHEM_RULE_OF_FIVE>
1

> <ALOGPS_SOLUBILITY>
3.70e+00 g/l

> <JCHEM_TRADITIONAL_IUPAC>
phosphatidylserine

> <JCHEM_VEBER_RULE>
0

> <DRUGBANK_ID>
DB00144

> <SECONDARY_ACCESSION_NUMBERS>
NUTR00048

> <DRUG_GROUPS>
approved; investigational; nutraceutical

> <GENERIC_NAME>
Phosphatidyl serine

> <SYNONYMS>
Phosphatidyl-L-serine; Phosphatidylserine; PS; Ptd-L-Ser

> <PRODUCTS>
EnBrace HR; EnLyte; PramLyte

> <INTERNATIONAL_BRANDS>
LifeExtension PS Caps

$$$$
