338
  -OEChem-04221913463D

 16 16  0     0  0  0  0  0  0999 V2000
    0.2626   -2.1794   -0.1866 O   0  0  0  0  0  0  0  0  0  0  0  0
    2.2319    1.3945   -0.4792 O   0  0  0  0  0  0  0  0  0  0  0  0
    2.4659   -0.6561    0.4730 O   0  0  0  0  0  0  0  0  0  0  0  0
    0.2790    0.2094    0.0344 C   0  0  0  0  0  0  0  0  0  0  0  0
   -0.4094   -0.9983   -0.0809 C   0  0  0  0  0  0  0  0  0  0  0  0
   -0.4275    1.4075    0.1399 C   0  0  0  0  0  0  0  0  0  0  0  0
   -1.8043   -1.0077   -0.0907 C   0  0  0  0  0  0  0  0  0  0  0  0
   -1.8223    1.3979    0.1300 C   0  0  0  0  0  0  0  0  0  0  0  0
   -2.5108    0.1904    0.0146 C   0  0  0  0  0  0  0  0  0  0  0  0
    1.7349    0.2418    0.0455 C   0  0  0  0  0  0  0  0  0  0  0  0
    0.0796    2.3632    0.2437 H   0  0  0  0  0  0  0  0  0  0  0  0
   -2.3539   -1.9410   -0.1801 H   0  0  0  0  0  0  0  0  0  0  0  0
   -2.3728    2.3304    0.2150 H   0  0  0  0  0  0  0  0  0  0  0  0
   -3.5968    0.1831    0.0077 H   0  0  0  0  0  0  0  0  0  0  0  0
   -0.3805   -2.9057   -0.2573 H   0  0  0  0  0  0  0  0  0  0  0  0
    3.2128    1.4077   -0.4679 H   0  0  0  0  0  0  0  0  0  0  0  0
  1  5  1  0  0  0  0
  1 15  1  0  0  0  0
  2 10  1  0  0  0  0
  2 16  1  0  0  0  0
  3 10  2  0  0  0  0
  4  5  1  0  0  0  0
  4  6  2  0  0  0  0
  4 10  1  0  0  0  0
  5  7  2  0  0  0  0
  6  8  1  0  0  0  0
  6 11  1  0  0  0  0
  7  9  1  0  0  0  0
  7 12  1  0  0  0  0
  8  9  2  0  0  0  0
  8 13  1  0  0  0  0
  9 14  1  0  0  0  0
M  END
> <DATABASE_ID>
DB00936

> <DATABASE_NAME>
drugbank

> <ORIGINAL_SOURCE>
PUBCHEM

> <ORIGINAL_SOURCE_URL>
https://pubchem.ncbi.nlm.nih.gov/rest/pug/compound/inchikey/YGSDEFSMJLZEOE-UHFFFAOYSA-N/SDF?record_type=3d

> <SMILES>
OC(=O)C1=CC=CC=C1O

> <INCHI_IDENTIFIER>
InChI=1S/C7H6O3/c8-6-4-2-1-3-5(6)7(9)10/h1-4,8H,(H,9,10)

> <INCHI_KEY>
YGSDEFSMJLZEOE-UHFFFAOYSA-N

> <FORMULA>
C7H6O3

> <MOLECULAR_WEIGHT>
138.122

> <EXACT_MASS>
138.031694053

> <JCHEM_ACCEPTOR_COUNT>
3

> <JCHEM_ATOM_COUNT>
16

> <JCHEM_AVERAGE_POLARIZABILITY>
12.814587378025518

> <JCHEM_BIOAVAILABILITY>
1

> <JCHEM_DONOR_COUNT>
2

> <JCHEM_FORMAL_CHARGE>
0

> <JCHEM_GHOSE_FILTER>
0

> <JCHEM_IUPAC>
2-hydroxybenzoic acid

> <ALOGPS_LOGP>
1.96

> <JCHEM_LOGP>
1.977263402333333

> <ALOGPS_LOGS>
-1.09

> <JCHEM_MDDR_LIKE_RULE>
0

> <JCHEM_NUMBER_OF_RINGS>
1

> <JCHEM_PHYSIOLOGICAL_CHARGE>
-1

> <JCHEM_PKA>
13.228682517040584

> <JCHEM_PKA_STRONGEST_ACIDIC>
2.7897391795725692

> <JCHEM_PKA_STRONGEST_BASIC>
-6.285929432184691

> <JCHEM_POLAR_SURFACE_AREA>
57.53

> <JCHEM_REFRACTIVITY>
35.2951

> <JCHEM_ROTATABLE_BOND_COUNT>
1

> <JCHEM_RULE_OF_FIVE>
1

> <ALOGPS_SOLUBILITY>
1.13e+01 g/l

> <JCHEM_TRADITIONAL_IUPAC>
phenol O-(β-D-glucuronide)

> <JCHEM_VEBER_RULE>
0

> <DRUGBANK_ID>
DB00936

> <SECONDARY_ACCESSION_NUMBERS>
APRD01605; DB01398

> <DRUG_GROUPS>
approved; investigational; vet_approved

> <GENERIC_NAME>
Salicylic acid

> <SYNONYMS>
2-Carboxyphenol; 2-Hydroxybenzoic acid; ácido salicílico; Acidum salicylicum; O-carboxyphenol; O-hydroxybenzoic acid

> <PRODUCTS>
24 Hour Pimple Punisher; 28 Remedy Acne Pore Deep Cleanser; 28 Remedy Balancing Toner 10mL; 28.5% Salicylic Acid; 3 Part Acne Treatment Kit Ceela Naturaals; 3 in 1 Cleanser; AC Out Spot stOp Serum; ACNE SCRUB (salicylic acid) gel; AF Foam Sensitive Acne Pore Cleanser; AGE Bright Clearing Serum; AGE Bright Spot Fader; AL0076001 Alba Botanica Acnedote Deep Pore Wash; AL0076900 Alba Botanica AcnedoteClearing Peel; AL0078101 Alba Botanica Good and Clean Acne Wash; AL00933 Alba Botanica Fast Fix Papaya Anti Acne Sheet Mask; ALOE BHA SKIN TONER 50mL; ASD 3-in-1; Ac7; Acence Tea Tree Tock Blemish Spot; Acne; Acne Advanced Clarifying Hydrator; Acne Advanced Clarifying Masque; Acne Advanced Cleansing; Acne Advanced Treatment System; Acne Astringent Toner Pads; Acne Beauty Benefit Light; Acne Beauty Benefit Medium; Acne Body Wash; Acne Clarifying Cream; Acne Cleanser Awaken by Quality Choice; Acne Cleanser W/ Salicylic Acid; Acne Cleansing; Acne Cleansing Pads; Acne Cleansing Wipes; Acne Clearning Treatment Face; Acne Control Body Wash; Acne Control oil-free Cleansing; Acne Correcting Cleanser; Acne Cream; Acne Deep Pore Cleansing Wash; Acne Defense Foaming Cleanser Merle Norman; Acne Defense Spot Treatment Merle Norman; Acne Fighting; Acne Fighting Foundation; Acne Fighting Foundation Caramel; Acne Fighting Oil-Free Facial Wipes; Acne Fighting Roll On Gel; Acne Fighting Spot with Aloe clear; Acne Gel Wash; Acne Lab Foam Cleanser; Acne Medicated Gel; Acne Off Acne Treatment; Acne Off Acne Treatment Facial; Acne Pads; Acne Prone; Acne Relief Calming Treatment and Hydrator; Acne Relief Maximum Strength Spot Gel; Acne Relief Retinol Treatment and Moisturizer; Acne Scrub; Acne Serum; Acne Shave Cream; Acne Shave Moisturizer; Acne Solution; Acne Solutions Clarifying; Acne Solutions Cleansing Bar for Face and Body; Acne Solutions Cleansing Foam; Acne Solutions Clearing Concealer Acne Medication All Skin Types; Acne Solutions Liquid Makeup Salicylic Acid Acne Treatment; Acne Solutions Oil Control Cleansing Mask Acne Medication All Skin Types; Acne Solutions Spot Healing Acne Medication; Acne Spot Treatment; Acne Spot Treatment Walgreens; Acne Stick Gel; Acne Toner Acne Clearing System; Acne Toner Biolements; Acne Treatment; Acne Treatment Cleanser; Acne Treatment Clear Gel - Maximum Strength; Acne Treatment Daily Cleansing Bar; Acne Treatment Face Wash; Acne Treatment Pads; Acne Treatment Serum; Acne Treatment System; Acne Wash; Acne Wash Daily Cleanser; Acne Wash Oil-Free; Acne Wash Western Family; Acne Wipes; Acne and Blemish Target; Acne and Line Correcting Serum; Acne and Oil Control; Acne treatment daytime; Acne wash facial cleanser Tea tree oil; Acne wash facial cleanser pink grapefruit; Acne wipes; AcneFree 2-in-1 Acne Wipes; AcneFree Body Clearing; AcneFree Clear Skin Treatments Gentle Acne Scrub; AcneFree Daily Skin Therapy Acne Pads; AcneFree Daily Skin Therapy Acne Wash; AcneFree Dermatology Inspired Care Blackhead Removing Scrub Acne Treatment; AcneFree Dermatology Inspired Care Body Acne Clearing; AcneFree Dermatology Inspired Care Sensitive Skin 24 Hr Acne Clearing System; AcneFree Drying; AcneFree Energizing 3-in-1 Acne Wipes; AcneFree Sensitive 24 HOUR Acne Clearing System; AcneWorx; Acneclir; Acneen; Acnevir Facial Wash; Acnex Liq 2%; Acnezzol Base; Acni Spot; Acnomel Acnee Mask; Acnopur Lotion Exfoliante Clarifiante; Acnopur Soin Hydratant Regulateur; Acnopur Traitement Urgence Acne; Acpuris Intensive Spot Treatment; Actikerall; Actiogen Acne Dots Treatment; Activ O2 Acne Treatment; Activ O2 Acne Treatment Cleansing Bar; Active Clear Facial Wash; Adasept Acne Gel; Add More Hair; Advance Acne Care; Advanced Acne Regimen 0.5% Salicylic Acid Acne Treatment; Advanced Acne Regimen with Honestly Pure Retinol 0.5% Salicylic Acid Acne Treatment; Advanced Acne Spot Treatment; Advanced Acne Spot Treatment CVS; Advanced Acne Therapy; Aetna Callus Remover; Age Defying Blemish Treatment; Ala-Septic; Alba Acnedote Clean Treat Cleansing Towelette; Alba Acnedote Clean Treat Towelette; Alba Acnedote Invisible Treatment; Alba Botanica Acnedote Oil Control; Alba Botanica Natural ACNEdote Maximum Strength; Alba Botanica Natural ACNEdote Maximum Strength Deep Clean Astringent; Alba Botanica Natural ACNEdote Maximum Strength Face and Body Scrub; Alba Good and Clean Gentle Acne Wash; Alba Natural Acnedote; Alba Natural Acnedote Astringent; Alba Natural Acnedote Face Body Scrub; Aliclen; Almay (hypo-allergen.)oil Stop.anti-acne Gel; Almay Clear Complexion 4 in 1 Pressed Powder; Almay Clear Complexion Blemish Armor; Almay Clear Complexion Blemish Clearing Compact; Almay Clear Complexion Blemish Healing Spot Concealer; Almay Clear Complexion Liquid Makeup; Almay Clear Complexion Liquid Makeup for Oily Skin; Almay Clear Complexion Pressed Powder; Almay Stay Clean Medicated Pore Strips; Almay(hypo-allergenic)clean-out Cleans.pads; Almay(hypo-allergenic)extra Clear Skin Astr.; Aloe Bha Skin Toner; Aloe Clear Cleanser; Alsora Psoriasis; Alsora Psoriasis Cream; Alumier MD Acne Balancing Serum; Alumier MD Acne Clarifying Cleanser; Alumier MD HydraSmooth Non-Comedogenic Moisturizer; Always Pure Spot for Night; Ambi Even and Clear Exfoliating Wash; Ambi Even and Clear Foaming Cleanser; Ambi Skincare Even and Clear Exfoliating Wash Treatment; Andalou Naturals Blemish Vanishing; Angryhead; Angryhead Premium; Angryhead Premium Hair Tonic; Angryhead Premium Tonic; Anti Acne Calming Corrector; Anti Acne Clarifying Face Wash; Anti Acne Control Formula - Lot Top 1%; Anti Acne Exfoliating Cleansing Pads; Anti Acne Spot Treatment 1%; Anti Dandruff; Anti-Blemish; Anti-Blemish Cleanser; Anti-Blemish Foundation Primer Acne Treatment Gel Merle Norman; Anti-Clog Concentrate Bioelements, Inc.; Anti-Dandruff; Anti-acne; Anti-acne Formula for Men; Anti-acne Formula-light; Anti-acne Formula-medium; Anti-blemish Concealer; Anti-blemish Matte Primer; Antiac Acne Clearing; Antibacterial Medicated Toner -2% Salicylic Acid; Antidouleurs Rezall; ApotheCare; April Bath and Shower Foaming Acne Scrub Lucious Grapefruit Scented; Aqua Plus Acne Treatment System; Arbonne Clear Advantage Toner; Aroma A1 Skin; Artistry Essentials Anti-Blemish Acne Treatment; As I Am Dry and Itchy Scalp Care Treatment; Asepxia; Asepxia Acne Medication wipes; Asepxia Acne Wipes; Asepxia BB Liquid Acne Treatment; Asepxia Charcoal Acne Bar; Asepxia Exfoliating Acne Scrub; Asepxia Facial cleansing; Asepxia Liquid Acne Cleanser; Asepxia Medicated Acne Body Wash Scrub Acne Medication; Asepxia Neutral Acne Bar; Asepxia Oil-Free Acne Bar; Asepxia Scrub Acne Bar; Asepxia Softening Acne Bar; Assured Acne Cream; Astringent; Atomy Hair Treatment; Atomy Herbal Hair Tonic; Atopalm Acne Controlling; Avalon Organics Antidandruff; Avalon Organics Antidandruff Conditioner; Avarelle Acne Treatment Patch; Avarelle acne treatment spot solution; Aveeno ACTIVE NATURALS clear complexion daily moisturizer; Aveeno Acne Treatment Bar; Aveeno Active Naturals; Aveeno Active Naturals Clear Complexion Foaming Cleanser; Aveeno Active naturals Clear Complexion Cleanser; Aveeno Active naturals Clear Complexion Daily Cleansing pads; Aveeno CLEAR COMPLEXION foaming cleanser; Aveeno Cleansing Bar for Acne-prone Skin .5%; Aveeno Cleansing Bar-for Acne-prone Skin; Aveeno Clear Complexion Cleanser; Aveeno Clear Complexion Cleansing Bar; Aveeno Clear Complexion Daily Cleansing; Aveeno Clear Complexion Daily Cleansing Pads; Aveeno Clear Complexion Foaming Cleanser; Aveeno clear complexion daily moisturizer; Aveeno favorites from clear complexion; Avon Anew Perfecting Lotion for Problem Skin; Avon Clear Finish Great Complexion Concealer; Avon Clear Finish Great Complexion Foundation; Avon Clear Finish Oil-free Foundation; Avon Clearskin 2 Medicated Gel Wash; Avon Clearskin 2 Overnight Acne Treatment; Avon Clearskin 2 Triple Action Astringent Cleansing Lotion; Avon Clearskin Acne Defense Stick; Avon Clearskin Astringent Cleansing Lotion Extra Strength; Avon Clearskin Invisible Blemish Corrector; Avon Clearskin Overnight Acne Treatment; Avon Clearskin Overnight Blemish Treatment; Avon Clearskin Purifying Astringent; Avon Clearskin Purifying Gel Cleanser; Avon Clearskin Targeted Blemish Remover; Awaken Oil-Free Daily Face Wash; Awaken by Quality Choice Ultra Clean Daily Face Wash; Azo Urinary Tract Defense Antibacterial Protection; BOTANIC HEAL boH Acne Sensitive Fo am Cleanser; BRODA Acne; BRODA Acne Spa; Band-aid Brand Medicated Corn Remover; Bansbao Skin Brightening and Spots-removing; Belei Oilfree Facial Cleansing Wipes; Benefit BOO BOO ZAP Medicated Acne Treatment; Bensal HP; Benzac; Benzac - Complete Acne Solution Regimen; Best Choice Oil-Free Acne Wash Foaming Scrub; Beta Complex Acne Treatment; Better Braids Medicated; Better Braids Medicated Leave in Conditioner Medicated; Better Braids Medicated Medicated; Better Braids Medicated Un-Braid Medicated; Beyond Belief Acne Spot Treatment; Beyond Belief Acne Treatment System Purifying Cleanser; Beyond Belief Acne Treatment System Repair; BeyondClear; Bioarpil; Biocure Gel Exfoliant Antipelliculaire; Biocure: Shampooing Antipelliculaire; Bioelements Active Astringent; Bioelements Amino Mask; Bioelements Spotless Cleanser; Biore Acne Clearing Scrub; Biore Anti Blemish Flash Treatment; Biore Baking Soda Acne Cleansing Foam; Biore Baking Soda Acne Scrub; Biore Blemish Fighting Ice Cleanser; Biore Blemish Treating Astringent; Biore Blemish Undercover Agent; Biore Blue Agave Baking Soda Acne Cleansing Foam; Biore Blue Agave Baking Soda Acne Scrub; Biore Charcoal Acne Clearing Cleanser; Biore Charcoal Acne Scrub; Biore Mens Charcoal Acne Scrub; Biore Pore Unclogging Scrub; Biore Warming Anti-Blackhead Cleanser; Biore Witch Hazel Pore Clarifying Cleanser; Biore Witch Hazel Pore Clarifying Toner; Bioré Blemish Fighting Cleanser; Black Bean Anti Hair Loss; Black Bean Anti Hair Loss Treatment; Blackhead Cleaning Scrub; Blackhead Clearing Scrub; Blackhead Clearing Scrug; Blackhead Solutions 7 Day Deep Pore Cleanse and Scrub Acne Medication; Blackhead Solutions Self-heating Blackhead Extractor Acne Medication; Blackhead clearing scrub; Bleackhead removing Medicated scrub Daylogic; BlemFree; Blemish Bully Acne Spot Treatment; Blemish Care Mask With Bija Seed; Blemish Care Pads With Bija Seed Oil; Blemish Care Spot Serum With Bija Seed Oil; Blemish Care Toner With Bija Seed; Blemish Care With Bija Seed; Blemish Care With Bija Seed Oil; Blemish Clearing Facial Wipes; Blemish Control Blotting Paper; Blemish Control Face Primer; Blemish Correcting Serum Sensitive; Blemish Treatment; Blemish Vanishing; Blistex Stridex Spot and T-Zone Acne ClearGel; Blue Herbal Spot Treatment Salicylic Acid Acne Treatment; Body Wash; Botaneth Pronoxin Hair Regainer; Botanic Skincare Acne Defense Treatment; Breakout Clearing All Over Toner; Breakout Clearing Cooling Masque; Breakout Clearing Foaming Wash; Breakout Clearing Overnight Treatment; British Army Foot Pwr; By Wishtrend Acid-duo 1.5% Mild Cleanser; Bye Bye Blemish Anti-acne Gel; C and C by Clean and Clear black out blackhead clearing coffee scrub; C and C by Clean and Clear spot on spot treatment; C and C by Clean and Clear tough love acne clearing peppermint toner; CBDMEDIC Acne Treatment; CEBATROL Oil Control Pads; CLEAR CELL Medicated Acne; CLEAR UP Anti-shine Moisturizer SPS 15; CLEAR UP Cleansing; CLEAR UP Control Solution Anti-Blemiches; CLEAR UP Prep; CLn Acne Cleanser; COVER FX MATTIFYING PRIMER with ANTI-ACNE TREATMENT; CP Dr. Babor Purity Cellular Stop Blemish Fluid; CP Dr. Babor Purity Cellular Ultimate Blemish Reducing Cream; CVS Acne Spot Treatment; CVS Advance Acne Therapy Kit; CVS Antibacterial Plus Urinary Pain Relief; CVS Clarifying Acne Body Wash-Pink Grapefruit Acne Treatment; CVS Clarifying Body Wash; CVS Clarifying Body Wash Acne Treatment; CVS Daily Acne Clearing Scrub; CVS Daily Pore Clearing Pads; CVS Deep Cleansing Astringent; CVS Fast Clearing Medicated Pads; CVS Health; CVS Health Acne Fighting Moisturizer; CVS Health Blackhead Clearing Scrub Acne Medication; CVS Oil Free Acne Cleanser Acne Treatment; CVS Oil Free Acne Facial Cleanser-Pink Grapefruit Acne Treatment; CVS Oil Free Acne Foaming Scrub-Pink Grapefruit Acne Medication; CVS Oil-free Acne Cleansing Towelettes; CVS Pore Unclogging Scrub; CVS Psoriasis Medicated; CVS Scalp Relief; CVS Triple Action Astringent; Callicide Corn and Callus Remover; Callus Removal Foot Pack; Canthacur-PS; Cantharidin 1% / Podophyllum Resin 5% / Salicylic Acid 30%; Cantharone Plus; Carahen hair-loss recovery; Carahen scalp revitalizing serum mist; Carione Rg Toner; Carnation Callous Caps; Celazome O-Plex Control; Cellapy Haircell; Cellapy Haircell Meso Tonic; CeraVe Developed with Dermatologists Psoriasis Cleanser; CeraVe Developed with Dermatologists Psoriasis Moisturizing; Charcoal Acne Scrub Help clear acne blemishes; Charcoal Blackhead Clearing Scrub; Choline Magnesium Trisalicylate; Ciclopirox 0.77% / Salicylic Acid 2%; Ciclopirox Olamine 0.77% / Clobetasol Propionate 0.05% / Salicylic Acid 3%.; Ciclopirox Olamine 1% / Salicylic Acid 2%; Cimetidine 10% / Lidocaine 5% / Salicylic Acid 40%; Cimetidine 5% / Ibuprofen 2% / Salicylic Acid 17%; Clarify Botanical Clarifying Wash; Clarifying Cleanser; Clarifying Pressed Powder; Clarifying Toner; Clarifying Treatment; Clarisonic Acne Daily Clarifying Cleanser; Clarisonic Pore and Blemish Cleanser Acne Treatment; Clarity Clear Skin Essentials Acne Spot Treatment; Clarity Clear Skin Essentials Acne treatment; Clarity Clear Skin Essentials Deep-Cleaning Astringent; Clarity Clear Skin Essentials Foaming Cleanser; Classic Care Apricot Scrub Blemish Control; Clean & Clear Advantage Daily Acne Clearing Lotion; Clean & Clear Deep Cleaning Astringent Skin Toning; Clean Acne; Clean Follicle Tonic; Clean Getaway Bag; Clean and Clear Advantage 2-in-1 Acne and Mark Eraser Kit; Clean and Clear Advantage 3 in 1 Foaming Acne Wash; Clean and Clear Advantage Acne Cleanser; Clean and Clear Advantage Acne Control; Clean and Clear Advantage Acne Control 3 in 1 Foaming Wash; Clean and Clear Advantage Acne Control Moisturizer; Clean and Clear Advantage Acne Spot Treatment; Clean and Clear Advantage Daily Soothing Acne Scrub; Clean and Clear Advantage Daily Soothing Acne Wash; Clean and Clear Advantage Mark Treatment; Clean and Clear Advantage Oil Absorbing Cleanser; Clean and Clear Advantage Oil Absorbing Treatment; Clean and Clear Advantage Popped Pimple Relief; Clean and Clear Advantage Popped Pimple Relief Pen; Clean and Clear Blackhead Eraser Scrubby Gel; Clean and Clear Concealing Treatment; Clean and Clear Daily Skincare Essentials; Clean and Clear Deep Cleaning; Clean and Clear Dual Action Moisturizer; Clean and Clear Essentials Deep Cleaning Astringent; Clean and Clear Essentials Deep Cleaning Toner Sensitive Skin; Clean and Clear Essentials Deep Cleansing Toner Sensitive Skin; Clean and Clear Essentials Dual Action Moisturizer; Clean and Clear Sensitive Skin; Clean and Clear acne triple clear Cleansing Clay Mask; Clean and Clear acne triple clear bubble foam cleanser; Clean and Clear acne triple clear cleanser; Clean and Clear acne triple clear exfoliating scrub; Clean and Clear advantage acne control 3-in-1 foaming wash; Clean and Clear blackhead eraser cleansing mask; Clean and Clear blackhead eraser scrub; Cleansing Foaming Gel Acne Pro Skin; Cleansing Wipes; Clear Acne Body Paulas Choice; Clear Acne Face Cleanser; Clear Acne Face Moisturizer; Clear Acne Kit; Clear Acne Spot Treatment; Clear Advantage Clarifying; Clear Advantage Clarifying Wash; Clear Blemish Treatment Jafra; Clear Cell Cleanser; Clear Cell Medicated Acne Masque; Clear Cell Salicylic Clarifying Pads; Clear Cell Salicylic Clarifying Tonic; Clear Complexion Cleanser Merle Norman; Clear Complexion Moisturizer Merle Norman; Clear Complexion Spot Treatment Merle Norman; Clear Complexion Toner Merle Norman; Clear Days Ahead 30-day Acne Trial Kit; Clear Days Ahead Fast-acting Salicylic Acid Acne Spot Treatment; Clear Days Ahead Oil-free Salicylic Acid Acne Treatment Cleanser; Clear Days Ahead Oil-free Salicylic Acid Acne Treatment and Moisturizer; Clear Days Ahead Overnight Repair Salicylic Acid Acne Treatment Pads; Clear Difference Advanced Blemish Serum; Clear Difference Targeted Blemish Treatment; Clear Exfoliating Solution Paulas Choice; Clear Future Corrective Treatment; Clear Future Deep Pore Cleanser; Clear Future Intensive Spot Treatment; Clear Future Mattifying Treatment; Clear Gel Corn Remover; Clear Improvement Pore Clearing Moisturizer; Clear Logix Acne Night Treatment Serum; Clear Logix Acne Spot Treatment; Clear Logix Deep Cleansing Acne Treatment Pads; Clear Logix Gentle Foaming Facial Cleanser; Clear Logix Oil Fighting Daily Wash; Clear Logix Oily Skin Astringent; Clear Logix Sensitive Skin Astringent; Clear Logix Tinted Acne Spot Treatment; Clear Pore Clarifier Matte Dynamics; Clear Pore Serum; Clear Pore Treatment - Gel; Clear Proof Acne System; Clear Proof Acne System The Go Set; Clear Proof Blemish Control Toner Acne Medication; Clear Proof Clarifying Cleansing Gel Acne Medication; Clear Proof Pore Purifying Serum Acne Medication; Clear Salve 150; Clear Salve-50; Clear Skin; Clear Skin Acne Treatment; Clear Skin Acne Treatment Cleanser; Clear Skin Days Brightening Peel Pads; Clear Skin Days Clarifying Cleanser and Mask; Clear Skin Days Clarifying Serum; Clear Skin Days Spot Eraser Stick; Clear it up Acne care kit with bija seed oil; Clear-N-Smooth; Clear-N-Smooth Acne-Pimple Medication; Clear-N-Smooth Anti-Blemish; Clear.now Nourish Acne Treatment; Clear.now Scrub Acne Treatment Wash; ClearPrep FX; Clearall Clearing Serum; Clearasil Acne Fighting Facial Moisturizer; Clearasil Active Deep Cleansing Face and Body Wash; Clearasil Active Lightweight Face and Body; Clearasil Blackhead Clearing Pads; Clearasil Cleanser - Liq 2%; Clearasil Clearstick; Clearasil Complete; Clearasil Daily Clear Clear Skin; Clearasil Daily Clear Daily Facial Scrub; Clearasil Daily Clear Daily Pore Cleansing Pads; Clearasil Daily Clear Hydra-Blast Oil-Free; Clearasil Daily Clear Hydra-Blast Oil-Free Face Scrub; Clearasil Daily Clear Hydra-Blast Oil-Free Face Wash; Clearasil Daily Clear Hydra-Blast Oil-Free Face Wash Sensitive; Clearasil Daily Clear Hydra-Blast Oil-Free Pads; Clearasil Daily Clear Hydra-Blast Pads; Clearasil Daily Clear Oil-Free Daily Face Wash; Clearasil Daily Clear Oil-Free Daily Face Wash Sensitive; Clearasil Daily Clear Oil-Free Daily Face Wash Sensitive Formula; Clearasil Daily Clear Oil-Free Daily Wash; Clearasil Daily Clear Refreshing Superfruit Pads; Clearasil Daily Clear Refreshing Superfruit Scrub; Clearasil Daily Clear Refreshing Superfruit Toner; Clearasil Daily Clear Refreshing Superfruit Wash; Clearasil Daily Clear Skin Perfect Wash; Clearasil Gentle Prevention Daily Clean Pads; Clearasil Gentle Prevention Daily Clean Wash; Clearasil Medicated Body Wash; Clearasil Overnight Defense Gel; Clearasil Pads - Liq 2%; Clearasil PerfectaWash Ultra Rapid Action Face Wash Dispenser and Refills; Clearasil PerfectaWash Ultra Rapid Action Face Wash Refill - Soothing Plant Extracts; Clearasil PerfectaWash Ultra Rapid Action Face Wash Refill - Superfruit Splash; Clearasil Rapid Rescue Body Treatment; Clearasil Rapid Rescue Deep Treatment Pads; Clearasil Rapid Rescue Deep Treatment Scrub; Clearasil Rapid Rescue Deep Treatment Wash; Clearasil Rapid Rescue Spot Treatment; Clearasil Sensitive Clearstick-frag. Free; Clearasil Stayclear Acne Defense Cleanser; Clearasil Stayclear Deep Clean Astringent; Clearasil Stayclear Zone Control Clearstick; Clearasil Stubborn Acne Control 5in1 Daily Pads; Clearasil Stubborn Acne Control 5in1 Exfoliating Wash; Clearasil Stubborn Acne Control 5in1 One Minute Mask; Clearasil Stubborn Acne Control 5in1 Weekly Scrub; Clearasil Stubborn Acne Plus Marks One Minute Mask; Clearasil Total Control Daily Skin Perfecting Treatment; Clearasil Total Control Deep Pore Cream Cleanser; Clearasil Ultra 5 in 1; Clearasil Ultra 5 in 1 Exfoliating Wash; Clearasil Ultra 5 in 1 Pads; Clearasil Ultra 5-In-1 Exfoliating Wash; Clearasil Ultra Acne Clearing Gel Wash; Clearasil Ultra Acne Clearing Scrub; Clearasil Ultra Acne Plus Marks Daily Scrub; Clearasil Ultra Acne Plus Marks Pads; Clearasil Ultra Acne Plus Marks Spot; Clearasil Ultra Acne System; Clearasil Ultra Acne plus Marks Treatment; Clearasil Ultra Acne plus Marks Wash and Mask; Clearasil Ultra Blackhead Scrub; Clearasil Ultra Daily Face Wash; Clearasil Ultra Fast Fix Acne; Clearasil Ultra On-The-Go Rapid Action Wipes; Clearasil Ultra Overnight Face; Clearasil Ultra Overnight Scrub; Clearasil Ultra Overnight Wash; Clearasil Ultra Rapid Action Acne System; Clearasil Ultra Rapid Action Clear Skin; Clearasil Ultra Rapid Action Daily Face Wash; Clearasil Ultra Rapid Action Daily Wash; Clearasil Ultra Rapid Action Face Scrub; Clearasil Ultra Rapid Action Face Wash; Clearasil Ultra Rapid Action Pads; Clearasil Ultra Rapid Action Scrub; Clearasil Ultra Rapid Action Seal-to-Clear; Clearasil Ultra Rapid Action Treatment; Clearcalm Non-Drying Acne Treatment; Cleardin Acne Spot Gel; Cleardin Anti Imperfection cream; Clearing Cleanser 0.5% Salicylic Acid Acne Treatment; Clearing Mattifier; Clearing Night Serum with Honestly Pure Retinol 0.5% Salicylic Acid Acne Treatment; Clearing Skin Wash; Clearing Tonic; Clearisdin; Clearisdin Anti-Imperfection; Clearly It; Clearskin Blackhead Eliminating Cleanser; Clearskin Blackhead Eliminating Daily Astringent; Clearskin Blackhead Eliminating Deep Treatment Mask; Clearskin Blemish Clearing 2-IN-1 Treatment and Hydrator; Clearskin Blemish Clearing Acne Body Wash; Clearskin Blemish Clearing Acne Pads; Clearskin Blemish Clearing Foaming Cleanser; Clearskin Blemish Clearing Overnight Treatment; Clearskin Blemish Clearing Spot Treatment; Clearskin Clear Emergency Instant Spot Treatment; Clearskin Clear Emergency Intensive Cream Cleanser; Clearskin Clear Emergency Intensive Treatment; Clearskin Medicated Gel Wash; Clearskin Pore Penetrating Black Mineral Mask; Clearskin Pore Penetrating Cooling Toner; Clearskin Professional Acne Mark Treatment; Clearskin Professional Clear Pore Thermal Mask; Clearskin Professional Daily Correcting; Clearskin Professional Deep Pore Cleansing Scrub; Clearskin Professional Invisible Blemish Treatment; Clearsynergy; Clenziderm Daily Care Foaming Cleanser Acne Treatment; Clenziderm M.D. System Acne Therapeutic System; Clenziderm Normal To Oily Skin Acne Therapeutic System; Clenziderm Pore Therapy Acne Treatment; Clerian; Clerian Anti-Hairloss; Clerian H; Clinical Emergency Zit Stick Acne Treatment; Clinique Acne Solutions Body Treatment Spray; Clinique Acne Solutions Cleansing Foam; Clinique Acne Solutions Concealing Cream; Clinique Acne Solutions Concealing Stick; Clinique Acne Solutions Night Treatment Gel; Clinique Acne Solutions Quick Clearing Pads; Clinique Acne Solutions Spot Treatment Gel; Clinique Clarifying Makeup; Clobetasol Propionate 0.05% / Coal Tar 8% / Salicylic Acid 6%; Cluederm Aqua Solution Sebo Plus; Complexion Clear Acne Treatment; Compound W; Compound W Gel 17%; Compound W Liquid - First Aid; Compound W Liquid 20%; Compound W Maximum Strength One Step Invisible; Compound W One Step Pads; Compound W One Step Plantar Foot Pads; Compound W Plus Liq 30%; Compound W for Kids One Step Strips; Concealer Pencil and Brush; Continuously Clear Moisturizer; Controlling balm with tea tree oil; Coral KAVI; Corn Removers; Corn Salve Ont 15%; CornStick; Cornex; Cover FX Mattifying Prime and Set; Cover FX Mattifying Primer Plus Acne Treatment; Cover FX Mattifying Primer with Anti-Acne Treatment; Cover Fx BB Gel Mattfying Anti-Blemish G Med-Deep; Cover Fx BB Gel Mattfying Anti-Blemish N Deep; Cover Fx BB Gel Mattfying Anti-Blemish N Medium; Cover Fx BB Gel Mattfying Anti-Blemish N X-Deep; Cover Fx BB Gel Mattfying Anti-Blemish P Med-Deep; Cover Fx BB Gel Mattifying Anti-Blemish G Deep; Cover Fx BB Gel Mattifying Anti-Blemish G Light-Med; Cover Fx BB Gel Mattifying Anti-Blemish N Light; Cover Fx BB Gel Mattifying Anti-Blemish N Med-Deep; Cover Fx BB Gel Mattifying Anti-Blemish P Light-Med; Cover Fx Blemish Treatment Concealer G Light; Cover Fx Blemish Treatment Concealer G Medium; Cover Fx Blemish Treatment Concealer N Deep; Cover Fx Blemish Treatment Concealer N Light; Cover Fx Blemish Treatment Concealer N Med-Deep; Cover Fx Blemish Treatment Concealer N Medium; Cover Fx Blemish Treatment Concealer N X-Deep; Cover Fx Blemish Treatment Concealer N X-Light; Cover Fx Blemish Treatment Concealer P Light; Cover Fx Blemish Treatment Concealer P Medium; Cover Fx Blemish Treatment Primer; Cover Girl Clar. Liq Make Up -crmy Nat. .5%; Cover Girl Clar. Liq Make-UP-creme Beige .5%; Cover Girl Clar. Liq Make-UP-nat. Ivory .5%; Cover Girl Clar. Liq Make-UP-true Beige .5%; Cover Girl Clar. Liq. Make Up-nat. Beige .5%; Cover Girl Clarif Blemish Conc Fair 0.5%; Cover Girl Clarif Blemish Conc Light 0.5%; Cover Girl Clarif Blemish Conc Med 0.5%; Cover Girl Clarifying Liq Make-UP-beige .5%; Cover Girl Clarifying Liq Makeup; Cover and Conceal Blemish Concealer; Cuplex Gel; Cure-Aid Corn Plasters; Cvs Pharmacy Clear Skin Daily Moisturizer; Cvs Psoriasis Medicated; Cystex Plus; DDF Acne Control Treatment; DDF Blemish Cleanser; DDF Glycolic Exfoliating; DDF Salicylic Wash Acne Treatment; DG Deep Cleaning Astringent Sensitive Skin; DHC Salicylic Acne Toner; DHC Salicylic Acne Wash; DHC Salicylic Face Milk; DHS SAL 4 oz.; DOCTOR LEAD M 500mL; Daily Acne CVS; Daily Care Foaming Cleanser Acne Treatment; Daily Cleanser Salicylic Acid Acne Treatment; Daily Cleansing; Daily Face Wash CVS; Daily Moisturizer; Daily Ritual; Damoae Therapy Tonic; Dandruff Relief daylogic; DayTime Moisturizer; Daylogic Oil-free Cleansing wipe for acne-prone skin pink grapefruit; Deep Cleaning Astringent; Deep Cleaning Mask; Deep Cleansing Mask; Deep Pore Acne Scrub; Defense Acne Care 2% Salicylic Acid; Denorex Extra Strength; Derma Controle: Gel Nettoyant Moussant; Derma Controle: Gel Normalisant; Derma Controle: Lotion Purifiante; DermaClear Pads; DermaClear Serum; DermaER Psoriasis Therapeutic; Dermablend Professional SkinPerfector Blemish and Oil Clearing Primer; Dermaclear Mask; Dermaharmony Sulfur and Salicylic Acid; Dermal Quench Clear Anti-acne Treatment; Dermalogica Oil Control; Dermarest Psoriasis Medicated; Dermarest Psoriasis Medicated Lotion With Moisturizers; Dermarest Psoriasis Medicated Moisturizer; Dermarest Psoriasis Medicated Scalp Treatment; Dermarest Psoriasis Medicated Skin Treatment; Dermazor Psoriasis and Seborrheic Dermatitis; Dermoneen; Dermoscribe Psoriasis; Dermoscribe Seborrheic Dermatitis; Dg Body Tonic; Dhs Sal; Dial Acne Acne; Dial Acne Control Deep Cleansing Body Wash; Dial Acne Control Deep Cleansing Face Wash; Diprosalic; Doctor Lead M; Dodd's Tablets Regular Strength 325 mg; Dodd's Tablets Regular Strength 325mg; Dodds Extra Strength Tab 500mg; Dodds Pills; Dollar General Acne Spot Medication; Doo Gro Anti-Dandruff Vitalizer; Dr Deep Acpa Cleansing Foam; Dr Young AC CONTROL AC Out Spot stop Serum; Dr Young AC CONTROL U line Clearing Mist; Dr. Babor Purity Cellular Ultimate Blemish Reducing Cream; Dr. Babor Purity Cellular Ultimate Blemish Reducing Duo; Dr. Iaso Ac Booster; Dr. Karrs Acne-statin; Dr. Scholl's 2-drop Corn Remedy; Dr. Scholl's Clear Away Gel With Aloe; Dr. Scholl's Clear Away One Step Plantar Wart Remover; Dr. Scholl's Corn/callus Removers; Dr. Scholl's Cushlin Ultra Slim Callus Removers; Dr. Scholl's Cushlin Ultra Slim Corn Removers; Dr. Scholl's Soft Corn Removers; Dr. Scholl's Waterproof Corn Removers; Dr. Scholls Callus Removers; Dr. Scholls Clear Away Wart Remover; Dr. Scholls Clear Away Wart Remover One Step; Dr. Scholls Clear Away Wart Remover Plantar; Dr. Scholls Clear Away Wart Remover Ultra Thin Discs; Dr. Scholls Clear Away Wrt Removers with Duragel Technology; Dr. Scholls Corn Removers; Dr. Scholls Corn/Callus Remover; Dr. Scholls Duragel Callus Removers; Dr. Scholls Duragel Corn Removers; Dr. Scholls Extra Thick Callus Removers; Dr. Scholls One Step Callus Removers; Dr. Scholls One Step Corn Removers; Dr. Scholls Ultra Thick Corn Removers; Dr. Scholls Ultra Thin Corn Removers; Dr. Scholls Work Corn Removers; Dr. Sheffield Psoriasis Medicated Moisturizer; Dr. eslee Intensive Care; Dr.FORHAIR FOLLIGEN; Dr.G A Clear Aroma Spot Toner; Dr.G A Clear Foam Cream; Dr.Jart Dermask Micro Jet Clearing Solution; Dr.eslee Skin Mild; Dr.scholl's Fixo Corn Removers; Dr.zium All Clear Spot; DuSel Psoriasis Dead Sea Salt Therapy; Dual Action Moisturizer; DuoFilm Wart Remover; Duofilm Gel for Kids; Durasal; EAU THERMALE AVENE Akerat S Psoriasis Skin; EH Hair Plus Regeneration Hair Care; ELF ACNE Fighting Foundation; ELF ACNE Fighting Foundation Beige; ELF ACNE Fighting Foundation Buff; ELF ACNE Fighting Foundation Caramel; ELF ACNE Fighting Foundation Chestnut; ELF ACNE Fighting Foundation Coffee; ELF ACNE Fighting Foundation Ivory; ELF ACNE Fighting Foundation Porcelain; ELF ACNE Fighting Foundation Sand; ELF ACNE Fighting Spot Gel with Aloe Clear; ELF Beige ACNE Fighting Foundation; ELF Blemish Control Face Primer Clear; ELF Buff ACNE Fighting Foundation; ELF Caramel ACNE Fighting Foundation; ELF Clarifying Pressed; ELF Clear Blemish Control Face Primer; ELF Conceler Pencil and Brush; ELF Ivory ACNE Fighting Foundation; ELF Porcelain ACNE Fighting Foundation; ELF Sand ACNE Fighting Foundation; ELF Zit Eraser; ELF Zit Zapper; ELF Zit Zapping Conceler; ENREGIN Anti-Blemish Cleanser; Easter Scalp Tonic; Easydew Daily 2 Step Derma Peel Mask; Ecosom; Ecosom Tonic; Effaclar K; Element 47 Face and Body Acne Treatment; Emergency Zit Treatment Acne; Epielle Exfoliating Scrub Exfoliating Scrub; Epionce Purifying Wash; Epoch; Eptex 2%; Equaline; Equate Acne Treatment Body Pads; Equate Anti Dandruff; Equate Cleansing Pads; Equate Corn and Callus Remover; Equate One Step Corn Remover Pad; Eradikate Salicylic Acid Acne Treatment; Erase It Kit; Essential By Artistry Anti Acne Treatment; Essential by Artistry Anti Acne Pore Refresher; Evening Moisturizer; Evenly Plus Psoriasis care; Every Man Jack Charcoal Face Scrub; Every Man Jack Face Wash; Exfo Tonic Acne Treatment; Exfoliating Cleanser; Exfolikate Acne; Exorex Acne Formula; Extra Pain Relief Acetaminophen, Aspirin (NSAID) and Caffeine; Extra Thick Callus Removers; Exuviance Clear and Smooth Daily Exfoliating Anti- Blemish Pads; Exuviance Daily Acne Peel; Exuviance Daily Acne Peel Exfoliating Anti-Blemish Pads; FANOFI Microneedle Acne Soothing Patch; Facial Cleanser; Family Care Ultra Acne Treatment; Family Dollar Oil Free Acne Wash; Family Wellness Liquid Wart Remover; Finafta; Flawless Face; Foaming Cleanser; Foaming Cleanser Jafra; Foaming acne scrub For a cleaner, Clearer Complexion; Formule L2; Fostex Medicated Cleansing Bar; Fostex Medicated Cleansing Cream; Four Season Essence; Freezone; Freezone Liq; Full Hair Solution; Fusion Beauty ColorCeuticals Acne Control Primer; G.M. Collin Acne; G.M. Collin Complex Acne; G.M. Collin Oxygenating Treatment; G.M. Collin Puracne Treating; G9 Skin Ac Solutioncleanser; G9 Skin Ac Solutioncream; G9 Skin Ac Solutionserum; G9 Skin Ac Solutiontoner; GMC MEDICAL Acne; GMC Medical Acne Treating; GMC Medical Acne Treatment; GMC Medical Acne-Clear; Garnier Clean Blackhead Eliminating Scrub; Garnier Fructis Antidandruff Clear Control; Glossier solution exfoliating skin perfector; Glovers Anti-Dandruff; Glovers Medicated Anti-Dandruff Scalp; Gly-Sal 10-2 Pads; Gly-Sal 5-2 Pads; GlySal Clear Acne Treatment Serum; Glycare Acne; Glytone Acne; Glytone Acne Back; Glytone Acne Clearing Cleanser; Glytone Acne Clearing Toner; Glytone Acne Self-Foaming Cleanser; Glytone Acne Treatment; Glytone acne cleansing toner; Glytone acne self cleanser; Glytone acne treatment facial cleanser; Gm Collin Puracne; Gold Bond Ultimate Psoriasis Relief Cream; Good Neighbor Antibacterial Plus Urinary Pain Relief; Good Neighbor Pharmacy Scalp Relief; Good Scalp; Grahams Natural Psoriasis and Dermatitis; Granex Foam Acne Treatment; Guthy Renker ProActiv Sheer Finish Foundation Dark; Guthy Renker ProActiv Sheer Finish Foundation Fair; Guthy Renker ProActiv Sheer Finish Foundation Light; Guthy Renker ProActiv Sheer Finish Foundation Medium; Guthy Renker ProActiv Sheer Finish Foundation Tan; Guthy Renker Proactiv Solution Clarifying Night; Guthy Renker Proactiv Solution Gentle Formula Clarifying Cleanser; Guthy Renker Proactiv Solution Repairing Day; Guthy-Renker Proactiv Deep Cleansing Wash; H2o + Acne Spot Treatment; HASOL Anagen Hair Tonic; HASOL Anagen Scalp; HASOL Anti Hair Loss; HASOL Intensive; HASOL Intensive Scalp Tonic; HASOL Vital For Hair-Loss Tonic; Hair Green Mugungjin Tonic; Hair-loss Recovery Shampooblock; HairSanity Step 2; Hasol Anti Hair loss day tonic; Hasol Anti hair loss day tonic; Healthy Skin Cleanser; Herbaid Acne Relief Body Cleanser; Herbal Essences Anti-dandruff Shampoo; Hesol Rim; Hesol Rim Jean-Aeck Hair tonic; Hesol Rim Tonic; Higher Education Rush Clear Complexion Wipes With 2% Salicylic Acid; Home Health Everclean Antidandruff; Home Health Psoriasis; Home Health Psoriasis Medicated Scalp and Body Wash; Hope In A Bottle; Hydraclear Hydrating Acne Gel; Hydrisalic; IASO Intensive Clear Booster; IASO Intensive Clear Conditioner; ID Anti-Acne Toner Clarifying Face Plus Body Treatment; Id Anti Acne; Id Clarifying Body; Imba - Crm 3%; Imiquimod 5% / Salicylic Acid 30% / Tretinoin 0.1%; Inixial Perfection MATT BALANCING CARE Salicylic Acid 2% Acne Treatment; Inixial Perfection PURITY Salicylic Acid 0.5% Acne Treatment; Inixial Perfection STOP BLEMISHES Salicylic Acid 2% Acne Treatment; InstaNatural Acne Cleanser; InstaNatural Acne Moisturizer; Ionil Shampoo; Irish Spring Body Wash Clear and Fresh Skin; Isomers Clear Skin Acne Spot Treatment; Isomers Clear Skin Acne Treatment Lotion; J1003005 Jason Dandruff Relief; JUMISO No pain No gain AC CURE spot; Jafra Clear Blemish Treatment; Jason Dandruff Relief Treatment; Jinhancho; Johnson's Clean & Clear Dual Action Moisturizer; Johnson's Clean & Clear Pore Prep; Johnson's Clean & Clear Skin Balancing Mois.; Johnson's Cln&clr Sens.skin Skin Balanc.mois; Johnson's Cln.and Clr.invis.blem.treat.reg.; KPP Ultra Thick Medicated Callus Remover; KPP Ultra Thin Corn Removers; Kandesn Dandruff; Keeva 3 In 1 Acne Treatment; Keeva Organics Acne Treatment; Keeva Organics Acne Treatment Salicylic Acid; Keralyt; Keralyt 3 PERCENT; Keralyt 5; Keralyt Gel 6%; Kerasal Topical Solution; Ketoconazole 2% / Salicylic Acid 2%; Kiehls Since 1851 Blue Herbal Acne Cleanser Treatment; Kiehls Since 1851 Blue Herbal Gel Cleanser Acne Treatment; Kiehls Since 1851 Blue Herbal Moisturizer Acne Treatment; Kiehls Since 1851 Blue Herbal Spot Treatment Acne; Kiehls Since 1851 Blue Herbal Spot Treatment Acne Treatment; Kiehls Since 1851 Dermatologist Solutions Acne Blemish Control Daily Skin Clearing Treatment; Kiehls Since 1851 Dermatologist Solutions Breakout Control Acne Treatment Facial; Kiko Milano Shine Refine Spot; Kingskin; Klavuu Green Pearlsation Teatree Care Spot Corrector; Klearactil; Kleer-Plex Advanced Acne Care System; Kleer-plex Foaming Acne Clarifier; Kleer-plex Penetrating Acne; Kleer-plex Targeted Acne Pen; Kroger Daily Face Wash; LEROSETT High-Content Organic Acne Treatment Botanically Based; LOreal Go 360 Clean AntiBreakout Facial Cleanser; La Prairie Cellular Blemish Control; La Prairie Switzerland Cellular Blemish Control; La Roche Posay Laboratoire Dermatologique Effaclar Clarifying; La Roche Posay Laboratoire Dermatologique Effaclar K; La Roche Posay Laboratorie Dermatologique Effaclar Medicated Cleanser; La RochePosay Laboratoire Dermatologique Effaclar K Salicylic Acid Acne Treatment; Lactic Acid 30% / Salicylic Acid 30%; Lancell Huitomo Hair Loss Prevention Hair Growing Tonic; Lancell hair loss prevention hair grower tonic; Lassar's Paste; Lassar's Pst; Leader Maximum Strength Therapeutic T Plus Anti-Dandruff, anti-seborrheic dematitis and anti-psoriasis; Leahue Madhuca; Leahue Madhuca Tonic; Let Me Clarify; Liquid corn and Callus Remover; Locasalen; Lqd ACNE BLEMISH TREATMENT control; Lucky Supersoft Oil Free Acne Wash; M-A-C Radically Clear Blemish Cream; M.D. FORTE Glycare Perfection; MARK. BLEMISH BANISHER Anti-Acne Body Treatment Pads; MARK. Break Out Plan; MD ACNE Customized Hydrating Cleanser; MD ACNE Customized Treatment; MD CELL Scalp; MD CELL Solution; MG217 Psoriasis; MG217 Psoriasis Therapeutic Conditioner; MOEMO CERACOS Black; MU LAB YECO SOLU TION BP Refresh EX; Mary Kay Blemish Control Toner Acne Medication; Matrix Active Solns Blemish Control Acne Tr.; Matrix Biolage Raw Antidandruff; Mattifying Tonic Jafra; MaxClarity; Maximum Strength One Step Wart Remover Strips; Maximum Strength Wart Remover Strips; Maximum Strength Wart Remover with Salicylic Acid; Maybelline Dream Pure BB Beauty Balm; Mazon Medicated Cream; Mazon Medicated Shampoo; Md Cell; Medi-dan Shampoo; MediBac Clearing Complex; MediPlast; Medicated Acne Pads; Medicated Acne Shower; Medicated Apricot Scrub; Medicated Callus Removers; Medicated Corn Removers; Medicated Gel Cleanser -2% Salicylic Acid; Medicated Wash; Mediceuticals X-Derma Dry Scalp and Hair Treatment; Mediplast 40% Plaster; Megaplast - Clarifying Acne Patches; Megaplast - Feet Corn Protective Plasters; Megaplast - Feet Corn Removal Plaster; Megaplast Feet Wart Removal; Meijer Acne Spot Treatment; Meijer Antibacterial Plus Urinary Pain Relief; Meijer Blackhead Clearing Scrub Acne medication; Meijer Clarifying Body Wash Acne Treatment; Meijer Foaming Cleanser Acne medication; Meijer Oil Free Acne Wash Pink Grapefruit Foaming Scrub; Meijer Ultimate; Meijer oil Free Acne Wash Facial Cleanser Pink Grapefruit Acne medication; Melaleuca Shampooing Antipelliculaire Pellicules Seches, Cuir Chevelu Sec-rene Furterer; Methenamine and Sodium Salicylate; Micro Exfoliating Cleanser; Mighty Micropoint for Blemishes,Salicylic Acid 0.5 Acne Treatment; Miracle Rash Repair; Mizani Scalp Care PreTreatment Antidandruff Treatment; Mizon Acence Blemish Out Pink Spot; Moderate Acne Treatment; Moisturizing and Cleansing Acne Wipes; Mosco; Mosco Callus & Corn Remover Oint 400%; NAS Targeted Spot Treatment; NAS Toner; NDM SCALP Tonic; NELLY DEVUYST pH TONER BIOACNE; Narasoo Hair Tonic; Narasoo Healing; Nas Daily Moisturizing; Nas Max Strength Spot Treatment; Nas Pore Refining Scrub; Nas Purifying Cleanser; Natria Acne Treatment; Natural Acne Solutions; Natural Acne Solutions 3 Step Regimen; Natural Acne Solutions Clarifying Toner; Natural Peeling TriActive Acne; Natural Pure Balancing Hair; Natureplex Psoriasis; Natures Cure Body Acne Treatment; Natures Gate; Natures Gate Controlling Acne; Natures Gate Spot Corrector; Nelly Devuyst Cleansing Bioacne; Nelly Devuyst Mask Bioacne; Nelly Devuyst Micellar Foam Bioacne; Nelly Devuyst Purifying Bioacne; Nelly Devuyst Salicylic Acid Complex Bioacne; Nelly Devuyst Serum Bioacne; NeoCeuticals Acne Spot Treatment; Neora Complexion Clearing; Neostrata Astringent Acne Treatment; Neova Breakout Control; Nerisalic Oily Cream; Neriumrx Acne Therapy; Neriumrx Psoriasis Relief Therapy; Neutralyze Spot Treatment; Neutrogena Acne Proofing cleanser; Neutrogena Acne Proofing daily scrub; Neutrogena Acne Proofing whipped foam cleanser; Neutrogena All in 1 Acne Control Daily Scrub; Neutrogena All-in-1 Acne Control Facial Treatment; Neutrogena Blackhead Eliminating Cleanser Mask; Neutrogena Blackhead Eliminating Daily Scrub; Neutrogena Blackhead Eliminating strip to Scrub; Neutrogena Body Clear Body; Neutrogena Body Clear Body Scrub; Neutrogena Body Clear Body Wash; Neutrogena Body Clear Body Wash - Pink Grapefruit; Neutrogena Body Clear Body Wash Pink Grapefruit; Neutrogena Clear Pore Oil-Eliminating Astringent; Neutrogena Clear Pore Oil-absorbing Astringent; Neutrogena Complete Acne Therapy Solution; Neutrogena Complete Acne Therapy System; Neutrogena Healthy Scalp Anti-dandruff Shamp; Neutrogena Healthy Scalp Antidandruff Shampoo; Neutrogena Men Skin Clearing Acne Wash; Neutrogena Naturals Acne Foaming Scrub; Neutrogena Naturals Acne Spot Treatment; Neutrogena Oil Free Acne Correct and Cover Pink Grapefruit Moisturizer Fair to Light; Neutrogena Oil Free Acne Correct and Cover Pink Grapefruit Moisturizer Medium to Tan; Neutrogena Oil Free Acne Moisturizer Pink Grapefruit; Neutrogena Oil Free Acne Stress Control; Neutrogena Oil Free Acne Stress Control 3 in 1 Hydrating Acne Treatment; Neutrogena Oil Free Acne Stress Control Night Cleansing Pads; Neutrogena Oil Free Acne Stress Control Power Clear Scrub; Neutrogena Oil Free Acne Stress Control Power Foam Wash; Neutrogena Oil Free Acne Stress Control Triple Action Toner; Neutrogena Oil Free Acne Wash; Neutrogena Oil Free Acne Wash Cleanser; Neutrogena Oil Free Acne Wash Cleansing; Neutrogena Oil Free Acne Wash Pink Grapefruit Cleanser; Neutrogena Oil Free Acne Wash Pink Grapefruit Cleansing Wipes; Neutrogena Oil Free Acne Wash Pink Grapefruit Facial Cleanser; Neutrogena Oil Free Acne Wash Pink Grapefruit Foaming Scrub; Neutrogena Oil Free Acne Wash Redness Soothing Cream Cleanser; Neutrogena Oil Free Acne Wash Redness Soothing Facial Cleanser; Neutrogena Oil Free Acne Wash Redness Soothing Gentle Scrub; Neutrogena Oil Free Moisture Clear Skin; Neutrogena Oil-Free Acne Stress Control Power-Cream Wash; Neutrogena Oil-Free Acne Wash Clear Skin Wipes; Neutrogena Oil-Free Acne Wash Daily Scrub; Neutrogena Oil-Free Acne Wash Pink Grapefruit Foaming Scrub; Neutrogena Oil-free Acne Pads; Neutrogena Rapid Clear; Neutrogena Rapid Clear 2 in 1 Fight and Fade; Neutrogena Rapid Clear 2 in 1 Fight and Fade Toner; Neutrogena Rapid Clear 7 Day Acne Intervention; Neutrogena Rapid Clear Acne Defense Face; Neutrogena Rapid Clear Acne Eliminating Spot; Neutrogena Rapid Clear Foaming Scrub; Neutrogena Rapid Clear On-the-Go Acne Treatment Pen; Neutrogena Skin Clearing; Neutrogena Skin Clearing Astringent After Shave; Neutrogena Skin Clearing Blemish Concealer - Buff 09; Neutrogena Skin Clearing Blemish Concealer - Deep 20; Neutrogena Skin Clearing Blemish Concealer - Fair 05; Neutrogena Skin Clearing Blemish Concealer - Light 10; Neutrogena Skin Clearing Blemish Concealer - Medium 15; Neutrogena Skin Clearing Face Wash; Neutrogena Skin Clearing Shave Cream; Neutrogena Skin Polishing Acne Cleanser; Neutrogena SkinClearing Mineral - Buff; Neutrogena SkinClearing Mineral - Classic Ivory; Neutrogena SkinClearing Mineral - Honey Beige; Neutrogena SkinClearing Mineral - Natural Beige; Neutrogena SkinClearing Mineral - Natural Ivory; Neutrogena SkinClearing Mineral - Nude; Neutrogena SkinClearing Mineral - Soft Beige; Neutrogena SkinClearing Mineral - Tan; Neutrogena SkinClearing Mineral Powder - Chestnut 135; Neutrogena SkinClearing Mineral Powder - honey 85; Neutrogena SkinClearing Oil Free Makeup - 105 Caramel; Neutrogena SkinClearing Oil Free Makeup - 115 Cocoa; Neutrogena SkinClearing Oil Free Makeup - 135 Chestnut; Neutrogena SkinClearing Oil Free Makeup - 85 Honey; Neutrogena SkinClearing Oil Free Makeup - Buff 30; Neutrogena SkinClearing Oil Free Makeup - Classic Ivory 10; Neutrogena SkinClearing Oil Free Makeup - Fresh Beige 70; Neutrogena SkinClearing Oil Free Makeup - Honey Beige 110; Neutrogena SkinClearing Oil Free Makeup - Medium Beige 80; Neutrogena SkinClearing Oil Free Makeup - Natural Beige 60; Neutrogena SkinClearing Oil Free Makeup - Natural Ivory 20; Neutrogena SkinClearing Oil Free Makeup - Natural Tan 100; Neutrogena SkinClearing Oil Free Makeup - Nude 40; Neutrogena SkinClearing Oil Free Makeup - Soft Beige 50; Neutrogena SkinClearing Oil Free Makeup - Tan 120; Neutrogena SkinClearing Oil Free Makeup - Warm Beige 90; Neutrogena SkinClearing complexion perfector Deep 50; Neutrogena SkinClearing complexion perfector Fair 10; Neutrogena SkinClearing complexion perfector Light 20; Neutrogena SkinClearing complexion perfector Light to Medium 30; Neutrogena SkinClearing complexion perfector Medium 40; Neutrogena SkinID Acne Mark Fader; Neutrogena SkinID Body; Neutrogena SkinID Treatment Pads; Neutrogena SkiniD Cleanser; Neutrogena SkiniD Personalized Acne Solution Toner; Neutrogena Soothing Gel Astringent; Neutrogena T/Gel Therapeutic; Neutrogena T/Sal Therapeutic; Neutrogena TGel Therapeutic Conditioner; Neutrogena deep clean cooling scrub; Neutrogena deep clean purifying clay cleanser/mask; Neutrogena deep clean purifying whipped foam cleanser; Neutrogena naturals Acne Cleanser; Neutrogena* Clear Pore Treatment; New Premium Notamo; New Premium Notamo Tonic; Nexiclear Acne Treatment; Next Cell Medical Acne Cleansing Wipes; Nixoderm Unguento; No Zit Sherlock Acne Correcting; No Zit Sherlock Acne Oil Control; No Zit Sherlock Acne Purifying Cleanser Toner; No Zit Sherlock Acnespot Treatment Spot Treatment; NoTS 28 Remedy Acne Pore Deep Cleanser; Notamo Hair Tonic; Noxzema; Noxzema 2-IN-1 Astringent; Noxzema 2-IN-1 Pads; Noxzema 2-IN-1 Pads - Regular Strength; Noxzema ANTIBLEMISH; Noxzema AntiBlemish Daily Scrub; Noxzema Triple Clean; Noxzema Triple Clean Astringent; Nu Pore Acne; Nu Skin Clear Action Acne Medication Day Treatment; Nu Skin Clear Action Acne Medication Foaming Cleanser; Nu Skin Clear Action Acne Medication Night Treatment; Nu Skin Clear Action Acne Medication Toner; Nutrixyl Anti-dandruff; Nuvileo Acne Face Wash; Nuvileo Skin Perfecting Acne; ORIPAN GOLD 100g; ORIPAN GOLD 80g; OXY 3 in 1 Acne Pads; OXY 3 in 1 Pads Maximum Action; OXY Cleansing Maximum; OXY Cleansing Pads Daily Defense; OXY Cleansing Pads Mild; OXY Clinical Advanced Face Wash; OXY Clinical Advanced Treatment; OXY Clinical Foaming Face Wash; OXY Clinical Hydrating Therapy; OXY Daily Cleansing; OXY Daily Defense Advanced Facial Cleanser Aloe Cucumber Extract; OXY Daily Defense Advanced Facial Cleanser Citrus Extract; OXY Daily Defense Advanced Facial Cleanser Tropical Berry Extract; OXY Daily Defense Cleansing Pads; OXY Daily Defense Ultra Facial Cleanser; OXY Daily Moisturizer Maximum; OXY Deep Pore Cleansing Pads; OXY Exfoliating Body Scrub; OXY Hydrating Body Wash; OXY Maximum Action 3 in 1 Treatment Pads; OXY Overnight Acne Reducing Patches; OXY Purifying Face Scrub Maximum; OXY Rapid Treatment 3 in 1 Pads Maximum Action; OXY Skin Clearing 3 Way Use Cleanser Daily Defense; OXY Skin Clearing Brightening Cleanser Daily Defense; OXY Skin Clearing Cleansing Pads Daily Defense; OXY Skin Clearing Revitalizing Cleanser Daily Defense; OXY Skin Clearing Soothing Cleanser Daily Defense; OXY Volcanic Ash Acne Face Wash; OXY Volcanic Ash Detox Scrub; OXY Volcanic Clay Acne Wash; Obagi; Obeo Hair; Off-ezy Corn and Callus Remover Liq; Off-ezy Wart Remover Kit 17.0% Liq; Offects Te-pads Acne Pore Treatment System; Oil Control; Oil Free Acne Cleansing Towelette; Oil Free Acne Scrub CVS; Oil Free Acne Scrub Salicylic Acid Acne Treatment; Oil Free Acne Wash; Oil Free Blackhead Removal Scrub; Oil Free Daily Acne Scrub CVS; Oil Free Daily Face Wash Awaken by Quality Choice; Oil-Free Acne Wash; Oil-Free Acne Wash Foaming Scrub; Oil-Free Astringent; Oil-Free Daily Face; Oil-Free Foaming Acne Wash; Oil-Free Foaming Acne Wash Facial Cleanser Grapefruit; Oil-Free Foaming Acne Wash Facial Cleanser Tea Tree Oil; Oil-Free Foaming Acne Wash Tea Tree Oil; Oil-free Acne Wash Lot 2%; Oily SK Balancing I; Oily SK Cleansing; Oily SK Specific Solutions; Olay Acne Control Face Wash; Olay Blackhead Clearing Scrub; Olay Blemish Control Lathering Cleanser; Olay Clearly Clean Acne Treament Scrub; Olay Fresh Effects Acne Control Scrub; Olay Fresh Effects Acne Face Wash; Olay Fresh Effects Clear Skin Acne Hater Deep Scrub; Olay Fresh Effects Clear Skin Spot Zinger; Olay Professional ProX Clear Acne Protocol; Olay Total Effects Blemish Control Acne Cleanser; Olay Total Effects Cleanser Plus Blemish Control; Olp Acne Clear; On-the-spot Blemish Wand; One-Step Wart Remover Clear; Organic Tea Tree Treatment Gel; Oribe Serene Scalp Anti Dandruff; Oripan Gold; Overnight Clearing; Own Breakout Control Fast Acne Remover; Own Breakout Control Purifying Face Wash; Own Breakout Control Shineless Face; Oxipor Lotion; Oxy Clean Pore Astringent; Oxy Control Extra Strength - Lot 2%; Oxy Control Regular Strength-lot 1%; Oxy Daily Cleaning Pads - Regular; Oxy Daily Defense Cleansing Pads Sensitive; Oxy Daily Defense Exfoliating Body Scrub; Oxy Daily Defense Exfoliating Face Scrub; Oxy Daily Defense Face Wash; Oxy Daily Defense Facial Cleanser; Oxy Daily Defense Hydrating Body Wash; Oxy Deep Pore Cream Cleanser; Oxy Deep Pore Facial Cleanser - 2%; Oxy Extra Strength Night Watch Lot 2%; Oxy Finishing Toner; Oxy Medicated Pads Deep Cleaning; Oxy Medicated Pads Regular; Oxy Night Watch Extra Strength Lot 2%; Oxy Skin Clearing Blackhead Removing Scrub Daily Defense; Oxy Total Care Creamy Facial Cleanser; Oxy Total Care Vitamin C Serum; Oxygenetix Oxygenating Foundation Acne Control; P&s Plus; P1P AC Repair Ampoule; PAPIS CREAMS Psoriasis; PARAID One Step Wart Remover Strips; PCA SKIN Intensive Clarity Treatment; PCA Skin Acne Gel; PHS Hair Science Fem Hair Loss Tonic; PHS Hair Science Hom Hair Loss Tonic; PHS Hair Science Pro Hair Loss Tonic; PM External; PREP Everyday Clear Acne; PROcure Psoriapalm; PSORIAPALM Non-Greasy Psoriasis; Panoxyl Clear Acne Cleansing Gel; Patchology Breakout Box 3-IN-1 Acne Treatment; Patchology The Blemish Buster Breakout Box 3-IN-1 Acne Treatment; Paula's Choice Clear Anti-acne Extra Strength System; Paula's Choice Clear Anti-acne Regular Strength System; Pazol XS; Pca Skin Acne; Peace Out Acne; Ped X Callus Removers, Extra Thick Medicated; Ped X Callus Removers, Medicated; Ped X Corn Removers, Medicated; Pedi-Quick One Step Callus Removers; Pedi-Quick OneStep Corn Removers; PediQuick OneStep Wart Removers; Pelo Scalp Tonic Sheet; Perfect Me Serum; Perfect Purity Oil Free Acne Wash; Perilla Fo ti; Perilla Fo ti Conditioner; Pernox Crm; Pernox Crm Lemon; Personal CARE Acne Control; Personal CARE deep cleaning Astringent; Personal Care Oil-Free Acne Wash; Personal Care Sensitive Skin Deep Cleaning Astringent; Phace Bioactive Clarifying Serum; Pharma Clear Acne Treatment; Pharma Clear Cleanser; Pharma Clear Moisturizer; Pharma Clear Spot Treatment; Pharmacys Prescription 8 OZ Acne Control; Pharmaskincare Acnecare Exfoliator; Pharmaskincare Acnecare Toner; Pharmassist Clarifex Ph Liq 0.7%; Phisoderm Acne Therapy; Phisoderm Anti Blemish Body Wash; Phisoderm Anti-Blemish Gel Cleanser; Phisoderm Clear Confidence Body Wash; Phisoderm Clear Confidence Daily Gel Face Wash; Phisoderm Clear Confidence Face Scrub; Photo Finish More Than Primer Blemish Control; Phytum Antipelliculaire Shampooing Purifiant; Pimple Potion Retinal Plus Salicylic Acid Acne Treatment; Pimplepatch By Glam Up; Pink Grapefruit Foaming Acne Scrub daylogic; Plantar Wart Removers; Plax Anti-plaque Dental Rinse; Polytar AF Shampoo; Pore Rescue Acne; Pore Rescue Acne Biolements; Power Base Bioelements, Inc.; Preferred Antibacterial Plus Urinary Pain Relief; Premier Value Antibacterial Plus Urinary Pain Relief; Premium Notamo; Prep and Prime Blemish Control Acne Treatment; Preparing Tonic; Proactiv Acne Body Wipes; Proactiv Acne Clearing Body; Proactiv Advanced Daily Oil Control; Proactiv Blackhead Dissolving; Proactiv CLEAR ZONE BODY PADS; Proactiv Clarifying Night; Proactiv Clarifying Night Acne Treatment; Proactiv Cleansing Body Bar; Proactiv Clear Zone; Proactiv Cover and Heal Duo Concealer Light and Medium; Proactiv Cover and Heal Duo Concealer Tan and Dark; Proactiv Deep Cleansing Wash; Proactiv Extra Strength Formula Toner; Proactiv Gentle Formula Clarifying Cleanser; Proactiv Gentle Formula Clarifying Day; Proactiv Gentle Formula Clearifying Night; Proactiv Mild Exfoliating Peel; Proactiv Plus Clarifying Night; Proactiv Plus Cleansing Body Bar; Proactiv Plus Complexion Perfecting Hydrator; Proactiv Plus Retexturizing Toner; Proactiv Pore Cleansing System; Proactiv Repairing Concealer; Proactiv Revitalizing Toner Combination Therapy Acne Treatment; Proactiv Salicylic Acid Spot Treatment; Proactiv Sheer Finish Compact Foundation; Proactiv Skin Clearing Water; Proactiv Solution Advanced Daily Oil Control; Proactiv Solution Blackhead Dissolving; Proactiv Solution Clarifying Night; Proactiv Solution Clear Zone Body; Proactiv Solution Deep Cleansing Wash; Proactiv Solution Extra Strength Formula Toner Acne Treatment; Proactiv Solution Medicated Cleansing Bar; Proactiv Solution Purifying Botanical Peel; Proactive Solution Cleaning Bar; Proactivplus Repairing Concealer (Light/Medium/Tan/Dark); Propa Ph Astringent Cleanser Normal/sensitiv; Propa Ph Astringent Cleanser-extra Strength; Propa Ph Cleanser (normal); Propa Ph Cleanser (sensitive); Propa Ph Cream (sensitive); Propa Ph Foaming Face Wash - Liq 2%; Propa Ph Pads (sensitive); Propolis Acne Care Serum; Prosoria Psoriasis Treatment; PsoCleer Advanced Psoriasis; PsoraCare; PsoriWash Mashatt N9; Psoriasin Medicated Wash; Psoriasin Therapeutic Shampoo and Body Wash; Psoriasis Control; Psoriasis Relief; Psoriasis Salve; Psoriasis Scalp Masgatt N9; Psoricare Crm 3%; Pure Nerium Acne Therapy; Pure Nerium Psoriasis Relief Therapy; Pure System Stop Blemish; Puriface Hydrogel Cleansing Foam; Purity Made Simple; Quality Choice Antibacterial Plus Urinary Pain Relief; Quick Action; QuitaCallos; R-044 Blemish Fix; RE-fresh Scalp Care; RED BETTER SPOT CORRECTOR non-drying acne balm; REFINE Complexion Clearing Pads; REVERSION Step 2; Rapid Action Daily Face Wash Daylogic; Ratio-topisalic; ReVive Acne Reparatif Acne Treatment Gel; Rejuvaderm MediSpa Acne Back; Renardblanc Acne Cleansing Bar; Renewal; Renewal Anti-dandruff; Repiel Smart Foot Peeling Perfect Care; Replenix Acne Solutions Gly-Sal 2-2 Foaming Cleanser; Rescue Me Acne Blemish Treatment Original Formula; Restoral; Resurfacing acne swipes; Reversion Acne Control Clarifying Cleanser; Reversion Acne Control Clarifying Cleanser Face And Body; Reversion Acne Control Purifying Toner; Revitealize Anti Dandruff; Revlon New Complexion Correct & Conceal Blemish Stick; Rhodd Acne Body So Ap; Rite Aid Acne Pads, Daily Cleansing Pads; Rite Aid Antibacterial Plus Urinary Pain Relief; Rite Aid Renewal; Rite Aid Renewal Acne; Rodan and Fields ProActiv Sheer Finish Dark; Rodan and Fields ProActiv Sheer Finish Fair; Rodan and Fields ProActiv Sheer Finish Light; Rodan and Fields ProActiv Sheer Finish Medium; Rodan and Fields ProActiv Sheer Finish Tan; Roothouse EnCore; RosaAcne Relief; SA Foaming Cleanser; SA Oil Free Cream; SA Oil Free Serum; SALISES FACIAL Moisturizing Acne Treatment Gel 50ml; SALISES FACIAL Moisturizing acne treatment gel; SEBOBALANCE Purifying Sebo-absorbing Mask; SEBOBALANCE Spot Control; SEPHORA Acne-Fighting Mattifying Moisturizer; SEPHORA Acne-Fighting Roll-On; SKIN MEDICA Purifying Foaming Wash; SLMD Acne Cleanser; SLMD Salicylic Acid Body Wash; ST. Ives Body Scrub Naturally Clear Skin Green Tea; ST. Ives Body Wash Naturally Clear Skin Green Tea; ST. Ives Medicated Apricot Daily Cleansing Cloths; ST. Ives Naturally Clear Skin Green Tea Facial; STRIDEX Naturally Clear; SUNDAY RILEY ultra-clarifying ACNE TREATMENT FACE; Sal-Acid; Sal-Plant Gel; Salac 2%; Salactic Film; Salacyn; Salex; Salex Cream; SaliCo; SaliSkin; SaliSkin Wash; Salic-2; Salicylic Acid; Salicylic Acid 2% / Sodium Sulfacetamide Monohydrate 8%; Salicylic Acid 2% /sodium Sulfacetamide Monohydrate 8%; Salicylic Acid 5% / Sodium Sulfacetamide Monohydrate 10%; Salicylic Acid 6 percent; Salicylic Acid Corn Remover; Salicylic Acid Corn Removers; Salicylic Acid Daily Gentle Cleanser; Salicylic Acid Soap 3.5%; Salicylic Acid Wart Remover; Salicylic Acne Pore Treatment; Salicylic Face and Body Wash; Salicylic Serum 1 Percent; Salicylic Wash; Salicylic acid; Saliject 570mg/ml; Salinocaine; Salitop; Salkera; Salseb Medicated Shampoo; Salvax; Santalia Clinical Acne; Santalia Clinical Daily Cleanser; Santalia Clinical Daily Serum; Santalia Clinical Intenstive Spot Treatment; Sastid Soap for Stubborn Acne; Satos Corn and Callus Remover; Savex With Paba; Savex With Sunscreen Ont; Scal-tonic intensive liquid hair care; Scalpicin 2 in 1; Scalpicin Anti Itch Medication; Scalpicin Anti-dandruff Anti-itch Liquid; Scar Zone Acne; Scholl Wart Remover Liq 17%; Scot-Tussin Original SF Multi-Symptom; Sea Breeze Actives Clear-Pore Astringent; Sea Breeze Actives Deep-Clean Astringent; Seacret Active Clear Facial Wash; Seacret Clear Active Clear Facial Wash; Sebaceous Hyperplasia Treatment; Sebcur-T; Sebex; Sebrx Acne Control Spot Treatment; Sebulex Liq; Sebum Clearing Masque; Sebutone Shampoo; Selsun Blue Active 3-in-1; Selsun Blue Deep Cleansing Micro-Bead Scrub; Selsun Blue Naturals Island Breeze; Selsun Blue Naturals Itchy, Dry Scalp; Sensitive Skin Deep Cleaning Astringent; Sensitive Skin Facial Astringent; Serious Skincare Continuously Clear Acne Medication For Problematic skin Dry Lo Pro All- Over Treatment; Shine Away Acne Control Primer - Lot 0.5%; Shiseido Ibuki Multi; Shiseido Pureness Anti-shine Refreshing Lotion; Simicort - Crm 1.8%; SimmyungSaengMoSu Hair tonic; Sinsin Corn Band; Skin Clearify Cleanser; Skin Clearify Mask; Skin Clearify Moisturizer; Skin Clearify Spot Treatment; Skin Perfecting Acne and Blemish Wash; Skin Pharmacy Advanced Acne Therapy Clarifying Daily Cleanser; Skin Pharmacy Advanced Acne Therapy Kit; Skin Pharmacy Advanced Acne Therapy Overnight Salicylic Acid; Skin Pharmacy Advanced Acne Therapy Pore Refining Facial Mask; Skin Purifying Wipes; SkinCeuticals Blemish Plus Age Defense Acne Treatment; SkinCeuticals Clarifying Cleanser; SkinMedica Purifying Toner; SkinPharmacy Advanced Acne Therapy Kit; SkinSaver Polygonum Multi Purpose; SkinTX Medicated Acne Wash; SkinTx Acne Treatment System; Skincoach CLEAN; Skinpharmacy Advanced Acne Therapy Overnight Salicylic Acid; Skinpharmacy Advanced Acne Therapy Pore Refining Facial Mask; Skinprint 3D Bio Peel; Skinprint Blemish Control Cleanser; Skinprint Blemish Control Toner; Smart Release Mandelic 11 PERCENT; Smart Release Mandelic 8 PERCENT; So Fresh So Clean Maximum Acne Treatment; So Fresh So Clean Mild Acne Treatment; So Totally Clean Anti-blemish Pads; So Totally Clean Deep Pore Cleanser; SoftSheenCarson Magic Bump Rescue Spot Treatment; Solid-Stick Wart Remover; Soluver Enfants/kids; Solv X; Soothion Acne Treatment Formula; Soothion Psoriasis and Seborrheic Dermatitis Formula; Soothix Acne Treatment and Blemish Prevention Formula; Soothix Psoriasis and Seborrheic Dermatitis Formula; Sound Body; Specific Beauty Clarifying Wash Acne Treatment Cleanser; Spot Acne Treatment; Spot Control; Spot Remover Acne Treatment Pads; Spot Repairing Serum; Spotless Cleanser Bioelements; St. Ives Blackhead Clearing Green Tea Scrub; St. Ives Blemish Control Green Tea Scrub; St. Ives Blemish and Blackhead Control; St. Ives Blemish and Blackhead Control Apricot Scrub; St. Ives Blemish and Blackhead Facial; St. Ives Blemish and Blackhead control; St. Ives Green Tea Cleanser; St. Ives Green Tea Scrub; St. Ives Naturally Clear Green Tea Facial; Stay Pure Acne Treatment; Sterex Crm Plus; Sterex Lot Plus; Sterex Shp; Stridex Conditioning Acne Scrub; Stridex Essential; Stridex Maximum; Stridex Sensitive; Sulfur 8 Anti-Dandruff Braid; Sulfur 8 Fresh Anti-Dandruff; Sulfur 8 Fresh Anti-Dandruff Hair and Scalp Conditioner; Sulfur 8 Loc Twist and Braid Scalp; Sulfur 8 Scalp Therapy Medicated Dandruff Control; Sulfur 8 Scalp Therapy Medicated Dandruff Control Leave-In Soothing Treatment; Sulfur 8 Scalp Therapy Medicated Dandruff Control Scalp Butter Cream; Super Bump Relief; Super Spot Remover Acne Treatment; Synergy Booster; Systeme Biolage Anti-dandruff Shampoo - 2%; T/gel Overnight Dandruff Treatment; T/gel Shampoo; TULA acne clearing and tone correcting gel; TULA breakout star oil-free acne moisturizer; Tahitian Noni TePoema Blemish Recovery; Take Control Calming Cleanser; Tals Acnic Soothing Serum; Tardan Shp; Targel Sa; Ten-O-six Medicated Deep Pore Cleanser; Ten-O-six Medicated Deep Pore Gel - 2%; Terapie Callus Remover; Terrasil Psoriasis Therapy Maximum Strength; Terrasil Wart Removal; Terrasil Wart Removal MAX; ThatZit Acne Treatment; ThatZit Acne Treatment MAX; Thera Wise Natural Acne; Therapeutic Dandruff; Theraphytion Nokmosu; Therapro Exfoliating Dandruff Treatment Shampoo; Therapytion Hair Tonic; Therapytion Natural Deep Clean; Therapytion Natural Relaxing; Therapytion Nokmosu Hair Tonic; Thicker Fuller Hair - Dandruff Sulfate Free; Thomas Formula No 17; Thomas Formula No 28; Thomas Formula No 47; Tiacid Solution; Tonic Acne Clearing Treatment; TopCare Antibacterial Plus Urinary Pain Relief; Trans-plantar 20mm Pls 15%; Trans-ver-sal 6mm Pls 15%; Triderma Psoriasis Control Body Wash; Trulyclear The One-Step Acne Solution; Two Step Jelly Mask - Brightening and Nutrition; UNBLEMISH Gentle Exfoliating Acne Wash; UNBLEMISH Regimen for Acne, Blemishes and Breakouts; Ultimate Daily Face Wash; Ultra Clear Foaming Cleanser; Ultra Clear Foaming Cleanser Acne; Ultra Clear Treatment; Ultrasal-ER; Unagel; Unda Mositurizing; Up and Up Acne Wash; Up and Up Blemish Controlling Apricot Scrub; Up and Up Deep Clean Toner; Up and Up Dual Effects Moisturizer; Up and up Oil-free Cleansing wipe pink grapefruit; UpandUP; VIRCIN Advanced wart treatment; VITASCRUB Invigorating Foaming Scrub; Veraciti; VerruStat Medicated Plantar Pads; VerruStat Wart Remover; Verruguin; Verrunex; Verucide Physician Formula; Vichy Laboratoires Normaderm Beautifying Anti Acne Care 24 H Hydrating Acne Treatment; Vichy Laboratoires Normaderm Daily Deep Cleansing; Vichy Laboratoires Normaderm Daily Gentle Cleanser; Vichy Laboratoires Normaderm Daily Pore Unclogging Scrub; Vichy Laboratoires Normaderm Hyaluspot Acne Treatment; Vichy Laboratoires Normaderm Purifying Pore Tightening Toner; Vichy Laboratoires Normaderm Triple Action 3 in 1 Cleanser; Vichy Laboratoires Normaderm Triple Action Anti Acne Hydrating; Vichy Laboratoires Normaderm Triple Action Antiacne Hydrating; Vichy Normaderm Daily deep cleansing; Vichy Normaderm Pore Unclogging Daily Scrub; Vichy Normaderm Purifying pore tightening toner; Vichy Normaderm Total Mat; Viper Acne Body Wash; Virasal; Virtual Clarity; Visco-Gel Medicated Round Callus Removers; Vitabrid C12 HAIR TONIC PROFESSIONAL; Vitabrid C12 Hair Tonic; Vitabrid C12 Spot Acne Ampoule; Vitale Sensitive Scalp 12 in 1 Instant Relief Anti Dandruff Spray; Vmv Hypoallergenics Id Skin-buffing Cleansing Scrub; Walgreens Antibacterial Plus Urinary Pain Relief; Walgreens Corn Remover; Walgreens Foaming Acne Scrub Pink Grapefruit; Walgreens Medicated Callus Removers; Walgreens Oil-Free Acne Wash; Walgreens Pink Grapefruit; Wart Remover; Wart Remover Gel; Wart Remover Liquid; WartStick; Warticide; Wartrol Wart Remover; Well At Walgreens Pink Grapefruit; Well at Walgreens Blemish and Blackhead Control Apricot; Well at Walgreens Ultimate Daily; Wet Wipes; Witch Hazel Pore Clarifying Toner 8 oz; X Out Cleansing Body; X Out Cleansing Body Bar; X Out Daily Body Scrub; X Out Shine Control; X-OUT Acne Control Body Pads; X-seb Plus Conditioning Shampoo; X-seb T Plus Conditioning Shampoo; X-seb T Shampoo; X-tar Shampoo; Xalix; XtraCare Dandruff Hair Wash; XtraCare Deep Cleaning Astringent; YS Solution Ac Care; YS Solution Ac control Skin Regular Mild; YS Solution Intensive AC Care; Yadah Anti Trouble Bubble Cleanser; Yat Tip Tor; Yat Tip Xiao; Yes To Booty-Ful Paper Mask - detoxified plus acne-free; Yes To Tomatoes Acne Clearing Facial Toner; Yes To Tomatoes Acne Control Gel Cleanser; Yes To Tomatoes Acne Fighting Mist; Yes To Tomatoes Acne Fighting Paper Mask; Yes To Tomatoes Acne Fighting Scrub and Cleanser; Yes To Tomatoes Acne Fighting Spot Treatment; Yes To Tomatoes Clear Skin Corrective Concealer Light Tint; Yes To Tomatoes Daily Pore Scrub; Yes To Tomatoes Daily Repair Treatment; Yes To Tomatoes Detoxifying Charcoal Acne Fighting Chin Mask; Yes To Tomatoes Detoxifying Charcoal Acne Fighting T-Zone Mask; Yes To Tomatoes Detoxifying Charcoal Cleanser; Yes To Tomatoes Detoxifying Charcoal Mud Mask; Yes To Tomatoes Detoxifying Charcoal Sleeping Mask; Yes To Tomatoes Micellar Cleansing Water; Yes To Tomatoes Roller Ball Spot Stick; Yes to Tomatoes 3-Step Acne Clearing; Yes to tomatoes; Younger Clearer Night Serum with Honestly Pure Retinol 0.5% Salicylic Acid Acne Treatment; Younger Clearer Resurfacing Cleanser 0.5% Salicylic Acid Acne Treatment; Younger Clearer Spot-On Remedy 2% Salicylic Acid Acne Treatment; YourGoodSkin Active Treatment Tonic; YourGoodSkin Anti-Acne Base; YourGoodSkin Blackhead Clearing Scrub; YourGoodSkin Calming Cleanser; YourGoodSkin Rapid Rescue Treatment; ZO MEDICAL AKNEBRIGHT Acne Spot and Pigmentation Treatment; ZO MEDICAL CEBATROL Oil Control Pads Acne Treatment; ZO SKIN HEALTH GSR (Getting Skin Ready) SYSTEM; ZO SKIN HEALTH OFFECTS CORRECT and CONCEAL ACNE TREATMENT (LIGHT); ZO SKIN HEALTH OFFECTS CORRECT and CONCEAL ACNE TREATMENT (MEDIUM); ZO Skin Health Oil Control Pads Acne Treatment; ZO Skin Health Skin Normalizing System Therapeutic Treatment for red, sensitized skin; ZO Skin Health Skin Normalizing System with Rozatrol Booster Serum; Zaol Doctors Order Scalp Scaling; Zaol Doctors Order Synergy Booster; Zap-IT - Crm - 2.0%; Zapne; Zapzyt Acne Wash Cleanser; Zapzyt Pore Cleaning Scrub; Zhangguang 101 Hair Max 101b; Zit Eraser; Zit Zapper; Zoono Skin Clear Acne Medication; Zymo Face Cleanser for Oily Skin Acne Treatment Face Wash; ageLOC LumiSpa Treatment Cleanser Acne; bareMinerals Blemish Remedy Acne Clearing Treatment Serum; bareMinerals Blemish Remedy Acne Treatment Gelee Cleanser; bdr Re-action tonic professional multi active booster; bdr Re-move PH pure harmony cleanser; denovo 3 H; dr dennis gross All-Over Blemish; enfuselle Acne Clarifying; epHiderm Spot Treatment; glo SKIN BEAUTY Clear Skin Cleanser; haircop hairDANBI NATURAL; honey IM ON STAYCATION TONIGHT DIY FACE MASK ACNE TREATMENT; mark. Get Treatment Anti-Acne Overnight Treatment; mark. Help Wanted Anti-Acne Exfoliating Cleanser; mark. back up plan Anti-Acne Back Treatment; mark. save the day Anti-Acne Concealer

> <INTERNATIONAL_BRANDS>
Dr. Scholl's Callus Removers; Dr. Scholl's Corn Removers; Dr. Scholl's Wart Remover Kit; Duofil Wart Remover; Duoplant; Ionil Plus shampoo; Salonil; Stridex

> <SALTS>
Choline magnesium trisalicylate; Potassium salicylate; Sodium salicylate

$$$$
