60613
  -OEChem-10051719133D

 32 32  0     1  0  0  0  0  0999 V2000
    2.9703   -1.5983   -0.2593 P   0  0  0  0  0  0  0  0  0  0  0  0
    1.3178    0.3086    0.0336 O   0  0  0  0  0  0  0  0  0  0  0  0
    1.4169    3.9351   -0.2312 O   0  0  0  0  0  0  0  0  0  0  0  0
    3.3694   -1.4919    1.3033 O   0  0  0  0  0  0  0  0  0  0  0  0
    4.3964   -1.7917   -0.9946 O   0  0  0  0  0  0  0  0  0  0  0  0
    1.9408   -2.6384   -0.5867 O   0  0  0  0  0  0  0  0  0  0  0  0
   -0.8148   -0.6258    1.9020 O   0  0  0  0  0  0  0  0  0  0  0  0
   -1.5085    0.8428    0.2651 N   0  0  0  0  0  0  0  0  0  0  0  0
   -2.6007   -1.2517    0.6489 N   0  0  0  0  0  0  0  0  0  0  0  0
   -4.4291   -1.8878   -0.6399 N   0  0  0  0  0  0  0  0  0  0  0  0
    0.8049    1.6147   -0.2322 C   0  0  1  0  0  0  0  0  0  0  0  0
   -0.4793    1.8321    0.5658 C   0  0  0  0  0  0  0  0  0  0  0  0
    1.8933    2.6326    0.0930 C   0  0  0  0  0  0  0  0  0  0  0  0
    2.5134    0.0676   -0.6907 C   0  0  0  0  0  0  0  0  0  0  0  0
   -2.3912    1.1221   -0.7526 C   0  0  0  0  0  0  0  0  0  0  0  0
   -1.5984   -0.3593    0.9888 C   0  0  0  0  0  0  0  0  0  0  0  0
   -3.3611    0.2766   -1.0955 C   0  0  0  0  0  0  0  0  0  0  0  0
   -3.4402   -0.9873   -0.3178 C   0  0  0  0  0  0  0  0  0  0  0  0
    0.5540    1.6802   -1.2997 H   0  0  0  0  0  0  0  0  0  0  0  0
   -0.2500    1.7565    1.6361 H   0  0  0  0  0  0  0  0  0  0  0  0
   -0.8866    2.8370    0.4004 H   0  0  0  0  0  0  0  0  0  0  0  0
    2.7998    2.5165   -0.5017 H   0  0  0  0  0  0  0  0  0  0  0  0
    2.1682    2.5993    1.1528 H   0  0  0  0  0  0  0  0  0  0  0  0
    2.3515    0.1664   -1.7682 H   0  0  0  0  0  0  0  0  0  0  0  0
    3.3515    0.6823   -0.3594 H   0  0  0  0  0  0  0  0  0  0  0  0
   -2.2642    2.0644   -1.2738 H   0  0  0  0  0  0  0  0  0  0  0  0
   -4.0641    0.4755   -1.8933 H   0  0  0  0  0  0  0  0  0  0  0  0
    2.1177    4.5644    0.0109 H   0  0  0  0  0  0  0  0  0  0  0  0
    3.6327   -2.3062    1.7826 H   0  0  0  0  0  0  0  0  0  0  0  0
    4.8477   -2.6605   -0.9347 H   0  0  0  0  0  0  0  0  0  0  0  0
   -5.0951   -1.7117   -1.3849 H   0  0  0  0  0  0  0  0  0  0  0  0
   -4.5200   -2.7634   -0.1359 H   0  0  0  0  0  0  0  0  0  0  0  0
  1  4  1  0  0  0  0
  1  5  1  0  0  0  0
  1  6  2  0  0  0  0
  1 14  1  0  0  0  0
  2 11  1  0  0  0  0
  2 14  1  0  0  0  0
  3 13  1  0  0  0  0
  3 28  1  0  0  0  0
  4 29  1  0  0  0  0
  5 30  1  0  0  0  0
  7 16  2  0  0  0  0
  8 12  1  0  0  0  0
  8 15  1  0  0  0  0
  8 16  1  0  0  0  0
  9 16  1  0  0  0  0
  9 18  2  0  0  0  0
 10 18  1  0  0  0  0
 10 31  1  0  0  0  0
 10 32  1  0  0  0  0
 11 12  1  0  0  0  0
 11 13  1  0  0  0  0
 11 19  1  0  0  0  0
 12 20  1  0  0  0  0
 12 21  1  0  0  0  0
 13 22  1  0  0  0  0
 13 23  1  0  0  0  0
 14 24  1  0  0  0  0
 14 25  1  0  0  0  0
 15 17  2  0  0  0  0
 15 26  1  0  0  0  0
 17 18  1  0  0  0  0
 17 27  1  0  0  0  0
M  END
> <DATABASE_ID>
DB00369

> <DATABASE_NAME>
drugbank

> <ORIGINAL_SOURCE>
PUBCHEM

> <ORIGINAL_SOURCE_URL>
https://pubchem.ncbi.nlm.nih.gov/rest/pug/compound/inchikey/VWFCHDSQECPREK-LURJTMIESA-N/SDF?record_type=3d

> <SMILES>
NC1=NC(=O)N(C[C@@H](CO)OCP(O)(O)=O)C=C1

> <INCHI_IDENTIFIER>
InChI=1S/C8H14N3O6P/c9-7-1-2-11(8(13)10-7)3-6(4-12)17-5-18(14,15)16/h1-2,6,12H,3-5H2,(H2,9,10,13)(H2,14,15,16)/t6-/m0/s1

> <INCHI_KEY>
VWFCHDSQECPREK-LURJTMIESA-N

> <FORMULA>
C8H14N3O6P

> <MOLECULAR_WEIGHT>
279.187

> <EXACT_MASS>
279.062021707

> <JCHEM_ACCEPTOR_COUNT>
8

> <JCHEM_AVERAGE_POLARIZABILITY>
24.443744856111607

> <JCHEM_BIOAVAILABILITY>
1

> <JCHEM_DONOR_COUNT>
4

> <JCHEM_FORMAL_CHARGE>
0

> <JCHEM_GHOSE_FILTER>
0

> <JCHEM_IUPAC>
({[(2S)-1-(4-amino-2-oxo-1,2-dihydropyrimidin-1-yl)-3-hydroxypropan-2-yl]oxy}methyl)phosphonic acid

> <ALOGPS_LOGP>
-2.12

> <JCHEM_LOGP>
-3.413351889658639

> <ALOGPS_LOGS>
-1.38

> <JCHEM_MDDR_LIKE_RULE>
0

> <JCHEM_NUMBER_OF_RINGS>
1

> <JCHEM_PHYSIOLOGICAL_CHARGE>
-1

> <JCHEM_PKA>
7.904873659261004

> <JCHEM_PKA_STRONGEST_ACIDIC>
1.1871568476753072

> <JCHEM_PKA_STRONGEST_BASIC>
2.1509040654505562

> <JCHEM_POLAR_SURFACE_AREA>
145.68

> <JCHEM_REFRACTIVITY>
60.4279

> <JCHEM_ROTATABLE_BOND_COUNT>
6

> <JCHEM_RULE_OF_FIVE>
1

> <ALOGPS_SOLUBILITY>
1.15e+01 g/l

> <JCHEM_TRADITIONAL_IUPAC>
cidofovir

> <JCHEM_VEBER_RULE>
0

> <DRUGBANK_ID>
DB00369

> <SECONDARY_ACCESSION_NUMBERS>
APRD00148

> <DRUG_GROUPS>
approved

> <GENERIC_NAME>
Cidofovir

> <SYNONYMS>
({[(S)-1-(4-amino-2-oxo-1,2-dihydropyrimidin-1-yl)-3-hydroxypropan-2-yl]oxy}methyl)phosphonic acid; (S)-(3-(4-amino-2-Oxopyrimidin-1(2H)-yl)-1-hydroxypropan-2-yloxy)methylphosphonic acid; (S)-1-(3-Hydroxy-2-phosphonomethoxypropyl)cytosine; (S)-1-[3-Hydroxy-2-(phosphonomethoxy)propyl]cytosine; (S)-1-[3-Hydroxy-2-(phosphonylmethoxy)propyl]cytosine; (S)-HPMPC; [(S)-2-(4-Amino-2-oxo-2H-pyrimidin-1-yl)-1-hydroxymethyl-ethoxymethyl]-phosphonic acid; [[(S)-2-(4-amino-2-oxo-1(2H)-pyrimidinyl)-1-(hydroxymethyl)ethoxy]methyl]phosphonic acid; 1-(S)-[3-Hydroxy-2-(phosphonomethoxy)propyl]cytosine; 1-[(S)-3-Hydroxy-2-(phosphonomethoxy)propyl]cytosine; CDV; Cidofovir; Cidofovir anhydrous; Cidofovirum

> <PRODUCTS>
Cidofovir; Cidofovir Dihydrate; Mar-cidofovir; Vistide

> <SALTS>
Cidofovir dihydrate

$$$$
