60815
  -OEChem-10051719253D

 55 56  0     0  0  0  0  0  0999 V2000
   -0.6009    2.8847    0.5775 O   0  0  0  0  0  0  0  0  0  0  0  0
   -1.5592    1.4954    2.1550 O   0  0  0  0  0  0  0  0  0  0  0  0
   -3.0028    2.1841   -1.0478 O   0  0  0  0  0  0  0  0  0  0  0  0
    6.5171   -1.5104   -0.1719 O   0  0  0  0  0  0  0  0  0  0  0  0
    6.3308    0.7885   -0.1149 O   0  0  0  0  0  0  0  0  0  0  0  0
    2.1037    0.3448   -0.4672 N   0  0  0  0  0  0  0  0  0  0  0  0
   -2.1110    0.1425   -0.2406 N   0  0  0  0  0  0  0  0  0  0  0  0
   -0.7754    0.6072    0.0534 C   0  0  0  0  0  0  0  0  0  0  0  0
    0.0725   -0.5180    0.6546 C   0  0  0  0  0  0  0  0  0  0  0  0
   -0.1087    1.1780   -1.2019 C   0  0  0  0  0  0  0  0  0  0  0  0
    1.5429   -0.1177    0.8087 C   0  0  0  0  0  0  0  0  0  0  0  0
    1.3688    1.5108   -0.9741 C   0  0  0  0  0  0  0  0  0  0  0  0
   -1.0354    1.6882    1.0661 C   0  0  0  0  0  0  0  0  0  0  0  0
    3.5237    0.6619   -0.3164 C   0  0  0  0  0  0  0  0  0  0  0  0
   -2.4352   -1.2575    0.0224 C   0  0  0  0  0  0  0  0  0  0  0  0
   -3.1284    0.9874   -0.7760 C   0  0  0  0  0  0  0  0  0  0  0  0
    4.3557   -0.6172   -0.3172 C   0  0  0  0  0  0  0  0  0  0  0  0
   -4.4857    0.3177   -0.9716 C   0  0  0  0  0  0  0  0  0  0  0  0
   -2.2422   -2.2167   -0.9719 C   0  0  0  0  0  0  0  0  0  0  0  0
   -2.9370   -1.6355    1.2680 C   0  0  0  0  0  0  0  0  0  0  0  0
    5.8344   -0.3270   -0.1899 C   0  0  0  0  0  0  0  0  0  0  0  0
   -5.5280    1.2576   -1.5579 C   0  0  0  0  0  0  0  0  0  0  0  0
   -0.7887    4.0077    1.4445 C   0  0  0  0  0  0  0  0  0  0  0  0
   -2.5512   -3.5535   -0.7209 C   0  0  0  0  0  0  0  0  0  0  0  0
   -3.2459   -2.9724    1.5189 C   0  0  0  0  0  0  0  0  0  0  0  0
   -3.0530   -3.9313    0.5245 C   0  0  0  0  0  0  0  0  0  0  0  0
    7.9392   -1.3996   -0.0536 C   0  0  0  0  0  0  0  0  0  0  0  0
   -0.2892   -0.8233    1.6445 H   0  0  0  0  0  0  0  0  0  0  0  0
    0.0777   -1.4079    0.0138 H   0  0  0  0  0  0  0  0  0  0  0  0
   -0.1675    0.4246   -2.0018 H   0  0  0  0  0  0  0  0  0  0  0  0
   -0.6126    2.0594   -1.6149 H   0  0  0  0  0  0  0  0  0  0  0  0
    1.6340    0.6584    1.5804 H   0  0  0  0  0  0  0  0  0  0  0  0
    2.0779   -0.9984    1.1788 H   0  0  0  0  0  0  0  0  0  0  0  0
    1.7858    1.8049   -1.9460 H   0  0  0  0  0  0  0  0  0  0  0  0
    1.5048    2.3701   -0.3090 H   0  0  0  0  0  0  0  0  0  0  0  0
    3.7156    1.2619    0.5829 H   0  0  0  0  0  0  0  0  0  0  0  0
    3.8643    1.2696   -1.1659 H   0  0  0  0  0  0  0  0  0  0  0  0
    4.0873   -1.2653    0.5231 H   0  0  0  0  0  0  0  0  0  0  0  0
    4.1981   -1.1654   -1.2536 H   0  0  0  0  0  0  0  0  0  0  0  0
   -4.3788   -0.5310   -1.6540 H   0  0  0  0  0  0  0  0  0  0  0  0
   -4.8561   -0.0386   -0.0053 H   0  0  0  0  0  0  0  0  0  0  0  0
   -1.8519   -1.9323   -1.9456 H   0  0  0  0  0  0  0  0  0  0  0  0
   -3.0944   -0.8975    2.0498 H   0  0  0  0  0  0  0  0  0  0  0  0
   -5.2113    1.6357   -2.5355 H   0  0  0  0  0  0  0  0  0  0  0  0
   -5.6954    2.1183   -0.9018 H   0  0  0  0  0  0  0  0  0  0  0  0
   -6.4817    0.7361   -1.6860 H   0  0  0  0  0  0  0  0  0  0  0  0
   -1.8538    4.1548    1.6474 H   0  0  0  0  0  0  0  0  0  0  0  0
   -0.2330    3.8634    2.3759 H   0  0  0  0  0  0  0  0  0  0  0  0
   -0.4014    4.8958    0.9384 H   0  0  0  0  0  0  0  0  0  0  0  0
   -2.4010   -4.3002   -1.4952 H   0  0  0  0  0  0  0  0  0  0  0  0
   -3.6373   -3.2665    2.4884 H   0  0  0  0  0  0  0  0  0  0  0  0
   -3.2936   -4.9722    0.7199 H   0  0  0  0  0  0  0  0  0  0  0  0
    8.3484   -0.8506   -0.9070 H   0  0  0  0  0  0  0  0  0  0  0  0
    8.2037   -0.9067    0.8867 H   0  0  0  0  0  0  0  0  0  0  0  0
    8.3597   -2.4088   -0.0513 H   0  0  0  0  0  0  0  0  0  0  0  0
  1 13  1  0  0  0  0
  1 23  1  0  0  0  0
  2 13  2  0  0  0  0
  3 16  2  0  0  0  0
  4 21  1  0  0  0  0
  4 27  1  0  0  0  0
  5 21  2  0  0  0  0
  6 11  1  0  0  0  0
  6 12  1  0  0  0  0
  6 14  1  0  0  0  0
  7  8  1  0  0  0  0
  7 15  1  0  0  0  0
  7 16  1  0  0  0  0
  8  9  1  0  0  0  0
  8 10  1  0  0  0  0
  8 13  1  0  0  0  0
  9 11  1  0  0  0  0
  9 28  1  0  0  0  0
  9 29  1  0  0  0  0
 10 12  1  0  0  0  0
 10 30  1  0  0  0  0
 10 31  1  0  0  0  0
 11 32  1  0  0  0  0
 11 33  1  0  0  0  0
 12 34  1  0  0  0  0
 12 35  1  0  0  0  0
 14 17  1  0  0  0  0
 14 36  1  0  0  0  0
 14 37  1  0  0  0  0
 15 19  2  0  0  0  0
 15 20  1  0  0  0  0
 16 18  1  0  0  0  0
 17 21  1  0  0  0  0
 17 38  1  0  0  0  0
 17 39  1  0  0  0  0
 18 22  1  0  0  0  0
 18 40  1  0  0  0  0
 18 41  1  0  0  0  0
 19 24  1  0  0  0  0
 19 42  1  0  0  0  0
 20 25  2  0  0  0  0
 20 43  1  0  0  0  0
 22 44  1  0  0  0  0
 22 45  1  0  0  0  0
 22 46  1  0  0  0  0
 23 47  1  0  0  0  0
 23 48  1  0  0  0  0
 23 49  1  0  0  0  0
 24 26  2  0  0  0  0
 24 50  1  0  0  0  0
 25 26  1  0  0  0  0
 25 51  1  0  0  0  0
 26 52  1  0  0  0  0
 27 53  1  0  0  0  0
 27 54  1  0  0  0  0
 27 55  1  0  0  0  0
M  END
> <DATABASE_ID>
DB00899

> <DATABASE_NAME>
drugbank

> <ORIGINAL_SOURCE>
PUBCHEM

> <ORIGINAL_SOURCE_URL>
https://pubchem.ncbi.nlm.nih.gov/rest/pug/compound/inchikey/ZTVQQQVZCWLTDF-UHFFFAOYSA-N/SDF?record_type=3d

> <SMILES>
CCC(=O)N(C1=CC=CC=C1)C1(CCN(CCC(=O)OC)CC1)C(=O)OC

> <INCHI_IDENTIFIER>
InChI=1S/C20H28N2O5/c1-4-17(23)22(16-8-6-5-7-9-16)20(19(25)27-3)11-14-21(15-12-20)13-10-18(24)26-2/h5-9H,4,10-15H2,1-3H3

> <INCHI_KEY>
ZTVQQQVZCWLTDF-UHFFFAOYSA-N

> <FORMULA>
C20H28N2O5

> <MOLECULAR_WEIGHT>
376.4467

> <EXACT_MASS>
376.199822016

> <JCHEM_ACCEPTOR_COUNT>
4

> <JCHEM_AVERAGE_POLARIZABILITY>
40.82270201202426

> <JCHEM_BIOAVAILABILITY>
1

> <JCHEM_DONOR_COUNT>
0

> <JCHEM_FORMAL_CHARGE>
0

> <JCHEM_GHOSE_FILTER>
1

> <JCHEM_IUPAC>
methyl 1-(3-methoxy-3-oxopropyl)-4-(N-phenylpropanamido)piperidine-4-carboxylate

> <ALOGPS_LOGP>
1.75

> <JCHEM_LOGP>
1.5152788399999992

> <ALOGPS_LOGS>
-2.80

> <JCHEM_MDDR_LIKE_RULE>
0

> <JCHEM_NUMBER_OF_RINGS>
2

> <JCHEM_PHYSIOLOGICAL_CHARGE>
1

> <JCHEM_PKA_STRONGEST_BASIC>
7.508324300961132

> <JCHEM_POLAR_SURFACE_AREA>
76.15

> <JCHEM_REFRACTIVITY>
100.56150000000002

> <JCHEM_ROTATABLE_BOND_COUNT>
9

> <JCHEM_RULE_OF_FIVE>
1

> <ALOGPS_SOLUBILITY>
5.91e-01 g/l

> <JCHEM_TRADITIONAL_IUPAC>
remifentanil

> <JCHEM_VEBER_RULE>
0

> <DRUGBANK_ID>
DB00899

> <SECONDARY_ACCESSION_NUMBERS>
APRD01216

> <DRUG_GROUPS>
approved

> <GENERIC_NAME>
Remifentanil

> <SYNONYMS>
Remifentanil; Remifentanilo; Remifentanyl

> <PRODUCTS>
Remifentanil Hydrochloride; Remifentanil Hydrochloride for Injection; Remifentanil for Injection; Ultiva

> <SALTS>
Remifentanil hydrochloride

$$$$
