4636
  -OEChem-10051719263D

 43 44  0     0  0  0  0  0  0999 V2000
   -2.1680   -2.1606    0.0819 O   0  0  0  0  0  0  0  0  0  0  0  0
    3.9454    0.8751    0.0431 N   0  0  0  0  0  0  0  0  0  0  0  0
    2.9022   -1.0410   -0.6435 N   0  0  0  0  0  0  0  0  0  0  0  0
   -3.4522    0.3014   -0.5202 C   0  0  0  0  0  0  0  0  0  0  0  0
   -1.9997    0.2191   -0.0222 C   0  0  0  0  0  0  0  0  0  0  0  0
    0.5967    0.1104    0.8627 C   0  0  0  0  0  0  0  0  0  0  0  0
   -1.4524   -1.0108    0.2455 C   0  0  0  0  0  0  0  0  0  0  0  0
   -0.1331   -1.0664    0.6951 C   0  0  0  0  0  0  0  0  0  0  0  0
    0.0075    1.3427    0.5804 C   0  0  0  0  0  0  0  0  0  0  0  0
   -1.3118    1.3983    0.1309 C   0  0  0  0  0  0  0  0  0  0  0  0
   -3.8391    1.7781   -0.7517 C   0  0  0  0  0  0  0  0  0  0  0  0
   -4.3985   -0.3122    0.5344 C   0  0  0  0  0  0  0  0  0  0  0  0
   -3.7012   -0.4491   -1.8481 C   0  0  0  0  0  0  0  0  0  0  0  0
    2.0114    0.0527    1.3456 C   0  0  0  0  0  0  0  0  0  0  0  0
    2.9732   -0.0563    0.2088 C   0  0  0  0  0  0  0  0  0  0  0  0
    0.4928   -2.3908    0.9969 C   0  0  0  0  0  0  0  0  0  0  0  0
    0.7662    2.6178    0.7540 C   0  0  0  0  0  0  0  0  0  0  0  0
    4.7281    0.5411   -1.1096 C   0  0  0  0  0  0  0  0  0  0  0  0
    4.0325   -0.7495   -1.5842 C   0  0  0  0  0  0  0  0  0  0  0  0
   -1.7075    2.3842   -0.0694 H   0  0  0  0  0  0  0  0  0  0  0  0
   -4.8798    1.8411   -1.0973 H   0  0  0  0  0  0  0  0  0  0  0  0
   -3.8050    2.3748    0.1680 H   0  0  0  0  0  0  0  0  0  0  0  0
   -3.2400    2.2569   -1.5358 H   0  0  0  0  0  0  0  0  0  0  0  0
   -4.2192    0.1226    1.5252 H   0  0  0  0  0  0  0  0  0  0  0  0
   -5.4453   -0.1086    0.2770 H   0  0  0  0  0  0  0  0  0  0  0  0
   -4.3140   -1.3978    0.6296 H   0  0  0  0  0  0  0  0  0  0  0  0
   -4.7232   -0.2842   -2.2095 H   0  0  0  0  0  0  0  0  0  0  0  0
   -3.0131   -0.0974   -2.6260 H   0  0  0  0  0  0  0  0  0  0  0  0
   -3.5682   -1.5312   -1.7640 H   0  0  0  0  0  0  0  0  0  0  0  0
    2.2596    0.9377    1.9426 H   0  0  0  0  0  0  0  0  0  0  0  0
    2.1850   -0.7655    2.0518 H   0  0  0  0  0  0  0  0  0  0  0  0
    0.0994   -2.7768    1.9438 H   0  0  0  0  0  0  0  0  0  0  0  0
    0.2651   -3.1100    0.2010 H   0  0  0  0  0  0  0  0  0  0  0  0
    1.5795   -2.4076    1.0664 H   0  0  0  0  0  0  0  0  0  0  0  0
    1.0049    2.7879    1.8087 H   0  0  0  0  0  0  0  0  0  0  0  0
    1.6840    2.6156    0.1591 H   0  0  0  0  0  0  0  0  0  0  0  0
    0.1837    3.4836    0.4187 H   0  0  0  0  0  0  0  0  0  0  0  0
    5.7736    0.3579   -0.8450 H   0  0  0  0  0  0  0  0  0  0  0  0
    4.6771    1.3258   -1.8700 H   0  0  0  0  0  0  0  0  0  0  0  0
    4.1144    1.6851    0.6264 H   0  0  0  0  0  0  0  0  0  0  0  0
    3.6379   -0.6301   -2.5989 H   0  0  0  0  0  0  0  0  0  0  0  0
    4.7314   -1.5928   -1.5842 H   0  0  0  0  0  0  0  0  0  0  0  0
   -1.7609   -2.8947    0.5676 H   0  0  0  0  0  0  0  0  0  0  0  0
  1  7  1  0  0  0  0
  1 43  1  0  0  0  0
  2 15  1  0  0  0  0
  2 18  1  0  0  0  0
  2 40  1  0  0  0  0
  3 15  2  0  0  0  0
  3 19  1  0  0  0  0
  4  5  1  0  0  0  0
  4 11  1  0  0  0  0
  4 12  1  0  0  0  0
  4 13  1  0  0  0  0
  5  7  2  0  0  0  0
  5 10  1  0  0  0  0
  6  8  2  0  0  0  0
  6  9  1  0  0  0  0
  6 14  1  0  0  0  0
  7  8  1  0  0  0  0
  8 16  1  0  0  0  0
  9 10  2  0  0  0  0
  9 17  1  0  0  0  0
 10 20  1  0  0  0  0
 11 21  1  0  0  0  0
 11 22  1  0  0  0  0
 11 23  1  0  0  0  0
 12 24  1  0  0  0  0
 12 25  1  0  0  0  0
 12 26  1  0  0  0  0
 13 27  1  0  0  0  0
 13 28  1  0  0  0  0
 13 29  1  0  0  0  0
 14 15  1  0  0  0  0
 14 30  1  0  0  0  0
 14 31  1  0  0  0  0
 16 32  1  0  0  0  0
 16 33  1  0  0  0  0
 16 34  1  0  0  0  0
 17 35  1  0  0  0  0
 17 36  1  0  0  0  0
 17 37  1  0  0  0  0
 18 19  1  0  0  0  0
 18 38  1  0  0  0  0
 18 39  1  0  0  0  0
 19 41  1  0  0  0  0
 19 42  1  0  0  0  0
M  END
> <DATABASE_ID>
DB00935

> <DATABASE_NAME>
drugbank

> <ORIGINAL_SOURCE>
PUBCHEM

> <ORIGINAL_SOURCE_URL>
https://pubchem.ncbi.nlm.nih.gov/rest/pug/compound/inchikey/WYWIFABBXFUGLM-UHFFFAOYSA-N/SDF?record_type=3d

> <SMILES>
CC1=CC(=C(O)C(C)=C1CC1=NCCN1)C(C)(C)C

> <INCHI_IDENTIFIER>
InChI=1S/C16H24N2O/c1-10-8-13(16(3,4)5)15(19)11(2)12(10)9-14-17-6-7-18-14/h8,19H,6-7,9H2,1-5H3,(H,17,18)

> <INCHI_KEY>
WYWIFABBXFUGLM-UHFFFAOYSA-N

> <FORMULA>
C16H24N2O

> <MOLECULAR_WEIGHT>
260.3746

> <EXACT_MASS>
260.1888634

> <JCHEM_ACCEPTOR_COUNT>
3

> <JCHEM_AVERAGE_POLARIZABILITY>
30.64030111183132

> <JCHEM_BIOAVAILABILITY>
1

> <JCHEM_DONOR_COUNT>
2

> <JCHEM_FORMAL_CHARGE>
0

> <JCHEM_GHOSE_FILTER>
1

> <JCHEM_IUPAC>
6-tert-butyl-3-(4,5-dihydro-1H-imidazol-2-ylmethyl)-2,4-dimethylphenol

> <ALOGPS_LOGP>
3.70

> <JCHEM_LOGP>
3.032315205208703

> <ALOGPS_LOGS>
-3.70

> <JCHEM_MDDR_LIKE_RULE>
0

> <JCHEM_NUMBER_OF_RINGS>
2

> <JCHEM_PHYSIOLOGICAL_CHARGE>
1

> <JCHEM_PKA_STRONGEST_ACIDIC>
10.906928467098338

> <JCHEM_PKA_STRONGEST_BASIC>
10.149300298695183

> <JCHEM_POLAR_SURFACE_AREA>
44.62

> <JCHEM_REFRACTIVITY>
79.79849999999999

> <JCHEM_ROTATABLE_BOND_COUNT>
3

> <JCHEM_RULE_OF_FIVE>
1

> <ALOGPS_SOLUBILITY>
5.15e-02 g/l

> <JCHEM_TRADITIONAL_IUPAC>
oxymetazoline

> <JCHEM_VEBER_RULE>
0

> <DRUGBANK_ID>
DB00935

> <SECONDARY_ACCESSION_NUMBERS>
APRD01158

> <DRUG_GROUPS>
approved; investigational

> <GENERIC_NAME>
Oxymetazoline

> <SYNONYMS>
2-(4-tert-butyl-2,6-dimethyl-3-hydroxybenzyl)-2-imidazoline; 3-[(4,5-dihydro-1H-imidazol-2-yl)methyl]-6-(1,1-dimethylethyl)-2,4-dimethylphenol; 6-t-butyl-3-(2-imidazolin-2-ylmethyl)-2,4-dimethylphenol; 6-tert-butyl-3-(2-imidazolin-2-ylmethyl)-2,4-dimethylphenol; Oximetazolinum; Oxymetazolina; Oxymetazoline; OxymÃ©tazoline; Oxymetazolinum; Oxymethazoline; Oxymetozoline

> <PRODUCTS>
12 Hour Nasal; 12 Hour Original Nasal Decongestant; 7 Select Nasal; 7 Select Original Nasal; AVON HeXashield Congestion Relief Original; Aesb - Oxymetazoline Hydrochloride Nasal Solution USP, 0.025%; Afrin; Afrin Cold; Afrin No Drip Extra Moisturizing; Afrin No Drip Original Pump Mist; Afrin No Drip Severe Congestion; Afrin No Drip Sinus Pump Mist; Afrin No-Drip Allergy Sinus; Afrin Original; Afrin Original Pump Mist; Afrin Severe Congestion; Afrin Sinus; Anefrin Nasal; Anefrin Nasal Extra Moisturizing; Anefrin Nasal Original; Assured Nasal Relief; Assured Nasal Relief Original; Assured Severe Congestion Nasal Relief; Basic Care Nasal; Basic Care No Drip Nasal; Being Well Nasal 12 Hour; Best Choice; Best Choice Allergy Sinus; Best Choice Maximum Strength; Best Choice Ultra Fine Mist; Breaze Nasal Moisturizing; Breaze Nasal Sinus Colds and Allergies; CVS Health; CVS Health Nasal Mist; CVS Health No Drip; CVS Health Sinus; CVS Health Sinus Relief; CVS Health Ultra Fine Mist; Care One Nasal; Care One Nasal Extra Moisturizing; Care One Nasal Original; Care One Nasal Sinus; CareOne Severe Congestion Nasal; Circle K Congestion Relief; Claritin Allergy Decongestant; Claritin Eye Allergy Relief; Clear Time; Cleartime; Clirol Nasal Spray; Congestion Relief Lil Drug Store Products; Cooling Menthol Nasal Spray; DG Health Clear Time; DG Health Nasal; DG health sinus severe; Decongestant Nasal; Decongestant Nasal Mist Long Lasting; Dg Health Nasal Original; Dg Health Sinus Relief; Discount Drug Mart Maximum Strength Nasal; Discount Drug Mart Original Nasal; Discount Drug Mart Severe Congestion Nasal; Discount Drug Mart Severe Nasal; Discount drug mart Extra Moisturizing; Dristan 12 Hr; Drixoral Decongestant Nasal Spray; Drixoral Nasal Congestion; Drixoral No Drip Cooling Menthol; Drixoral No Drip Extra Moisturizing; Drixoral No Drip Original Unscented; Drixoral No Drip With Calming Chamomile; EQUALINE Oxymetazoline HCl Nasal Decongestant No Drip; Equaline Nasal; Equate Nasal; Equate Nasal Original; Exchange Select Nasal; Extra Moisturizing; Extra Moisturizing Nasal Pump Mist Anti Drip; Extra Moisturizing Nasal Spray; Extra Moisturizing No Drip Nasal Walgreens; Family Care Nasal Relief; FormuCare Nasal Original; Good Neighbor Pharmacy Nasal; Good Neighbor Pharmacy Nasal Extra Moisturizing; Good Sense Nasal; HEB Nasal decongestant No Drip Extra Moisturizing; Health Mart Nasal; Healthy Accents Nasal; Healthy Accents Nasal Original; Kovanaze; Leader Extra Moisturizing Nasal; Leader Nasal; Leader Original Nasal; Leader Severe Congestion Nasal; Long Lasting Decongestant Nasal Spray; Long Lasting Dristan Mentholated Nasal Spray; Long Lasting Dristan Nasal Mist; Long Lasting Nasal Mist; MUCINEX Childrens Stuffy Nose; MUCINEX SINUS-MAX SEVERE CONGESTION RELIEF SINUS and ALLERGY; MUCINEX SINUS-MAX SEVERE NASAL CONGESTION RELIEF CLEAR and COOL NASAL; Major; Marc Glassman Maximum Strength; Max Str.Nasal Relief Severe Congestion; Maximum Strength Nasal Decongestant; Maximum Strenth Nasal; Mucinex Full Force; Mucinex Moisture Smart; Mucinex Nasal Moisture Smart; Mucinex Sinus-Max Full Force; Mucinex Sinus-Max Moisture Smart; Mucinex Sinus-action Congestion & Sinus Nasal Spray; Mucinex Sinus-action Moisture Smart Nasal Spray; Nafrine Pediatric Nasal Spray/drops 0.025%; Nasal; Nasal 12 Hour; Nasal Congestion Spray; Nasal D; Nasal D Original; Nasal Decongestant; Nasal Decongestant Extra Moisturizing; Nasal Decongestant Extra Moisturizing Premier Value; Nasal Decongestant Original; Nasal Decongestant Premier Value; Nasal Decongestant Sinus Premier Value; Nasal Extra Moisturizing; Nasal Mist; Nasal Mist CVS; Nasal Mist Walgreens; Nasal Original; Nasal Relief; Nasal Relief 12-Hour; Nasal Relief Rite Aid; Nasal Sinus; Nasal decongestant; Nasalub Nasal Relief; No Drip; No Drip Nasal Mist; No Drip Nasal Mist Nasal Decongestant Severe Congestion; No Drip Nasal Mist Original; No Drip Original; No Drip Premier Value; No Drip Severe Congestion Premier Value; No Drip Severe Nasal Mist; No More Nosebleed; Nostrilla; ORIGINAL Nasal PUMP MIST No Drip; OXYMETAZOLINE HCl; Ocuclear Oph Dps 0.025%; Original; Original No Drip Nasal; Original No Drip Nasal Walgreens; Original Unscented Nasal Spray; Otrivin Medicated No Drip; Otrivin Medicated Sinus; Oxymetazoline HCl; Oxymetazoline Hydrochloride; Oxymetazoline Hydrochloride 12-Hour; Oxymetazoline Hydrochloride Nasal Spray 0.05%; Oxymetazoline Hydrochloride Nasal Spray 0.05% With Moisturizers; Oxymethazoline HCL; Preferred Plus 12 Hour Nasal Extra Moisturizing; Preferred Plus 12 Hour Nasal Original; Preferred Plus Nasal; Publix; Publix Extra Moisturizing; Publix Maximum Strength; Quality Choice; Quality Choice Maximum Strength; Quality Choice Nasal; Quality Choice Nasal Maximum Strength; Quality Choice Nasal Original; Rexall Sinus Nasal Pump Mist; Rhofade; Rx Act Nasal Extra Moisturizing; Rx Act Nasal Original; Rx Act Nasal Sinus; Sbeb - Oxymetazoline Hydrochloride Nasal Solution USP, 0.05%; Severe Congestion Nasal Anti-Drip Nasal Decongestant; Severe Congestion Nasal no drip Walgreens; ShopRite Nasal; Shopko Extra Moisturizing Nasal; Shopko Original Nasal; Shopko Severe Congestion Nasal; Signature Care Nasal Decongestant; Sinex Complete; Sinex Moisturizing Ultra Fine Mist; Sinex Original Ultra Fine Mist; Sinex Scent Free Ultra Fine Mist; SinuFrin NeilMed; SinuFrin Plus NeilMed; Sinufrin; Sinufrin Plus; Sinus Relief; Sinus relief; Smart Sense Nasal; Smart Sense Nasal Extra Moisturizing; Smart Sense Nasal Original; Smart Sense Pump Mist; Smart Sense pump mist; Smart Sense sinus relief; Sound Body 12 Hour Nasal Original; Sound Body Nasal; Sudafed OM; Sunmark Nasal; Sunmark Nasal Original; Sunmark no drip; Todays Health Nasal Relief Extra Moisturizing; Todays Health Nasal Relief Original; Todays Health Sinus Nasal Relief; Topcare Clear Time; Topcare Nasal; Topcare Sinus Nasal; Topcare Sinus Relief; Topcare Sinus Severe; Ultra Fine Mist Premier Value; Up and Up Nasal Extra Moisturizing; Up and Up nasal; Up and up nasal; Vicks QlearQuil 12 Hour Decongestant Moisturizing; Vicks Sinex 12 Hour; Vicks Sinex 12 Hour Decongestant; Vicks Sinex 12 Hour Decongestant Nasal; Vicks Sinex 12 Hour Decongestant Ultra Fine Mist; Vicks Sinex 12 Hour Decongestant Ultra Fine Mist Moisturizing; Vicks Sinex 12 Hour Nasal Decongestant Ultra Fine Mist Moisturizing; Vicks Sinex 12 Hour Ultra Fine Mist; Vicks Sinex Decongestant Nasal Spray 0.05%; Vicks Sinex Scent Free; Vicks Sinex Severe No Drip; Vicks Sinex Severe Original; Vicks Sinex VapoSpray; Visine L.R.; Visine L.R. Ophthalmic Sol 0.025%; Visine Workplace; Walgreens 12-Hour Sinus Relief; Walgreens Anefrin Severe Congestion Nasal; Walgreens Extra Moisturizing Anefrin Nasal; Walgreens Original Anefrin Nasal; WinCo Foods Extra Moisturizing Nasal Relief; WinCo Foods Original Nasal; WinCo Foods Severe Congestion Nasal Relief; Ydyb - Oxymetazoline Hydrochloride Nasal Solution USP, 0.025%; Zicam; Zicam Congestion Relief; Zicam Sinus Relief

> <INTERNATIONAL_BRANDS>
Dristan 12-Hour; Duramist Plus; Genasal Nasal Spray Up to 12 Hour Relief; Iliadin; Neo-Synephrine 12 Hour Spray; Nezeril; Nostrilla 12 Hour Nasal Decongestant; OcuClear; Vicks Sinex 12 Hour Nasal Spray; Vicks Sinex 12 Hour Ultra Fine Mist for Sinus Relief

> <SALTS>
Oxymetazoline hydrochloride

$$$$
