6957673
  -OEChem-10051719173D

 50 52  0     1  0  0  0  0  0999 V2000
   -0.2497   -0.7643   -0.8228 O   0  0  0  0  0  0  0  0  0  0  0  0
    3.3119   -1.8942    2.0586 O   0  0  0  0  0  0  0  0  0  0  0  0
    0.9599    5.2029   -1.3520 O   0  0  0  0  0  0  0  0  0  0  0  0
   -6.8643   -0.9630   -2.2361 O   0  0  0  0  0  0  0  0  0  0  0  0
   -7.8523   -0.9355   -0.1893 O   0  0  0  0  0  0  0  0  0  0  0  0
    2.0109   -0.7934    0.4858 N   0  0  0  0  0  0  0  0  0  0  0  0
   -1.5577   -0.7024    1.1246 N   0  0  0  0  0  0  0  0  0  0  0  0
    0.8469   -0.6204    1.3207 C   0  0  1  0  0  0  0  0  0  0  0  0
    0.9164    0.7164    2.0684 C   0  0  0  0  0  0  0  0  0  0  0  0
    0.9279    1.9162    1.1534 C   0  0  0  0  0  0  0  0  0  0  0  0
   -0.3713   -0.6862    0.3968 C   0  0  0  0  0  0  0  0  0  0  0  0
   -0.2737    2.4977    0.7800 C   0  0  0  0  0  0  0  0  0  0  0  0
    2.1396    2.4156    0.7028 C   0  0  0  0  0  0  0  0  0  0  0  0
    3.1616   -1.4253    0.9334 C   0  0  0  0  0  0  0  0  0  0  0  0
   -2.8790   -0.7590    0.6224 C   0  0  0  0  0  0  0  0  0  0  0  0
   -0.2631    3.6069   -0.0656 C   0  0  0  0  0  0  0  0  0  0  0  0
    2.1503    3.5248   -0.1428 C   0  0  0  0  0  0  0  0  0  0  0  0
    4.2820   -1.4999   -0.0393 C   0  0  0  0  0  0  0  0  0  0  0  0
    0.9489    4.1205   -0.5272 C   0  0  0  0  0  0  0  0  0  0  0  0
   -3.9418   -0.7665    1.5110 C   0  0  0  0  0  0  0  0  0  0  0  0
   -3.0829   -0.8046   -0.7470 C   0  0  0  0  0  0  0  0  0  0  0  0
    5.1905   -2.5324    0.0690 C   0  0  0  0  0  0  0  0  0  0  0  0
    4.3779   -0.5346   -1.0202 C   0  0  0  0  0  0  0  0  0  0  0  0
   -5.2448   -0.8215    1.0163 C   0  0  0  0  0  0  0  0  0  0  0  0
   -4.3859   -0.8594   -1.2415 C   0  0  0  0  0  0  0  0  0  0  0  0
   -5.4669   -0.8678   -0.3599 C   0  0  0  0  0  0  0  0  0  0  0  0
    6.2423   -2.6026   -0.8444 C   0  0  0  0  0  0  0  0  0  0  0  0
    5.4299   -0.6050   -1.9336 C   0  0  0  0  0  0  0  0  0  0  0  0
    6.3620   -1.6390   -1.8457 C   0  0  0  0  0  0  0  0  0  0  0  0
   -6.8254   -0.9240   -0.8759 C   0  0  0  0  0  0  0  0  0  0  0  0
    0.7934   -1.4481    2.0378 H   0  0  0  0  0  0  0  0  0  0  0  0
    1.8148    0.7403    2.7001 H   0  0  0  0  0  0  0  0  0  0  0  0
    0.0752    0.8094    2.7673 H   0  0  0  0  0  0  0  0  0  0  0  0
    1.9434   -0.4697   -0.4735 H   0  0  0  0  0  0  0  0  0  0  0  0
   -1.2244    2.1197    1.1426 H   0  0  0  0  0  0  0  0  0  0  0  0
    3.0816    1.9640    0.9998 H   0  0  0  0  0  0  0  0  0  0  0  0
   -1.4861   -0.6744    2.1392 H   0  0  0  0  0  0  0  0  0  0  0  0
   -1.2058    4.0637   -0.3550 H   0  0  0  0  0  0  0  0  0  0  0  0
    3.0978    3.9208   -0.4982 H   0  0  0  0  0  0  0  0  0  0  0  0
   -3.7796   -0.7301    2.5846 H   0  0  0  0  0  0  0  0  0  0  0  0
   -2.3008   -0.7967   -1.4915 H   0  0  0  0  0  0  0  0  0  0  0  0
    5.1079   -3.2930    0.8395 H   0  0  0  0  0  0  0  0  0  0  0  0
    3.6951    0.3036   -1.1050 H   0  0  0  0  0  0  0  0  0  0  0  0
   -6.0734   -0.8270    1.7198 H   0  0  0  0  0  0  0  0  0  0  0  0
   -4.5149   -0.8929   -2.3199 H   0  0  0  0  0  0  0  0  0  0  0  0
    6.9677   -3.4081   -0.7767 H   0  0  0  0  0  0  0  0  0  0  0  0
    5.5279    0.1494   -2.7089 H   0  0  0  0  0  0  0  0  0  0  0  0
    7.1819   -1.6929   -2.5559 H   0  0  0  0  0  0  0  0  0  0  0  0
    0.0431    5.4848   -1.5140 H   0  0  0  0  0  0  0  0  0  0  0  0
   -7.7845   -1.0002   -2.5739 H   0  0  0  0  0  0  0  0  0  0  0  0
  1 11  2  0  0  0  0
  2 14  2  0  0  0  0
  3 19  1  0  0  0  0
  3 49  1  0  0  0  0
  4 30  1  0  0  0  0
  4 50  1  0  0  0  0
  5 30  2  0  0  0  0
  6  8  1  0  0  0  0
  6 14  1  0  0  0  0
  6 34  1  0  0  0  0
  7 11  1  0  0  0  0
  7 15  1  0  0  0  0
  7 37  1  0  0  0  0
  8  9  1  0  0  0  0
  8 11  1  0  0  0  0
  8 31  1  0  0  0  0
  9 10  1  0  0  0  0
  9 32  1  0  0  0  0
  9 33  1  0  0  0  0
 10 12  2  0  0  0  0
 10 13  1  0  0  0  0
 12 16  1  0  0  0  0
 12 35  1  0  0  0  0
 13 17  2  0  0  0  0
 13 36  1  0  0  0  0
 14 18  1  0  0  0  0
 15 20  2  0  0  0  0
 15 21  1  0  0  0  0
 16 19  2  0  0  0  0
 16 38  1  0  0  0  0
 17 19  1  0  0  0  0
 17 39  1  0  0  0  0
 18 22  2  0  0  0  0
 18 23  1  0  0  0  0
 20 24  1  0  0  0  0
 20 40  1  0  0  0  0
 21 25  2  0  0  0  0
 21 41  1  0  0  0  0
 22 27  1  0  0  0  0
 22 42  1  0  0  0  0
 23 28  2  0  0  0  0
 23 43  1  0  0  0  0
 24 26  2  0  0  0  0
 24 44  1  0  0  0  0
 25 26  1  0  0  0  0
 25 45  1  0  0  0  0
 26 30  1  0  0  0  0
 27 29  2  0  0  0  0
 27 46  1  0  0  0  0
 28 29  1  0  0  0  0
 28 47  1  0  0  0  0
 29 48  1  0  0  0  0
M  END
> <DATABASE_ID>
DB00522

> <DATABASE_NAME>
drugbank

> <ORIGINAL_SOURCE>
PUBCHEM

> <ORIGINAL_SOURCE_URL>
https://pubchem.ncbi.nlm.nih.gov/rest/pug/compound/inchikey/SPPTWHFVYKCNNK-FQEVSTJZSA-N/SDF?record_type=3d

> <SMILES>
OC(=O)C1=CC=C(NC(=O)[C@H](CC2=CC=C(O)C=C2)NC(=O)C2=CC=CC=C2)C=C1

> <INCHI_IDENTIFIER>
InChI=1S/C23H20N2O5/c26-19-12-6-15(7-13-19)14-20(25-21(27)16-4-2-1-3-5-16)22(28)24-18-10-8-17(9-11-18)23(29)30/h1-13,20,26H,14H2,(H,24,28)(H,25,27)(H,29,30)/t20-/m0/s1

> <INCHI_KEY>
SPPTWHFVYKCNNK-FQEVSTJZSA-N

> <FORMULA>
C23H20N2O5

> <MOLECULAR_WEIGHT>
404.4153

> <EXACT_MASS>
404.13722176

> <JCHEM_ACCEPTOR_COUNT>
5

> <JCHEM_AVERAGE_POLARIZABILITY>
42.16284740225868

> <JCHEM_BIOAVAILABILITY>
1

> <JCHEM_DONOR_COUNT>
4

> <JCHEM_FORMAL_CHARGE>
0

> <JCHEM_GHOSE_FILTER>
1

> <JCHEM_IUPAC>
4-[(2S)-3-(4-hydroxyphenyl)-2-(phenylformamido)propanamido]benzoic acid

> <ALOGPS_LOGP>
2.99

> <JCHEM_LOGP>
3.5389555783333333

> <ALOGPS_LOGS>
-4.99

> <JCHEM_MDDR_LIKE_RULE>
1

> <JCHEM_NUMBER_OF_RINGS>
3

> <JCHEM_PHYSIOLOGICAL_CHARGE>
-1

> <JCHEM_PKA>
9.503912519104427

> <JCHEM_PKA_STRONGEST_ACIDIC>
4.157471380782726

> <JCHEM_PKA_STRONGEST_BASIC>
-1.3006283420418332

> <JCHEM_POLAR_SURFACE_AREA>
115.73000000000002

> <JCHEM_REFRACTIVITY>
112.745

> <JCHEM_ROTATABLE_BOND_COUNT>
7

> <JCHEM_RULE_OF_FIVE>
1

> <ALOGPS_SOLUBILITY>
4.12e-03 g/l

> <JCHEM_TRADITIONAL_IUPAC>
bentiromide

> <JCHEM_VEBER_RULE>
0

> <DRUGBANK_ID>
DB00522

> <SECONDARY_ACCESSION_NUMBERS>
APRD00818

> <DRUG_GROUPS>
investigational; withdrawn

> <GENERIC_NAME>
Bentiromide

> <SYNONYMS>
Bentiromide; Bentiromido; Bentiromidum; BTPABA; PFT

> <INTERNATIONAL_BRANDS>
PFD

$$$$
