7741
  -OEChem-10051719113D

 17 17  0     0  0  0  0  0  0999 V2000
    0.9785    1.0204   -0.1396 N   0  0  0  0  0  0  0  0  0  0  0  0
   -3.5216    0.0561    0.1403 N   0  0  0  0  0  0  0  0  0  0  0  0
    2.2529    0.7724    0.2078 N   0  0  0  0  0  0  0  0  0  0  0  0
   -1.1987   -0.0463   -0.6801 C   0  0  0  0  0  0  0  0  0  0  0  0
    0.2499   -0.1046   -0.2939 C   0  0  0  0  0  0  0  0  0  0  0  0
   -2.1191    0.0236    0.5410 C   0  0  0  0  0  0  0  0  0  0  0  0
    1.0610   -1.1602   -0.0417 C   0  0  0  0  0  0  0  0  0  0  0  0
    2.2972   -0.5613    0.2662 C   0  0  0  0  0  0  0  0  0  0  0  0
   -1.3695    0.8219   -1.3301 H   0  0  0  0  0  0  0  0  0  0  0  0
   -1.4396   -0.9352   -1.2778 H   0  0  0  0  0  0  0  0  0  0  0  0
   -1.8975    0.9169    1.1361 H   0  0  0  0  0  0  0  0  0  0  0  0
   -1.9559   -0.8421    1.1931 H   0  0  0  0  0  0  0  0  0  0  0  0
    0.8135   -2.2110   -0.0703 H   0  0  0  0  0  0  0  0  0  0  0  0
    0.6891    1.9848   -0.2488 H   0  0  0  0  0  0  0  0  0  0  0  0
    3.2286   -1.0412    0.5308 H   0  0  0  0  0  0  0  0  0  0  0  0
   -3.7360   -0.7697   -0.4176 H   0  0  0  0  0  0  0  0  0  0  0  0
   -3.6828    0.8554   -0.4716 H   0  0  0  0  0  0  0  0  0  0  0  0
  1  3  1  0  0  0  0
  1  5  1  0  0  0  0
  1 14  1  0  0  0  0
  2  6  1  0  0  0  0
  2 16  1  0  0  0  0
  2 17  1  0  0  0  0
  3  8  2  0  0  0  0
  4  5  1  0  0  0  0
  4  6  1  0  0  0  0
  4  9  1  0  0  0  0
  4 10  1  0  0  0  0
  5  7  2  0  0  0  0
  6 11  1  0  0  0  0
  6 12  1  0  0  0  0
  7  8  1  0  0  0  0
  7 13  1  0  0  0  0
  8 15  1  0  0  0  0
M  END
> <DATABASE_ID>
DB00272

> <DATABASE_NAME>
drugbank

> <ORIGINAL_SOURCE>
PUBCHEM

> <ORIGINAL_SOURCE_URL>
https://pubchem.ncbi.nlm.nih.gov/rest/pug/compound/inchikey/JXDFEQONERDKSS-UHFFFAOYSA-N/SDF?record_type=3d

> <SMILES>
NCCC1=CC=NN1

> <INCHI_IDENTIFIER>
InChI=1S/C5H9N3/c6-3-1-5-2-4-7-8-5/h2,4H,1,3,6H2,(H,7,8)

> <INCHI_KEY>
JXDFEQONERDKSS-UHFFFAOYSA-N

> <FORMULA>
C5H9N3

> <MOLECULAR_WEIGHT>
111.1451

> <EXACT_MASS>
111.079647303

> <JCHEM_ACCEPTOR_COUNT>
2

> <JCHEM_AVERAGE_POLARIZABILITY>
11.96052701481223

> <JCHEM_BIOAVAILABILITY>
1

> <JCHEM_DONOR_COUNT>
2

> <JCHEM_FORMAL_CHARGE>
0

> <JCHEM_GHOSE_FILTER>
0

> <JCHEM_IUPAC>
2-(1H-pyrazol-5-yl)ethan-1-amine

> <ALOGPS_LOGP>
-0.64

> <JCHEM_LOGP>
-0.6168408933333334

> <ALOGPS_LOGS>
0.15

> <JCHEM_MDDR_LIKE_RULE>
0

> <JCHEM_NUMBER_OF_RINGS>
1

> <JCHEM_PHYSIOLOGICAL_CHARGE>
1

> <JCHEM_PKA_STRONGEST_ACIDIC>
14.517150194841271

> <JCHEM_PKA_STRONGEST_BASIC>
9.794893123882412

> <JCHEM_POLAR_SURFACE_AREA>
54.7

> <JCHEM_REFRACTIVITY>
32.9617

> <JCHEM_ROTATABLE_BOND_COUNT>
2

> <JCHEM_RULE_OF_FIVE>
1

> <ALOGPS_SOLUBILITY>
1.56e+02 g/l

> <JCHEM_TRADITIONAL_IUPAC>
histalog

> <JCHEM_VEBER_RULE>
0

> <DRUGBANK_ID>
DB00272

> <SECONDARY_ACCESSION_NUMBERS>
APRD00714

> <DRUG_GROUPS>
approved

> <GENERIC_NAME>
Betazole

> <SYNONYMS>
1H-pyrazole-3-ethanamine; 2-(1H-pyrazol-5-yl)ethanamine; 2-(3-pyrazolyl)ethylamine; 3-(2-aminoethyl)pyrazole; 3-(beta-aminoethyl)pyrazole; 3-(Î²-aminoethyl)pyrazole; Ametazole; Betazol; Betazole; Betazolum

> <INTERNATIONAL_BRANDS>
Gastramine; Histalog

> <SALTS>
Betazole hydrochloride

$$$$
