3878
  -OEChem-10051719183D

 23 24  0     0  0  0  0  0  0999 V2000
   -1.0017    2.2965   -0.1127 Cl  0  0  0  0  0  0  0  0  0  0  0  0
   -4.1511    1.7166   -0.0594 Cl  0  0  0  0  0  0  0  0  0  0  0  0
    1.2737   -0.0193    1.3300 N   0  0  0  0  0  0  0  0  0  0  0  0
    2.8011   -0.0380   -0.9795 N   0  0  0  0  0  0  0  0  0  0  0  0
    0.8518   -0.4162   -2.2701 N   0  0  0  0  0  0  0  0  0  0  0  0
    2.6087    0.1627    1.4011 N   0  0  0  0  0  0  0  0  0  0  0  0
    4.7019    0.3371    0.3458 N   0  0  0  0  0  0  0  0  0  0  0  0
   -0.7220   -0.3938    0.1420 C   0  0  0  0  0  0  0  0  0  0  0  0
    0.7176   -0.2067    0.1234 C   0  0  0  0  0  0  0  0  0  0  0  0
   -1.6123    0.6751    0.0405 C   0  0  0  0  0  0  0  0  0  0  0  0
   -1.2065   -1.6959    0.2661 C   0  0  0  0  0  0  0  0  0  0  0  0
    1.4719   -0.2158   -1.0158 C   0  0  0  0  0  0  0  0  0  0  0  0
   -2.9875    0.4419    0.0632 C   0  0  0  0  0  0  0  0  0  0  0  0
   -2.5814   -1.9291    0.2888 C   0  0  0  0  0  0  0  0  0  0  0  0
   -3.4719   -0.8603    0.1875 C   0  0  0  0  0  0  0  0  0  0  0  0
    3.3076    0.1451    0.2490 C   0  0  0  0  0  0  0  0  0  0  0  0
   -0.5283   -2.5423    0.3467 H   0  0  0  0  0  0  0  0  0  0  0  0
   -2.9587   -2.9430    0.3855 H   0  0  0  0  0  0  0  0  0  0  0  0
   -4.5402   -1.0612    0.2068 H   0  0  0  0  0  0  0  0  0  0  0  0
    1.4591   -0.4197   -3.0806 H   0  0  0  0  0  0  0  0  0  0  0  0
   -0.1007   -0.0995   -2.4011 H   0  0  0  0  0  0  0  0  0  0  0  0
    5.1228    0.4782    1.2537 H   0  0  0  0  0  0  0  0  0  0  0  0
    5.2642    0.3309   -0.4940 H   0  0  0  0  0  0  0  0  0  0  0  0
  1 10  1  0  0  0  0
  2 13  1  0  0  0  0
  3  6  2  0  0  0  0
  3  9  1  0  0  0  0
  4 12  1  0  0  0  0
  4 16  2  0  0  0  0
  5 12  1  0  0  0  0
  5 20  1  0  0  0  0
  5 21  1  0  0  0  0
  6 16  1  0  0  0  0
  7 16  1  0  0  0  0
  7 22  1  0  0  0  0
  7 23  1  0  0  0  0
  8  9  1  0  0  0  0
  8 10  2  0  0  0  0
  8 11  1  0  0  0  0
  9 12  2  0  0  0  0
 10 13  1  0  0  0  0
 11 14  2  0  0  0  0
 11 17  1  0  0  0  0
 13 15  2  0  0  0  0
 14 15  1  0  0  0  0
 14 18  1  0  0  0  0
 15 19  1  0  0  0  0
M  END
> <DATABASE_ID>
DB00555

> <DATABASE_NAME>
drugbank

> <ORIGINAL_SOURCE>
PUBCHEM

> <ORIGINAL_SOURCE_URL>
https://pubchem.ncbi.nlm.nih.gov/rest/pug/compound/inchikey/PYZRQGJRPPTADH-UHFFFAOYSA-N/SDF?record_type=3d

> <SMILES>
NC1=NC(N)=C(N=N1)C1=C(Cl)C(Cl)=CC=C1

> <INCHI_IDENTIFIER>
InChI=1S/C9H7Cl2N5/c10-5-3-1-2-4(6(5)11)7-8(12)14-9(13)16-15-7/h1-3H,(H4,12,13,14,16)

> <INCHI_KEY>
PYZRQGJRPPTADH-UHFFFAOYSA-N

> <FORMULA>
C9H7Cl2N5

> <MOLECULAR_WEIGHT>
256.091

> <EXACT_MASS>
255.007850663

> <JCHEM_ACCEPTOR_COUNT>
5

> <JCHEM_AVERAGE_POLARIZABILITY>
23.10429797036266

> <JCHEM_BIOAVAILABILITY>
1

> <JCHEM_DONOR_COUNT>
2

> <JCHEM_FORMAL_CHARGE>
0

> <JCHEM_GHOSE_FILTER>
1

> <JCHEM_IUPAC>
6-(2,3-dichlorophenyl)-1,2,4-triazine-3,5-diamine

> <ALOGPS_LOGP>
1.87

> <JCHEM_LOGP>
1.9265221886666666

> <ALOGPS_LOGS>
-2.72

> <JCHEM_MDDR_LIKE_RULE>
0

> <JCHEM_NUMBER_OF_RINGS>
2

> <JCHEM_PHYSIOLOGICAL_CHARGE>
0

> <JCHEM_PKA>
19.21539181005468

> <JCHEM_PKA_STRONGEST_ACIDIC>
14.97924095981977

> <JCHEM_PKA_STRONGEST_BASIC>
5.874296269611684

> <JCHEM_POLAR_SURFACE_AREA>
90.71

> <JCHEM_REFRACTIVITY>
66.61970000000002

> <JCHEM_ROTATABLE_BOND_COUNT>
1

> <JCHEM_RULE_OF_FIVE>
1

> <ALOGPS_SOLUBILITY>
4.88e-01 g/l

> <JCHEM_TRADITIONAL_IUPAC>
lamotrigine

> <JCHEM_VEBER_RULE>
0

> <DRUGBANK_ID>
DB00555

> <SECONDARY_ACCESSION_NUMBERS>
APRD00570

> <DRUG_GROUPS>
approved; investigational

> <GENERIC_NAME>
Lamotrigine

> <SYNONYMS>
3,5-diamino-6-(2,3-dichlorophenyl)-1,2,4-triazine; Lamotrigina; Lamotrigine; Lamotriginum

> <PRODUCTS>
Apo-lamotrigine; Auro-lamotrigine; Dom-lamotrigine; LAMOTRIGINE Kit; Lamictal; Lamictal - Tab 200mg; Lamictal ODT; Lamictal XR; Lamotrigine; Lamotrigine Extended Release; Lamotrigine-100; Lamotrigine-150; Lamotrigine-25; Mylan-lamotrigine; Nu-lamotrigine; PHL-lamotrigine; PMS-lamotrigine; Ratio-lamotrigine; Subvenite; Teva-lamotrigine

> <INTERNATIONAL_BRANDS>
Convulsan; Crisomet; Dafex; Daksol; Danoptin; Dezepil; Elmendos; Epilepax; Epimil; Epiral; Epitec; Epitrigine; Labileno; Lambipol; Lamect; Lameptil; Lameptil S; Lametec; Lamez; Lamictal CD; Lamictin; Lamotrix; Larig; Medotrigin; Mogine; Trimolep; Trogine; Xebarin

$$$$
