4725
  -OEChem-10051719123D

 33 34  0     0  0  0  0  0  0999 V2000
    5.0298    1.5832    1.0057 O   0  0  0  0  0  0  0  0  0  0  0  0
    4.4367   -1.4351   -1.7837 O   0  0  0  0  0  0  0  0  0  0  0  0
   -4.5678   -1.0452   -0.4437 O   0  0  0  0  0  0  0  0  0  0  0  0
   -0.2100   -0.8482    0.6788 N   0  0  0  0  0  0  0  0  0  0  0  0
   -1.2712    1.2598    0.1065 N   0  0  0  0  0  0  0  0  0  0  0  0
   -1.9778   -2.1762    0.3969 N   0  0  0  0  0  0  0  0  0  0  0  0
   -3.5917    1.0567   -0.4774 N   0  0  0  0  0  0  0  0  0  0  0  0
   -2.4863    3.1384   -0.4736 N   0  0  0  0  0  0  0  0  0  0  0  0
    3.5754   -0.1212    0.0756 C   0  0  0  0  0  0  0  0  0  0  0  0
    2.0959   -0.4598   -0.2284 C   0  0  0  0  0  0  0  0  0  0  0  0
    1.1579   -0.4454    0.9847 C   0  0  0  0  0  0  0  0  0  0  0  0
    3.6688    1.2593    0.7491 C   0  0  0  0  0  0  0  0  0  0  0  0
    4.4660   -0.1519   -1.1745 C   0  0  0  0  0  0  0  0  0  0  0  0
   -1.2301   -0.0608    0.3010 C   0  0  0  0  0  0  0  0  0  0  0  0
   -2.3093   -0.8778    0.1297 C   0  0  0  0  0  0  0  0  0  0  0  0
   -0.6981   -2.1244    0.7266 C   0  0  0  0  0  0  0  0  0  0  0  0
   -3.5861   -0.3302   -0.2831 C   0  0  0  0  0  0  0  0  0  0  0  0
   -2.5021    1.7789   -0.2902 C   0  0  0  0  0  0  0  0  0  0  0  0
    3.9591   -0.8816    0.7690 H   0  0  0  0  0  0  0  0  0  0  0  0
    2.0490   -1.4531   -0.6932 H   0  0  0  0  0  0  0  0  0  0  0  0
    1.7131    0.2410   -0.9824 H   0  0  0  0  0  0  0  0  0  0  0  0
    1.0942    0.5509    1.4335 H   0  0  0  0  0  0  0  0  0  0  0  0
    1.5259   -1.1297    1.7583 H   0  0  0  0  0  0  0  0  0  0  0  0
    3.2503    2.0414    0.1074 H   0  0  0  0  0  0  0  0  0  0  0  0
    3.1449    1.2839    1.7084 H   0  0  0  0  0  0  0  0  0  0  0  0
    5.5086    0.0670   -0.9237 H   0  0  0  0  0  0  0  0  0  0  0  0
    4.1246    0.5846   -1.9101 H   0  0  0  0  0  0  0  0  0  0  0  0
   -0.0874   -2.9731    1.0032 H   0  0  0  0  0  0  0  0  0  0  0  0
   -0.4697    1.8701    0.2286 H   0  0  0  0  0  0  0  0  0  0  0  0
    5.3892    0.8934    1.5894 H   0  0  0  0  0  0  0  0  0  0  0  0
    5.0089   -1.3922   -2.5688 H   0  0  0  0  0  0  0  0  0  0  0  0
   -1.6430    3.6824   -0.3273 H   0  0  0  0  0  0  0  0  0  0  0  0
   -3.3198    3.6386   -0.7629 H   0  0  0  0  0  0  0  0  0  0  0  0
  1 12  1  0  0  0  0
  1 30  1  0  0  0  0
  2 13  1  0  0  0  0
  2 31  1  0  0  0  0
  3 17  2  0  0  0  0
  4 11  1  0  0  0  0
  4 14  1  0  0  0  0
  4 16  1  0  0  0  0
  5 14  1  0  0  0  0
  5 18  1  0  0  0  0
  5 29  1  0  0  0  0
  6 15  1  0  0  0  0
  6 16  2  0  0  0  0
  7 17  1  0  0  0  0
  7 18  2  0  0  0  0
  8 18  1  0  0  0  0
  8 32  1  0  0  0  0
  8 33  1  0  0  0  0
  9 10  1  0  0  0  0
  9 12  1  0  0  0  0
  9 13  1  0  0  0  0
  9 19  1  0  0  0  0
 10 11  1  0  0  0  0
 10 20  1  0  0  0  0
 10 21  1  0  0  0  0
 11 22  1  0  0  0  0
 11 23  1  0  0  0  0
 12 24  1  0  0  0  0
 12 25  1  0  0  0  0
 13 26  1  0  0  0  0
 13 27  1  0  0  0  0
 14 15  2  0  0  0  0
 15 17  1  0  0  0  0
 16 28  1  0  0  0  0
M  END
> <DATABASE_ID>
DB00299

> <DATABASE_NAME>
drugbank

> <ORIGINAL_SOURCE>
PUBCHEM

> <ORIGINAL_SOURCE_URL>
https://pubchem.ncbi.nlm.nih.gov/rest/pug/compound/inchikey/JNTOCHDNEULJHD-UHFFFAOYSA-N/SDF?record_type=3d

> <SMILES>
NC1=NC(=O)C2=C(N1)N(CCC(CO)CO)C=N2

> <INCHI_IDENTIFIER>
InChI=1S/C10H15N5O3/c11-10-13-8-7(9(18)14-10)12-5-15(8)2-1-6(3-16)4-17/h5-6,16-17H,1-4H2,(H3,11,13,14,18)

> <INCHI_KEY>
JNTOCHDNEULJHD-UHFFFAOYSA-N

> <FORMULA>
C10H15N5O3

> <MOLECULAR_WEIGHT>
253.2578

> <EXACT_MASS>
253.117489371

> <JCHEM_ACCEPTOR_COUNT>
7

> <JCHEM_AVERAGE_POLARIZABILITY>
25.106083786739198

> <JCHEM_BIOAVAILABILITY>
1

> <JCHEM_DONOR_COUNT>
4

> <JCHEM_FORMAL_CHARGE>
0

> <JCHEM_GHOSE_FILTER>
0

> <JCHEM_IUPAC>
2-amino-9-[4-hydroxy-3-(hydroxymethyl)butyl]-6,9-dihydro-3H-purin-6-one

> <ALOGPS_LOGP>
-0.86

> <JCHEM_LOGP>
-1.5479088533333338

> <ALOGPS_LOGS>
-1.53

> <JCHEM_MDDR_LIKE_RULE>
0

> <JCHEM_NUMBER_OF_RINGS>
2

> <JCHEM_PHYSIOLOGICAL_CHARGE>
0

> <JCHEM_PKA>
15.095575891007815

> <JCHEM_PKA_STRONGEST_ACIDIC>
8.010394283090589

> <JCHEM_PKA_STRONGEST_BASIC>
2.835791198749247

> <JCHEM_POLAR_SURFACE_AREA>
125.75999999999999

> <JCHEM_REFRACTIVITY>
64.59190000000001

> <JCHEM_ROTATABLE_BOND_COUNT>
5

> <JCHEM_RULE_OF_FIVE>
1

> <ALOGPS_SOLUBILITY>
7.45e+00 g/l

> <JCHEM_TRADITIONAL_IUPAC>
denavir

> <JCHEM_VEBER_RULE>
0

> <DRUGBANK_ID>
DB00299

> <SECONDARY_ACCESSION_NUMBERS>
APRD00041; DB01730

> <DRUG_GROUPS>
approved

> <GENERIC_NAME>
Penciclovir

> <SYNONYMS>
9-(4-hydroxy-3-(hydroxymethyl)butyl)guanine; 9-(4-hydroxy-3-hydroxymethylbut-1-yl)-guanine; 9-[2-hydroxy-1-(hydroxymethyl)-ethoxymethyl]guanine; 9-[4-hydroxy-3-(hydroxymethyl)but-1-yl]guanine; PCV; PE2; Penciclovir; Penciclovirum

> <PRODUCTS>
Denavir; Penciclovir

> <SALTS>
Penciclovir sodium

$$$$
