89594
  -OEChem-10051719093D

 26 27  0     1  0  0  0  0  0999 V2000
   -1.7023   -0.7962   -0.0339 N   0  0  1  0  0  0  0  0  0  0  0  0
    2.2968   -0.7091    1.2171 N   0  0  0  0  0  0  0  0  0  0  0  0
   -0.8846    0.3095   -0.5713 C   0  0  1  0  0  0  0  0  0  0  0  0
   -1.4955    1.5824    0.0436 C   0  0  0  0  0  0  0  0  0  0  0  0
   -2.6857    1.0984    0.8596 C   0  0  0  0  0  0  0  0  0  0  0  0
   -3.0281   -0.2382    0.2329 C   0  0  0  0  0  0  0  0  0  0  0  0
    0.5872    0.1544   -0.2513 C   0  0  0  0  0  0  0  0  0  0  0  0
   -1.7618   -1.9503   -0.9217 C   0  0  0  0  0  0  0  0  0  0  0  0
    1.5569    0.7025   -1.0791 C   0  0  0  0  0  0  0  0  0  0  0  0
    1.0008   -0.5357    0.8738 C   0  0  0  0  0  0  0  0  0  0  0  0
    2.9009    0.5451   -0.7593 C   0  0  0  0  0  0  0  0  0  0  0  0
    3.2156   -0.1627    0.3895 C   0  0  0  0  0  0  0  0  0  0  0  0
   -1.0084    0.3665   -1.6624 H   0  0  0  0  0  0  0  0  0  0  0  0
   -1.8454    2.2456   -0.7571 H   0  0  0  0  0  0  0  0  0  0  0  0
   -0.8018    2.1528    0.6709 H   0  0  0  0  0  0  0  0  0  0  0  0
   -2.3896    0.9650    1.9076 H   0  0  0  0  0  0  0  0  0  0  0  0
   -3.5220    1.8029    0.8293 H   0  0  0  0  0  0  0  0  0  0  0  0
   -3.6094   -0.8662    0.9151 H   0  0  0  0  0  0  0  0  0  0  0  0
   -3.6021   -0.0880   -0.6903 H   0  0  0  0  0  0  0  0  0  0  0  0
   -2.3643   -2.7460   -0.4698 H   0  0  0  0  0  0  0  0  0  0  0  0
   -0.7627   -2.3668   -1.0885 H   0  0  0  0  0  0  0  0  0  0  0  0
   -2.1975   -1.7036   -1.8965 H   0  0  0  0  0  0  0  0  0  0  0  0
    1.2798    1.2544   -1.9728 H   0  0  0  0  0  0  0  0  0  0  0  0
    0.3027   -0.9778    1.5770 H   0  0  0  0  0  0  0  0  0  0  0  0
    3.6775    0.9638   -1.3890 H   0  0  0  0  0  0  0  0  0  0  0  0
    4.2491   -0.3134    0.6833 H   0  0  0  0  0  0  0  0  0  0  0  0
  1  3  1  0  0  0  0
  1  6  1  0  0  0  0
  1  8  1  0  0  0  0
  2 10  1  0  0  0  0
  2 12  2  0  0  0  0
  3  4  1  0  0  0  0
  3  7  1  0  0  0  0
  3 13  1  0  0  0  0
  4  5  1  0  0  0  0
  4 14  1  0  0  0  0
  4 15  1  0  0  0  0
  5  6  1  0  0  0  0
  5 16  1  0  0  0  0
  5 17  1  0  0  0  0
  6 18  1  0  0  0  0
  6 19  1  0  0  0  0
  7  9  1  0  0  0  0
  7 10  2  0  0  0  0
  8 20  1  0  0  0  0
  8 21  1  0  0  0  0
  8 22  1  0  0  0  0
  9 11  2  0  0  0  0
  9 23  1  0  0  0  0
 10 24  1  0  0  0  0
 11 12  1  0  0  0  0
 11 25  1  0  0  0  0
 12 26  1  0  0  0  0
M  END
> <DATABASE_ID>
DB00184

> <DATABASE_NAME>
drugbank

> <ORIGINAL_SOURCE>
PUBCHEM

> <ORIGINAL_SOURCE_URL>
https://pubchem.ncbi.nlm.nih.gov/rest/pug/compound/inchikey/SNICXCGAKADSCV-JTQLQIEISA-N/SDF?record_type=3d

> <SMILES>
CN1CCC[C@H]1C1=CN=CC=C1

> <INCHI_IDENTIFIER>
InChI=1S/C10H14N2/c1-12-7-3-5-10(12)9-4-2-6-11-8-9/h2,4,6,8,10H,3,5,7H2,1H3/t10-/m0/s1

> <INCHI_KEY>
SNICXCGAKADSCV-JTQLQIEISA-N

> <FORMULA>
C10H14N2

> <MOLECULAR_WEIGHT>
162.2316

> <EXACT_MASS>
162.115698458

> <JCHEM_ACCEPTOR_COUNT>
2

> <JCHEM_AVERAGE_POLARIZABILITY>
18.58909809719573

> <JCHEM_BIOAVAILABILITY>
1

> <JCHEM_DONOR_COUNT>
0

> <JCHEM_FORMAL_CHARGE>
0

> <JCHEM_GHOSE_FILTER>
1

> <JCHEM_IUPAC>
3-[(2S)-1-methylpyrrolidin-2-yl]pyridine

> <ALOGPS_LOGP>
0.87

> <JCHEM_LOGP>
1.1625346926666664

> <ALOGPS_LOGS>
-0.24

> <JCHEM_MDDR_LIKE_RULE>
0

> <JCHEM_NUMBER_OF_RINGS>
2

> <JCHEM_PHYSIOLOGICAL_CHARGE>
1

> <JCHEM_PKA_STRONGEST_BASIC>
8.861872125269352

> <JCHEM_POLAR_SURFACE_AREA>
16.130000000000003

> <JCHEM_REFRACTIVITY>
49.655

> <JCHEM_ROTATABLE_BOND_COUNT>
1

> <JCHEM_RULE_OF_FIVE>
1

> <ALOGPS_SOLUBILITY>
9.33e+01 g/l

> <JCHEM_TRADITIONAL_IUPAC>
nicoderm CQ

> <JCHEM_VEBER_RULE>
1

> <DRUGBANK_ID>
DB00184

> <SECONDARY_ACCESSION_NUMBERS>
APRD00200; EXPT02315; DB09463; DB11303

> <DRUG_GROUPS>
approved

> <GENERIC_NAME>
Nicotine

> <SYNONYMS>
(−)-nicotine; (S)-(−)-nicotine; (S)-3-(1-methylpyrrolidin-2-yl)pyridine; (S)-3-(N-methylpyrrolidin-2-yl)pyridine; (S)-Nicotine; 3-(2-(N-methylpyrrolidinyl))pyridine; 3-(N-methylpyrollidino)pyridine; L(−)-nicotine; Nicotina; Nicotine betadex; Nicotine polacrilex; Nikotin; Nikotyna

> <PRODUCTS>
American Fare Nicotine Transdermal System; Basic Care Nicotine; Basic Care Nicotine Mini; Basic Care nicotine; Berkley and Jensen NICOTINE; Berkley and Jensen Nicotine; Berkley and Jensen Nicotine Polacrilex; Berkley and Jensen nicotine; Care One Nicotine; CareOne Mini Nicotine Polacrilex; CareOne Nicotine; CareOne Nicotine Transdermal System Step 1; CareOne Nicotine Transdermal System Step 2; CareOne Nicotine Transdermal System Step 3; CareOne nicotine; Careone Nicotine; Careone Nicotine Polacrilex; Commit; DG Health nicotine; Equaline Nicotine; Equaline Nicotine Transdermal System Step 1; Equaline nicotine; Equate Nicotine; Equate nicotine; Exchange Select Nicotine; Exchange Select Nicotine Transdermal System Step 3; Family Wellness Nicotine; Good Neighbor Pharmacy Nicotine; Good Neighbor Pharmacy Nicotine Mini; Good Sense Nicotine; Good Sense Nicotine Mint; Good Sense Nicotine Stop Smoking Aid; Habitrol Combination Kit STEPS 1-3 TRANSDERMAL SYSTEM; Habitrol Patch Nicotine Transdermal System, Step 1; Habitrol Patch Nicotine Transdermal System, Step 2; Habitrol Patch Nicotine Transdermal System, Step 3; Habitrol Step 1; Habitrol Step 2; Habitrol Step 3; Harris Teeter Nicotine; Health Mart Nicotine; Health Mart Nicotine Polacrilex; Health Mart nicotine polacrilex; Healthmart Nicotine Transdermal System Step 1; Healthmart Nicotine Transdermal System Step 2; Healthmart Nicotine Transdermal System Step 3; Healthy Accents Nicotine; Humana Pharmacy Nicotine; In Control Nicotine; In control nicotine; Kirkland Signature Quit 2; Kirkland Signature Quit 4; Kroger Nicotine Transdermal System Step 1; Kroger Nicotine Transdermal System Step 2; Kroger Nicotine Transdermal System Step 3; Leader Nicotine; Leader Nicotine Transdermal System Step 1; Leader Nicotine Transdermal System Step 2; Leader Nicotine Transdermal System Step 3; Lucy nicotine; Meijer NICOTINE TRANSDERMAL SYSTEM STEP 2; Meijer NICOTINE TRANSDERMAL SYSTEM Step 1; Meijer NICOTINE TRANSDERMAL SYSTEM Step 3; Members Mark Mini Nicotine; Members Mark Nicotine; Mini Nicotine; NICOTINE Original; NICOTINE Transdermal System Step 1; NICOTINE Transdermal System Step 2; NICOTINE Transdermal System Step 3; Nicoderm Cq; Nicoderm Trd 114mg Nicotine/21; Nicoderm Trd 36mg Nicotine/7 Sqcm Patch; Nicoderm Trd 78mg Nicotine/14; Nicorelief; Nicorette; Nicorette Cinnamon Surge; Nicorette Cinnamon Surge nicotine polacrilex; Nicorette Fresh Mint; Nicorette Fruit Chill; Nicorette Fruit Chill nicotine polacrilex; Nicorette Gum 2mg; Nicorette Invisipatch; Nicorette Mint; Nicorette Original; Nicorette Plus 4mg; Nicorette Spearmint Burst; Nicorette White Ice Mint; Nicorette White Mint nicotine polacrilex; Nicorette and Aquafresh Fruit Chill and Extreme Clean Whitening; Nicotac Nicotine Polacrilex Coated Cinnamon; Nicotac Nicotine Polacrilex Coated Fruit; Nicotac Nicotine Polacrilex Coated Mint; Nicotine; Nicotine COATED ice mint; Nicotine Coated Fruit Flavor; Nicotine Coated Mint; Nicotine Gum; Nicotine Lozenge; Nicotine Mini; Nicotine Mint Flavor; Nicotine Polacrilex; Nicotine Polacrilex Coated Fruit; Nicotine Polacrilex Coated Ice Mint; Nicotine Polacrilex Coated Mint; Nicotine Polacrilex MINT; Nicotine Polacrilex Origianl Flavor; Nicotine Polacrilex Original; Nicotine Polacrilex Original Flavor; Nicotine Polacrilex Stop Smoking Aid; Nicotine Polacrilex coated cinnamon; Nicotine Polacrilex coated fruit; Nicotine Polacrilex coated ice mint; Nicotine Polacrilex coated mint; Nicotine Polacrilex original; Nicotine Polacrilex, Coated Fruit Flavor; Nicotine Polacrilex, Coated Mint Flavor; Nicotine Polacrilex, Original; Nicotine Resinate; Nicotine Stop Smoking Aid; Nicotine Tartrate; Nicotine Transdermal System; Nicotine Transdermal System Step 1; Nicotine Transdermal System Step 2; Nicotine Transdermal System Step 3; Nicotine UN1654; Nicotine mini; Nicotine polacrilex; Nicotine transdermal system; Nicotrol; Nicotrol (Professional Sample); Nictoine Gum; Preferred Plus Nicotine; Preferred Plus Nicotine Polacrilex Gum, Original Flavor; Rexall Nicotine; Rite Aid Nicotine Transdermal System Step 1; Rite Aid Nicotine Transdermal System Step 2; Rite Aid Nicotine Transdermal System Step 3; Rugby Nicotine; Rugby Nicotine Polacrilex Gum, Coated Fruit Flavor; Rugby Nicotine Polacrilex Gum, Coated Mint Flavor; Rugby Nicotine Polacrilex Gum, Mint Flavor; Rugby Nicotine Polacrilex Gum, Original Flavor; Safeway Nicotine Transdermal System Step 1; Safeway Nicotine Transdermal System Step 2; Safeway Nicotine Transdermal System Step 3; Signature Care Nicotine; Simply Right Nicotine; Smart Sense Nicotine; Smart Sense Nicotine Mint; Smart Sense Nicotine Polacrilex; Sound Body Nicotine; Stop Smoking Aid; Stop Smoking Aid Nicotine; Sunmark Nicotine; Sunmark Nicotine Transdermal System Step 1; Sunmark Nicotine Transdermal System Step 2; Sunmark Nicotine Transdermal System Step 3; Thrive; TopCare Nicotine; Topcare Nicotine; Topcare Nicotine Gum; Topcare Nicotine Polacrilex; Topcare nicotine; Topcare nicotine stop smoking aid; Tru Relief Nicotine; Up and Up Nicotine; Up and Up Nicotine Polacrilex; Up and Up nicotine; Zonnic; Zonnic Nicotine; Zonnic Nicotine Mini; Zonnic Nicotine Polacrilex; Zonnic nicotine; equate Nicotine; in control Nicotine; members mark Nicotine

> <INTERNATIONAL_BRANDS>
Habitrol; Nicoderm

> <SALTS>
Nicotine bitartrate; Nicotine bitartrate dihydrate

$$$$
