4173
  -OEChem-10051719253D

 21 21  0     0  0  0  0  0  0999 V2000
    3.2301    1.6554   -0.2213 O   0  0  0  0  0  0  0  0  0  0  0  0
   -2.6598    1.6655   -0.1573 O   0  5  0  0  0  0  0  0  0  0  0  0
   -0.6054    2.2340    0.3674 O   0  0  0  0  0  0  0  0  0  0  0  0
    0.2076   -0.4284    0.2301 N   0  0  0  0  0  0  0  0  0  0  0  0
   -0.9747   -2.2460   -0.2496 N   0  0  0  0  0  0  0  0  0  0  0  0
   -1.4573    1.3468    0.0717 N   0  3  0  0  0  0  0  0  0  0  0  0
    1.3441    0.3929    0.5835 C   0  0  0  0  0  0  0  0  0  0  0  0
    0.2145   -1.7861    0.0699 C   0  0  0  0  0  0  0  0  0  0  0  0
   -1.0672    0.0050   -0.0020 C   0  0  0  0  0  0  0  0  0  0  0  0
    2.1070    0.8894   -0.6372 C   0  0  0  0  0  0  0  0  0  0  0  0
   -1.7784   -1.1345   -0.2962 C   0  0  0  0  0  0  0  0  0  0  0  0
    1.4394   -2.5939    0.2409 C   0  0  0  0  0  0  0  0  0  0  0  0
    1.0735    1.1799    1.2899 H   0  0  0  0  0  0  0  0  0  0  0  0
    2.0249   -0.2261    1.1823 H   0  0  0  0  0  0  0  0  0  0  0  0
    2.4744    0.0557   -1.2437 H   0  0  0  0  0  0  0  0  0  0  0  0
    1.4817    1.5152   -1.2819 H   0  0  0  0  0  0  0  0  0  0  0  0
   -2.8282   -1.2180   -0.5397 H   0  0  0  0  0  0  0  0  0  0  0  0
    1.2427   -3.6397   -0.0178 H   0  0  0  0  0  0  0  0  0  0  0  0
    2.2464   -2.2422   -0.4084 H   0  0  0  0  0  0  0  0  0  0  0  0
    1.7825   -2.5712    1.2798 H   0  0  0  0  0  0  0  0  0  0  0  0
    2.8954    2.4065    0.2978 H   0  0  0  0  0  0  0  0  0  0  0  0
  1 10  1  0  0  0  0
  1 21  1  0  0  0  0
  2  6  1  0  0  0  0
  3  6  2  0  0  0  0
  4  7  1  0  0  0  0
  4  8  1  0  0  0  0
  4  9  1  0  0  0  0
  5  8  2  0  0  0  0
  5 11  1  0  0  0  0
  6  9  1  0  0  0  0
  7 10  1  0  0  0  0
  7 13  1  0  0  0  0
  7 14  1  0  0  0  0
  8 12  1  0  0  0  0
  9 11  2  0  0  0  0
 10 15  1  0  0  0  0
 10 16  1  0  0  0  0
 11 17  1  0  0  0  0
 12 18  1  0  0  0  0
 12 19  1  0  0  0  0
 12 20  1  0  0  0  0
M  CHG  2   2  -1   6   1
M  END
> <DATABASE_ID>
DB00916

> <DATABASE_NAME>
drugbank

> <ORIGINAL_SOURCE>
PUBCHEM

> <ORIGINAL_SOURCE_URL>
https://pubchem.ncbi.nlm.nih.gov/rest/pug/compound/inchikey/VAOCPAMSLUNLGC-UHFFFAOYSA-N/SDF?record_type=3d

> <SMILES>
CC1=NC=C(N1CCO)[N+]([O-])=O

> <INCHI_IDENTIFIER>
InChI=1S/C6H9N3O3/c1-5-7-4-6(9(11)12)8(5)2-3-10/h4,10H,2-3H2,1H3

> <INCHI_KEY>
VAOCPAMSLUNLGC-UHFFFAOYSA-N

> <FORMULA>
C6H9N3O3

> <MOLECULAR_WEIGHT>
171.154

> <EXACT_MASS>
171.064391169

> <JCHEM_ACCEPTOR_COUNT>
4

> <JCHEM_AVERAGE_POLARIZABILITY>
15.815703894499059

> <JCHEM_BIOAVAILABILITY>
1

> <JCHEM_DONOR_COUNT>
1

> <JCHEM_FORMAL_CHARGE>
0

> <JCHEM_GHOSE_FILTER>
0

> <JCHEM_IUPAC>
2-(2-methyl-5-nitro-1H-imidazol-1-yl)ethan-1-ol

> <ALOGPS_LOGP>
-0.15

> <JCHEM_LOGP>
-0.45931022466666654

> <ALOGPS_LOGS>
-1.46

> <JCHEM_MDDR_LIKE_RULE>
0

> <JCHEM_NUMBER_OF_RINGS>
1

> <JCHEM_PHYSIOLOGICAL_CHARGE>
0

> <JCHEM_PKA_STRONGEST_ACIDIC>
15.43629692615242

> <JCHEM_PKA_STRONGEST_BASIC>
3.087148088548432

> <JCHEM_POLAR_SURFACE_AREA>
83.87

> <JCHEM_REFRACTIVITY>
41.2205

> <JCHEM_ROTATABLE_BOND_COUNT>
3

> <JCHEM_RULE_OF_FIVE>
1

> <ALOGPS_SOLUBILITY>
5.92e+00 g/l

> <JCHEM_TRADITIONAL_IUPAC>
metronidazole

> <JCHEM_VEBER_RULE>
0

> <DRUGBANK_ID>
DB00916

> <SECONDARY_ACCESSION_NUMBERS>
APRD00631

> <DRUG_GROUPS>
approved

> <GENERIC_NAME>
Metronidazole

> <SYNONYMS>
1-(2-hydroxy-1-ethyl)-2-methyl-5-nitroimidazole; 1-(2-hydroxyethyl)-2-methyl-5-nitroimidazole; 1-(β-ethylol)-2-methyl-5-nitro-3-azapyrrole; 1-(β-hydroxyethyl)-2-methyl-5-nitroimidazole; 1-(β-oxyethyl)-2-methyl-5-nitroimidazole; 2-methyl-1-(2-hydroxyethyl)-5-nitroimidazole; 2-methyl-3-(2-hydroxyethyl)-4-nitroimidazole; 2-methyl-5-nitroimidazole-1-ethanol; Metronidazol; Metronidazole; Métronidazole; Metronidazolum

> <PRODUCTS>
Apo-metronidazole; Auro-metronidazole; Bismuth Subsalicylate/Metronidazole/Tetracycline Hydrochloride; Brimonidine Tartrate 0.25% / Ivermectin 1% / Metronidazole 1% / Niacinamide 4%; Flagyl; Flagyl 500 500mg; Flagyl ER; Flagystatin; Florazole ER; HELIDAC Therapy; Ivermectin 1% / Metronidazole 1%; Ivermectin 1% / Metronidazole 1% / Niacinamide 4%; Mar-metronidazole; MetroCream; MetroGel; MetroGel-Vaginal; MetroLotion; Metrocream - Crm 0.75%; Metrogel; Metrogel 0.75%; Metrogel 1%; Metrogel-Vaginal; Metronidazole; Metronidazole 1% / Mupirocin 2%; Metronidazole 1% / Mupirocin 2% /; Metronidazole 1% / Niacinamide 4%; Metronidazole 250 mg; Metronidazole 500 mg; Metronidazole Injection USP; Metronidazole Injection, USP; Metronidazole Tab 250mg; Metronidazole Topical Cream, 0.75%; Metronidazole Topical Gel; Metronidazole Vaginal; Metronidazole250 mg 250 mg; Metronidazole500 mg 500 mg; Nidagel Vaginal Gel 0.75%; Noritate; Novo-nidazol Tab 250mg; Nuvessa; PMS-metronidazole; PMS-metronidazole 250mg/tab; Pylera; Rosaclear System; Rosadan; Rosasol; Vandazole; Vitazol

> <INTERNATIONAL_BRANDS>
Anabact; Arilin; Clont; Deflamon; Efloran; Elyzol; Entizol; Fossyol; Klion; Klont; Metrolyl; Metrotop; Nalox; Nidagel; Novonidazol; Orvagil; Protostat; Takimetol; Trichazole; Trichex; Trichopol; Tricowas B; Trikacide; Trikozol; Vagilen; Vagimid; Vertisal; Zadstat

> <SALTS>
Metronidazole hydrochloride

$$$$
