16666
  -OEChem-10051719243D

 31 31  0     1  0  0  0  0  0999 V2000
    0.4167    2.3656    0.4212 O   0  0  0  0  0  0  0  0  0  0  0  0
    0.7056   -0.0351    0.4283 C   0  0  1  0  0  0  0  0  0  0  0  0
   -0.0704    1.1567   -0.1560 C   0  0  1  0  0  0  0  0  0  0  0  0
    0.1195   -1.3636   -0.0670 C   0  0  0  0  0  0  0  0  0  0  0  0
   -2.1491   -0.2825   -0.3743 C   0  0  1  0  0  0  0  0  0  0  0  0
   -1.5705    1.0447    0.1258 C   0  0  0  0  0  0  0  0  0  0  0  0
   -1.3769   -1.4666    0.2195 C   0  0  0  0  0  0  0  0  0  0  0  0
    2.1959    0.0476    0.0872 C   0  0  0  0  0  0  0  0  0  0  0  0
   -3.6356   -0.3844   -0.0380 C   0  0  0  0  0  0  0  0  0  0  0  0
    2.9640   -1.0757    0.7771 C   0  0  0  0  0  0  0  0  0  0  0  0
    2.4009   -0.0067   -1.4238 C   0  0  0  0  0  0  0  0  0  0  0  0
    0.6107    0.0011    1.5233 H   0  0  0  0  0  0  0  0  0  0  0  0
    0.0505    1.2366   -1.2394 H   0  0  0  0  0  0  0  0  0  0  0  0
    0.6057   -2.2170    0.4162 H   0  0  0  0  0  0  0  0  0  0  0  0
    0.2458   -1.4865   -1.1471 H   0  0  0  0  0  0  0  0  0  0  0  0
   -2.0478   -0.3149   -1.4673 H   0  0  0  0  0  0  0  0  0  0  0  0
   -2.0912    1.8891   -0.3438 H   0  0  0  0  0  0  0  0  0  0  0  0
   -1.7507    1.1543    1.2040 H   0  0  0  0  0  0  0  0  0  0  0  0
   -1.7607   -2.4073   -0.1934 H   0  0  0  0  0  0  0  0  0  0  0  0
   -1.5344   -1.5097    1.3050 H   0  0  0  0  0  0  0  0  0  0  0  0
    2.5987    0.9985    0.4579 H   0  0  0  0  0  0  0  0  0  0  0  0
   -4.1928    0.4445   -0.4872 H   0  0  0  0  0  0  0  0  0  0  0  0
   -4.0574   -1.3190   -0.4227 H   0  0  0  0  0  0  0  0  0  0  0  0
   -3.8026   -0.3576    1.0441 H   0  0  0  0  0  0  0  0  0  0  0  0
    2.7722   -2.0566    0.3315 H   0  0  0  0  0  0  0  0  0  0  0  0
    4.0420   -0.8974    0.6899 H   0  0  0  0  0  0  0  0  0  0  0  0
    2.7273   -1.1242    1.8452 H   0  0  0  0  0  0  0  0  0  0  0  0
    2.1015   -0.9567   -1.8739 H   0  0  0  0  0  0  0  0  0  0  0  0
    3.4719    0.0983   -1.6398 H   0  0  0  0  0  0  0  0  0  0  0  0
    1.9134    0.8109   -1.9586 H   0  0  0  0  0  0  0  0  0  0  0  0
    0.2875    2.3126    1.3836 H   0  0  0  0  0  0  0  0  0  0  0  0
  1  3  1  0  0  0  0
  1 31  1  0  0  0  0
  2  3  1  0  0  0  0
  2  4  1  0  0  0  0
  2  8  1  0  0  0  0
  2 12  1  0  0  0  0
  3  6  1  0  0  0  0
  3 13  1  0  0  0  0
  4  7  1  0  0  0  0
  4 14  1  0  0  0  0
  4 15  1  0  0  0  0
  5  6  1  0  0  0  0
  5  7  1  0  0  0  0
  5  9  1  0  0  0  0
  5 16  1  0  0  0  0
  6 17  1  0  0  0  0
  6 18  1  0  0  0  0
  7 19  1  0  0  0  0
  7 20  1  0  0  0  0
  8 10  1  0  0  0  0
  8 11  1  0  0  0  0
  8 21  1  0  0  0  0
  9 22  1  0  0  0  0
  9 23  1  0  0  0  0
  9 24  1  0  0  0  0
 10 25  1  0  0  0  0
 10 26  1  0  0  0  0
 10 27  1  0  0  0  0
 11 28  1  0  0  0  0
 11 29  1  0  0  0  0
 11 30  1  0  0  0  0
M  END
> <DATABASE_ID>
DB00825

> <DATABASE_NAME>
drugbank

> <ORIGINAL_SOURCE>
PUBCHEM

> <ORIGINAL_SOURCE_URL>
https://pubchem.ncbi.nlm.nih.gov/rest/pug/compound/inchikey/NOOLISFMXDJSKH-KXUCPTDWSA-N/SDF?record_type=3d

> <SMILES>
CC(C)[C@@H]1CC[C@@H](C)C[C@H]1O

> <INCHI_IDENTIFIER>
InChI=1S/C10H20O/c1-7(2)9-5-4-8(3)6-10(9)11/h7-11H,4-6H2,1-3H3/t8-,9+,10-/m1/s1

> <INCHI_KEY>
NOOLISFMXDJSKH-KXUCPTDWSA-N

> <FORMULA>
C10H20O

> <MOLECULAR_WEIGHT>
156.269

> <EXACT_MASS>
156.151415264

> <JCHEM_ACCEPTOR_COUNT>
1

> <JCHEM_ATOM_COUNT>
31

> <JCHEM_AVERAGE_POLARIZABILITY>
19.69012569770345

> <JCHEM_BIOAVAILABILITY>
1

> <JCHEM_DONOR_COUNT>
1

> <JCHEM_FORMAL_CHARGE>
0

> <JCHEM_GHOSE_FILTER>
0

> <JCHEM_IUPAC>
(1R,2S,5R)-5-methyl-2-(propan-2-yl)cyclohexan-1-ol

> <ALOGPS_LOGP>
2.68

> <JCHEM_LOGP>
2.6642731470000007

> <ALOGPS_LOGS>
-2.45

> <JCHEM_MDDR_LIKE_RULE>
0

> <JCHEM_NUMBER_OF_RINGS>
1

> <JCHEM_PHYSIOLOGICAL_CHARGE>
0

> <JCHEM_PKA_STRONGEST_ACIDIC>
19.54964736878105

> <JCHEM_PKA_STRONGEST_BASIC>
-0.8087842408951696

> <JCHEM_POLAR_SURFACE_AREA>
20.23

> <JCHEM_REFRACTIVITY>
47.445299999999996

> <JCHEM_ROTATABLE_BOND_COUNT>
1

> <JCHEM_RULE_OF_FIVE>
1

> <ALOGPS_SOLUBILITY>
5.58e-01 g/l

> <JCHEM_TRADITIONAL_IUPAC>
menthol

> <JCHEM_VEBER_RULE>
1

> <DRUGBANK_ID>
DB00825

> <SECONDARY_ACCESSION_NUMBERS>
APRD01604

> <DRUG_GROUPS>
approved

> <GENERIC_NAME>
Levomenthol

> <SYNONYMS>
(-)-Menthol; (−)-(1R,3R,4S)-menthol; (−)-menthol; (1alpha,2beta,5alpha)-5-methyl-2(1-methylethyl)cyclohexanol; (1R-(1-α,2-β,5-α))-5-methyl-2-(1-methylethyl)cyclohexanol; (1R,3R,4S)-(−)-menthol; L-menthol; Levomenthol; Lévomenthol; Levomentholum; Levomentol; Mentol

> <PRODUCTS>
0 Degrees Pain Relieving; 1st Medxpatch With Lidocaine 4%; 1st Medxpatch With Lidocaine 4%-rx; 1st RELIEF TOPICAL; 4125 First Aid Kit; 4204 First Aid Kit; 4210 First Aid Kit; 4221 First Aid Kit; 4230 First Aid Kit; 4232 First Aid Kit; 4240 First Aid Kit; 4241 First Aid Kit; 4242 First Aid Kit; 4248 First Aid Kit; 4257 First Aid Kit; 4329 First Aid Kit; 4338 First Aid Kit; 4339 First Aid Kit; 4355 First Aid Kit; 4356 First Aid Kit; 4357 First Aid Kit; 4Jointz; 4oz Medicated Chest Rub; 701 Dieda Zhengtong Yaogao Medicated; 999 Itch Relief; A.C.C Fresh and Cooling Scalp Mist; AA Top Medicated; ACTIBEAU Sports Massage; ACTIVE-PAC with Gabapentin; AI Tape; AIM Muscle Pain Relief Cream; AL0040600 Alba Cooling Aloe Burn Relief; ALGOMEND Pain Relief; AMORAY Analgesic Gel; AMORAY Chest Rub; AMPlify Relief MM; ANC Neverpain External Analgesic; ANTIVENOM Workout Enhancer Pain Relief Cream; ARCTIC ICE pain relieving; ATOPALM Deep Penetrating Pain Relieving; AVON HeXashield Pain Relief for Muscle, Back and Joint Cream; Abee Med; Absorbine; Absorbine BACK Therapeutic Pain Relief; Absorbine Back; Absorbine Jr; Absorbine Jr Antifungal Liq; Absorbine Jr Extra Strength Liniment; Absorbine Jr Liniment; Absorbine Jr Pain Relief Wipes; Absorbine Jr Plus Ultra Strength Pain; Absorbine Jr Ultra Strength Pain Relieving; Absorbine Jr.; Absorbine Jr. Back; Absorbine Jr. Extra Strength; Absorbine Jr. Pain Relief; Absorbine Jr. Plus; Absorbine Power Gel; Absorbine Ultra Strength; Aching Head Rub; Achy; Actaflex; Actisep; ActivICE; ActivOn Ultra Strength Arthritis; ActivOn Ultra Strength Joint and Muscle; Activate Joint and Muscle Relief; Active Again; Active HYDROGEN PROFESSIONAL cream; Active HYDROGEN Professional gel; Active Hydrogen Professional; AcuPlus Advanced Therapy for Pain and Recovery; AcuPlus Pain Relief; Advanced Antiseptic; Advanced Antiseptic Citrus; Advanced Cherry Flavored Cough Drops; Advanced Citrus; Advanced Citrus Antiseptic; Advanced Honey Lemon Cough Drops; Aeroburn Burn First Aid; Ageless Pain Relief; Air Salonpas; Air Sinsin Pas; Air Sinsinpas-EX; Alegenix Biofrequency Chip; Aleveer Patch; Alhua Huogan Pain Relieving Patch; Alivio; Alivio Medicated Pain; All Natural Eye Patch; Allevess; Alleviate; Allure Ice Cold Analgesic; Allure Vaporizing Chest Rub; Alo Therapeutic Massage; Alo Therapeutic Massage Pain Relieving; Aloe Vera Gel; Aloemint Skin Aid; Alsirub Ont; Amar Ice; Amar Vaporizing Chest Rub; Amber Mouth Rinse; Amber Mouth Wash - Liq; Amber Mouthwash - Liq; Amerfresh Medicated; Ameri Patch; AmeriPatch; Amoray Care Chest Rub; Amrut Balm; Amrutanjan Relief Cold Rub; Amrutanjan Relief Pain Balm; Amrutanjan Relief Strong Pain Balm; Analgesic; Analgesic Balm; Anbesol Liquid; Anbesol Maximum Strength Liquid; Angidol Cherry Flavor; Angidol Honey Lemon Flavor; Anitseptic Mouth Rinse; Anodyne Ile; AnodyneRx; Anodynz; Anodynz Biofrequency Chip; Anti Itch; Anti Itch Maximum Relief; Anti-Intch Well at Walgreens; Anti-Itch; Antibiotic Cold Sore Ointment; Antiphlamine; Antiphlamine Coin Plaster; Antiphlogistine Rub A 535 Extra Strength; Antiphlogistine Rub A-535 Ice Gel 4%; Antiphlogistine Rub A535; Antiseptic; Antiseptic Blue Mint; Antiseptic Blue Mint Mouthwash; Antiseptic Lil Drug Store Products; Antiseptic Mouth Rinse; Antiseptic Mouth Rinse - Liq; Antiseptic Mouth rinse; Antiseptic Mouthrinse; Antiseptic Rinse; Antiseptic Rinse Spring Mint; Antispetic; Antispetic Mouth Rinse; Apanol Arthritis Extra Strength; Apanol Athletics; Apanol Muscle Rub; Apeaz Ultra; Apr15; Aquacool; Aquacool Air; Aquacool Blue 120; Aquacool Blue 500; Aquacool Blue Roll; Aquacool Multi 120; Aquacool Multi 500; Aquacool Multi Roll; Aquacool Red 120; Aquacool Red 500; Aquacool Red Roll; Aquacool Shower; Arctic Blast Pain Drops; Arctic Blast Pain Releiving; Arctic Heat; Arctic Ice Analgesic; Arctic Ice Analgesic Gel; Arctic Relief; Arctic Relief Roll On; Arex Sinsin Pas; Arhtri Plus; Army Health Pain Reliever; Arneu; Arnica Ice Cooling; Arnica Pain Relief; Arnicool; Art Of Sport Pain Relieving Ultra Strength; Arthmed Topical Analgesic; Arthri-Zen Relief; Arthri-support; ArthriPain Relief; Arthricare Pain Relieving Rub Triple Medicated Gel; Arthricare for Women Multi-action; Arthricare for Women Nighttime; Arthricare for Women Ultra Strength; Arthrit-ease; Arthritis Extra Strength Roll-ON Lotion; Arthritis Hot; Arthritis Pain Relief; Arthritis Pain Reliever Herbalife; Arthritis Pain Relieving Cream; Arthritis Plus Gel; Arthritis Relief; Arthritis Wonder; Arthritis and Joint Pain Relief Thayers; Arthro Rheuma Cream; Arthrocare Lotion; Artic Ice Analgesic Gel 2.5%; Artico Ice; Artrex; Asana Kisser; Aspercreme Heat; Aspercreme Max No Mess Roll On; Ass Kisser; Assorted Fruit Cough Drops; Assured; Assured Cold N Hot Pain Relief Menthol; Assured Extra Strength Cold n hot; Assured Ice Cold Topical Analgesic; Assured Medicated Body Powder; Assured Medicated Foot Powder; Assured Menthol Relief Stick; Assured Muscle Rub; Assured Pain Relief Hot Menthol; Assured Pain Relief Hot Patch; Assured VAPORIZING CHEST RUB; Assured Vaporizing Chest Rub; Asthma Aide Synergy; Astronic; At One With Nature; Atendia; AthletesGel; Atomy Hair Treatment; Atomy Herbal Hair Tonic; Atopalm Moisturizing Muscle Rub; Atopalm Muscle and Joint; Atopalm Pain Relieving; Au Kah Chuen Skin Lotion; Aulief Topical Pain Reliever; Aurora Blue Mint; Aurora Fresh Burst; Aurorae Healing Pain Relieving Roll-On; AvaDerm; Avalin External Analgesic Patch; Avalin-RX; Avance Cure Barrier; Avapta; Aveda Active Composition; Avedana Cool Hot Ice; Avedana Medicated Chest Rub; Avedana Pain Relieving Roll On; Avedana Pain-Relieving; Avon Healthy Remedies Menthol & Camphor Soothing Relief Gel; Avon Healthy Remedies Menthol Celadrin Pain Relief Cream; Axe Brand Medicated; BADASS BOTANICALS Hemp Pain Relief; BAMA Freeze; BAROX Body Care Massage Relax Refresh Revital; BAROX S 60g; BENGAY Pain Relief and Massage; BIOCOOL Tube Type; BIOFREEZE Pain Relieving; BL3 Mineral Ice Gel; BRAZILIAN MENTHOL Pain Relieving; BRAZILIAN MENTHOL Pain Relieving Roll On; BRONCOLIN Herbal extracts and Honey; BRONCOLIN Honey Eucalyptus; BRONCOLIN Honey Lemon; BabyGanics Cold Relief Chest Rub; Back Pain Relieving Oil; Back and Large Extra Strength Cold-Hot Medicated Patches; Bai Healing Cold Patch; Bai Healing Heat Patch; Bakers Best Arthritis Pain Relief; Balm Stick; Balminil Camphorub; Balminil Nasal Ointment; Banalg; Banana Boat Medicated Lip Balm; Banana Boat Sooth-A-caine Spray Gel; Banana Boat Sooth-A-caine W.moist.aloe V.gel; Barox; Barox Body Care Massage; Barox Massage; Barox S; Barrier Protectant Cream; BeKoool Itch Relief; Beech Nut Honey Lemon Cough Drop; Beech Nut Honey Lemon Cough Drops; Beech Nut Wild Cherry Cough Dps; Beech Nut Wild Cherry Cough Drop; Being Well Antiseptic; Being Well Extra Strength Menthol Heat; Ben-gay Ice; Bene Patch; BenePatch; Bengay Arthritis Pain Relieving; Bengay Cold Therapy; Bengay Cold Therapy With PRO-COOL technology; Bengay Extra Strength Ice; Bengay Greaseless; Bengay Greaseless Pain Relieving; Bengay Pain Relieving Greaseless; Bengay Ultra Strength Large Size; Bengay Ultra Strength Non Greasy Pain Relieving; Bengay Ultra Strength Non-greasy; Bengay Ultra Strength Pain Relieving Large Size; Bengay Ultra Strength Pain Relieving Regular Size; Bengay Ultra Strength Regular Size; Bengay Vanishing Scent; Bengay Vanishing Scent Pain Relieving; Bengay Zero Degrees Menthol Pain Relieving; Bentasil Blackcurrant; Bentasil Extra Strength Eucalyptus; Bentasil Extra Strength Menthol; Bentasil SUGAR FREE BLACKCURRANT SOFT Texture; Bentasil SUGAR FREE CHERRY SOFT Texture; Bentasil SUGAR FREE EUCALYPTUS SOFT Texture; Bentasil SUGAR FREE HONEY LEMON SOFT Texture; Benylin 1 Nightime With Menthactin; Benylin 1 With Menthactin; Benylin DM-D Soft Chews With Menthactin; Benylin DM-D With Menthactin; Benylin DM-D-E Extra Strength With Menthactin; Benylin DM-D-E With Menthactin; Benylin Extra Strength Chest Congestion & Cold; Benylin Extra Strength Cough & Chest Congestion; Benylin Extra Strength Cough Complete; Benylin Extra Strength Mucus & Phlegm; Benylin Extra Strength Mucus & Phlegm Plus Cough Control; Benylin Extra Strength Sore Throat & Cough; Benylin Extra Strength With Menthactin; Benylin Extra Strength for People With Diabetes; Benzocaine; Benzocaine, Menthol, Zinc Chloride; Berri-Freez; Berri-Freez Plus; Best Choice Medicated anti itch; Best Choice Sugar Free Cherry Cough Drops; Best Health Sore Throat Relief Cherry Flavor; BestCo Inc.; BestHealth Cherry; BestHealth Cough Relief Honey Lemon Flavor; BestHealth Cough Relief Sugar Free Cherry Flavor; BestHealth Cough Suppressant SUGAR FREE BLACK CHERRY FLAVOR; BestHealth Cough Suppressant SUGAR FREE HONEY LEMON FLAVOR; BestHealth Honey Lemon; BestHealth Menthol; Better Nature Pain Relief Cream; Better Nature Pain Relief Sport Gel; Big V Cough Lozenges Cherry 6.1mg/loz; Big V Honey-lemon Cough Lozenges 8.4mg/loz; Big V Menthol Cough Lozenges 6.1mg/loz; Bio 2 Brazilian Heat Brazilian Heat; Bio-Scriptives Extreme PR; Bio-ice; Bio-mega; BioBlast Pain Relief; BioFlexor; BioMega Cold Pain Therapy; BioRelief Ice Pain Relieving; Bioaches; Bioactil; Biocool Focus On; Biocool Roll Type; Bioease Pain Relieving Cold Therapy; Biofreeze; Biofreeze Colorless; Biofreeze Colorless Roll-On; Biofreeze Pain Relief; Biofreeze Pain Relieving Wipes; Biofreeze Professional; Biofreeze Professional Colorless; Biofreeze Professional Colorless Roll-On; Biofreeze Professional Roll-On; Biofreeze Roll-On; Biotemper; Bite Relief; Black Cherry Cough Drops; Black Ice Medicated Patches; Blade for Men Medicated Body Powder; Blister Balm; Blistex Complete Care (Blistex Lip Medex, Blistex Medicated Lip, Blistex Five Star Lip Protection Broad Spectrum, and Blistex Complete Moisture); Blistex Dct; Blistex Ivarest Medicated Poison Ivy Cleansing Foam; Blistex Lip; Blistex Lip Medex; Blistex Medicated; Blistex Medicated Variety Pack (Blistex Medicated Berry Lip Balm, Blistex Medicated Lip Balm, Blistex Medicated Lip); Blistex Odor Eaters Medicated Foot; Blue Analgesic Gel; Blue Gel Pain Relieving; Blue Ice; Blue Ice 2.5%; Blue Ice Analgesic; Blue Ice Analgesic Gel; Blue Ice Fermented Cod Liver Oil Calm Balm; Blue Ice Pain Relieving; Blue Ice Topical Analgesic; Body; Bon Balm Penetrating Pain Relief; Borasol; Boroleum for Nasal Soreness; Bortons Menticol; Bouquet Cooling Formula; Braline Patch; Brazilian Heat Brazilian Heat; Breathe Deeply; Breathiezzz; Bronchodex Fort-DM Syr; Bronchodex Vapo Ont; Bronchodex-rub; Bronchophan Onguent Vaporisant; Bronco Rub; Broncolin; Buckley's Complete; Buckley's Complete PM - Nighttime; Buckley's Complete Plus Mucous Relief; Buckley's Complete Plus Mucous Relief Extra Strength; Buckley's Cough Chest Congestion; Buckley's Cough, Mucous & Phlegm; Buckley's Night Time Mixture; Budpack Muscle Rub; Budpak Medicated Anti Itch; Budpak Muscle Rub; Buenos Dias de Personna citrus flavour; Buenos Dias de Personna cool mint; Buenos Dias de Personna mint; Buenos Dias de Personna original; Burn N Bite; Burn Relief; Burn Relief Cream; Burn Relief Extra Strength Kool-Down; Burn Relief Gel; Burn Relief Kol-Down; Burn Relief Professional Kool-Down; Burn Water Soluble; Bye Bye Bite Lot; C-Patch; C-Patch Grande; C-Patch Insect; CAMPHOR, EUCALYPTUS OIL and MENTHOL; CANNA NUMB Pain Relief; CANNA NUMB Roll On; CANNABICIN Joint and Muscle Pain Relief; CAREALL Muscle Rub Ultra Strength; CAREALL Musle and Joint; CARMEX original lip balm EXTERNAL ANALGESIC; CBD Clinic - Massage Oil - Level 2; CBD Clinic - Massage Oil - Level 3; CBD Clinic - Moderate Muscle and Joint Pain Relief; CBD Clinic Deep Muscle and Joint Pain Relief; CBD Clinic Deep-Rub Pain Relief - Level 3; CBD Clinic Deep-Rub Pain Relief - Level 5; CBD Clinic Pain Relief - Level 3; CBD Clinic Pain Relief - Level 4; CBD Clinic Pain Relief - Level 5; CBD Clinic Pro Sport - Deep Muscle and Joint Pain; CBD Clinic Pro Sport - Pain Stick; CBD Clinic Revive Massage; CBD Clinic Ultimate Massage; CBD Medic - Active Sport Extreme Relief; CBD Medic - Arthritis Deep Relief; CBD Medic - Intense Powerful Relief; CBD Pain Relief CopperGel; CBDMEDIC Active Sport Pain Relief; CBDMEDIC Active Sport Pain Relief Stick; CBDMEDIC Arthritis Aches and Pain Relief; CBDMEDIC Arthritis Pain Relief; CBDMEDIC Back and Neck Pain Relief; CBDMEDIC Foot Pain Relief; CBDMEDIC Foot and Ankle Pain Relief; CBDMEDIC Massage Therapy Pain Relief; CBDMEDIC Muscle and Joint Pain Relief; CBDezic; CEPASTAT Sore throat and Cough; CHRIOLOGY Relax Up; CMX Topical Pain; CU Pain Away Pain Relief; CVS Anti-Itch; CVS Chest Rub; CVS Cold Hot Medicated; CVS Cold and Hot; CVS Cold and Hot Pain Relieving Stick; CVS Extra Strength Cold and Hot Medicated; CVS Extra Strength Cold and Hot Medicated Patch; CVS Extra Strength Cold and Hot Pain Relieving; CVS Extra Strength Pain Relief; CVS Health Cold and Hot Pain Relieving Extra Strength; CVS Health Cold and Hot Roll-On; CVS Health Cold and Hot Roll-On Menthol; CVS Health Medicated Chest Rub; CVS Health Muscle Rub Ultra Strength; CVS Maximum Strength Cold and Hot Pain Relief Topical Analgesic; CVS Maximum Toothache Relief Double Medicated; CVS Medicated Anti-Itch; CVS Medicated Chest Rub Cherry Scent; CVS Medicated Chest Rub Lavender scent; CVS Medicated Chest Rub Lemon Scent; CVS Medicated Chest Rub Roll-On; CVS Medicated Pain; CVS Medicated Pain Relieving; CVS Medicated anti itch; CVS Menthol Medicated Throat Drops; CVS Peppermint Mocha Cough Drops; CVS Pharmacy Cough Relief Honey Lemon Flavor; CVS Pharmacy Toothache and Gum Reliever; CVS Pomegranate Cough; CVS Severe Toothache and Gum Relief Triple Medicated; CVS Soothing Itch Relief; CVS Sore Muscle Rub Vanishing Scent; CVS Therapeutic Menthol Gel; CVS Therapeutic Menthol Pain Reliever; CVS Tropical Citrus Cough; CVS Ultra Strength Pain Relieving; CVS Vanishing Scent Muscle Rub; CVS Watermelon Cough; CYHOT Cream with Lidocaine Well at WAlgreens; Cajun Hot Ice Muscle and Joint Pain Rub; Cal Mo Dol Ont; Caladrox; CalmaFX Moisture Barrier; Calmadol; Calmitol Itching Relief Ont; Calmodrox; Calmomusc Liq; Calmoseptine; Calorub; Calypxo Pain Relief; Cam Sun (huile Therapeutique); Camocare Pain Relieving Cream; Campho Rex; Camphomex; Camphor, Menthol; Camphorated Ointment Compound; Camphotrex; Canker Care Plus; Canker Complete Canker Sore Relief; Capment; Capsiderm; Capsodan Cream; Captracin; Capxib; Capzasin Quick Relief; Caramel Apple Cough Drop; Carboseptol; Care One Cool Heat Extra Strength; Care One Cool Heat Pain Relieving; Care One Pain Relief; CareAll Medicated Chest Rub; CareOne Cold and Hot; Careone Extra Strength Cold and Hot; Carione Rg Toner; Carmatis Ont; Castiva Cooling; Cbd Unlimited Balmx Topical Analgesic; Cbd Unlimited Mistx Topical Analgesic; Cbd-kings With Lidocaine 4%; Cbdmedic Back and Neck Relief; Cbdmedic Massage Therapy; Celadrin; Celadrin Joint and Muscle Pain Relieving; Celestial Seasonings Herbal Throat Drops; Celestial Seasonings Herbal Throat Drops - Golden Herbal Blend; Cellapy Haircell; Cellapy Haircell Meso Tonic; Cellbn Mega Plus; Cellulitica Synergy; Cepacol Extra Strength Sore Throat Cherry; Cepacol Extra Strength Sore Throat Tangerine; Cepacol Extra Strength Sore Throat cherry; Cepacol Extra Strength Sore Throat honey lemon; Cepacol Extra Strength Sore Throat sugar free cherry; Cepacol InstaMax Sore Throat Berry Frost Sugar Free; Cepacol Instamax Sore Throat Arctic Cherry; Cepacol Sensations Cooling; Cepacol Sensations Sore Throat & Blocked Nose; Cepacol Sensations Sore Throat & Cough; Cepacol Sensations Sore Throat Cooling ice cool; Cepacol Sore Throat; Cepacol Sore Throat Maximum Numbing Cherry; Cepacol Sore Throat Maximum Numbing Citrus; Cepacol Sore Throat Maximum Numbing Honey Lemon; Cepacol Sore Throat Maximum Numbing Sugar Free Cherry; Cepacol Sore Throat Regular Strength; Cepacol Sore Throat from Post Nasal Drip; Chamosyn; Chamosyn Paraben Free; Chan Yat Hing She Kun Wool Lok Medicated Oil; ChapIce Medicated Balm; Chapstick Medicated; Chapstick Medicated Lip Balm - Jar; Chapstick Medicated Lip Balm - Stk; Chapstick Medicated Lip Balm - Tube; Chase Coldsorex; Cherry Cough Drop; Cherry Cough Drops; Cherry Liquid Center Cough Drops; Cherry Sore Throat Lozenge; Cherry Sore Throat Lozenges; Cherry Sore Throat Lozenze; Cherry Sore Throat Relief Lozenge; Cherry Throat Drops; Cherry Throat Relief Lozenges; Cherry cough drop; Cherry cough drops; Chest Comfort; Chest Rub; Chest Rub Ont; Chest Rub Vaporizing; Chest Rub Vaporizing Action; Chestrub; Chi Kung Huo Shiueh Kao; Chigarid; China-Gel Topical Pain Reliever; Ching Wan Hung Soothing Herbal Balm; Chloraseptic; Chloraseptic Max; Chloraseptic Sore Throat Liquid Center; Chloraseptic Sore Throat Max Liquid Center; Chloraseptic Total Sore Throat and Cough; Chloraseptic Total Sore Throat and Cough, Sugar Free; Chloraspetic; Cho-A Point Plaster; Cho-a PAP; Choice Personal Care Theraputic Blue Ice; Choice Personal Care Vapor Rub; Chondro-Pro Pain Relief Roll On; Chun Gi So; Clean Remedies CR Pain Relief; CliniStat Pain Relieving; Cm Systems 2 Gel; Co Cool; Cold Hot Patch; Cold Leaf Nutrition Muscle and Joint Pain Relief; Cold Pain Relieving; Cold Rub; Cold Sore Lotion; Cold Sore Support; Cold Sore Treatment; Cold Spot Point Relief; Cold Therapy; Cold Therapy Pain Relief; Cold Therapy Pain Relief 360 Meijer; Cold Therapy Pain Relief Meijer; Cold Therapy Pain Relief Roll-On Meijer; Cold Zone Pain Relieving Gel- DG Health; Cold Zone Pain Relieving Gel- Rite Aid; Cold and Heat Lidocaine Patch Plus Menthol; Cold and Heat Pain Relieving Cream; Cold and Hot; Cold and Hot CVS; Cold and Hot Medicated; Cold and Hot Medicated Large; Cold and Hot Medicated Pain Relief Large; Cold and Hot Medicated Pain Relief Small; Cold and Hot Medicated Patch; Cold and Hot Pain Relief; Cold and Hot Pain Relief Sleeve; Cold and Hot Scherer Labs; Cold and Hot paim relieving CareOne; Cold-Hot Medicated Patches; Cold/Cough; Cold/Hot Medicated Patches; Coldaid; Coldsore Bomb; Comfort EZ Extra Strength Pain Relief Patch; Comfort EZ Extra StrengthTransdermal Patch; Comfort EZ Pain Relief Patch; Comfort and Ease; Complete Fortify; Cool Heat; Cool Hot Ice Analgesic Gel; Cool Mint Antiseptic Mouthwash; Cool Pap Cataplasma; Cool Relief Lemon Frost Oral Anesthetic; Cool Relief Oral Anesthetic; Cool and Heat; Cool n Heat; Cool n Heat Patch for Arm, Neck and Leg Extra Strength; Cool n Heat Patch for Back Extra Strength; Cool n Heat Well at Walgreens; Cooling Epsom Rub; Cooln Heat Micro Well at Walgreens; Cooln Heat Muscle Rub Well at Walgreens; CopperGel; Coral Analgesic; Coralite Blue Ice; Coralite Cold and Hot; Coralite Cold and Hot Medicated; Coralite Extra Strength Cool and Hot; Coralite Extra Strength Menthol Pain Relief Sleeve - KNEE; Coralite Extra Strength Menthol Pain Relief Sleeve - WRIST; Coralite Extra Strength Pain Relief Sleeve Knee; Coralite Extra Strength Pain Relief Sleeve Wrist; Coralite Muscle Joint; Coralite Muscle and Joint Pain Relief; Coralite Pain Relief; Coralite Pain Relief Hot; Coralite Pain Relief Stick; Coralite Ultra Strength Pain Relief; Corisin Arthritis Pain Relief; Cough Drop; Cough Drop Honey Lemon; Cough Drops Cherry with Sugar; Cough Drops Honey Lemon with Sugar; Cough Drops Menthol Sugar Free; Cough Lozenges; Cough Lozenges Spearmint Menthol USP; Cough Suppressant and Topical Analgesic; CounterAct Cough Drops Honey Lemon; CounterAct Cough Drops Orchard Cherry; Cramergesic; Creations Garden Pain Relief Roll On; Cryogel Island Rain Natural Pain Relieving Vitaminerals; Crystal Chest Rub; Cuticura Medicated Body Powder; Cvs Anti Itch; Cvs Cold and Hot Medicated XL; Cvs Extra Strength Cold And Hot Medicated; Cvs Vanishing Scent Muscle Rub; CyclobenzaprinePax; DAREDEVIL STRENGTH Muscle and Arthritis Pain Relieving; DAREDEVIL STRENGTH Muscle and Arthritis Pain Relieving Roll On; DFS 75mg DR/MS 25%/MENTH 6%/CAP 0.025% PAK; DG Health Extra Strength Medicated; DG Health Maximum Toothache Relief; DG Health Medicated Anti-Itch Analgesic; DG Health Pain Relieving; DG Ice Cold Analgesic; DINGTAI PHARMATopical Analgesic; DT Ice Cold Analgesic; DT Vaporizing Chest Rub; Dakota Muscle Relief; Dakota Muscle Relief Roll-On; Dancers Select; Dbk; Ddsgen; Debbies Down and Dirty Deep Tissue Joint and Muscle; Deep Cold Arthritic Hand Lotion 2%; Deep Remedy; Delsym Cough Plus Soothing Action; Delsym Cough Relief Plus Soothing Action; DenTek Canker Cover; Dendracin Neurodendraxcin; Denorex Extra Strength Medicated Shampoo; Denorex Extra Strength Medicated Shampoo With Conditioners; Denorex Medicated Shampoo - Regular; Denorex Medicated Shampoo Spring Fresh; Denorex Medicated Shampoo With Conditioners; Denorex Therapeutic; Dental C-Patch; Dentalgar Liq; Dentek Canker Cover; DermacinRx DPN Pak; DermacinRx Lexifen; Dermapak Plus; Dermarest Plus - Gel; Dermasarra; Dermaseptin; Dermawerx Zmt Pak; Dermoplast Anesthetic Pain Relieving Antibacterial; Dermoplast Pain Relieving; Dfs 1.5%/ms 25%/menth 6%/cap 0.025% Pak; Dg Health Extra Strength Medicated; DiMentho; Diabetic Tussin Cough Drops; Diapedic Foot Treatment; Diapedic Foot and Leg Treatment; Diaper Cream; DicloPR; Diclostream; Diclotrex; Dieda Fengshi Gao Medicated Plaster; Direct Formulary Honey-lem. Menth. Cough Loz; Direct Formulary Menthol Cough Loz 6.1mg; Discount Drug Mart Anti-Itch; Discount Drug Mart Blue Mint Mouthwash; Discount Drug Mart Original Flavor Mouthwash; Discount Drug Mart Spring Mint Mouthwash; Doans Pain Relieving; Doctor Hoys Natural Pain Relief; DoctorRelief; DolFrost Cool and Soothing Roll-On; Dollar General Cherry Cough Drops; Dollar General Cold-Hot Medicated Patches; Dollar General Honey Lemon Cough Drops; Dollar General Medicated Pain Relief Patch; Dolor-parche With Lidocaine-RX; Doloracin Rx; Doloracin/l Rx With Lidocaine; Doloran; Dorflex Icy Hot Flexible, Large; Dorflex Icy Hot Flexible, Small; Dorflex Icy Hot Flexible, XL; Double Prawn Brand Herbal Oil; Douleurin Topical Pain Relief; Dr Bob Arnots Pain; Dr Demand Relief Pain Relief; Dr Goldsons; Dr Greenes Good Stuff Pain Relief Roll On; Dr Hos Pain Aid 5x Active Strength; Dr Hos Pain Relief Maximum Strength; Dr Iyers MyoRub; Dr MINERAL Anti-Itch; Dr MINERAL Anti-Itch Spray; Dr Sheffield Muscle Rub Cream; Dr Tans Arthritis Formula 3 day Patch; Dr Waltons Vapor Rub; Dr Wolfes Cool Therapy; Dr. Blue; Dr. Carrasco Pain Relief; Dr. Ds Super 7 Pain Relief; Dr. J.I.s Arthritis Plus Gel; Dr. JIs Arthritis Plus; Dr. OH BALM; Dr. OH PATCH; Dr. Phillips Formulations Muscle Joint Relief; Dr. Sheffield Barrier Cream; Dr. Sheffield Vapor Cream; Dr. Spensers Natural Herbal Pain Relief; Dr. Teals; Dr. Teals Pre and Post Workout Pain Relief; Dr. Waltons Cool and Hot Analgesic; Dr. Wolfes Warm Therapy; Dr.'s Cream; Dr.oh Patch; Dragon; Dream Cream; Dry and Itchy Skin Relief Thayers; Dual Action Cherry Cough Suppressant Oral Anesthetic; Dual Action Glacier Mint Cough Suppressant Oral Anesthetic; Dual Action Honey Lemon Cough Suppressant Oral Anesthetic; Duane Reade Aloe Vera Pain Relieving; Duane Reade hot and cold balm; Dusel Cool Arthritis Dead Sea Salt Therapy; DynaRub; Dynarex Muscle Rub Cream; Dyninex; Dyve Comfort B; Dyve Comfort L; E Mei Shan Medicated; EFAC Pain Relieving; EFAC Pain Relieving Cream; EH Hair Plus Regeneration Hair Care; EH Plus H2CO3 Cool; EXTRA STRENGTH AND MUSCLE RELIEF 900 mg; EXTRA STRENGTH JOINT AND MUSCLE RELIEF 1500 mg; EXTRA STRENGTH eez-away; Eagle; Eagle Balm; Eagle Brand Medicated Oil; Eagle Extra Strength; Eagle Green Balm; Eagle Medicated; Eagle Medicated Aromatic; Earths Best Cold Relief Vapor; Earths Care Anti-itch; Earths Care Hemorrhoid Relief; Earths Care Pain Relieving; Ease Pain Away Analgesic Lotion; Ease Your Pain; Easter Scalp Tonic; Easy; Eb301ap Pain Relief; Eb301ct Bruise Pain Relief; Eb302 Arthritis Relief; Ecolyptus Pain Relieving Muscle Rub; Electric Medicated Balm; Elevate Cbd Heating Therapy; Elevate Cbd Warming Therapy; Elgin Pain Relief; Elixicure Lavender; Elixicure Original; Embrace Anti-itch Skin Protectant With Calamine and Menthol; Emerita Menstrual Comfort Cream; Emertussif Lozenges; Endonesic; Endoxcin; Equaline Blue Ice Pain Relieving; Equaline Cold and Hot Medicated Large; Equaline Cold and Hot Medicated Small; Equaline Muscle Rub; Equaline cool heat; Equaline muscle rub ultra strength; Equate Barrier Cream; Equate Childrens Vaporizing; Equate Cool and Heat; Equate Cool and Heat Extra Strength; Equate Cool and Heat Pain Relieving Liquid; Equate Medicated Dry and Itch; Equate Menthol Pain Relieving; Equate Menthol extra strength; Equate Pain Relieving; Equate Pain Relieving Ultra Strength; Equate Tartar Control Plus; Equate Vaporizing; Eros Iron Man; Eternal Spirit Beauty Painless Pain Relieving Cream; Eucalyptamint; Eucamint; Eucerin Calming Itch Relief Treatment; Eucerin Skin Calming; Eucerin Skin Calming Itch Relief Treatment; Evels Secret Natural Pain Relief Daredevil Strength; Exchange Select Cool Heat; Exchange Select SF Cherry Cough Drops; Exoten-C; External Analgesic; Extra Strength; Extra Strength Cold n Hot Pain Relief Medicated; Extra Strength Cold-Hot Medicated Patches; Extra Strength Hua Tuo Medicated Plaster; Extra Strength Hua Tuo Pain Relieving; Extra Strength Medicated Body; Extra Strength Pain Relief Therapy; Extra Strength Pain Reliever; Extra Strength Stopain Cold Pain Relieving; Extra Strength Stopain Cold Pain Relieving Roll On; Extra Strength With Natural Menthol Glacier Mint Cough Suppressant; Ez Massager 2 Original; Ez Massager 4 Extra Strength; Ez Massager 4 Extra strength; FEEL GOOD YOU PLUS Relief, Pain Relief; FLANAX Honey Eucalyptus; FLEX FX Pain Relief; FYZICAL SPORTS Pain Relief 1-COOL; Family Care Back Pain Therapy; Family Care Maximum Strength Medicated Anti Itch; Family Care Menthol Relief; Family Care Muscle Rub; Family Care Muscle Rub Pain Reliever; Family Care Muscle and Joint; Family Care Muscle and Joint Vanishing Scent; Family Care Pain Relief; Family Care Thera Flex; Family Care Thera Flex Pain; Family Care Ultra Strength Pain Relief; Family Dollar Antiseptic Mouth Rinse; Family Dollar Antiseptic Mouth Rinse Blue Mint; Family Dollar Antiseptic Mouth Rinse Spring Mint; Family Wellness Blue Mint; Family Wellness Cold Hot; Family Wellness Cold and Hot Pain Relief; Family Wellness Green Mint; Family Wellness Original Amber; Fast Freeze; Fast Relief Artrosamin; Fast Relief Reumacetin; Fastrin Aches and Pain Deep Relief; Feel Good Labs Natural Pain; Feel Good Labs Sport Recovery; Feminine Pain Relief; Fesi; Fire Out; First Aid Only Sting Relief; First Aid Research Chafe Away Medicated Healing; First Aid Research Zinc Oxyde Plus; First Aid Shot Therapy Cold Relief; Flanax; Flanax Cough Lozenges; Flanax Pain Relief Kit; Flex-OL; Flex-all 454 10%; Flex-all 454 16% Gel; Flex-all 454 Gel 7%; Flex24 Pain; Flex24 Performance; Flex24 Tape; FlexGen; FlexSport Roll On; FlexSport Spary; FlexaCure; Flexall Ice; Flexall Muscle (original Strength); Flexall Pain Relieving; Flexall Plus; Flexall Stick; FlexePax; Flexin; Flower O Life Pain Relieving Balm; Fluaid; Folrex Cream; Foot Rehab Pain relief and moisturizer Mission; Foot Works Achy Foot Massager Pain Relieving; Footscriptions Foot Repair; Formula T.T. Lozenges - 3.0mg; Formula T.T.O. Honey Lozenges; Formula45 Arthritis Blend; Fortify; Freds Medicated anti itch; Freeze Gel; Freezin Cold Toast; Friccilicont; Frozen Ice Fast Pain Relief; Fruit of the Earth Cool Blue Aloe Vera Cooling; Ft Crm Menthl Cvs; G-bucal-C; GADADERM Frozen Ice Advance Pain Relief; GelAzul Roll-On; Gen7T Plus; Genorthix Pain Relieving Roll On; Genuine Efficascent; Giant Eagle Cool Burst Antiseptic; Giant Eagle Cool Burst Mouthwash; Giant Eagle Original Antiseptic; Giant Eagle Original Mouthwash; Giant Eagle Spring Fresh Antiseptic; Giant Eagle Spring Fresh Mouthwash; Giltuss Bucalsep; Ginsenggo; Glacierix; Glenalgesic Blue Gel; Global Care 4oz Vapor Rub; Global Care Ice Cold Analgesic; Gold Bond Anti Itch; Gold Bond Anti-itch Lotion; Gold Bond Extra Strength; Gold Bond Extra Strength Medicated Body Lotion; Gold Bond Foot Extra Strength; Gold Bond Medicated Anti-itch Cream; Gold Bond Medicated Body Lotion; Gold Bond Medicated Body Powder; Gold Bond Medicated Foot; Gold Bond Original Medicated; Gold Bond Original Strength; Gold Bond Pain Relieving Foot; Gold Bond Pain Relieving Foot Roll On; Gold Ice; Golden Sunshine Far Infrared COOL Herbal; Golden Sunshine Far Infrared HOT Herbal; Golden Sunshine Far Infrared Herbal; Golden Sunshine Herbal; Good Neighbor Pharmacy Anti-Itch Steroid Free; Good Neighbor Pharmacy Cold and Hot Therapy Pain Relief Balm Extra Strength; Good Neighbor Pharmacy Muscle Rub Ultra Strength; Good Neighbor Pharmacy Therapeutic Blue; Good Neighbor pharmacy muscle rub; Good Sense Cool Heat; Good Sense Hot and Cold Medicated Patch; Good Sense Muscle; Good Sense Ultra Strength Muscle Rub; Goodsense Extra Strength Cold and Hot Medicated; Goodsense Extra Strength Cold and Hot medicated; Goose Grease; Goose Grease Recovery and Pain Relief; Gout Reliever Synergy; Gouttes Dentaires; GranuLotion; Green Apple Cough Drops; Green Bamboo; Green Compass Reduce Topical Pain; Green Guard Burn First Aid; Green Guard Cough Drop Relief; Green Guard Cough Relief; Green Guard Honey Lemon Cough Drop; Green Guard Sore Throat Relief; Green MINT Mouth Rinse; Gutong Tiegao Pain Relieving; H-E-B Medicated Corn Starch Foot Powder; HALLS Extra Strong Menthol Menthol; HALLS Honey; HALLS Honey Ginger; HARMON Extra Strength Pain Relieving; HARMON Extra Strength Pain Relieving Roll-On; HASOL Anagen Hair Tonic; HASOL Anagen Scalp; HASOL Anti Hair Loss; HASOL Intensive Scalp Tonic; HASOL Vital For Hair-Loss Tonic; HEB Medicated Cornstarch Body Powder; HEB Severe Toothache and Gum Relief Triple Medicated; HEMPSPORTS Hemp Pain Relief; Half and Half Balm; Halls Apple Cider; Halls Butterscotch; Halls Centres Honey-lemon Loz; Halls Centres Reg Loz; Halls Centres Regular; Halls Cherry; Halls Extra Strong; Halls Extra Strong Cherry; Halls Extra Strong Mentho-lyptus Cough Tab; Halls Extra Strong Menthol; Halls Frozen Cherry; Halls Grape; Halls Honey; Halls Honey Chamomile; Halls Honey Lemon; Halls Honey Vanilla; Halls Ice Peppermint; Halls Kids Cherry; Halls Kids Honey Apple; Halls Kids Strawberry; Halls Lemon-lime; Halls Lime; Halls MENTHO-LYPTUS; Halls Melon Splash; Halls Mentho Lyptus Cough Tab; Halls Mentho Lyptus Cough Tab Black Currant; Halls Mentho Lyptus Cough Tab Cherry; Halls Mentho Lyptus Cough Tab Honey Lemon; Halls Mentho Lyptus Cough Tab Regular; Halls Mentho Lyptus Tab Coolmint; Halls Mentho-lyptus Cough Tablets Black Currant; Halls Mentho-lyptus Cough Tablets Mountain Menthol; Halls Mentho-lyptus Cough Tablets Orange; Halls Mentho-lyptus Cough Tablets Peach; Halls Mentho-lyptus Cough Tablets Pink Grapefruit; Halls Mentho-lyptus Cough Tablets Pink Grapefruit/peach; Halls Menthol; Halls Mentholyptus; Halls Mint Bliss; Halls Mocha Mint; Halls Naturals Honey Lemon Chamomile; Halls Ocean Blue; Halls Orange; Halls Plus Cherry; Halls Plus Honey; Halls Plus Strawberry; Halls Soothers Sore Throat Lozenges; Halls Spearmint; Halls Strawberry; Halls Sugar Free Assorted Mints; Halls Sugar Free Black Cherry; Halls Sugar Free Cherry; Halls Sugar Free Citrus Blend; Halls Sugar Free Extra Strong Menthol; Halls Sugar Free Honey Berry; Halls Sugar Free Honey Lemon; Halls Sugar Free Mentho-Lyptus; Halls Sugar Free Mountain Menthol; Halls Tropical Fruit; HallsMelon Splash Melon Splash; HallsSugar Free Extra Sugar Free Extra Strong Menthol; Han Honey Loquat Syrup; Hanbang Cataplasma; Handy Solutions Cool Mint Listerine Antiseptic Mouthwash; Handy Solutions Listerine Antiseptic Mouthwash; Handyman Freeze Pain Relief; Harmony Flex 10.4% Menthol Pain Relief Spreay 1000mg; Harmony Flexible 4% Menthol Pain Relief 500; Harmony Flexible 4% Menthol Pain Relief Roll-On 1000mg; HealQu Warm Therapy Gel; Health Mart Extra Strength Pain Relief; Health Mart Muscle Rub; Health Mart Pain Relief; Health Mart muscle; Health Smart Blue Ice Topical Analgesic; Health Smart Medicated Body; Health Smart Medicated Foot; Health Smart Vaporizing Chest Rub; Healthy Accents Muscle Rub; Healthy Accents muscle ultra strength; Heat Rub; Heibaitong Pain Relieving Patch; Helix; Hello naturally fresh antiseptic; Hemo-pic; Hemp The Point; Hemp Theory Fast Acting Pain; HempNesic; Hempvana Cold As Ice Pain Relief; Hempvana Cold As Ice Pain Relief Gel-Patch; Herbal; Herbal Cough Drop; Herbal Cough Drops; Herbal Freeze; Herbal Heat; Herbal Menthol Cough Drop; Herbal Pain Relieving; Herbal UTAPLAS External Analgesic Plaster; Herbal UTAPLAS.TN; Herbal cough drops; Herbalgy; Herbion Naturals Cherry Cough Drops; Herbion Naturals Honey Lemon; Herbion Naturals Honey Lemon Cough Drops; Herbion Naturals Honey lemon Cough Drops; Herbion Naturals Honey lemon Cough Drops Sugar Free; Herbion Naturals Honey-Lemon Cough Drops; Herbion Naturals Ivy Leaf Cough Drops; Herbion Naturals Mint Cough Drops; Herbion Naturals Mint Cough drops; Herbion Naturals Mint Cough drops Sugar Free; Herbion Naturals Orange; Herbion Naturals Orange Cough Drops; Herbion Naturals Orange Cough drops Sugar Free; Herbion Naturals orange Cough drops; Herbomint Cough Drops; Herbon Cinnagreen; Herbon Glacial Mint; Herbon Lemon Honey Herbal; Herbon Orange Tingle; Herbon Original Cherry; Herbon Original Lemon Honey; Herbon Rockhopper Chocomint; Herbon Rockhopper Wild Cherry; Herbon Sugar Free Cherry; Herbon Sugar Free Lemon Honey; Herbon Sugar Free Wild Cherry; Herbon Wild Cherry; Herpetrol; Hielo Ardiente; Histamine DHCl 0.10 Percent and Menthol 2 Percent; Ho Liang Kee; Home Farmacy; Honey Cough Drops; Honey Ginger Cough Drops; Honey Lemon Cough Drop; Honey Lemon Cough Drops; Honey Lemon Liquid Center Cough Drops; Honey Lemon Menthol Eucalyptus Cough Dps; Honey Lemon Sore Throat Lozenges; Honey Lemon Throat Drops; Honey Lemon cough drop; Honey Lemon cough drops; Honey Tulsi Cough Drops; Honey cough drop; Honey lemon menthol cough drop; Honey-lemon Cough Lozenges - 8.4mg; Honibe; Horse; Hot Cold Lidocaine With Menthol; Hot Ice Soothing Analgesic; Hot Ice Soothing Analgesic Gel; Hot Pain Relieving; Hot Stuff; Hot and Cold Cream with Lidocaine Pain Relieving; Hot and Cold Cream with Lidocaine- RA Pain Relieving; Hot and Cold Lidocaine with Menthol Patch Pain Relief; Hot and Cold Medicated Patch; Hot and Cold with Lidocaine Pain Relieving; Hot and Cold with Lidocaine-Careone Pain Relieving; Hot and Cold with Lidocaine-RA Pain Relieving; Hot/Cold Medicated Patch; Hua Tuo Huo Lu Oil; Hua Tuo Medicated Plaster Extra Strength; Huitomi Slimming Sports; Human Science Muscle Pain Relief; Human Science Pain Relief; Humphreys Bendito Alcoholado; Huo Pao Tieh Ta Feng Shin Kao; Hysan Hua Tuo Medicated; Hysan Huo Lu Medicated; Hysan Pain Reliever; Hyvee Antiseptic Blue Mint; Hyvee Antiseptic Mint; Hyvee Antiseptic Original; Hyvee Blue Mint; Hyvee Health Cool Blue Sugar Free; Hyvee Health Green Mint Sugar Free; ICE COLD Analgesic; ICE MUSCLE RUB Leon M.C; ICE QUAKE Analgesic Cream White; ICE QUAKE MUSCLE RUB Blue; ICEQUAKE Cold Hot; ICYHOT Medicated; Ice; Ice ANALGESIC; Ice Cold Analgesic; Ice Cold Analgesic Gel; Ice Cold Topical Analgesic Gel; Ice External Analgesic Leader; Ice Gel 2.0%; Ice Gel Therapy 2%; Ice Power Pain Relieving; Ice Quake; Ice Quake Muscle Rub; Ice Quake Plus; Ice Quake Roll On; Ice Quake White; Ice Therapy; Icy Blue; Icy Cold Cool Pain Relieving; Icy Cool Maximum Strength; Icy Freeze; Icy Hot; Icy Hot Advanced Relief; Icy Hot Arm Neck Leg and Small Areas; Icy Hot Arthritis; Icy Hot Back; Icy Hot Back and Large Areas; Icy Hot Lidocaine Dry; Icy Hot Lidocaine Pain Relieving Cream Plus Menthol; Icy Hot Medicated; Icy Hot Medicated Micro; Icy Hot Medicated No Mess Applicator; Icy Hot Medicated Roll Large; Icy Hot Medicated Roll Medium; Icy Hot Medicated Roll, Large; Icy Hot Medicated Roll, Medium; Icy Hot Medicated, Advanced Relief; Icy Hot Medicated, Back; Icy Hot Medicated, Micro; Icy Hot Medicated, XL; Icy Hot Naturals; Icy Hot No Mess Vapor Cough Suppresant; Icy Hot No Mess Vapor Cough Suppresant for Kids; Icy Hot Pain Relieving Balm; Icy Hot Pain Relieving Cream; Icy Hot Pain Relieving Stick; Icy Hot Power; Icy Hot Vanishing Scent; Icy Hot XL Back and Large Areas; Icy Hot with Lidocaine; Icy Hot with Lidocaine Pain Relieving; Imada Four Seasons Safe Analgesic Balm; Imbue Pain Relief; Imman coolbreeze; Inarub Crm; Inflammation OTC Deep Pain Care Cold; Inflammation OTC Deep Pain Care Hot; Inflatherm; Infraline Liq; Inmotion Pain Creme Original Strength; Inmotion Pain Creme Ultra Strength; Inno Rheuma Cream; Inno Rheuma Massage Oil; Insta Relief DM; InstaNatural Pain Relief Gel; InstaSoothe Pain Relief; Instaflex Extra Strength Pain Relief Cream; Instaflex Pain Relief; Instaflex Pain Relief Cream; Instaflex Pain Relief Roll-On; Instant Therapy; Integrative Therapeutics, Inc. Joint Gel; Invisible Pain; Ion-TO Scalp Cleanser S; Itch Nix; Itch Relief; Itch relief Cream; Ivy Dry; Ivy-Dry Super; J9 Ultra Advanced Eyebrow Serum; J9 Ultra Advanced Intensive Scalp Serum; JOINT AND MUSCLE RELIEF 450 mg; JOINT AND MUSCLE RELIEF 750 mg; Jack Black Performance Remedy Dragon Ice; Jack and Jill Rub; Jade; Jakemans Blueberry; Jakemans Cherry; Jakemans Peppermint; Jakemans Throat and Chest Anise; Jakemans Throat and Chest Cherry; Jakemans Throat and Chest Honey and Lemon; Jakemans Throat and Chest Peppermint; Jimin Zhuifeng Gao; Jin Gu Wang; Jivamukti; Joint Maintenance Compliance Kit; Joint and Muscle Pain; JointFlex ICE; Josephs Lion; Jun Wai Lung Medicine Pain relieving; K2 Cold Therapy; K2c; K2k; KGS Bao Zhen Gao Medicated Plaster Extra Strength; KGS Zhitong Gao Medicated Plaster Extra Strength; KINeSYS Analgesic Sport; KPP Triple Action; Kaewoon; Kalaya Breathe Easy Vaporizing Rub; Kalaya Pain Relief 6X with Arnica; Kama Sutra Pleasure Balm; Kank-A with Blistex Medicated Lip; Katinko Pain And Itch Relieving; Kay Medic Menthol Pain Relief; Kaz Inhalant; KeVUENO Pain Relieving; Kemagel Pain Relief; Keptrils; Keracare; Kerasal; Kerasal PF-10; Keratek; Kessler Family Wellness; Kinkan; Kinkan Cool; Kiro Rub; Kiro-rub; Kiss Therapy Medicated Lip Balm; Kobi - Crm; Kool Comfort; Kool Comfort Pain Relieving Roll-On; Kroger Aloe Vera Pain Relieving; Kroger Cool Mint Boost Mouth; Kroger Hot and Cold Medicated Patch; Kroger Maximum Strength; Kung Fu Pain Relief; Kwan Loong; Kwan Tak Hing Plaster - Pad-pls; Kymaro Roll on Relief; LAV PREMIUM HEMP for Neck and Back Pain Arthritis Relief; LBri Super Aloe Stop The Pain; LCDO. ORLANDO RIVERA ARTHRITIS Topical Analgesic; LEADER Cough Drops Cherry Flavor; LEADER Cough Drops Honey Lemon; LEADER Cough Drops Menthol Flavor; LEADER Sugar Free Cough Drops Black Cherry; LILAS Feminine Pain Relief Patch; LISTERINE Original Antiseptic; LMR Plus; LONOL Forte Gel; La Jiao Feng Shi Gao; La Vaquita; La Vaquita Extra Strength; La Vaquita New Extra; La Vaquita New Regular; LaBella Linimento Obrero; LactiGo; Lactic Acid Free M Synergy for male; Lactic Acid Free for sportswoman Synergy for female; Lander Polar Ice; Lanoguard Multi-Purpose; Lantiseptic CaldaZinc; Lao Wei Wood Lock Oil; Large Medicated Pain Relief Patches; Lavaderm After Sun For Pain and Itching; Leader Extra Strength Medicated Pain Relief Patch; Leader Ice Blue Analgesic; Leader Medicated Relief Patch; Leader Pain Relieving Rub Ultra; Leader Ultra Strength Muscle Rub; Leader Ultra Strength Muscle Rub Topical Analgesic; Leader Ultra Strength Pain Relieving; Leg Strong Trifusion; Lekon Herbal Patch Green; Lenza Pro; LenzaGel; LenzaPatch; Levatio Patch; LevigoLT; LexiCaps; LexiLido; Leximenth; Liberdol Analgesic; Lid O Creme Roll On; LidAll; Lidenza Patch; LidoPR; LidoPatch; LidoPatch Pain Relief; LidoPlus Pain Relief Patch; LidoPro; LidoPro Patch; LidoSport Pain Relief Patch; LidoStream; LidoXib; Lidocaine 4% plus Menthol 1%; Lidocaine HCl 4 Percent and Menthol 4 Percent; Lidocaine HCl 4% Menthol 1%; Lidocaine Menthol Pain Relief; Lidocaine Pain Relief Patch; Lidocaine plus Menthol; Lidodextrapine; Lidonexe; Lidopatch; Lidopro; Lidothal Relief; Lidothol; Lidothol Gel; Lidozen; Lightning Pain Relief; Limencin; Linkus Lozenges Cough Suppressant/Oral Anesthetic; Lip Clear Lysine Plus; Lip Conditioner Lip Balm; Lipsorex; Lipsorex - Gel; Lipsorex Plus; Lipsorex-gel; Listerine Advanced with Tartar Protection Antiseptic Citrus; Listerine Antiseptic; Listerine Cool Mint Antiseptic; Listerine FreshBurst Antiseptic; Listerine Naturals Antiseptic - Herbal Mint; Listerine Ultraclean Antiseptic Arctic Mint; Listerine Ultraclean Antiseptic Cool Mint; Listerine Ultraclean Antiseptic Fresh Citrus; Listerine Ultraclean Arctic Mint; Listerine Ultraclean Fresh Citrus; Little Ouchies Little Remedies Pain Relief; Littles All Natural Arthritic Pain Relief; Littles Vapor Rub; Lorenza Pain Relief Patch; Lornamead Lypsyl; Lorpur; Lotion Pour Feux Sauvages; Low Sugar Cherry Flavor Fishermans Friend Menthol Cough Suppressant; Lubracane; Lucky Blue Ice; Lucky SuperSoft Muscle and Joint; Lucky Supersoft Medicated Body Triple Action; Lucky Supersoft Premium; Ludens Dual Relief; Ludens Honey Lemon Throat Drops; Ludens Honey Licorice Throat Drops; Ludens Menthol Throat Drops; Ludens Original Menthol Throat Drops; Lung Choy Shung Pain Relief Liquid; Lurosil; Lusti Profesional Vaporizing Rub; Lusti Therapeutic Ice Analgesic Rub; Lysimax; MAKESENSE with Aloe Vera and Vitamin E; MAXIMUM STRENGTH Lidocaine Plus Menthol; MAXIMUM STRENGTH MEDICATED ANTI-ITCH Rite Aid; MD CELL Scalp; MEDI-FIRST Cherry Cough Drops; MEDICATED ANTI-ITCH Well at Walgreens; MEDIQUE Medikoff Drops; MEDIQUE Sugar Free Medikoff; MENTHOGEL Pain Relief; MHS Boo Boo Balm; MHS Dit Da Jow; MHS Herbal Ice; MHS Skin Care Salve; MHS Wong Family Iron Palm Jow; MINTED LEAF Cold Therapy Foot Relief with CBD and Menthol; MINTED LEAF Cold Therapy Relief with CBD and Menthol; MINTED LEAF Cold Therapy Relief with CBD and Menthol Roll On; MIRACLE ICE Arthritis Pain Reliever; MMA Elite Pain Relief; MOBILITY Topical Analgesic; MOMR Rumaian Herbal Bandage; MTX Topical Pain; MYGRIN Roll-On; MaC Patch; MaL; Mac; MagNificent Menthol Cooling Pain Cream; MagNificent Menthol Warming Cream; Magic Balm; Magic For Pain Relief; Magical Muscle Oil; Magictop Pain Relief Patch; Major Extra Strength Cold and Hot Pain Relief Therapy; MakeSense Extra Strength Muscle Rub; Manteca Maslac; Marathon Deep Heat Rub; Marathon Pain Relief Topical Analgesic; Marco Rub Camphorated Ont; Marcs Blue Mint; Marcs Original; Marcs Spring Mint; Mastic Dent; Mata Balm; Max Revive; Max-Relief with Boswellia and Aloe Vera; MaxRevive Pain relieving; MaxRevive Plaster; Maxfit Freeze; Maxim Ice Cold Analgesic; Maximum Strength Cold Sore Treatment; Maximum Strength Cold and Hot CVS; Maximum Strength Medicated Foot Powder; Maximum Strength Pain Cream with Pure Hemp Extract; Maximum Strength Pain Relief; Maximum Strength Pain Relief Sports Cream; Maximun Strength Lidocaine Patch Plus Menthol; Maxocaine Pain Relieving Roll-ON; Maxxima; Maybelline New York Baby Lips Dr Rescue Medicated Balm; Md Cell; Med Aid Chest Rub; MedPride Chest Rub; MedPride Cold Ice Analgesic Gel; MedWorx; Medi First Plus Cherry Cough Drops; Medi-First Honey Lemon Cough Drops; Medi-First Pain Relief; Medi-First Plus Honey Lemon Cough Drops; Medi-First Plus Sore Throat Max; Medi-derm / L With Lidocaine; Medi-derm / L With Lidocaine Rx; Medi-derm Rx; Medi-derm Topical Pain Relief; Medi-first Burn First Aid; Medi-patch With Lidocaine; Medi-patch With Lidocaine Rx; Medi-sulting Topical Pain Relief; Medic Ice; Medicaine Sting and Bite; Medicaine Swabs; Medicated; Medicated Analgesic Cream; Medicated Balm Arthritis Pain Relieving Cream; Medicated Blistex Dct Lip Balm; Medicated Body; Medicated Body Powder; Medicated Chest; Medicated Chest Rub; Medicated Chest Rub - Ont; Medicated Chest Rub - Ont Top; Medicated Chest Rub Family Wellness; Medicated Foot Powder; Medicated Green Oil; Medicated Lip Balm; Medicated Lipbalm; Medicated No Mess Applicator; Medicated Oil; Medicated Pain; Medicated Pain Relief; Medicated Pain Relief Hot; Medicated Pain Relief Patch; Medicated Pain Relief Patches; Medicated Vapourizer Fluid; Mediflex; Medipap Cool; Medique Sepasoothe; Medique Sugar Free Medikoff Drops; Medistik Dual; Medistik Dual Hot and Cold; Medistik Ice; Medistik analgesic; Meditowel Pain Relief; Medline Remedy Phytoplex Calazime; Medrox; Medrox-Rx; Meggezones Menthol Pastilles; Megrix; Megrix OTC; Meijer Aloe Gel; Meijer Anti-Itch; Meijer Cherry Cough Drops; Meijer Cold Therapy Pain Relief; Meijer Cold Therapy Roll On; Meijer Cold and Hot Medicated; Meijer Cold and Hot Therapy; Meijer Extra Strength Cold and Hot Medicated; Meijer Honey Lemon Cough Drops; Meijer Large Cold-Hot Medicated Patches; Meijer Menthol Cough Drops; Meijer Muscle Ultra; Meijer Severe Toothache and Gum Relief Triple Medicated; Meijer Small Cold-Hot Medicated Patches; Meloids Pwr 1.5%; Men-Phor; MenCaps; Mencaine; Mendex; Menstrual Comfort; Menstrual Pain Synergy for treatment of Menstrual Pain; Menthacin - Cream; Menthacin Lotion; Mentho patch cool; Menthocin Patch with Lidocaine; Menthocin Patch with Lidocaine - Strong; Menthol; Menthol 10 percent plus Camphor 4 percent; Menthol 5%; Menthol Camphor Cough Suppressant Rub; Menthol Camphor Vapor Rub; Menthol Cough Drop; Menthol Cough Drops; Menthol Cough Lozenges - 6.1mg; Menthol Cough drop; Menthol Fresh Cough Suppressant; Menthol and Methyl Salicylate; Menthol and Zinc Oxide; Menthol cough drop; Menthol cough drops; Menthol, Capsaicin; Mentholatum; Mentholatum Cherry Vaporizing Rub; Mentholatum Childrens Nighttime Vaporizing Rub; Mentholatum Cough Drops; Mentholatum Deep Heating Rub Extra Strength; Mentholatum Extra Strength Ont; Mentholatum Greaseless Vaporizing Cream; Mentholatum Ironman; Mentholatum Ironman Muscle Extra Strength; Mentholatum Ironman Muscle Rub; Mentholatum Lavender Vaporizing Rub; Mentholatum Lidocaine Ice; Mentholatum Natural Chest Rub; Mentholatum Nighttime Vaporizing Rub; Mentholatum No Mess Vaporizing Rub; Mentholatum Original; Mentholatum Pain Relief Deep Heating; Mentholatum Pain Relief Extra Strength; Mentholatum Pain Relief Muscle Rub; Mentholatum Pain Relieving; Mentholatum Sports Pain Relief Cold; Mentholatum Sports Pain Relief Hot; Mentholatum Sports Pain Relief Warm; Mentholatum for Kids Cough Suppressant; Mentholix; Menthopatch Hot; Menthozen; Menthozen Hydrogel; Menticol first aid antiseptic and external analgesic lotion; Mercy Pain Relieving; Meridian Balm; Migranow; Migryl; Migryl Biofrequency Chip; Minard's Joint Relief; Mind Body Matrix Pain Relief; Mineral Ice; Mineral Ice Pain Relieving; Mini Pain Relief; Minted Leaf Cold Therapy Pain Relief; Minted Leaf Cold Therapy Pain Relief Roll-On; Miracle Foot Repair; Miracle Foot Repair Cream; Miracle Ice; Miracle Ice Therapeutic; Miracle Ice Ultra Strength; Miracle Pain Cream; Miracle Rub; Miracle of Aloe Rub Roll On; Miractil; Mobility; Moisture Therapy Anti-Itch; Molyhen; Monkey Holding Peach Brand External Analgesic Balm; Moore Medical Cherry Cough Suppressant/Anesthetic Drops; Moore Medical Honey Lemon Cough Drops; Moore Medical Menthol Eucalyptus Cough Drops; Moore Medical Sugar Free Black Cherry Cough Suppressant/Anesthetic Drops; Moore Medical Sugar Free Menthol Cough Suppressant/Anesthetic Drops; MooreBrand Assorted Cough Drops; Motion Medicine; Mountain Herb Sugar Free With Stevia Cough Suppressant Oral Anesthetic; Mountain Ice Pain Relief; Mouth Rinse; Mouthwash; Mr Dudleys Topical Cycle Relief with Nutmeg; Mr Dudleys Topical Pain Relief; Muellergesic; Multi-action Denorex 2-IN-1 Dandruff Shampoo + Conditioner; Multi-action Denorex Dandruff Shampoo; Muscle; Muscle Ease; Muscle Mist; Muscle Rub; Muscle Rub CVS; Muscle Rub Cream; Muscle Rub Greaseless; Muscle Rub Maximum Strength; Muscle Rub Non Greasy Pain Relieving; Muscle Rub Premier Value; Muscle Rub Ultra; Muscle Rub Ultra Strength; Muscle Rub Ultra Strength CVS; Muscle Rub Ultra Strength Pain Relieving; Muscle and Joint; Muscle and Joint Pain Relief; Muscle and Joint Pain Relief Gel; Muscle and Joint Vanishing Scent Fast Penetrating; Muscle rub; MuscleCare Pain Relieving; MuscleCare Professional Therapy Pain Relieving; Muscular Balm; Musle and Joint; My Omega 3 Rub; MyOmega OMEGA 3PLUS PAIN RELIEF RUB; MyOmega Omega 3plus Targeted Relief; Myo-Breathe; MyoRx Low Dose Pain Relieving; MyoRx Pain Relieving; Myoflex Extra Strength Ice; Myoflex Ice Cold Gel 5%; Myoflex Ice Cold Plus - Gel; Myoflex Ice Cold-gel 4%; Myoflex Ice Plus - Crm; Myrrh Woman; Médi-rub; NAMMAN MUAY Athletes Pain Relieving; NICE Assorted Cough Drops; NICE Citrus Cough Drops; NICE Cool Mint; NICE Honey Lemon Cough Drops; NICE Menthol Cough Drops; NOSMO KING smoking deterrent; NULIDO Lidocaine Patch Plus Menthol; NZT-1 Synergy; Nan San EASY FLEX Pain Relieving; Nan San MUSFLEX External Analgesic; NanoFreeze; NaproPax; Napropak; Napropak Cool; NaproxenPax; Nasal Decongestant; Naticura Alleviate Natural Hemorrhoid Relief; Natoral Korean Ginseng; Natralia Anti-Itch Soothing; Natur 911; Natural Cherry Cough Drops; Natural Cherry Honey Herb Throat Drops; Natural Herbal Cough Drop; Natural Herbal Cough Drops; Natural Honey Herb Cough Suppressant Throat Drops; Natural Honey Lemon Cough Drops; Natural Honey Lemon with Echinacea Cough Suppressant Throat Drops; Natural Lemon Mint Herb Throat Drops; Natural Lemon Verbena with White Tea Herb Throat Drops; Natural Pain Relieving Lavender Breeze Cryogel; Natural Throat Drops Honey; Natural Throat Drops Honey Lemon; Natural Throat Drops Honey Pomegranate; Natural herb cough drop; Nature's Relief 1222; Natures Choice Cool Hot Ice; Natures Realm Cool Hot Ice Analgesic; Natures Realm Vaporizing Chest Rub; Natures Sunshine Products Everflex Topical Analgesic Pain Relief; Natures Willow; Natures Willow Bug Bite Balm; Naturland Inno Rheuma Cream; Naturland Sports Cream; Neotica; Neptune Ice; Neptune Ice Patch; Nerve Reverse Pain Relief; Neurolatore Power Formula Pain Relief; Neuvaxin Patch; Neverpain; New Ammeltz; New NBF GINGIVAL Gel; New Premium Notamo; New Premium Notamo Tonic; New Terocin; Nexalgia; Nice Assorted; Nice Cherry; Nice Cherry Cough Drops; Nice Citrus; Nice Honey Lemon; Nice Menthol; Nivea A Kiss of Intense Moisture Healing Medicated Lip Care; No Pain More Gain; No Pain More Gain NPMG Foam; No Touch Application Chest Rub Well at Walgreens; No Touch Chest Rub; No Touch Chest Rub Rite Aid; Noble Lion Medicated Balm; Nopen Cool; Nopen Hot; Nopiate Topical Pain Relief; North Burn; North Cough Drop; Nosk EX Sleep; Nosmotea smoking deterrent; Novae Pain Relief Analgesic Lotion; Novarnica; Novarnica Foot Pain Reliever; Novarnica Moisturizing Foot Cream; Novarnica Sport; NovoPain; Novum Apr; NuDroxiPAK; NuDroxiPAK DSDR-50; NuDroxiPAK DSDR-75; NuDroxiPAK E-400; NuDroxiPAK I-800; NuDroxiPAK M-15; NuDroxiPAK N-500; NuDroxicin; NuDroxicin pain relief Roll-On; NuLido; Numotizine; Nuvalu Ice Therapy Menthol Pain Relieving; Nuvalu Vaporizing Chest Rub; Nvcare; ODEUR Senior Premium Cleanser; OPITOX TOPICAL Gel; ORAGESIC Oral Pain Reliever; ORAL-DENT Blue Mint; Obus Form Therapeutic Heat Rub; Obus Form Therapeutic Ice Gel; Odeur Premium Body Cleanser; Odynia-R Regular; Olbas Lozenges Maximun Strength; Olbas Pastilles; Olp Muscle Rub; Olp Pain-X; Omax Cryofreeze Roll-On; Omega 3 Targeted Relief; Omega Pain Relieving; One Gel Sport Pain relieving; Oneback; Onguent Camphre Menthol Alsi; Orajel; Orajel 3X Medicated For All Mouth Sores; Orajel 3X Medicated For Toothache and Gum; Orajel 4X Medicated For Toothache and Gum; Orajel 4X Medicated For Toothache and Gum, Cream; Orajel 4X Medicated PM For Toothache and Gum; Orajel Alcohol Free Antiseptic Rinse For All Mouth Sores; Orajel Antiseptic Alcohol-Free Mouth Sore Rinse; Orajel Antiseptic Rinse For All Mouth Sores; Orajel Cold Sore Moisturelock; Orajel Denture Pain Relief; Orajel Denture Plus; Orajel Gum Pain 3X Medicated; Orajel Instant Pain Relief Maximum; Orajel Instant Pain Relief Maximum Strength; Orajel Instant Pain Relief Severe; Orajel Instant Pain Relief Severe PM; Orajel Instant Pain Relief for Severe Toothache Maximum Strength; Orajel Instant Pain Reliver for Canker Sores Extra Strength Pain Relief; Orajel Maximum Strength; Orajel Multi-action Cold Sore Medicine; Orajel Toothache Strips; Orajel Ultra Canker Sore Medicine; Orajel for Codl Sores Relief and Concealer; Orajel for Cold Sores Maximum Strength; Oral Analgesic Maximum Strength; Oral Care Antiseptic; Oral Dent Amber; Oral Dent Blue Mint; Oral Dent Citrus; Oral Dent Fresh Mint; Orasep; Organic Peppermint Herb Throat Drops; Organix Complete; Oriental Magic Oil; Original Antiseptic; Original Extra Strong All Natural Fishermans Friend Menthol Cough Suppressant; Ortho-Nesic; Ortho-Nesic With Capsaicin; OsmoFlex; Osteo Bi-Flex JOINT HEALTH PAIN RELIEVING; Osteo Bi-Flex Roll-on Extra Strength; Osteoarthritica Synergy for treatment of Osteoarthritis; Otis Clapp Thorets; Overtime; Overtime-X; Overtime-hmp; Oxy Rub Pain Relief; OxyRub Max Pain Relief Cream, 2oz; OxyRub Pain Relief; OxyRub Pro Pain Relief Cream, 4oz; P.O.V Itch Relief Body; P.O.V. Blue Mint; P.O.V. Spring Mint; P.O.V. Sugarfree; PAIN Terminator Analgesic; PARAID Extra Strength Menthol Pain Relief Sleeve KNEE Large Ankles Elbows; PARAID Extra Strength Menthol Pain Relief Sleeve WRIST and Small Ankles and Elbows; PERFORM COOL and SOOTHING PAIN RELIEVING; PHS Hair Science Fem Hair Loss Tonic; PHS Hair Science Hom Hair Loss Tonic; PHS Hair Science Pro Hair Loss Tonic; PM External; Pain Bust R II; Pain Crush; Pain Ease; Pain Free; Pain Freeze Roll-on Cold Therapy Pain Relief; Pain Goodbye Medicated Cream; Pain No More Therapy; Pain Reileving Herbal Oil; Pain Release; Pain Relief; Pain Relief BalmPreferred Plus Ph Preferred Plus Pharmacy; Pain Relief CopperGel; Pain Relief Cream Extra Strength; Pain Relief Cream Topical Analgesic; Pain Relief Gel; Pain Relief Herbal; Pain Relief Herbal balm; Pain Relief Hot Patch; Pain Relief Liquid; Pain Relief Patch; Pain Relief Patches; Pain Relief Roller Signature Care; Pain Relief Rub; Pain Relief Rub Iampur; Pain Relief Signature Care; Pain Relief Sleeve Extra Large; Pain Relief Sleeve Large; Pain Relief Sleeve Medium; Pain Relief Therapy Patch; Pain Relief Tincture; Pain Relief Well At Walgreens; Pain ReliefPatches Patches; Pain ReliefRoll On Roll On; Pain Reliever; Pain Relieving; Pain Relieving Analgesic; Pain Relieving Balm; Pain Relieving Chi Len Oil; Pain Relieving Cooling; Pain Relieving Iampur; Pain Relieving Liniment; Pain Relieving MUSFLEX; Pain Relieving Patch; Pain Relieving Patch Ultra Strength; Pain Relieving Patch Ultra Strength Ultra Strength; Pain Relieving Patches; Pain Relieving Po Tong Oil; Pain Relieving Roll-On; Pain Relieving Ultra Strength; Pain Relieving Warming Balm; Pain Rescue; Pain releiving Well at Walgreens; Pain-A-Trate Extra Strength Pain-Relieving; Pain-A-trate Cream; Pain-ease; PainAway with natural peppermint and Balsam Peru; PainFix Relief; PainFix Restore; PainGo KFT; PainKillerNaturalOintment; PainKoolers; PainKoolers Topical Analgesic; PainKoolers Topical Analgesic Patch; PainPatrol CBD Professional Pain Relief; PainPatrol Professional Pain Relief; PainShield; PainZone; PainZone Light; Painathol-MC Cool Penetrating Pain Relieving; Pallerix; Pallerix OTC BIOfrequency Chip; Panitrol XR; Paraid Pain Relief; Parche Leon Milagroso; Parche Leon Milagroso Dual Action; Pasmol Pain Relieving; Pastilles Valda; Patch; Patch Good Sense; Patch Kroger; Patch Scherer Labs; Patch Walgreens; Pelo Scalp Tonic Sheet; Penetrating Pain Relief Jaxsens; Pepperment Cough Drops; Peppermint Cough Drops; Peppermint Mouth Rinse; PerCara Original Medicated Powder; Perfect Purity HotIce; Perfect Purity Medicated Body; Perfect Purity Medicated Body Powder; Perfect Purity Medicated Foot Powder; Perfect Purity Vaporizing Chest Rub; Perform; Perform Cool and Soothing Pain Relieving Foot; Perform Cool and Soothing Pain Relieving Roll-ON; Performance Brands Steel Releaf Pain Relieving Liquid; Performance and Recovery; Perilla Fo ti; Perilla Fo ti Conditioner; Personal CARE ICE COLD ANALGESIC; Personal CARE Vaporizing Chestrub; Personal Care; Personal Care Extra Strength Cold Hot; Personal Care Ice Cold; Personal Care Ice Cold Analgesic; Pete and Pedro; Pharmacist Choice Pain Relief Patch; Pharmacist Choice TSX Transdermal Patch; Pharmacys Prescription; Pharmacys Prescription Analgesic Gel; Pharmacys Prescription Ice Cold Analgesic; Pharmacys Prescription Vapor Rub; PharmapureRx Menthotral; Phoenix Balm; Phoenix KinetiCream Anti-inflammatory and Pain Relief; Phquirogel; Physi-cold; Physicians Care Cough and Sore Throat; Phyto Therapy; PhytoRelief CC HERBAL; Phytorub Ont; Plaster MandAHerbalPlaster; PlayMakar Roll On Cool Pain Relief; Po Sum On Healing Balm; Po Sum On Medicated; Pocket Farmacy; Point Relief Cold Spot Pain Relieving; Point Relief LidoSpot; Point Relief LidoSpot with Menthol; Point Relief cold Spot Pain Relieving; Point Relief cold Spot Pain Relieving roll-on; Polar Frost Cold; Polar Ice Analgesic Gel 2.5%; Polytar AF Shampoo; Pomada Dragon Pain Relieving; Pommade Au The Des Bois; Ponos Natural Pain Relief; Poudre; Power Relief; Powerbooster Mild; Poxiezzz; Pr; PrameGel; Pranicura; Precise Pain Relieving; Preferred Plus Arthritis Cream; Preferred Plus Body Powder; Preferred Plus Medicated Lip Balm; Premier Value Medicated Body Powder; Premier Value Medicated Chest Rub; Premier Value Medicated Foot Powder; Premieres Pain; Prevention Wound and Burn; Pro-Flex; ProStat Burn First Aid; Procicept B Benzocaine 20%; Procicept L Lidocaine 4%; Prof; Professional Therapy Muscle Care Pain Relieving Gel by Dr. Chris Oswald Maximum Strength; Professional Therapy Muscle Care Pain Relieving Ointment by Dr. Chris Oswald Maximum Strength; Professional Therapy MuscleCare; Professional Therapy MuscleCare Extra Strength; Professional Therapy MuscleCare Pain Relieving; Professional Therapy MuscleCare Turbo; Professional Therapy MuscleCare pain relieving gel Extra Strength; Profoot; Profoot Pain Relief Patches; Prolida; Proplex Greaseless Muscle Rub; Prosync Muscle Rub; Protec Pain Relief Cold Therapy; Protec Roll-ON; Provenza; Prozero; Publix Burn Relief; Pulmoll Menthol - Eucalyptol Pastilles; Pulmoll Pastilles; Pumpkin Spice Cough Drops; Punchgunk; Pure InflaMedix Natural Pain Relief; Pure-Aid; Puroxcin; Q Health Pain Relief; QC Cold and Hot Pain Relief; Qr Pain; Qroxin Patch; Quali Cold; Quali Herbal; Quali Patch (Cold); Quali Patch Herbal Soultice; Quali Patch Warm; Quali Warm; Quality Choice Amber; Quality Choice Blue Mint; Quality Choice Muscle and Joint; Quality Choice Sprng Mint; Quantum Health Bing Cherry Flavor; Quantum Health Meyer Lemon and Honey Flavor; QuickFlex; REMEDY Calazime Skin Protectant; RESTORE Fast Acting Pain; RICHENNAPHARM GROWMAX Hair care Tonic; Ramedica; Rapid-Ease Pain Relief Topical Analgesic; Raw Heat; Raw Ice; Ray Dol; Re-leve; Reactheat Heat Baume; Reactice Reactivating Ice Baume; Real Time Pain Relief Cream; Real Time Pain Relief Foot Cream Topical Analgesic; Real Time Pain Relief MAXX Topical Analgesic; Real Time Pain Relief Sports Cream Topical Analgesic; Real Time Pain Relief Topical Analgesic; Real Time Pain Relief Vegan Select; Reciphexamine; Recovery; Red Lion Relief; Red Oil; Redicare Cherry Menthol Cough Drops; Reed Therapeutics Pain Relieving Therapy; Refined Gou Pi Pain Relieving Plaster; Rejuvaflex Natural Pain Relieving; Releevia; Releevia LM Patch; Releevia MC; Relexo Oil; Reliaderm; Relief; Relief Assist; Relief Balm; Relief Pain Relieving Cream; Relief Recovery; Relief and Cooling; Reliefor; Relieve And Relax Pain Relieving; Reliever; Relyyks; Relyyt; Rematex; Reme D; Remedy Phytoplex Calazime Protectant; Renewal Medicated; Renovo; Renovo Lido5; Restoral; Retadolor; Retadolor Penetrating Cool Therapy; Revalife; Rexall ICE COLD ANALGESIC; Rexall Vanishing Scent Pain Relieving; Rhemu; Rheumatica Synergy for treatment of Rheumatitis; Rhino-vaccin; Rhuli Gel; Rhulief Pain Relieving Balm; Ricora; Rinse; Rite Aid; Rite Aid Cold and Hot Medicated; Rite Aid Extra Strength Pain Relief Cold and Hot Medicated; Rite Aid Herbal Cough Drops; Rite Aid Maximum Toothache Reliever; Rite Aid Roll-On; Rite Aid Severe Toothache and Gum Relief Triple Medicated; Rite Aid Soothing Medicated Anit-Itch; Rite Aid Ultra Strength Muscle Rub; Road to Wellness; Robitussin Medi-Soothers Cough DM; Rocainol; Rocainol TOPICAL ANALGESIC; Rock Sauce; Rock Sauce Chill (no color); RockSauce ICE; Rocksauce Fire; Rocksauce Ice; Rolling Farmacy; Rotex; Royal Mouthwash Fresh and Clean Original Mint; Rs; Rubber Arm Muscle Rub; Rubbex Creme; Rubbing Dots Natural Cool Pain Relief; Rugby Anti-Itch; Rugby Barrier Cream; Rugby Cooling Pain; Rugby Ice Blue External Analgesic; Rugby Pain Relieving Analgesic; Rx Act; SAINT External Pain Relieving Bandage; SANA SANA Menthol External Analgesic; SE Sport Endurance Pain Freeze Recovery; SF Black Cherry Cough Drops; SF Cherry Cough Drop; SF Cherry Cough Drops; SF Honey Lemon Cough Drop; SF Honey Lemon Cough Drops; SF Menthol Cough Drop; SF Menthol Cough Drops; SF menthol cough drop; SHENG CHUN HERBAL Pain Relieving; SINSINPAS Pain Relieving Patch; SMITH BROS HONEY LEMON Cough Drops; SMITH BROS MENTHOL EUCALYPTUS Cough Drops; SMITH BROS Sugar-Free BLACK CHERRY Cough Drops; Salonpas; Salonpas - Pls Top; Salonpas Arthritis Pain; Salonpas DEEP RElieving TOPICAL ANALGESIC; Salonpas DEEP Relieving; Salonpas Gel-patch; Salonpas Medicated Plaster; Salonpas Pain Relief; Salonpas Pain Relieving; Salonpas pain relieving HOT; Salonpas pain relieving HOT-L; Salonpas pain relieving JET; Salonpas pain relieving MASSAGE; Salonpas pain relieving PATCH -L; Salonpas pain relieving hot; Salonsip Aqua-patch; Sanatos Lozenges; Sano Ti Amo Relief and Repair Pain Relief; Sarna; Sarna P; Satogesic; Satohap; Satohap Lidocaine 4% Menthol 1% Pain Relieving Cream; Satohap Pads; Savex Ont; Savex With Paba; Savex With Sunscreen Ont; Sc Herbal Pain Relieving; Sc Pain Relief Balm; Scal-tonic intensive liquid hair care; Scalpicin Anti-dandruff Anti-itch Liquid; Screamin Menthol Toast; Seldicine (Massage Cream); Select Brand Anti-Itch; Sella Natural; Severe Throat Sore Drops; Shang Shi Zhi Tong Gao; Shang Shi Zhi Tong Pain Relieving Plaster; Shanghai Shang Shi Zhi Tong Gao Pain Relieving; Shao Lin Gao Pain Relieving Plaster; Shao Lin Pain Relief Plaster; Shaping with workout - loose skin revitalizer; She Xiang Zhuang Gu Gao; She Xiang Zhuang Gu Gao Regular; SheXiang ZhuangGu Gao; Shelo NABEL Arnica Gel; Shelo NABEL Gel para Golpes; Shelo NABEL Hielo Mineral; Shelo NABEL Pomada Arnica; Shelo NABEL TherapyGel; Shelo NABEL Vibora de Cascabel Topical Analgesic Gel 250 ml; Sheng Chun Pain Relief; Shennong Analgesic Plaster; Shopko Blue Mint; Shopko Ice Mint; Shopko Medicated Lip Treatment; Shopko Spring Mint; Shu Jin Lu; Shuang Long Pain Relieving Oil; Sigform Herbal Muscle; Sigform Herbal Muscle Mist; Signature Care Cold and Hot Medicated; Signature Care Cool Heat; Silvera Pain Relief Patch; Simanix; Sincere Pain Relief; Sinelee; Sinsin Mulpas; Sinsinpap Cool; Sinsinpas Cold; Sinsinpas Hot; Sintong; Siterol; Skin So Soft Bug Guard Plusitch Relief Itch Relief; Smart Choice Barrier; Smart Pro Medicated Analgesic Pain Relieving Cataplasm; Smart Sense Blue Mint; Smart Sense Citrus; Smart Sense Cold and Hot Extra Strength Medicated; Smart Sense Cool Heat; Smart Sense Iceberg Blue; Smart Sense Original Flavor; Smart Sense Spring Mint; SmartRx Gaba Kit; SmartRx Gaba-V Kit; Smith-amish Arthritis; Snap Crack; Sno Swedish Arctic Gel Recovery; Sno Swedish Arctic Gel Relief; Sno Swedish Arctic Gel Support; Sof Skin Icy Blue; Sof Skin Vaporizing Chest Rub and Cough Suppressant; Sofskin Ice Analgesic; Soft Mint Listerine Antiseptic; Softlips Lip Relief; Solaice; Solmara; Solstice Pain Relieving; Sombra Cool Therapy; Sombra Warm Therapy; Sooth X Creme - 1.25%; Soothanol X2; Soothe; Soothee Patch; Soothing Ice Rub; Soothing Ice Rub Analgesic Gel; Soothing Menthol Lip Care; Soothing Pain Relief Roll On; Sore No More; Sore No More Cool Therapy; Sore No More Warm Therapy; Sore Throat Logenzes Sore Throat; Sore Throat Lozenges Menthol Flavour; Sorgon; Sound Body Extra Strength Cold and Hot; Sound Body Extra Strength Cold and Hot Medicated; Soundbody; Soundbody Cold and Hot Pain Relief; Sport Cold - Gel - 2%; Sport Rub - Cream; Sports Balm; Ssencare; Sting-Kill; Stopain Clinical; Stopain Clinical Roll-On; Stopain Cold Pain Relieving; Stopain Cold Professional Strength Pain Relieving; Stopain Extra Strength Continuous; Stopain Extra Strength Pain Relieving; Strain Pain Relieving Cream; Strawberry Cough Drop; Strawberry Cough Drops; Strepsils Cherry; Strepsils Cool; Strepsils Extra Black Cherry; Strepsils Sore Throat Blocked Nose; Stressa Back and Neck Pain Relieving; Stroke II Synergy; Strong Vaporizing; Studio 35 External Analgesic Medicated Body; Studio 35 Medicated Body; Studio35 Extra Strength Medicated Body; Sub-zero Cool Pain Relieving; Sucrets; Sucrets Cherry Vapour Action Loz; Sucrets Complete; Sucrets Complete Cool Citrus; Sucrets Complete Sore Throat, Cough and Irritation; Sucrets Complete Vapor Cherry; Sucrets Herbal Berry Pomegranate; Sucrets Herbal Honey Lemon Ginseng; Sucrets Honey Lemon Vapour Action Loz; Sucrets Ice Grape; Sucrets Ice Pomegranate; Sucrets Vapor Cherry; Sugar Free Black Cherry Cough Drops; Sugar Free Cherry Cough Drops; Sugar Free Cherry Fishermans Friend Menthol Cough Suppressant; Sugar Free Cherry Herb Throat Drops; Sugar Free Green Tea With Echinacea Cough Suppressant Throat Drops; Sugar Free Hiney Lemon Cough Drops; Sugar Free Honey Lemon Cough Drop; Sugar Free Honey Lemon Cough Drops; Sugar Free Honey-Lemon Fishermans Friend Menthol Cough Suppressant; Sugar Free Lemon Mint Herb Throat Drops; Sugar Free Menthol Cough Drop; Sugar Free Menthol Cough Drops; Sugar Free Menthol cough drop; Sugar Free Menthol cough drops; Sugar Free Mountain Herb Cough Suppressant Throat Drops; Sugar Free Original Swiss Herb Cough Suppressant Throat Drops; Sugar Free Refreshing Mint Fishermans Friend Menthol Cough Suppressant; Sugar Free Swiss Cherry Herb Throat Drops; Sugar Free menthol cough drop; Sugar free menthol cough drop; SumaChip; Sun Burn Relief Cream; Sun Moon Star Pain Relieving; Sunmark Muscle Rub; Sunmark muscle rub; Super Forte Xl10; Super Lysine plus; Superior Analgesic; Suppress Ointment; Sweet Comfort; Synergy Booster; Synvexia; Synvexia TC; TENHEALER Pain Rub; THE BLACK Patch; TOKUHON-A External Analgesic Pain Relieving Medicated; TOKUHON-A External Pain Relieving Medicated; TRIPLE CARE plus ARNICA ANALGESIC - RECOVERY; TVIA TOPICAL Gel; Tact; Tact Cool Jelly; Talc-free Medicated Body; Tartar Control; Tartar Control Plus; Tartar control; Tartar control plus; Te-Fu Recovery Massage; Teeter ReNew Pain Relief; Teeter Renew Muscles Pain Relieving; Teeter reNEW MUSCLES Pain Relieving; Tempo cool; Tendinitica Synergy for treatment of Tendinitis; Terocin; Terphouse; TerraFreeze Pain Relief; Terrasil FLEX -Pain Relief and Muscle Rub MAX; Terrasil FLEX Pain Relief and Muscle Rub; Terrasil Itch, Rash and Pain Relief; Terrasil Itch, Rash and Pain Relief Maximum Strength; Tetrakam; Tetramex; Thai Herbal Balm Lavender; Thai Herbal Balm Lemon Grass; The Fresh Market Medicated Lip Balm Soothing With Menthol Eucalyptus Oil And Clove; The Medicine Shoppe Extra Strength Pain Relieving; The Original Natural Herb Cough Drops; The Relief Company; The Skateboarding Pain Relieving Liniment; Thera Care Hot and Cold Medicated Patch; Thera Care Pain Relief Menthol Patchs; Thera Derm; Thera Patch; TheraDerm; TheraPlus Plus; Theraderm Pain Relieving Patch; Therafreeze; Theragesic Creme; Theragesic Plus; Theraid; Therapatch Vapor - Chest; Therapatch Vapour - Nose & Chin; Therapeutic Heat Lotion; Therapeutic Ice; Therapeutic Icy Cold Cooling Pain Relief; Therapeutic Icy Cold Cooling Pain Relief Roll-ON; Therapeutic Menthol; Therapeutic Relief Preferred Plus Pharmacy; Therapeutic Soothing Ice Gel; Therapy Pain; Therapytion Natural Deep Clean; Therapytion Natural Relaxing; Theraseptin; Thermacare Ultra; Thermo Rub Ont; Thritex; Throat Coat; Throat Relief Lozenges; Throat and Chest Anise and Menthol; Throat and Chest Berry Menthol; Throat and Chest Cherry and Menthol; Throat and Chest Chili and Lime; Throat and Chest Honey Lemon and Menthol; Thuna Balsam Salve Ont; Thunas Salve for Rheumatic Pains; Tianhe Guben Yaoshen Tie Gao; Tianhe Gutong Tiegao; Tianhe Gutong Tiegao (in Polyisobutylene Carrier); Tianhe Zhuanggu Gao; Tianhe Zhuifeng Gao; Tibet Gigi Itch Relief Cream; Tieso Rapido; Tieso for Man Male Cleanser; Tiger Balm; Tiger Balm Active Muscle; Tiger Balm Active Muscle Rub; Tiger Balm Arthritis Rub; Tiger Balm Muscle Rub Pain Relieving; Tiger Balm Neck and Shoulder Rub; Tiger Balm Pain Relieving; Tiger Balm Pain Relieving Hydrogel; Tiger Balm Pain Relieving Hydrogel Large; Tiger Balm Pain Relieving Muscle; Tiger Balm Red Extra Strength; Tiger Balm Ultra Strength; Tiger Balm Ultra Thin; Tiger Balm White Regular Strength; Timing Pain Savior Cool Herbal Patch; Timing Pain Savior Fragrant Ginger Patch; Tokuhon Medicated Plaster; Tommie Copper Sport; Tong Feng Ding Pain Relief; Tong Luo Qu Tong Gao; Toothache and Gum Relief; Top Care Medicated; Top Medicated; Top Medicated Pain Relieving; TopCare Cough Relief Honey Lemon Flavor; TopCare Cough Relief Sugar Free Cherry Flavor; TopCare Medicated; TopCare Natural Cherry Cough Drops; TopCare Sore Throat Cherry Flavor; TopCare Sore Throat Honey Lemon Flavor; Topcare Cold and Hot Medicated; Topcare Natural Honey Lemon Cough Drops; Topcare Pain Relieving 40ct; TopiCool Pain Relief with Cats Claw; Topical Analgesic Gel; Topical Edge; Topical Pain Relief; Topical Pain Relief Rx; Total Muscle Relief; Tpr20; Trans-D; Transanosil; Transderm-IQ; Transderm-iQ; Trauma Less; Traveling Farmacy; TriMotion Pain Relief; Triaminic Night Time Rub; Triaminic Vapour Patch; Triderma Pain Relief; Triple Action Arthritis; Triple Power Pain Relief; TruVitality CBD Muscle Freeze 4% Menthol; True Pain Relief Plus; Turmeric Infused Hemp Pain Cream; Turmeric Pain Relieving Cream; U Ice Cold; URIFLEX Fast Acting Analgesic Pain Relief; US Favorite Cold Pain Relieving; Ultimate Lidocaine Pain Relief Patch; Ultimate Topical Pain Relief Patch; Ultra Balm; Ultra Blue; Ultra Strenght Muscle Rub; Ultra Strength Heat Rub; Ultra Strength Pain Relief; Ultra Strength Pain Relief Balm; Ultra Strength Stopain Pain Relieving; Ultra Therapy Pain Relief; Ultra Vedic; Ultracin; Ultracin M; Up and Up Hot and Cold Medicated; Up and Up Pain Relief Extra Strength; Up and Up Pain Relief Ultra Strength; Up and Up Ultra Strength Pain Relieving; VANTELIN COOL PAIN RELIEVING Gel Patch; VANTELIN COOL PAIN RELIEVING Gel Patch Large; Valda Pastilles; Valda Pastilles Lemon Flavoured; Valtrum Aerobic Sports; Valtrum Soothing Topical Analgesic; Valtrum Topical Analgesic Roll On; Valtrum US Aerobic Sport IMMEDIATE ACTION; Valtrum US Soothing Topical Analgesic; Vanishing Scent Muscle Rub Gel; Vantelin Cool Pain Relieving; Vapor Plus; Vaporex; Vaporisateur Medicamente; Vaporizing Chest; Vaporizing Chest Rub; Vaporizing Chest Rub 4 oz.; Vaporizing Chest Rub 4 oz. 3 pk; Vaporizing Chest Rub Cough Supressant; Vaporizing Colds Rub; Vaporizing Colds Rub - Ont; Vaporx Balm; Vapour Rub; Vapourizing Chest Rub; Varophen; Vaseline Brand Lip Therapy Medicated Tube; Velatrin Pain Relief; Velma Pain Relief Patch; Veltrix; Venia Patch Premium Pain Patch; Vicks; Vicks Blue Throat Drops 0.3%; Vicks Blue Throat Drops Loz 0.307%; Vicks Casero Cough Suppressant/Topical Analgesic; Vicks Formula 44 Sore Throat; Vicks Vapo Rub; Vicks VapoCOOL; Vicks VapoCOOL HydraSoothe; Vicks VapoCOOL Severe; Vicks VapoCool Sore Throat; Vicks VapoDrops Cough Relief; Vicks VapoRub; Vicks VapoRub Lavender Scent; Vicks VapoRub childrens; Vicks Vaporub; Vicks Vaposyrup Liq 0.125%; VitaCin; Vitabrid C12 Hair Tonic Professional; Vitabrid C12 Hair Tonic Scalp Relief; Vitabrid Scalp; Vital Vapor; Vitaminerals Inc. Cryogel Natural Pain Relieving; Vitapirena; WPR Plus; Walgreen Vanishing Scent Muscle and Joint; Walgreens Aloe Vera Cooling; Walgreens Aloe Vera Pain Relieving; Walgreens Chest Rub; Walgreens Cold Pain Relief; Walgreens Cool N Heat Therapy Pain Relief Stick; Walgreens Cool and Heat Muscle and Joint Relief; Walgreens Cool n Heat; Walgreens Cool n Heat Muscle and Joint Pain Relief Extra Strength; Walgreens Instant Toothache and Gum Relief Triple Medicated; Walgreens Medicated Foot Powder; Walgreens Medicated Pain Relieving; Walgreens Moisture Barrier; Walgreens Muscle Rub Ulra Strength; Walgreens PAIN RELIEVING; Walgreens Pain Relieving Cream; Warming Epsom Rub; Watermelon Frost Sore Throat; Watkins Analgesic Balm; Weh-Weh Pain reliever gel; Welby Hot and Cold Medicated Patch; Welby Medicated Relief Patch; WellPatch Backache Pain Relief; WellPatch Cooling Pain Relief; Western Family Pain Relieving; White Flower Analgesic Balm; White Flower Analgesic Balm Floral Scented; White Flower Ointment; White Flower Strain Relief; White Real Time Pain Relief Topical Analgesic; Whole Foods 365 Herbal Cough Drops; Willow Balm; WinCo Extra Strength Cold and Hot Medicated; Wintermint Cough Drops; Wish Care; Wok Lok Pain Relieving Oil; Womens Relief Balm; Womens Sports Balm; Wong To Yick External Analgesic; Workvie; Workvie Roll On; Wrigley's Alpine; Wrigley's Alpine Cherry; Wu Yang Brand Medicated; X Ray Pain Relieving; X-Treme Freeze; X-seb T Plus Conditioning Shampoo; X-tar Shampoo; Xiao Zhong Gao; Xjow; Xoten-C; Xpacaine; XtraCare Ice Cold Topical Analgesic Gel; XtraCare Vaporizing Chest Rub; Xyphex Biofrequency Chip; Yan Ji Huo Jin Tou Gu Gao; Yao Shen Gao Pain Relieving Plaster; You Plus Relief Pain Relieving; You Relief Muscle and Joint Rub; Youngevity Invision CM; Your Logo Here Burn First Aid; Yu Long You Pain Relieving; Yumaki Original Mint Tooth; Yun Xiang Jing; Z-plus Shampoo; ZHONG HUA FENG SHI DIE DA GAO External Analgesic Plaster; ZIHUA EMBROCATION Cooling Pain Relief; Zandu Balm; Zaol Doctors Order Synergy Booster; Zcaine; Zen Hemp Balm; Zen Sports Balm; Zepol Topical Analgesic; Zeruvia; Zheng Gu Shui; Zhenweilong Huoluo You External Analgesic; Zhong Hua Feng Shi Die Da Gao; Zhong Hua Jiu Patch; Zhuang Gu Feng Shi Pain Relieving Plaster; Zhuang Gu She Xiang Zhi Tong Gao; Zhuanggu Shexiang Zhitonggao Pain Relieving Plaster; Zihuadick Pain relieving; Ziks Arthritis Pain Relief; Zilactin-lip (regular and Cherry Flavour); Zims Arnica Max; Zims Lido Freeze; Zims Max Freeze; Zims Max Freeze Continuous; Zims Max Freeze Pro Formula; Zinc-oxyde Plus; Zostrix Diabetic Joint and Arthritis Pain Relief; Zostrix Hot and Cold Therapy System; Zostrix Joint and Arthritis Pain Relief; Zzip Cold Sore Treatment; bB Medicated Pain Relieving Oil; balsam peru oil PainAway with natural peppermint and Balsam Peru; dynaFreeze; eLenza Patch; eez-away Pain Relief; eez-away RELIEF; eos Medicated Cooling Chamomile; equate Severe Toothache and Gum Relief; iRELIEV Roll On Cool Pain Relief; smart sense Ultra Strength

$$$$
