3162
  -OEChem-10051719133D

 42 43  0     1  0  0  0  0  0999 V2000
    0.5131   -1.1100    0.0602 O   0  0  0  0  0  0  0  0  0  0  0  0
    4.1935   -1.2932    0.1429 N   0  0  0  0  0  0  0  0  0  0  0  0
    0.0896    2.0443    1.1274 N   0  0  0  0  0  0  0  0  0  0  0  0
   -0.4700   -0.2597    0.6346 C   0  0  2  0  0  0  0  0  0  0  0  0
   -1.8725   -0.7085    0.2049 C   0  0  0  0  0  0  0  0  0  0  0  0
   -0.1724    1.1656    0.1576 C   0  0  0  0  0  0  0  0  0  0  0  0
   -0.3111   -0.4867    2.1514 C   0  0  0  0  0  0  0  0  0  0  0  0
    1.8263   -0.7199    0.4399 C   0  0  0  0  0  0  0  0  0  0  0  0
    2.8237   -1.6678   -0.2068 C   0  0  0  0  0  0  0  0  0  0  0  0
   -2.9550    0.0147    0.6448 C   0  0  0  0  0  0  0  0  0  0  0  0
   -1.9877   -1.8146   -0.6024 C   0  0  0  0  0  0  0  0  0  0  0  0
   -0.2004    1.4084   -1.1870 C   0  0  0  0  0  0  0  0  0  0  0  0
   -4.2303   -0.3932    0.2539 C   0  0  0  0  0  0  0  0  0  0  0  0
   -3.2631   -2.2224   -0.9932 C   0  0  0  0  0  0  0  0  0  0  0  0
    0.0741    2.7114   -1.5870 C   0  0  0  0  0  0  0  0  0  0  0  0
   -4.3845   -1.5116   -0.5651 C   0  0  0  0  0  0  0  0  0  0  0  0
    4.4711    0.0796   -0.2781 C   0  0  0  0  0  0  0  0  0  0  0  0
    5.1479   -2.2180   -0.4675 C   0  0  0  0  0  0  0  0  0  0  0  0
    0.3514    3.3001    0.7007 C   0  0  0  0  0  0  0  0  0  0  0  0
    0.3562    3.6814   -0.6314 C   0  0  0  0  0  0  0  0  0  0  0  0
    0.5666   -0.0060    2.5954 H   0  0  0  0  0  0  0  0  0  0  0  0
   -0.2620   -1.5562    2.3922 H   0  0  0  0  0  0  0  0  0  0  0  0
   -1.1585   -0.0713    2.7111 H   0  0  0  0  0  0  0  0  0  0  0  0
    2.0252    0.2981    0.1076 H   0  0  0  0  0  0  0  0  0  0  0  0
    1.9925   -0.7932    1.5173 H   0  0  0  0  0  0  0  0  0  0  0  0
    2.6100   -2.6876    0.1388 H   0  0  0  0  0  0  0  0  0  0  0  0
    2.6703   -1.6776   -1.2946 H   0  0  0  0  0  0  0  0  0  0  0  0
   -2.8513    0.8883    1.2804 H   0  0  0  0  0  0  0  0  0  0  0  0
   -1.1400   -2.3922   -0.9541 H   0  0  0  0  0  0  0  0  0  0  0  0
   -0.4144    0.6459   -1.9264 H   0  0  0  0  0  0  0  0  0  0  0  0
   -5.1034    0.1605    0.5867 H   0  0  0  0  0  0  0  0  0  0  0  0
   -3.3837   -3.0933   -1.6309 H   0  0  0  0  0  0  0  0  0  0  0  0
    0.0698    2.9704   -2.6415 H   0  0  0  0  0  0  0  0  0  0  0  0
   -5.3774   -1.8291   -0.8696 H   0  0  0  0  0  0  0  0  0  0  0  0
    3.9915    0.8138    0.3767 H   0  0  0  0  0  0  0  0  0  0  0  0
    4.1810    0.2696   -1.3180 H   0  0  0  0  0  0  0  0  0  0  0  0
    5.5437    0.2946   -0.1925 H   0  0  0  0  0  0  0  0  0  0  0  0
    6.1711   -1.9766   -0.1584 H   0  0  0  0  0  0  0  0  0  0  0  0
    5.1035   -2.1959   -1.5625 H   0  0  0  0  0  0  0  0  0  0  0  0
    4.9561   -3.2444   -0.1350 H   0  0  0  0  0  0  0  0  0  0  0  0
    0.5656    4.0188    1.4849 H   0  0  0  0  0  0  0  0  0  0  0  0
    0.5737    4.7033   -0.9202 H   0  0  0  0  0  0  0  0  0  0  0  0
  1  4  1  0  0  0  0
  1  8  1  0  0  0  0
  2  9  1  0  0  0  0
  2 17  1  0  0  0  0
  2 18  1  0  0  0  0
  3  6  1  0  0  0  0
  3 19  2  0  0  0  0
  4  5  1  0  0  0  0
  4  6  1  0  0  0  0
  4  7  1  0  0  0  0
  5 10  2  0  0  0  0
  5 11  1  0  0  0  0
  6 12  2  0  0  0  0
  7 21  1  0  0  0  0
  7 22  1  0  0  0  0
  7 23  1  0  0  0  0
  8  9  1  0  0  0  0
  8 24  1  0  0  0  0
  8 25  1  0  0  0  0
  9 26  1  0  0  0  0
  9 27  1  0  0  0  0
 10 13  1  0  0  0  0
 10 28  1  0  0  0  0
 11 14  2  0  0  0  0
 11 29  1  0  0  0  0
 12 15  1  0  0  0  0
 12 30  1  0  0  0  0
 13 16  2  0  0  0  0
 13 31  1  0  0  0  0
 14 16  1  0  0  0  0
 14 32  1  0  0  0  0
 15 20  2  0  0  0  0
 15 33  1  0  0  0  0
 16 34  1  0  0  0  0
 17 35  1  0  0  0  0
 17 36  1  0  0  0  0
 17 37  1  0  0  0  0
 18 38  1  0  0  0  0
 18 39  1  0  0  0  0
 18 40  1  0  0  0  0
 19 20  1  0  0  0  0
 19 41  1  0  0  0  0
 20 42  1  0  0  0  0
M  END
> <DATABASE_ID>
DB00366

> <DATABASE_NAME>
drugbank

> <ORIGINAL_SOURCE>
PUBCHEM

> <ORIGINAL_SOURCE_URL>
https://pubchem.ncbi.nlm.nih.gov/rest/pug/compound/inchikey/HCFDWZZGGLSKEP-UHFFFAOYSA-N/SDF?record_type=3d

> <SMILES>
CN(C)CCOC(C)(C1=CC=CC=C1)C1=CC=CC=N1

> <INCHI_IDENTIFIER>
InChI=1S/C17H22N2O/c1-17(20-14-13-19(2)3,15-9-5-4-6-10-15)16-11-7-8-12-18-16/h4-12H,13-14H2,1-3H3

> <INCHI_KEY>
HCFDWZZGGLSKEP-UHFFFAOYSA-N

> <FORMULA>
C17H22N2O

> <MOLECULAR_WEIGHT>
270.3694

> <EXACT_MASS>
270.173213336

> <JCHEM_ACCEPTOR_COUNT>
3

> <JCHEM_AVERAGE_POLARIZABILITY>
31.090987574833864

> <JCHEM_BIOAVAILABILITY>
1

> <JCHEM_DONOR_COUNT>
0

> <JCHEM_FORMAL_CHARGE>
0

> <JCHEM_GHOSE_FILTER>
1

> <JCHEM_IUPAC>
dimethyl({2-[1-phenyl-1-(pyridin-2-yl)ethoxy]ethyl})amine

> <ALOGPS_LOGP>
2.90

> <JCHEM_LOGP>
2.9619422236666666

> <ALOGPS_LOGS>
-2.70

> <JCHEM_MDDR_LIKE_RULE>
0

> <JCHEM_NUMBER_OF_RINGS>
2

> <JCHEM_PHYSIOLOGICAL_CHARGE>
1

> <JCHEM_PKA_STRONGEST_BASIC>
8.866417098578472

> <JCHEM_POLAR_SURFACE_AREA>
25.36

> <JCHEM_REFRACTIVITY>
82.23730000000002

> <JCHEM_ROTATABLE_BOND_COUNT>
6

> <JCHEM_RULE_OF_FIVE>
1

> <ALOGPS_SOLUBILITY>
5.41e-01 g/l

> <JCHEM_TRADITIONAL_IUPAC>
doxylamine

> <JCHEM_VEBER_RULE>
1

> <DRUGBANK_ID>
DB00366

> <SECONDARY_ACCESSION_NUMBERS>
APRD00937

> <DRUG_GROUPS>
approved; vet_approved

> <GENERIC_NAME>
Doxylamine

> <SYNONYMS>
2-(alpha-(2-(Dimethylamino)ethoxy)-alpha-methylbenzyl)pyridine; 2-Dimethylaminoethoxyphenylmethyl-2-picoline; Dossilamina; Doxilamina; Doxilminio; Doxylamine; Doxylaminum; N,N-Dimethyl-2-(1-phenyl-1-(2-pyridinyl)ethoxy)ethanamine; Phenyl-2-pyridylmethyl-beta-N,N-dimethylaminoethyl ether

> <PRODUCTS>
7 Select Night Time Relief; 7 Select Sleep Aid; ACETAMINOPHEN DEXTROMETHORPHAN HYDROBROMIDE and DOXYLAMINE SUCCINATE; ACETAMINOPHEN, DEXTROMETHORPHAN HYDROBROMIDE, and DOXYLAMINE SUCCINATE; Acetaminophen Dextromethorphan HBr Doxylamine succinate Phenylephrine HCl; Acetaminophen Dextromethorphan Hydrobromide Doxylamine Succinate Phenylephrine Hydrochloride; Acetaminophen Dextromethorphan Hydrobromide Doxylamine Succinate Phenylephrine hydrochloride; Acetaminophen,Dextromethorphan,Doxylamine; Acetaminophen/pseudoephedrine/dextromethorphan/doxylamine; Adult Aurotussin Maximum Strength Nighttime Cough DM; Adult Tussin Maximum Strength Nighttime Cough DM; Aldex AN; Alka-Seltzer Plus Cold Day and Night; Alka-Seltzer Plus Cold Night; Alka-Seltzer Plus Day and Night Cold; Alka-Seltzer Plus Day and Night Cold and Flu Formula; Alka-Seltzer Plus Day and Night Multi-Symptom Cold and Flu Formula; Alka-Seltzer Plus Day and Night Severe Cold and Flu; Alka-Seltzer Plus Maximum Strength Day and Night Cold and Flu; Alka-Seltzer Plus Maximum Strength Day and Night Cold and Flu PowerMax Gels; Alka-Seltzer Plus Maximum Strength Night Cold and Flu; Alka-Seltzer Plus Maximum Strength Night Cold and Flu PowerMax Gels; Alka-Seltzer Plus Maximum Strength Severe Sinus Congestion and Cough Day and Night; Alka-Seltzer Plus Maximum Strength Severe Sinus, Allergy and Cough; Alka-Seltzer Plus Multi-Smptom Cold and Flu Night; Alka-Seltzer Plus Multi-Symptom Cold Day and Night; Alka-Seltzer Plus Multi-Symptom Cold Night; Alka-Seltzer Plus Multi-Symptom Cold and Flu Day and Night Liquid Gels; Alka-Seltzer Plus Night Cold Formula (Lemon); Alka-Seltzer Plus Night Cold Medicine; Alka-Seltzer Plus Night Cold and Flu Formula; Alka-Seltzer Plus Night Severe Cold and Flu; Alka-Seltzer Plus Severe Allergy Sinus Congestion And Headache Formula; Alka-Seltzer Plus Severe Cold and Cough Night; Alka-Seltzer Plus Severe Cough Mucus and Congestion Day and Night; Alka-Seltzer Plus Severe Cough and Cold Day and Night; Alka-Seltzer Plus Severe Sinus Congestion Allergy and Cough; Alka-Seltzer Plus Severe Sinus Congestion and Cough Day and Night; Alka-Seltzer Plus Severe Sinus Congestion and Cough Liquid Gels Night; Alka-Seltzer Plus Severe Sinus Congestion, Allergy and Cough; All Nite; All-Nite Cold and Flu; Allergy and Cough; Apo-doxylamine/b6; AuroQuil COLD and FLU Nighttime Relief; AuroQuil Cold and Flu Nighttime Relief; AuroQuil Cough Nighttime Cough Relief; AuroQuil Severe Cold and Flu Nighttime Relief; Aurophen Cold Multi Symptom; Aurotussin Maximum Strength Daytime and Nighttime Cough Relief; Basic Care Day Time Cold and Flu Night Time Cold and Flu; Basic Care Day Time Night Time Cold and Flu; Basic Care Daytime Nighttime Cold and Flu; Basic Care Daytime Nighttime Severe Cold and Flu; Basic Care Daytime Severe Cold Nighttime Cold and Flu; Basic Care Nighttime; Basic Care Nighttime Cold and Flu; Basic Care Nighttime Cold and Flu Severe; Basic Care Sleep Aid; Basic Care daytime nighttime severe cold and flu; Being Well Cold Flu Relief PM Multi Symptom; Being Well Cold and Flu Relief PM; Being Well Night Time Cold and Flu; Berkley and Jensen Sleep Aid; Bonjesta; Buckley's Cold & Sinus Night; Buckley's Complete 24 Hour Pack; Buckley's Complete Nighttime Softgels; Buckley's Nighttime Cold and Sinus; COLD and FLU Nighttime Relief; COUGH Nighttime Cough Relief; CVS Daytime COLD and FLU RELIEF and Nighttime COLD and FLU RELIEF; CVS Health Maximum Strength Non Drowsy Day and Night Cold and Flu Max Softgels Minis; CVS Health Nighttime Cold and Flu Relief Single Serve Cups Cold and Flu Nighttime Relief; CVS Health Non Drowsy DAY Cold and Flu Plus and NIGHTTIME Cold and Flu Plus; CVS Health Non Drowsy Daytime Cold and Flu Relief And Nighttime Cold and Flu Relief Day and Night Twin Pack; CVS Nighttime Cold/Flu Relief; Care One Cold Mutli Symptom; Care One Sleep Aid; CareOne Cold and Cough; CareOne Daytime Nighttime Cold Flu Relief; CareOne Daytime Nighttime Cold and Flu; CareOne Night TIme Cold and Flu; CareOne NightTime Cough; CareOne Nighttime Cold and Flu; CareOne Nighttime Severe Cold and Flu; CareOne Nighttime Sleep Aid; CareOne Nitetime Cold Flu Relief; CareOne Nitetime Severe Cold Flu Relief; CareOne Tussin DM Nighttime Cough; Careone Allergy and Cough Severe Sinus Congestion; Careone Cold Max; Careone Day Cold and Flu Night Cold and Flu; Careone Day Severe Cold Night Cold and Flu; Careone Daytime Nighttime Severe Cold and Flu; Careone Severe Sinus Congestion; Careone Tussin DM; Circle K Nighttime Cold and Flu; ClearTime; Cold & Flu; Cold & Flu Nighttime; Cold & Flu Relief Nighttime; Cold & Sinus Liquid Capsules; Cold Flu Relief; Cold Max Nighttime; Cold Multi Symptom; Cold Relief Multi Symptom Nighttime; Cold and Cough; Cold and Cough Nighttime; Cold and Cough Nighttime Cool Blast; Cold and Flu; Cold and Flu Day Night; Cold and Flu DayTime, NightTime Severe; Cold and Flu Daytime Nighttime; Cold and Flu Daytime, Nighttime, Maximum Strength; Cold and Flu Daytime, Nighttime, Multi-Symptom; Cold and Flu Daytime/Nightime; Cold and Flu Medicine - Night Time Formula; Cold and Flu Multi-Symptom Daytime Nighttime; Cold and Flu Multi-symptom Relief/cold and Flu Nighttime Relief; Cold and Flu Night Time Multi-Symptom Relief Original; Cold and Flu Night-time Multi Symptom Relief Cherry; Cold and Flu Nighttime; Cold and Flu Nighttime D; Cold and Flu Nighttime Multi Symptom; Cold and Flu Nighttime Multi-symptom; Cold and Flu Nighttime Relief; Cold and Flu Nighttime/Multi-Symptom; Cold and Flu Plus; Cold and Flu Relief; Cold and Flu Relief Daytime Nighttime; Cold and Flu Relief Multi Symptom Nighttime; Cold and Flu Relief Multi symptom; Cold and Flu Relief Multi symptom, Nighttime; Cold and Flu Relief Multi-Symptom; Cold and Flu Relief Multi-Symptom, Day, Night; Cold and Flu Relief Multi-Symptom, Nighttime; Cold and Flu Relief NightTime, Multi-symptom; Cold and Flu Relief Nighttime; Cold and Flu Relief Nighttime Multi Symptom; Cold and Flu Relief Nighttime, Multi-Symptom; Cold and Flu Relief Non-Drowsy / Daytime Severe / Nighttime Severe; Cold and Flu Severe, Nighttime, Maximum Strength; Cold and Sinus Nighttime Relief; Cold and Sinus Relief Combo; Cold/flu Medicine; Complete Cold & Flu Relief; Complete Liquid Capsules; Complete Liquid Capsules Nighttime Relief; ConRx NightTime; Contac Cold and Flu Cooling Relief; Cooling Severe Daytime Cooling Severe Nighttime; Cooling Severe Nighttime; Core Values Night Time Relief; Coricidin HBP Nighttime Multi-Symptom Cold; Cough; Cough Day Night; Cough Multi Symptom; Cough Relief Daytime Nighttime; Cough Relief Nighttime; Cough and Sore Throat Multi Symptom; Cough and Sore Throat Nighttime; Cough and Sore Throat Pain Relief; DAY Cold and Flu Plus and NIGHTTIME Cold and Flu Plus; DAY TIME and NIGHT TIME COLD and FLU FORMULA; DAYTIME NIGHTTIME Cold and Flu; DDM Day time and Nite time cold and flu; DG Day Time Cold and Flu Formula and Night Time Cold and Flu Formula; DG Health Cold Max; DG Health Cold and Flu Relief; DG Health Pain Relief Cold Night Time; DG Health Tussin; DG Health cold and flu relief; DG Health night time cold and flu relief; Dalmacol; Day Night Cold and Flu; Day Relief Night Relief Free; Day Relief Night Relief Sinus PE; Day Severe Cold Night Cold and Flu; Day Severe Cold and Night Cold and Flu Maximum Strength; Day Time Night Time; Day Time Night Time Cold and Flu; Day Time Night Time Severe Cold and Flu; Day Time Night Time Sinus Relief; Day Time Nighttime Cough; Day Time and Night Time Sinus and Congestion; Day and Night Cold and Flu Formula; Day and Night Severe Sinus Congestion and Cough Maximum Strength; Day and Night Sinus Relief Maximum Strength; Day-Time Night-Time; DayQuil and Nyquil Severe plus Vicks VapoCool Cold and Flu; DayTime Cold and Flu Severe and NightTime Cold and Flu Severe; DayTime NightTime Cold and Flu; DayTime NightTime Cold/Flu; DayTime NightTime Sinus Relief; DayTime Nighttime; DayTime Nighttime multi symptom cold and flu relief; DayTime NiteTime Cold Flu Relief; DayTime NiteTime Cold and Flu; DayTime NiteTime Severe; DayTime Nitetime Sinus Relief; DayTime Nitetime cold and flu relief; DayTime and NiteTime; DayTime/NiteTime Severe Cold and Flu Maximum Strength; Daytime Cold and Flu Nighttime Cold and Flu; Daytime Cold and Flu Nitetime Cold and Flu; Daytime Cold and Flu and Nighttime Cold and Flu; Daytime Cough Nighttime Cough; Daytime Fast Severe Cold Relief Nitetime Fast Cold and Flu Relief; Daytime Mucus Relief Severe Cold Nighttime Cold and Flu Maximum Strength; Daytime Mucus Relief Severe Cold and Nighttime Cold and Flu Maximum Strength; Daytime Nighttime; Daytime Nighttime ClearTime; Daytime Nighttime Cold Flu Relief; Daytime Nighttime Cold Flu Relief Multi Symptom; Daytime Nighttime Cold and Flu; Daytime Nighttime Cold and Flu Relief; Daytime Nighttime Cold and Flu Relief Multi-Symptom; Daytime Nighttime Cold/Flu; Daytime Nighttime Cold/flu; Daytime Nighttime Multi Symptom Cold Flu Relief; Daytime Nighttime Multi Symptom Cold and Flu Relief; Daytime Nighttime Severe Cold and Flu; Daytime Nighttime Severe Cold and Flu Relief; Daytime Nighttime Sinus Relief; Daytime Nighttime Sinus Relief Maximum Strength; Daytime Nighttime cold and flu relief; Daytime Nite Time; Daytime NiteTime; Daytime Nitetime; Daytime Nitetime Cold and Flu; Daytime Nitetime Sinus; Daytime PE Nitetime; Daytime Sinus Relief and Nighttime Sinus Relief; Daytime and Nighttime Cold and Flu; Daytime and Nighttime Cold and Flu Relief; Daytime and Nighttime Cold and Flu Relief Plus; Daytime and Nighttime Cough Relief; Daytime/Nighttime Cold and Flu Multi-Symptom Relief; Delsym Night Time Cough and Cold; Delsym Night Time Multi Symptom; Delsym Night Time Multi-Symptom; Dg Health Cold and Flu; Dg Health Cold and Flu Relief; Dg Health Cold and Flu Relief Night Time; Dg Health Cold and Flu Relief Nite Time; Dg Health Cough Night Time; Dg Health Cough and Sore Throat Nite Time; Dg Health Night Time Cold and Flu Relief; Dg Health Tussin; Diclectin; Diclegis; Doxylamine Succinate and Phenylephrine Hydrochloride; Doxylamine Succinate and Pyridoxine Hydrochloride; Doxylamine succinate and pyridoxine hydrochloride; Dye Free Cold and Flu; EQUATE Tussin DM Max Daytime Nighttime; Equaline Cold and Flu Relief; Equaline Daytime Cold and Flu Fast Relief Nighttime Cold and Flu Fast Relief; Equaline Daytime Nighttime Cold and Flu Relief; Equaline Daytime Severe Cold Fast Relief Nighttime Cold and Flu Fast Relief; Equaline Daytime and Nighttime Cold and Flu Relief; Equaline Nighttime; Equaline Nighttime Cold and Flu Relief; Equaline Nighttime Cough Relief; Equaline Nighttime Severe Cold and Flu; Equaline Sleep Aid; Equaline night time cough; Equaline nighttime cold and flu relief; Equate Adult Tussin DM Max Daytime Nighttime; Equate DayTime NiteTime; Equate DayTime NiteTime Severe; Equate Daytime Nitetime; Equate Health Non Drowsy DAY Cold and Flu Plus and NIGHTTIME Cold and Flu Plus; Equate Nighttime Cold and Flu; Equate Nighttime Liquid Capsules; Equate Nighttime Vapor Ice Cold and Flu; Equate Nite Time Cold Flu Relief; Equate Nite Time Cough; Equate NiteTime; Equate NiteTime DayTime; Equate Nitetime; Equate Nitetime Cold and Flu; Equate Nitetime Severe; Equate Sinus Night Time; Equate sleep aid; Extra Strength Tylenol Cold and Flu Nighttime; Family Care Cold and Flu Multi Symptom; Family Care Cold and Flu Nighttime; Family Care Cough Nighttime; Fulton Street Market Night Time Cold and Flu; Fulton Street Market cold and flu; Glentuss; Good Neighbor Pharmacy Cold Multi Symptom; Good Neighbor Pharmacy Cough and Sore Throat; Good Neighbor Pharmacy Multi Symptom; Good Neighbor Pharmacy Night Time; Good Neighbor Pharmacy Night Time Cold and Flu; Good Neighbor Pharmacy Night Time D; Good Neighbor Pharmacy Night Time Severe; Good Neighbor Pharmacy Severe Night Time; Good Neighbor Pharmacy Severe Sinus Congestion; Good Neighbor Pharmacy Sleep Aid; Good Neighbor Pharmacy Tussin DM MAX Nighttime Cough; Good Neighbor Pharmacy Tussin DM Max; Good Neighbor Pharmacy night time cough; Good Neighbor pharmacy severe night time; Good Sense Cough and Sore Throat Night Time; Good Sense Day Time Night Time Cold and Flu; Good Sense Daytime Nighttime; Good Sense Night Time; Good Sense Night Time Cold and Flu; Good Sense NightTime DayTime Cold and Flu; Good Sense Nighttime; Good Sense Nighttime Cough; Good Sense Severe NightTime; Good Sense Severe NightTime Cold and Flu; Good Sense Severe Sinus Congestion; Good Sense night time cold and flu; Good sense sleep aid; Harmon Face Values Night Time Relief; Harris Teeter DayTime NightTime; Harris Teeter NightTime; Harris Teeter NightTime Cold and Flu; Harris Teeter Sleep Aid; Health Mart Multi-Symptom Cold and Flu Night Time; Health Mart Night Time Cold and Flu; Health Mart Sleep Aid; Healthy Accents Cold and Cough; Healthy Accents Cough and Sore Throat Night Time; Healthy Accents Daytime Nighttime Cold and Flu; Healthy Accents Night Time Cough; Healthy Accents Nighttime Cold and Flu; Healthy Accents Nighttime Daytime Cold and Flu; Healthy Accents Sleep Aid; Healthy Accents nighttime cold and flu; Kirkland Signature Sleep Aid; LIDL Nightyime Cold and Flu Relief; Leader Nighttime Cold and Flu; Leader Nighttime Cough; Leader Nighttime Sever Cold and Flu; Leader Nighttime Severe Cold and Flu; Leader Nite Time; Leader Nite Time Cold Flu Relief Multi Symptom; Leader Nite Time Cough; Leader Nite Time Multi Symptom Cold and Flu Relief; Leader Nite Time Severe Cold and Flu; Leader Severe Sinus Congestion; Leader nite time multi symptom cold flu relief; Leader sleep aid; Lil Drug Store Nighttime Cold and Flu; Lil Drug Store NyQuil Severe Cold and Flu, Max Strength; Lortuss DM; Lortuss Lq; Major Night Time Multi Symptom cold and flu relief; Maximum Strength Mucinex Fast-Max Day Cold and Flu and Night Cold and Flu; Maximum Strength Night Time Cold and Flu Relief; Maximum Strength Nighttime Cold/Flu Relief; McKesson Nite Time; Mercodol With Decapryn; Mersyndol With Codeine; Mucinar PLUS; Mucinex Fast-Max Day Severe Cold and Night Cold and Flu; Mucinex Fast-Max Day Severe Congestion and Cough and Night Cold and Flu; Mucinex Fast-Max Night Time Cold and Flu; Mucinex Sinus - Max Day / Night; Mucus Relief Daytime Severe Cold Nighttime Cold and Flu Maximum Strength; Multi Symptom Cold and Flu Relief Nighttime; Multi Symptom Nitetime; Multi symptom Nighttime cold and flu relief; Multi-Symptom Daytime and Nighttime Cold and Flu Relief Plus; Multi-Symptom Nighttime Sinus Relief; Multi-Symptom Nitetime; Multi-symptom Nitetime; N - Time; N - Time Sinus; NEXT COLD and FLU NIGHTTIME; NEXT Severe Cold, Flu and Sore Throate Night Max Strength; NIGHT TIME COLD and FLU CHERRY; NIGHT TIME COLD and FLU FORMULA; NIGHT-TIME MULTI-SYMPTOM COLD/FLU Cherry; NIGHT-TIME MULTI-SYMPTOM COLD/FLU Original; NIGHTTIME COLD and FLU; NIGHTTIME Multi Symptom; NItetime cough; Neocitran Cold & Flu Syrup; Next Night Severe Cold, Flu and Sore Throat; Next Night Time Cold and Flu Relief; Nicold Medicine for Adults; Night Cold Flu Cough and Allergy; Night Relief; Night Relief Cold and Flu Liquid Capsules; Night Relief Cough; Night Relief Free; Night Relief Multi Symptom Cold and Flu; Night Relief sinus; Night Time; Night Time Caps Cold Flu Multi symptom; Night Time Cherry; Night Time Cherry Pseudo-Free; Night Time Cold Max; Night Time Cold and Flu; Night Time Cold and Flu Multi Symptom; Night Time Cold and Flu Original; Night Time Cold and Flu ReadyInCase; Night Time Cold and Flu Relief; Night Time Cold and Flu Relief Multi Symptom; Night Time Cold and Flu Severe; Night Time Cold and Flue Relief; Night Time Cold/Flu Relief Cherry; Night Time Cold/Flu Relief Original; Night Time Cough; Night Time Cough Cherry; Night Time Cough Relief; Night Time Cough and Sore Throat Cool Blast; Night Time Cough cherry; Night Time Day Time Cold and Flu; Night Time Gelcap; Night Time MULTI-SYMPTOM COLD/FLU RELIEF; Night Time Multi Symptom Flu Cold Medicine; Night Time Multi Symptom Relief; Night Time Original Pseudo-Free; Night Time Pseudo-Free; Night Time Relief; Night Time Severe Cold and Flu Relief; Night Time Sinus; Night Time Sinus Relief; Night Time Sinus and Congestion; Night Time Softgels; Night time Multi Sympton Cold Max; Night time cold and flu; Night time cold and flu multi symptom; Night time cold/flu relief multi symptom; Night time multi symptom cold/flu relief; Night time sinus; Night-Time COUGH RELIEF; Night-Time Cherry MULTI-SYMPTOM COLD/FLU RELIEF; Night-Time Multi-Symptom Cold/Flu Relief; Night-Time Original MULTI-SYMPTOM COLD/FLU RELIEF; NightRelief DayRelief; NightRelief Free Multi symptom cold flu; NightTime; NightTime Cold and Flu; NightTime Cold and Flu Multi Symptom; NightTime Cold and Flu Relief; NightTime Cough DM Maximum Strength; NightTime Maximum Strength Cold and Flu; NightTime Multi-Symptom Flu Cold; NightTime Relief Severe Cold and Flu; NightTime Sinus; NightTime Sinus Relief; Nightcap Cold and Flu Liquid Gels; Nightcap Complete Liquid Gels; Nighttime; Nighttime 325 Liqua Caps; Nighttime Cold & Flu Liquid Capsules; Nighttime Cold & Flu Relief; Nighttime Cold & Flu Relief Liquid Gels; Nighttime Cold & Flu Relief Syrup; Nighttime Cold & Sinus; Nighttime Cold Flu Relief; Nighttime Cold Max; Nighttime Cold Medicine; Nighttime Cold Multi-Symptom Cool Blast; Nighttime Cold and Flu; Nighttime Cold and Flu Cherry; Nighttime Cold and Flu Extra Strength Medicine; Nighttime Cold and Flu Lil Drug Store Products; Nighttime Cold and Flu Liquid Capsules; Nighttime Cold and Flu ReadyInCase; Nighttime Cold and Flu Relief; Nighttime Cold and Flu Relief Multi Symptom; Nighttime Cold and Flu Relief Multi-Symptom; Nighttime Cold and Flu Relief Plus; Nighttime Cold and Flu cherry; Nighttime Cold and Flu original; Nighttime Cold and flu Relief; Nighttime Complete; Nighttime Cough; Nighttime Cough DM; Nighttime Cough DM Max; Nighttime Cough Relief; Nighttime Cough Relief Cherry; Nighttime Cough all night cough relief; Nighttime Cough and Sore Throat Liquid; Nighttime Cough. Cold. Flu Gel Capsules; Nighttime D Cold and Flu; Nighttime D Cold and Flu Relief; Nighttime Daytime Cough; Nighttime Fast Sleep Aid; Nighttime Hbp; Nighttime Liqua Caps; Nighttime Multi Symptom Cold and Flu Relief; Nighttime Multi-Symptom Cold and Flu Relief; Nighttime Relief Complete; Nighttime SEVERE COLD and FLU; Nighttime Severe; Nighttime Severe Cold and Flu; Nighttime Severe Cold and Flu Relief; Nighttime Sinus Multi symptom; Nighttime Sinus Relief; Nighttime Sinus and Congestion Relief; Nighttime Sleep Aid; Nighttime Sleep-Aid; Nighttime Sleepaid; Nighttime cold and flu; Nighttime multi symptom; Nighttime severe; Nighttime sinus; Nite Time; Nite Time Cold Flu Relief; Nite Time Cold Medicine; Nite Time Cold Medicine Cherry Flavor; Nite Time Cold and Flu; Nite Time Cold and Flu Relief; Nite Time Cold/Flu Relief; Nite Time Day Time; Nite Time MULTI SYMPTOM COLD FLU RELIEF; Nite Time Multi symptom cold flu relief; Nite Time multi symptom cold flu relief; Nite Time multi symptom cold/flu; Nite time Severe Cold and Flu Maximum Strength; Nite time cold and flu relief; Nite-Time COLD/FLU Medicine; Nite-Time COLD/FLU Medicine Cherry; Nite-Time COLD/FLU ORIGINAL; Nite-Time Cold and Flu Multi-Symptom Relief; Nite-TimeCOLD/FLU CHERRY COLD/FLU CHERRY; NiteTime; NiteTime Cold Flu Relief; NiteTime Cold and Flu; NiteTime Cold plus Flu Releif; NiteTime Cold/Flu, Multi-Symptom Relief; NiteTime Cough; NiteTime Cough DayTime Cough; NiteTime DayTime Cold and Flu; NiteTime DayTime Severe Cold and Flu; NiteTime Multi-Symptom Cold/Flu Relief; NiteTime Severe Cold and Flu; NiteTime Sinus; NiteTime Sinus Relief; Nitecap Sinus Liquid Gels; Nitetime; Nitetime Cold Flu Relief; Nitetime Cold Medicine; Nitetime Cold Medicine Liq; Nitetime Cold Medicine Original and Cherry; Nitetime Cold and Flu; Nitetime Cough; Nitetime D; Nitetime D multi symptom cold flu relief; Nitetime Severe Cold and Flu Relief; Nitetime Sinus Relief; Nitetime cold and flu relief; Nocto Sleep Aid; NyQuil Cold and Flu; NyQuil Severe; NyQuil Severe Cold and Flu; NyQuil Severe Plus VapoCOOL Cold and Flu; NyQuil Severe VapoCool; NyQuil Severe plus Vicks VapoCool; NyQuil Severe plus Vicks VapoCool Cold and Flu; Nyquil Complete + Vicks Vapocool; Nyquil Complete + Vicks Vapocool Cold & Flu Liquid; Nyquil Liquicaps; Nyquil Sinus Liquicaps; Original Night-Time MULTI-SYMPTOM COLD/FLU RELIEF; P.M. Cold Relief Formula; PMS-doxylamine-pyridoxine; Poly Hist Forte; Preferred Plus Severe Nite Time; Preferred Plus Severe Sinus Congestion; Publix Cherry Flavor Nitetime; Quality Choice Nighttime Cold and Flu; Ratio-calmydone; Regular Strength Sinus Medication; Rexall Daytime Nighttime Cold Flu; Rexall Daytime Nighttime Cold and Flu; Rexall Night Time Cold and Flu; Robitussin Complete Nighttime; Robitussin Honey Cough & Cold Nighttime; Robitussin Honey Maximum Strength Nighttime Cough DM; Robitussin Maximum Strength Nighttime Cough DM; Robitussin Maximum Strength Severe Multi-Symptom 7 in 1 Relief Nighttime; Robitussin Peak Cold Nighttime Cold Plus Flu; Rompe Pecho Nighttime; Rx Act Cough and Sore Throat; Rx Act Nighttime Cold Flu Relief Multi Symptom; SMITH BROS NIGHT TIME COUGH and CONGESTION; Safetussin PM; Safeway Nighttime Cold and Flu; Sambrosa Nighttime; Sambrosa Sweet Dreams Nighttime; SanaTos Day and Night Multi Symptom; Sanaflu Nighttime Xtreme Multi Symptom Cold Flu Relief Cherry Flavor; Sanatos; Sanatos Night; Sanatos Nighttime Multi Symptoms; Sever Daytime Cold and Flu and Sever Nighttime Cold and Flu; Severe Cold Plus Flu Daytime Nighttime; Severe Cold and Flu; Severe Cold and Flu Daytime Non Drowsy Nighttime; Severe Cold and Flu Daytime/nighttime; Severe Cold and Flu Night time; Severe Cold and Flu Nighttime Daytime; Severe Cold and Flu Relief; Severe Cold and Flu Relief Daytime/Nighttime; Severe Cold and Flu Relief Nighttime; Severe Cold and Flu nighttime; Severe Nighttime; Severe Nighttime Cold and Flu; Severe Nighttime Cold and Flu Relief; Severe Nighttime Severe Daytime; Severe Sinus Congestion; Severe Sinus Congestion Allergy and Cough Formula; Severe Sinus Congestion and Cough Daytime Non-drowsy / Nightime; Severe cold and flu Nighttime; ShopRite Ni Calm; ShopRite Ni Calm Cough; ShopRite Sleep-Aid; Shoprite Ni Calm; Signature Care Nighttime Severe Cold and Flu Relief; Signature Care daytime nighttime severe cold and flu relief; Simply Right Night Time; Sinex; Sinex Nighttime Sinus; Sinex Severe plus Vicks VapoCool; Sinus Day/night Extra Strength; Sinus Medication; Sinus Medication Day & Night; Sinus Medication Extra Strength Night Time; Sinus Medication Night Tablets; Sinus Nighttime; Sinus Relief Daytime Nighttime; Sleep Aid; Sleep Aid Nighttime; Sleep aid; Sleep-Aid; Smart Sense Daytime Nighttime Cold and Flu; Smart Sense NightTime Cold and Flu; Smart Sense NightTime DayTime; Smart Sense Nighttime; Smart Sense Nighttime Cold and Flu Relief Multi Symptom; Smart Sense Nighttime Cough; Smart Sense Severe Cold and Flu NightTime; Smart Sense Sleep Aid; Smart Sense nighttime cold and flu; Sound Body Cold and Flu Relief; Sound Body Nighttime Sleep Aid; Sunmark Nite Time; Sunmark Nite Time Cough; Sunmark Nite Time D Cold and Flu; Sunmark nite time cold and flu; Sunmark sleep aid; TYLENOL COLD Multi-Symptom; TYLENOL Cold Plus Flu Severe and TYLENOL COLD MAX CoPack; Target Cold/Flu Relief; Teva-doxylamine/pyridoxine Dr; TopCare Cold Max; TopCare Day Time Nite Time Cold and Flu Relief; TopCare Health Non Drowsy Daytime Cold and Flu Relief And Nighttime Cold and Flu Relief Day and Night Combo Pack; TopCare Nite Time; TopCare Nite Time Cold and flu; TopCare Pain Relief Cold Nightttime; TopCare Sleep Aid; TopCare Tussin DM Nighttime Cough; Topcare Clear Time; Topcare Cold and Cough; Topcare Cold and Flu; Topcare Cough and Sore Throat; Topcare Day Night; Topcare Day Time Nite Time; Topcare Day Time Nite Time Cold and Flu; Topcare Day Time Nite Time Cold and Flu Relief; Topcare Daytime Nighttime Clear Time; Topcare Daytime Nitetime Multi Symptom Relief; Topcare Nite Time Cold and Flu; Topcare Nite Time Cold and Flu Relief; Topcare Nite Time Cold and Flu Relief Multi Symptom Relief; Topcare Nite Time Cold and flu relief; Topcare Nite Time Cough; Topcare Nite Time D; Topcare Nite Time Day Time Cold and Flu; Topcare Nite Time Day Time Cold and Flu Relief; Topcare Nite Time Multi Symptom Relief; Topcare Severe Sinus Congestion; Topcare Tussin DM Max; Tussin DM; Tussin DM Cough Nighttime Maximum Strength; Tussin DM Max Daytime Nighttime; Tussin DM Max Nighttime; Tussin DM Maximum Strength; Tussin DM Nighttime Cough Maximum Strength; Tussin Nighttime Cough Control; Tussin Nighttime Cough DM Maximum Strength; Tylenol Cold & Flu Nighttime; Tylenol Cold Max Night; Tylenol Cold Multi-symptom; Tylenol Cold Plus Flu Severe Day and Tylenol Cold Plus Flu Plus Cough Night 2-pack; Tylenol Cold Plus Flu Severe Day and Tylenol Cold Plus Flu Plus Cough Night 3-Pack; Tylenol Cold and Flu Nighttime; Tylenol Cold plus Flu Severe and Tylenol Cold Max; Tylenol Cold plus Flu plus Cough Night; Tylo Cold and Flu Night; Unisom SleepTabs; Unisom-2 Tablets; Up and Up Cold Flu Relief; Up and Up Cold Flu Relief Day Night; Up and Up Cold Flu Relief multi symptom night; Up and Up Cold and Flu Relief; Up and Up Cold and Flu Relief Multi Symptom Day and Night Combo Pack; Up and Up Daytime Nighttime Cold and Flu; Up and Up Daytime Vapor Ice Cold and Flu Nighttime Vapor Ice Cold and Flu; Up and Up Nighttime Cold and Flu; Up and Up Nighttime Cough Control DM Max; Up and Up Nighttime Daytime Cold and Flu; Up and Up Nighttime Vapor Ice Cold and Flu; Up and Up Severe Cold and Flu Nighttime; Up and Up nighttime cough control; Up and Up severe cold and flu; Vicks DayQuil Severe and Vicks NyQuil Severe Cold and Flu; Vicks DayQuil Tropical and Vicks NyQuil Cherry Cough; Vicks DayQuil and Vicks NyQuil Cherry Cold and Flu; Vicks DayQuil and Vicks NyQuil Cold and Flu; Vicks DayQuil and Vicks NyQuil Cold and Flu Multi-Symptom Relief/Cold and Flu Nighttime Relief; Vicks DayQuil and Vicks NyQuil Severe Cold and Flu; Vicks Formula 44 VapoCool Severe Nighttime Cough and Cold; Vicks NyQuil; Vicks NyQuil Cold and Flu; Vicks NyQuil Cold and Flu Nighttime Relief; Vicks NyQuil Cold and Flu Nighttime Relief and Vicks Childrens NyQuil Cold and Cough; Vicks NyQuil Cough; Vicks NyQuil D Cold And Flu Nighttime Relief; Vicks NyQuil D Severe Cold And Flu; Vicks NyQuil HBP Cold and Flu; Vicks NyQuil Nature Fusion Cold and Flu Nighttime Relief; Vicks NyQuil Severe Cold and Flu; Vicks NyQuil Sinex; Vicks NyQuil Sinus; Vicks Nyquil Adult Nighttime Colds Medicine; Vicks Nyquil Cold & Flu Nighttime Relief; Vicks Nyquil Complete Cold & Flu; Vicks Nyquil Complete Cold & Flu Caplets; Vicks Nyquil Complete Cold & Flu Liquicaps; Vicks Nyquil Liquicaps; Vicks Nyquil Liquicaps Cold & Flu Multi-symptom Relief; Vicks Nyquil Sinus Liquicaps; Vicks QlearQuil Daytime Sinus and Congestion and Nighttime Sinus and Congestion; Vicks QlearQuil Nighttime Sinus and Congestion; Wal Som Nighttime Sleep Aid; Wal Tussin DM Max Nighttime Wal Tussin DM Max; WalTussin DM Max; Walgreen Nighttime Cold and Flu Relief; Walgreens Adult Nighttime Wal Tussin DM Max Maximum Strength; Walgreens Maximum Strength Non-Drowsy Day and Night Sinus and Cold; Walgreens NightTime Cold and Flu; Welby Nighttime Cold and Flu; XL-3 Xtreme; Zicam; Zicam Multi-symptom Cold & Flu Nighttime; good neighbor pharmacy Night time; meijer Maximum Strength Nighttime Cough DM; sanaflu Night-Time Xtreme Multi-Symptom Cold/Flu Relief Cherry Flavor; shop rite Day Severe Cold Night Cold and Flu; simply right Night Time

> <SALTS>
Doxylamine succinate

$$$$
