2153
  -OEChem-10051719113D

 21 22  0     0  0  0  0  0  0999 V2000
   -0.4586    2.7181    0.0003 O   0  0  0  0  0  0  0  0  0  0  0  0
   -2.4695   -1.5249   -0.0002 O   0  0  0  0  0  0  0  0  0  0  0  0
   -0.1456   -1.4090    0.0001 N   0  0  0  0  0  0  0  0  0  0  0  0
   -1.4928    0.6039   -0.0001 N   0  0  0  0  0  0  0  0  0  0  0  0
    2.1381    1.2470   -0.0001 N   0  0  0  0  0  0  0  0  0  0  0  0
    2.2775   -0.9780    0.0003 N   0  0  0  0  0  0  0  0  0  0  0  0
    0.9676   -0.5796   -0.0003 C   0  0  0  0  0  0  0  0  0  0  0  0
    0.8536    0.7838   -0.0007 C   0  0  0  0  0  0  0  0  0  0  0  0
   -0.3850    1.4926   -0.0005 C   0  0  0  0  0  0  0  0  0  0  0  0
   -1.4424   -0.8370   -0.0004 C   0  0  0  0  0  0  0  0  0  0  0  0
    0.0267   -2.8565    0.0002 C   0  0  0  0  0  0  0  0  0  0  0  0
   -2.8288    1.1905    0.0009 C   0  0  0  0  0  0  0  0  0  0  0  0
    2.9591    0.1491    0.0005 C   0  0  0  0  0  0  0  0  0  0  0  0
    2.4315    2.2150    0.0001 H   0  0  0  0  0  0  0  0  0  0  0  0
    0.5848   -3.1483   -0.8947 H   0  0  0  0  0  0  0  0  0  0  0  0
   -0.9352   -3.3753    0.0006 H   0  0  0  0  0  0  0  0  0  0  0  0
    0.5853   -3.1481    0.8950 H   0  0  0  0  0  0  0  0  0  0  0  0
   -2.8044    2.2826    0.0009 H   0  0  0  0  0  0  0  0  0  0  0  0
   -3.3655    0.8410    0.8886 H   0  0  0  0  0  0  0  0  0  0  0  0
   -3.3668    0.8410   -0.8862 H   0  0  0  0  0  0  0  0  0  0  0  0
    4.0359    0.2409    0.0010 H   0  0  0  0  0  0  0  0  0  0  0  0
  1  9  2  0  0  0  0
  2 10  2  0  0  0  0
  3  7  1  0  0  0  0
  3 10  1  0  0  0  0
  3 11  1  0  0  0  0
  4  9  1  0  0  0  0
  4 10  1  0  0  0  0
  4 12  1  0  0  0  0
  5  8  1  0  0  0  0
  5 13  1  0  0  0  0
  5 14  1  0  0  0  0
  6  7  1  0  0  0  0
  6 13  2  0  0  0  0
  7  8  2  0  0  0  0
  8  9  1  0  0  0  0
 11 15  1  0  0  0  0
 11 16  1  0  0  0  0
 11 17  1  0  0  0  0
 12 18  1  0  0  0  0
 12 19  1  0  0  0  0
 12 20  1  0  0  0  0
 13 21  1  0  0  0  0
M  END
> <DATABASE_ID>
DB00277

> <DATABASE_NAME>
drugbank

> <ORIGINAL_SOURCE>
PUBCHEM

> <ORIGINAL_SOURCE_URL>
https://pubchem.ncbi.nlm.nih.gov/rest/pug/compound/inchikey/ZFXYFBGIUFBOJW-UHFFFAOYSA-N/SDF?record_type=3d

> <SMILES>
CN1C2=C(NC=N2)C(=O)N(C)C1=O

> <INCHI_IDENTIFIER>
InChI=1S/C7H8N4O2/c1-10-5-4(8-3-9-5)6(12)11(2)7(10)13/h3H,1-2H3,(H,8,9)

> <INCHI_KEY>
ZFXYFBGIUFBOJW-UHFFFAOYSA-N

> <FORMULA>
C7H8N4O2

> <MOLECULAR_WEIGHT>
180.164

> <EXACT_MASS>
180.06472552

> <JCHEM_ACCEPTOR_COUNT>
3

> <JCHEM_ATOM_COUNT>
21

> <JCHEM_AVERAGE_POLARIZABILITY>
16.855400878563223

> <JCHEM_BIOAVAILABILITY>
1

> <JCHEM_DONOR_COUNT>
1

> <JCHEM_FORMAL_CHARGE>
0

> <JCHEM_GHOSE_FILTER>
0

> <JCHEM_IUPAC>
1,3-dimethyl-2,3,6,7-tetrahydro-1H-purine-2,6-dione

> <ALOGPS_LOGP>
-0.26

> <JCHEM_LOGP>
-0.7693216573333334

> <ALOGPS_LOGS>
-0.90

> <JCHEM_MDDR_LIKE_RULE>
0

> <JCHEM_NUMBER_OF_RINGS>
2

> <JCHEM_PHYSIOLOGICAL_CHARGE>
0

> <JCHEM_PKA_STRONGEST_ACIDIC>
7.815127426971925

> <JCHEM_PKA_STRONGEST_BASIC>
-0.77711753278622

> <JCHEM_POLAR_SURFACE_AREA>
69.30000000000001

> <JCHEM_REFRACTIVITY>
44.9345

> <JCHEM_ROTATABLE_BOND_COUNT>
0

> <JCHEM_RULE_OF_FIVE>
1

> <ALOGPS_SOLUBILITY>
2.29e+01 g/l

> <JCHEM_TRADITIONAL_IUPAC>
theophylline

> <JCHEM_VEBER_RULE>
0

> <DRUGBANK_ID>
DB00277

> <SECONDARY_ACCESSION_NUMBERS>
APRD00082; DB09359

> <DRUG_GROUPS>
approved

> <GENERIC_NAME>
Theophylline

> <SYNONYMS>
1,3-dimethyl-7H-purine-2,6-dione; 1,3-dimethylxanthine; Teofilina; Theophyllin; Theophylline anhydrous; Theophylline, anhydrous

> <PRODUCTS>
Aa-theo LA; Apo-theo ER; Elixir De Theophylline; Elixophyllin; Elixophylline; I D M Expectorant Tab; Idm Tab; PMS-theophylline Elixir; Pulmophylline Elx; Quibron T SR Tab 300mg; Quibron T/SR; Quibron-T; Ratio-theo-bronc; Senophylline; Slo-bid 100; Slo-bid 200; Slo-bid 300; Slo-bid 50; Tedral Tab; Teva-theophylline SR; Theo ER; Theo-24; Theo-SR 300 Srt 300mg; Theo-dur 100 mg; Theo-dur 200 mg; Theo-dur 300 mg; Theo-dur 450 mg; Theochron Srt 100mg; Theochron Srt 200mg; Theochron Srt 300mg; Theolair; Theolair SR Tab 200mg; Theolair SR Tab 250mg; Theolair SR Tab 300mg; Theolair SR Tab 500mg; Theolair Tab 125mg; Theolair Tab 250mg; Theophylline; Theophylline (Anhydrous); Theophylline 0.8mg and 5% Dextrose Inj; Theophylline 0.8mg/ml In 5% Dextrose Inj; Theophylline 1.6mg and 5% Dextrose Inj; Theophylline 4mg and 5% Dextrose Inj; Theophylline 80mg/15ml; Theophylline Anhydrous; Theophylline Elixir; Theophylline Elx; Theophylline Extended Release; Theophylline Rougier Elixir; Theophylline in Dextrose; Theophylline(Anhydrous); Uniphyl

> <INTERNATIONAL_BRANDS>
Respbid; Slo-Bid; Theo 24; Theo-Dur; Theodur G

> <SALTS>
Theophylline sodium glycinate

$$$$
