5910
  -OEChem-10051719293D

 31 32  0     1  0  0  0  0  0999 V2000
   -2.0773    1.8281    0.2928 O   0  0  0  0  0  0  0  0  0  0  0  0
   -3.8461    0.6046    1.0832 O   0  0  0  0  0  0  0  0  0  0  0  0
    2.7110   -0.7151    0.4821 N   0  0  0  0  0  0  0  0  0  0  0  0
    3.9011    0.9564   -0.3677 N   0  0  0  0  0  0  0  0  0  0  0  0
   -0.4831    0.1312    0.1415 C   0  0  1  0  0  0  0  0  0  0  0  0
   -1.8570   -0.5212    0.2559 C   0  0  2  0  0  0  0  0  0  0  0  0
    0.5350   -0.5651   -0.7440 C   0  0  0  0  0  0  0  0  0  0  0  0
   -0.8200    1.5317   -0.3238 C   0  0  0  0  0  0  0  0  0  0  0  0
   -2.3913   -1.1849   -1.0049 C   0  0  0  0  0  0  0  0  0  0  0  0
   -2.7213    0.6636    0.6100 C   0  0  0  0  0  0  0  0  0  0  0  0
    1.9334   -0.1059   -0.4379 C   0  0  0  0  0  0  0  0  0  0  0  0
   -3.8293   -1.6450   -0.8317 C   0  0  0  0  0  0  0  0  0  0  0  0
    2.6612    0.9138   -0.9546 C   0  0  0  0  0  0  0  0  0  0  0  0
    3.8984   -0.0373    0.4929 C   0  0  0  0  0  0  0  0  0  0  0  0
    2.3852   -1.8550    1.3061 C   0  0  0  0  0  0  0  0  0  0  0  0
   -0.0912    0.2110    1.1669 H   0  0  0  0  0  0  0  0  0  0  0  0
   -1.8552   -1.2265    1.0952 H   0  0  0  0  0  0  0  0  0  0  0  0
    0.3223   -0.3854   -1.8054 H   0  0  0  0  0  0  0  0  0  0  0  0
    0.4749   -1.6509   -0.6039 H   0  0  0  0  0  0  0  0  0  0  0  0
   -0.0791    2.2649    0.0086 H   0  0  0  0  0  0  0  0  0  0  0  0
   -0.9396    1.6162   -1.4092 H   0  0  0  0  0  0  0  0  0  0  0  0
   -1.7756   -2.0580   -1.2490 H   0  0  0  0  0  0  0  0  0  0  0  0
   -2.3410   -0.5054   -1.8642 H   0  0  0  0  0  0  0  0  0  0  0  0
   -3.9631   -2.2109    0.0957 H   0  0  0  0  0  0  0  0  0  0  0  0
   -4.5337   -0.8086   -0.8445 H   0  0  0  0  0  0  0  0  0  0  0  0
   -4.1074   -2.3011   -1.6638 H   0  0  0  0  0  0  0  0  0  0  0  0
    2.3768    1.6265   -1.7148 H   0  0  0  0  0  0  0  0  0  0  0  0
    4.7202   -0.3091    1.1416 H   0  0  0  0  0  0  0  0  0  0  0  0
    3.1951   -2.0310    2.0188 H   0  0  0  0  0  0  0  0  0  0  0  0
    1.4608   -1.6459    1.8494 H   0  0  0  0  0  0  0  0  0  0  0  0
    2.2677   -2.7273    0.6586 H   0  0  0  0  0  0  0  0  0  0  0  0
  1  8  1  0  0  0  0
  1 10  1  0  0  0  0
  2 10  2  0  0  0  0
  3 11  1  0  0  0  0
  3 14  1  0  0  0  0
  3 15  1  0  0  0  0
  4 13  1  0  0  0  0
  4 14  2  0  0  0  0
  5  6  1  0  0  0  0
  5  7  1  0  0  0  0
  5  8  1  0  0  0  0
  5 16  1  0  0  0  0
  6  9  1  0  0  0  0
  6 10  1  0  0  0  0
  6 17  1  0  0  0  0
  7 11  1  0  0  0  0
  7 18  1  0  0  0  0
  7 19  1  0  0  0  0
  8 20  1  0  0  0  0
  8 21  1  0  0  0  0
  9 12  1  0  0  0  0
  9 22  1  0  0  0  0
  9 23  1  0  0  0  0
 11 13  2  0  0  0  0
 12 24  1  0  0  0  0
 12 25  1  0  0  0  0
 12 26  1  0  0  0  0
 13 27  1  0  0  0  0
 14 28  1  0  0  0  0
 15 29  1  0  0  0  0
 15 30  1  0  0  0  0
 15 31  1  0  0  0  0
M  END
> <DATABASE_ID>
DB01085

> <DATABASE_NAME>
drugbank

> <ORIGINAL_SOURCE>
PUBCHEM

> <ORIGINAL_SOURCE_URL>
https://pubchem.ncbi.nlm.nih.gov/rest/pug/compound/inchikey/QCHFTSOMWOSFHM-WPRPVWTQSA-N/SDF?record_type=3d

> <SMILES>
CC[C@H]1[C@@H](CC2=CN=CN2C)COC1=O

> <INCHI_IDENTIFIER>
InChI=1S/C11H16N2O2/c1-3-10-8(6-15-11(10)14)4-9-5-12-7-13(9)2/h5,7-8,10H,3-4,6H2,1-2H3/t8-,10-/m0/s1

> <INCHI_KEY>
QCHFTSOMWOSFHM-WPRPVWTQSA-N

> <FORMULA>
C11H16N2O2

> <MOLECULAR_WEIGHT>
208.2569

> <EXACT_MASS>
208.121177766

> <JCHEM_ACCEPTOR_COUNT>
2

> <JCHEM_AVERAGE_POLARIZABILITY>
22.339274631387376

> <JCHEM_BIOAVAILABILITY>
1

> <JCHEM_DONOR_COUNT>
0

> <JCHEM_FORMAL_CHARGE>
0

> <JCHEM_GHOSE_FILTER>
1

> <JCHEM_IUPAC>
(3S,4R)-3-ethyl-4-[(1-methyl-1H-imidazol-5-yl)methyl]oxolan-2-one

> <ALOGPS_LOGP>
1.15

> <JCHEM_LOGP>
0.949751419333334

> <ALOGPS_LOGS>
-2.00

> <JCHEM_MDDR_LIKE_RULE>
0

> <JCHEM_NUMBER_OF_RINGS>
2

> <JCHEM_PHYSIOLOGICAL_CHARGE>
0

> <JCHEM_PKA_STRONGEST_BASIC>
6.608666134549648

> <JCHEM_POLAR_SURFACE_AREA>
44.120000000000005

> <JCHEM_REFRACTIVITY>
56.53419999999999

> <JCHEM_ROTATABLE_BOND_COUNT>
3

> <JCHEM_RULE_OF_FIVE>
1

> <ALOGPS_SOLUBILITY>
2.07e+00 g/l

> <JCHEM_TRADITIONAL_IUPAC>
pilocarpine

> <JCHEM_VEBER_RULE>
0

> <DRUGBANK_ID>
DB01085

> <SECONDARY_ACCESSION_NUMBERS>
APRD00382

> <DRUG_GROUPS>
approved; investigational

> <GENERIC_NAME>
Pilocarpine

> <SYNONYMS>
Pilocarpina; Pilocarpine

> <PRODUCTS>
Betoptic Pilo; Betoptic/pilo; E-pilo 1 Ophthalmic Solution; E-pilo 2 Ophthalmic Solution; E-pilo 4 Ophthalmic Solution; E-pilo 6 Ophthalmic Solution; E-pilo-1 Oph Soln; E-pilo-2 Oph Soln; E-pilo-4 Oph Soln; E-pilo-6 Oph Soln; Isopto Carpine; Isopto Carpine 0.5%; Isopto Carpine Liq 6%; Minims Pilocarpine Nitrate 2%; Minims Pilocarpine Nitrate 4%; Miocarpine Oph Soln 1%; Miocarpine Oph Soln 2%; Miocarpine Oph Soln 4%; Miocarpine Oph Soln 6%; Miocarpine Ophthalmic Solution 1%; Miocarpine Ophthalmic Solution 2%; Miocarpine Ophthalmic Solution 4%; Miocarpine Ophthalmic Solution 6%; Ocusert Pilo 20; Ocusert Pilo 40; Odan-pilocarpine; PMS-pilocarpine 0.5%; PMS-pilocarpine 1%; PMS-pilocarpine 2%; PMS-pilocarpine 4%; PMS-pilocarpine 6%; Pilocarpine; Pilocarpine 1%; Pilocarpine 2%; Pilocarpine 4%; Pilocarpine 6%; Pilocarpine Hydrochloride; Pilocarpine Hydrochloride 1% - Liq Oph; Pilocarpine Hydrochloride 2% - Liq Oph; Pilocarpine Hydrochloride 4% - Liq Oph; Pilocarpine Hydrochloride Ophthalmic Solution 1% USP; Pilocarpine Hydrochloride Ophthalmic Solution 2% USP; Pilocarpine Hydrochloride Ophthalmic Solution 4% USP; Pilocarpine Hydrochloride Tablets, USP; Pilocarpine hydrochloride; Pilopine Hs; Pilopine Hs 4%; R.O. -carpine 1%; R.O.-carpine 2%; R.O.-carpine 4%; Salagen; Salagen Tablets; Timpilo 2; Timpilo 4; pilocarpine Hydrochloride

> <INTERNATIONAL_BRANDS>
Diocarpine; Miocarpine; Pilostat; Pilovisc; Timpilo

> <SALTS>
Pilocarpine hydrochloride; Pilocarpine nitrate

$$$$
