60700
  -OEChem-10051719283D

 54 58  0     1  0  0  0  0  0999 V2000
   -5.8987   -1.0731    0.4811 O   0  0  0  0  0  0  0  0  0  0  0  0
   -4.2587    2.0041    1.1138 O   0  0  0  0  0  0  0  0  0  0  0  0
   -2.4846   -3.3814   -0.4822 O   0  0  0  0  0  0  0  0  0  0  0  0
   -6.5902    0.8228    1.4641 O   0  0  0  0  0  0  0  0  0  0  0  0
    6.5238    1.7213   -0.2863 O   0  0  0  0  0  0  0  0  0  0  0  0
   -1.1115   -1.5313   -0.2871 N   0  0  0  0  0  0  0  0  0  0  0  0
    1.0072    1.3653   -0.0309 N   0  0  0  0  0  0  0  0  0  0  0  0
    5.7879   -1.4264    0.7170 N   0  0  0  0  0  0  0  0  0  0  0  0
   -4.5486    0.9591    0.1823 C   0  0  2  0  0  0  0  0  0  0  0  0
   -3.3520    0.0593    0.0396 C   0  0  0  0  0  0  0  0  0  0  0  0
   -0.9637   -0.1644   -0.1178 C   0  0  0  0  0  0  0  0  0  0  0  0
    0.2013   -2.1915   -0.4415 C   0  0  0  0  0  0  0  0  0  0  0  0
   -3.5236   -1.2631   -0.1376 C   0  0  0  0  0  0  0  0  0  0  0  0
    1.1470   -1.0399   -0.3452 C   0  0  0  0  0  0  0  0  0  0  0  0
    0.4575    0.1494   -0.1558 C   0  0  0  0  0  0  0  0  0  0  0  0
   -2.0180    0.6400    0.0387 C   0  0  0  0  0  0  0  0  0  0  0  0
   -2.3363   -2.1727   -0.3181 C   0  0  0  0  0  0  0  0  0  0  0  0
   -4.9470    1.5847   -1.1564 C   0  0  0  0  0  0  0  0  0  0  0  0
   -4.8863   -1.8657   -0.1772 C   0  0  0  0  0  0  0  0  0  0  0  0
   -5.7527    0.2392    0.7784 C   0  0  0  0  0  0  0  0  0  0  0  0
    2.5193   -0.9975   -0.4147 C   0  0  0  0  0  0  0  0  0  0  0  0
    3.1522    0.2504   -0.2901 C   0  0  0  0  0  0  0  0  0  0  0  0
    2.3533    1.4134   -0.0986 C   0  0  0  0  0  0  0  0  0  0  0  0
    4.5504    0.3591   -0.3522 C   0  0  0  0  0  0  0  0  0  0  0  0
   -6.1327    2.5146   -0.9974 C   0  0  0  0  0  0  0  0  0  0  0  0
    5.4196   -0.8462   -0.5529 C   0  0  0  0  0  0  0  0  0  0  0  0
    3.0023    2.6377    0.0217 C   0  0  0  0  0  0  0  0  0  0  0  0
    5.1684    1.6004   -0.2281 C   0  0  0  0  0  0  0  0  0  0  0  0
    4.3943    2.7390   -0.0414 C   0  0  0  0  0  0  0  0  0  0  0  0
    6.5292   -0.4645    1.5436 C   0  0  0  0  0  0  0  0  0  0  0  0
    6.5907   -2.6424    0.5309 C   0  0  0  0  0  0  0  0  0  0  0  0
    0.2356   -2.6883   -1.4156 H   0  0  0  0  0  0  0  0  0  0  0  0
    0.3306   -2.9153    0.3685 H   0  0  0  0  0  0  0  0  0  0  0  0
   -1.8984    1.7111    0.1565 H   0  0  0  0  0  0  0  0  0  0  0  0
   -5.1898    0.8144   -1.8988 H   0  0  0  0  0  0  0  0  0  0  0  0
   -4.1114    2.1731   -1.5565 H   0  0  0  0  0  0  0  0  0  0  0  0
   -5.2073   -2.0330   -1.2105 H   0  0  0  0  0  0  0  0  0  0  0  0
   -4.8895   -2.8330    0.3359 H   0  0  0  0  0  0  0  0  0  0  0  0
    3.0475   -1.9342   -0.5443 H   0  0  0  0  0  0  0  0  0  0  0  0
   -7.0571    1.9727   -0.7767 H   0  0  0  0  0  0  0  0  0  0  0  0
   -5.9725    3.2719   -0.2241 H   0  0  0  0  0  0  0  0  0  0  0  0
   -6.3040    3.0482   -1.9392 H   0  0  0  0  0  0  0  0  0  0  0  0
   -3.9518    1.5980    1.9431 H   0  0  0  0  0  0  0  0  0  0  0  0
    4.9337   -1.5784   -1.2072 H   0  0  0  0  0  0  0  0  0  0  0  0
    6.3142   -0.5673   -1.1293 H   0  0  0  0  0  0  0  0  0  0  0  0
    2.4209    3.5462    0.1690 H   0  0  0  0  0  0  0  0  0  0  0  0
    4.8574    3.7173    0.0578 H   0  0  0  0  0  0  0  0  0  0  0  0
    7.4356   -0.0926    1.0547 H   0  0  0  0  0  0  0  0  0  0  0  0
    6.8605   -0.9641    2.4638 H   0  0  0  0  0  0  0  0  0  0  0  0
    5.9077    0.3581    1.9072 H   0  0  0  0  0  0  0  0  0  0  0  0
    6.8139   -3.1089    1.4969 H   0  0  0  0  0  0  0  0  0  0  0  0
    7.5365   -2.4371    0.0166 H   0  0  0  0  0  0  0  0  0  0  0  0
    6.0328   -3.3832   -0.0526 H   0  0  0  0  0  0  0  0  0  0  0  0
    6.7653    2.6569   -0.1757 H   0  0  0  0  0  0  0  0  0  0  0  0
  1 19  1  0  0  0  0
  1 20  1  0  0  0  0
  2  9  1  0  0  0  0
  2 43  1  0  0  0  0
  3 17  2  0  0  0  0
  4 20  2  0  0  0  0
  5 28  1  0  0  0  0
  5 54  1  0  0  0  0
  6 11  1  0  0  0  0
  6 12  1  0  0  0  0
  6 17  1  0  0  0  0
  7 15  2  0  0  0  0
  7 23  1  0  0  0  0
  8 26  1  0  0  0  0
  8 30  1  0  0  0  0
  8 31  1  0  0  0  0
  9 10  1  0  0  0  0
  9 18  1  0  0  0  0
  9 20  1  0  0  0  0
 10 13  2  0  0  0  0
 10 16  1  0  0  0  0
 11 15  1  0  0  0  0
 11 16  2  0  0  0  0
 12 14  1  0  0  0  0
 12 32  1  0  0  0  0
 12 33  1  0  0  0  0
 13 17  1  0  0  0  0
 13 19  1  0  0  0  0
 14 15  1  0  0  0  0
 14 21  2  0  0  0  0
 16 34  1  0  0  0  0
 18 25  1  0  0  0  0
 18 35  1  0  0  0  0
 18 36  1  0  0  0  0
 19 37  1  0  0  0  0
 19 38  1  0  0  0  0
 21 22  1  0  0  0  0
 21 39  1  0  0  0  0
 22 23  2  0  0  0  0
 22 24  1  0  0  0  0
 23 27  1  0  0  0  0
 24 26  1  0  0  0  0
 24 28  2  0  0  0  0
 25 40  1  0  0  0  0
 25 41  1  0  0  0  0
 25 42  1  0  0  0  0
 26 44  1  0  0  0  0
 26 45  1  0  0  0  0
 27 29  2  0  0  0  0
 27 46  1  0  0  0  0
 28 29  1  0  0  0  0
 29 47  1  0  0  0  0
 30 48  1  0  0  0  0
 30 49  1  0  0  0  0
 30 50  1  0  0  0  0
 31 51  1  0  0  0  0
 31 52  1  0  0  0  0
 31 53  1  0  0  0  0
M  END
> <DATABASE_ID>
DB01030

> <DATABASE_NAME>
drugbank

> <ORIGINAL_SOURCE>
PUBCHEM

> <ORIGINAL_SOURCE_URL>
https://pubchem.ncbi.nlm.nih.gov/rest/pug/compound/inchikey/UCFGDBYHRUNTLO-QHCPKHFHSA-N/SDF?record_type=3d

> <SMILES>
CC[C@@]1(O)C(=O)OCC2=C1C=C1N(CC3=CC4=C(C=CC(O)=C4CN(C)C)N=C13)C2=O

> <INCHI_IDENTIFIER>
InChI=1S/C23H23N3O5/c1-4-23(30)16-8-18-20-12(9-26(18)21(28)15(16)11-31-22(23)29)7-13-14(10-25(2)3)19(27)6-5-17(13)24-20/h5-8,27,30H,4,9-11H2,1-3H3/t23-/m0/s1

> <INCHI_KEY>
UCFGDBYHRUNTLO-QHCPKHFHSA-N

> <FORMULA>
C23H23N3O5

> <MOLECULAR_WEIGHT>
421.4458

> <EXACT_MASS>
421.163770861

> <JCHEM_ACCEPTOR_COUNT>
6

> <JCHEM_AVERAGE_POLARIZABILITY>
44.85931866430069

> <JCHEM_BIOAVAILABILITY>
1

> <JCHEM_DONOR_COUNT>
2

> <JCHEM_FORMAL_CHARGE>
0

> <JCHEM_GHOSE_FILTER>
1

> <JCHEM_IUPAC>
(19S)-8-[(dimethylamino)methyl]-19-ethyl-7,19-dihydroxy-17-oxa-3,13-diazapentacyclo[11.8.0.0²,¹¹.0⁴,⁹.0¹⁵,²⁰]henicosa-1(21),2,4(9),5,7,10,15(20)-heptaene-14,18-dione

> <ALOGPS_LOGP>
1.84

> <JCHEM_LOGP>
-0.35709507722102324

> <ALOGPS_LOGS>
-2.69

> <JCHEM_MDDR_LIKE_RULE>
0

> <JCHEM_NUMBER_OF_RINGS>
5

> <JCHEM_PHYSIOLOGICAL_CHARGE>
1

> <JCHEM_PKA>
11.71625075471723

> <JCHEM_PKA_STRONGEST_ACIDIC>
8.003999445526812

> <JCHEM_PKA_STRONGEST_BASIC>
9.826297371129254

> <JCHEM_POLAR_SURFACE_AREA>
103.19999999999999

> <JCHEM_REFRACTIVITY>
115.0161

> <JCHEM_ROTATABLE_BOND_COUNT>
3

> <JCHEM_RULE_OF_FIVE>
1

> <ALOGPS_SOLUBILITY>
8.61e-01 g/l

> <JCHEM_TRADITIONAL_IUPAC>
topotecan

> <JCHEM_VEBER_RULE>
0

> <DRUGBANK_ID>
DB01030

> <SECONDARY_ACCESSION_NUMBERS>
APRD00687

> <DRUG_GROUPS>
approved; investigational

> <GENERIC_NAME>
Topotecan

> <SYNONYMS>
9-[(dimethylamino)methyl]-10-hydroxy-(4S)-camptothecin; Topotecan; Topotecane; Topotecanum

> <PRODUCTS>
Act Topotecan; Hycamtin; Mylan-topotecan Hydrochloride for Injection; PMS-topotecan; Potactasol; Topotecan; Topotecan Actavis; Topotecan Hospira; Topotecan Hydrochloride; Topotecan Hydrochloride for Injection; Topotecan Injection; Topotecan Teva; Topotecan for Injection; Topotecan hydrochloride

> <SALTS>
Topotecan hydrochloride

$$$$
