3690
  -OEChem-10051719313D

 29 29  0     1  0  0  0  0  0999 V2000
   -2.2988    3.7376    0.2524 Cl  0  0  0  0  0  0  0  0  0  0  0  0
    4.9997    0.8072    0.2413 Cl  0  0  0  0  0  0  0  0  0  0  0  0
   -0.1732   -0.3019   -0.6917 P   0  0  1  0  0  0  0  0  0  0  0  0
    0.0199   -1.8851   -1.0364 O   0  0  0  0  0  0  0  0  0  0  0  0
   -0.1477    0.5011   -1.9706 O   0  0  0  0  0  0  0  0  0  0  0  0
   -1.6131   -0.2295    0.1493 N   0  0  1  0  0  0  0  0  0  0  0  0
    1.0488    0.0763    0.3696 N   0  0  0  0  0  0  0  0  0  0  0  0
   -1.8694   -1.2792    1.1438 C   0  0  0  0  0  0  0  0  0  0  0  0
   -1.6414   -2.6678    0.5372 C   0  0  0  0  0  0  0  0  0  0  0  0
   -0.2289   -2.8385   -0.0097 C   0  0  0  0  0  0  0  0  0  0  0  0
   -2.0409    1.0693    0.6662 C   0  0  0  0  0  0  0  0  0  0  0  0
    2.4132    0.0806   -0.1329 C   0  0  0  0  0  0  0  0  0  0  0  0
   -1.7984    2.1496   -0.3765 C   0  0  0  0  0  0  0  0  0  0  0  0
    3.3303    0.7805    0.8581 C   0  0  0  0  0  0  0  0  0  0  0  0
   -2.9070   -1.2280    1.4949 H   0  0  0  0  0  0  0  0  0  0  0  0
   -1.2158   -1.1470    2.0143 H   0  0  0  0  0  0  0  0  0  0  0  0
   -1.8342   -3.4327    1.2977 H   0  0  0  0  0  0  0  0  0  0  0  0
   -2.3635   -2.8213   -0.2747 H   0  0  0  0  0  0  0  0  0  0  0  0
    0.5217   -2.7267    0.7793 H   0  0  0  0  0  0  0  0  0  0  0  0
   -0.1132   -3.8361   -0.4441 H   0  0  0  0  0  0  0  0  0  0  0  0
   -1.4861    1.3117    1.5813 H   0  0  0  0  0  0  0  0  0  0  0  0
   -3.1080    1.0401    0.9182 H   0  0  0  0  0  0  0  0  0  0  0  0
    1.0246   -0.3793    1.2812 H   0  0  0  0  0  0  0  0  0  0  0  0
    2.4508    0.6055   -1.0942 H   0  0  0  0  0  0  0  0  0  0  0  0
    2.7434   -0.9500   -0.3047 H   0  0  0  0  0  0  0  0  0  0  0  0
   -0.7401    2.2903   -0.5962 H   0  0  0  0  0  0  0  0  0  0  0  0
   -2.3543    1.9661   -1.3006 H   0  0  0  0  0  0  0  0  0  0  0  0
    3.0228    1.8182    1.0224 H   0  0  0  0  0  0  0  0  0  0  0  0
    3.3441    0.2647    1.8235 H   0  0  0  0  0  0  0  0  0  0  0  0
  1 13  1  0  0  0  0
  2 14  1  0  0  0  0
  3  4  1  0  0  0  0
  3  5  2  0  0  0  0
  3  6  1  0  0  0  0
  3  7  1  0  0  0  0
  4 10  1  0  0  0  0
  6  8  1  0  0  0  0
  6 11  1  0  0  0  0
  7 12  1  0  0  0  0
  7 23  1  0  0  0  0
  8  9  1  0  0  0  0
  8 15  1  0  0  0  0
  8 16  1  0  0  0  0
  9 10  1  0  0  0  0
  9 17  1  0  0  0  0
  9 18  1  0  0  0  0
 10 19  1  0  0  0  0
 10 20  1  0  0  0  0
 11 13  1  0  0  0  0
 11 21  1  0  0  0  0
 11 22  1  0  0  0  0
 12 14  1  0  0  0  0
 12 24  1  0  0  0  0
 12 25  1  0  0  0  0
 13 26  1  0  0  0  0
 13 27  1  0  0  0  0
 14 28  1  0  0  0  0
 14 29  1  0  0  0  0
M  END
> <DATABASE_ID>
DB01181

> <DATABASE_NAME>
drugbank

> <ORIGINAL_SOURCE>
PUBCHEM

> <ORIGINAL_SOURCE_URL>
https://pubchem.ncbi.nlm.nih.gov/rest/pug/compound/inchikey/HOMGKSMUEGBAAB-UHFFFAOYSA-N/SDF?record_type=3d

> <SMILES>
ClCCNP1(=O)OCCCN1CCCl

> <INCHI_IDENTIFIER>
InChI=1S/C7H15Cl2N2O2P/c8-2-4-10-14(12)11(6-3-9)5-1-7-13-14/h1-7H2,(H,10,12)

> <INCHI_KEY>
HOMGKSMUEGBAAB-UHFFFAOYSA-N

> <FORMULA>
C7H15Cl2N2O2P

> <MOLECULAR_WEIGHT>
261.086

> <EXACT_MASS>
260.02481966

> <JCHEM_ACCEPTOR_COUNT>
2

> <JCHEM_AVERAGE_POLARIZABILITY>
23.943197490268776

> <JCHEM_BIOAVAILABILITY>
1

> <JCHEM_DONOR_COUNT>
1

> <JCHEM_FORMAL_CHARGE>
0

> <JCHEM_GHOSE_FILTER>
1

> <JCHEM_IUPAC>
3-(2-chloroethyl)-2-[(2-chloroethyl)amino]-1,3,2λ⁵-oxazaphosphinan-2-one

> <ALOGPS_LOGP>
0.57

> <JCHEM_LOGP>
0.09654768666666613

> <ALOGPS_LOGS>
-1.24

> <JCHEM_MDDR_LIKE_RULE>
0

> <JCHEM_NUMBER_OF_RINGS>
1

> <JCHEM_PHYSIOLOGICAL_CHARGE>
0

> <JCHEM_PKA_STRONGEST_ACIDIC>
13.23806361124026

> <JCHEM_PKA_STRONGEST_BASIC>
0.12279165123184488

> <JCHEM_POLAR_SURFACE_AREA>
41.57

> <JCHEM_REFRACTIVITY>
58.47810000000002

> <JCHEM_ROTATABLE_BOND_COUNT>
5

> <JCHEM_RULE_OF_FIVE>
1

> <ALOGPS_SOLUBILITY>
1.50e+01 g/l

> <JCHEM_TRADITIONAL_IUPAC>
ifosfamide

> <JCHEM_VEBER_RULE>
0

> <DRUGBANK_ID>
DB01181

> <SECONDARY_ACCESSION_NUMBERS>
APRD00007

> <DRUG_GROUPS>
approved

> <GENERIC_NAME>
Ifosfamide

> <SYNONYMS>
3-(2-chloroethyl)-2-((2-chloroethyl)amino)tetrahydro-2H-1,3,2-oxazaphosphorine 2-oxide; Ifosfamida; Ifosfamide; Ifosfamidum; Iphosphamide; Isofosfamide; Isophosphamide; Isosfamide

> <PRODUCTS>
IFEX and MESNEX; Ifex; Ifex (ifosfamide) 1 G/vial; Ifex (ifosfamide) 3 G/vial; Ifex Pws 1gm/vial; Ifex Pws 2g/vial; Ifex Pws 3gm/vial; Ifosfamide; Ifosfamide and Mesna; Ifosfamide for Injection

> <INTERNATIONAL_BRANDS>
Celofos; Cuantil; Holoxan; Mitoxana

$$$$
