60919
  -OEChem-10051719343D

 52 56  0     0  0  0  0  0  0999 V2000
    2.1214   -1.5284   -3.1700 O   0  0  0  0  0  0  0  0  0  0  0  0
    2.5736   -1.2478   -0.9017 N   0  0  0  0  0  0  0  0  0  0  0  0
    3.1634   -0.9203    1.4094 N   0  0  0  0  0  0  0  0  0  0  0  0
    4.4247    1.0074    2.1061 N   0  0  0  0  0  0  0  0  0  0  0  0
   -2.4495    2.4034    0.6035 N   0  0  0  0  0  0  0  0  0  0  0  0
   -2.9342    1.9377   -1.5588 N   0  0  0  0  0  0  0  0  0  0  0  0
   -1.7763    3.1530   -0.2807 N   0  0  0  0  0  0  0  0  0  0  0  0
   -2.0319    2.9111   -1.5740 N   0  0  0  0  0  0  0  0  0  0  0  0
    3.8327    1.2123   -1.6173 C   0  0  0  0  0  0  0  0  0  0  0  0
    3.8612    0.6943   -0.2185 C   0  0  0  0  0  0  0  0  0  0  0  0
    3.8071    0.0524   -2.5929 C   0  0  0  0  0  0  0  0  0  0  0  0
    3.2187   -0.4894    0.1253 C   0  0  0  0  0  0  0  0  0  0  0  0
    1.7213   -2.3541   -0.4783 C   0  0  0  0  0  0  0  0  0  0  0  0
    2.7280   -0.9591   -2.2604 C   0  0  0  0  0  0  0  0  0  0  0  0
    4.4402    1.4069    0.8201 C   0  0  0  0  0  0  0  0  0  0  0  0
    0.2989   -1.9131   -0.2559 C   0  0  0  0  0  0  0  0  0  0  0  0
    3.7771   -0.1482    2.3268 C   0  0  0  0  0  0  0  0  0  0  0  0
   -0.6029   -1.9574   -1.3098 C   0  0  0  0  0  0  0  0  0  0  0  0
   -0.0900   -1.4683    0.9998 C   0  0  0  0  0  0  0  0  0  0  0  0
    5.1228    2.7127    0.5732 C   0  0  0  0  0  0  0  0  0  0  0  0
   -2.3230   -1.0998    0.1540 C   0  0  0  0  0  0  0  0  0  0  0  0
   -1.9206   -1.5486   -1.1039 C   0  0  0  0  0  0  0  0  0  0  0  0
   -1.4077   -1.0596    1.2058 C   0  0  0  0  0  0  0  0  0  0  0  0
   -3.6900   -0.6766    0.3678 C   0  0  0  0  0  0  0  0  0  0  0  0
    3.7275   -0.6260    3.7382 C   0  0  0  0  0  0  0  0  0  0  0  0
   -4.0894    0.6483    0.1752 C   0  0  0  0  0  0  0  0  0  0  0  0
   -4.6260   -1.6290    0.7777 C   0  0  0  0  0  0  0  0  0  0  0  0
   -5.4169    1.0182    0.3913 C   0  0  0  0  0  0  0  0  0  0  0  0
   -5.9535   -1.2590    0.9939 C   0  0  0  0  0  0  0  0  0  0  0  0
   -3.1576    1.6623   -0.2464 C   0  0  0  0  0  0  0  0  0  0  0  0
   -6.3490    0.0646    0.8006 C   0  0  0  0  0  0  0  0  0  0  0  0
    2.9373    1.8333   -1.7430 H   0  0  0  0  0  0  0  0  0  0  0  0
    4.7066    1.8294   -1.8484 H   0  0  0  0  0  0  0  0  0  0  0  0
    4.7666   -0.4800   -2.5874 H   0  0  0  0  0  0  0  0  0  0  0  0
    3.6395    0.4287   -3.6082 H   0  0  0  0  0  0  0  0  0  0  0  0
    2.1263   -2.8556    0.4091 H   0  0  0  0  0  0  0  0  0  0  0  0
    1.7365   -3.1235   -1.2619 H   0  0  0  0  0  0  0  0  0  0  0  0
   -0.3068   -2.3110   -2.2927 H   0  0  0  0  0  0  0  0  0  0  0  0
    0.6030   -1.4441    1.8343 H   0  0  0  0  0  0  0  0  0  0  0  0
    5.4510    3.1664    1.5149 H   0  0  0  0  0  0  0  0  0  0  0  0
    6.0112    2.5706   -0.0500 H   0  0  0  0  0  0  0  0  0  0  0  0
    4.4436    3.4215    0.0887 H   0  0  0  0  0  0  0  0  0  0  0  0
   -2.6216   -1.5873   -1.9344 H   0  0  0  0  0  0  0  0  0  0  0  0
   -1.7056   -0.7153    2.1934 H   0  0  0  0  0  0  0  0  0  0  0  0
    4.3873   -0.0356    4.3815 H   0  0  0  0  0  0  0  0  0  0  0  0
    2.7059   -0.5447    4.1216 H   0  0  0  0  0  0  0  0  0  0  0  0
    4.0427   -1.6725    3.7941 H   0  0  0  0  0  0  0  0  0  0  0  0
   -4.3378   -2.6662    0.9339 H   0  0  0  0  0  0  0  0  0  0  0  0
   -5.7434    2.0453    0.2453 H   0  0  0  0  0  0  0  0  0  0  0  0
   -6.6793   -2.0013    1.3126 H   0  0  0  0  0  0  0  0  0  0  0  0
   -7.3827    0.3524    0.9688 H   0  0  0  0  0  0  0  0  0  0  0  0
   -1.1114    3.8611    0.0117 H   0  0  0  0  0  0  0  0  0  0  0  0
  1 14  2  0  0  0  0
  2 12  1  0  0  0  0
  2 13  1  0  0  0  0
  2 14  1  0  0  0  0
  3 12  2  0  0  0  0
  3 17  1  0  0  0  0
  4 15  1  0  0  0  0
  4 17  2  0  0  0  0
  5  7  1  0  0  0  0
  5 30  2  0  0  0  0
  6  8  2  0  0  0  0
  6 30  1  0  0  0  0
  7  8  1  0  0  0  0
  7 52  1  0  0  0  0
  9 10  1  0  0  0  0
  9 11  1  0  0  0  0
  9 32  1  0  0  0  0
  9 33  1  0  0  0  0
 10 12  1  0  0  0  0
 10 15  2  0  0  0  0
 11 14  1  0  0  0  0
 11 34  1  0  0  0  0
 11 35  1  0  0  0  0
 13 16  1  0  0  0  0
 13 36  1  0  0  0  0
 13 37  1  0  0  0  0
 15 20  1  0  0  0  0
 16 18  2  0  0  0  0
 16 19  1  0  0  0  0
 17 25  1  0  0  0  0
 18 22  1  0  0  0  0
 18 38  1  0  0  0  0
 19 23  2  0  0  0  0
 19 39  1  0  0  0  0
 20 40  1  0  0  0  0
 20 41  1  0  0  0  0
 20 42  1  0  0  0  0
 21 22  2  0  0  0  0
 21 23  1  0  0  0  0
 21 24  1  0  0  0  0
 22 43  1  0  0  0  0
 23 44  1  0  0  0  0
 24 26  1  0  0  0  0
 24 27  2  0  0  0  0
 25 45  1  0  0  0  0
 25 46  1  0  0  0  0
 25 47  1  0  0  0  0
 26 28  2  0  0  0  0
 26 30  1  0  0  0  0
 27 29  1  0  0  0  0
 27 48  1  0  0  0  0
 28 31  1  0  0  0  0
 28 49  1  0  0  0  0
 29 31  2  0  0  0  0
 29 50  1  0  0  0  0
 31 51  1  0  0  0  0
M  END
> <DATABASE_ID>
DB01349

> <DATABASE_NAME>
drugbank

> <ORIGINAL_SOURCE>
PUBCHEM

> <ORIGINAL_SOURCE_URL>
https://pubchem.ncbi.nlm.nih.gov/rest/pug/compound/inchikey/ADXGNEYLLLSOAR-UHFFFAOYSA-N/SDF?record_type=3d

> <SMILES>
CC1=NC(C)=C2CCC(=O)N(CC3=CC=C(C=C3)C3=CC=CC=C3C3=NNN=N3)C2=N1

> <INCHI_IDENTIFIER>
InChI=1S/C23H21N7O/c1-14-18-11-12-21(31)30(23(18)25-15(2)24-14)13-16-7-9-17(10-8-16)19-5-3-4-6-20(19)22-26-28-29-27-22/h3-10H,11-13H2,1-2H3,(H,26,27,28,29)

> <INCHI_KEY>
ADXGNEYLLLSOAR-UHFFFAOYSA-N

> <FORMULA>
C23H21N7O

> <MOLECULAR_WEIGHT>
411.4591

> <EXACT_MASS>
411.180758329

> <JCHEM_ACCEPTOR_COUNT>
6

> <JCHEM_AVERAGE_POLARIZABILITY>
44.33635263675694

> <JCHEM_BIOAVAILABILITY>
1

> <JCHEM_DONOR_COUNT>
1

> <JCHEM_FORMAL_CHARGE>
0

> <JCHEM_GHOSE_FILTER>
0

> <JCHEM_IUPAC>
2,4-dimethyl-8-({4-[2-(2H-1,2,3,4-tetrazol-5-yl)phenyl]phenyl}methyl)-5H,6H,7H,8H-pyrido[2,3-d]pyrimidin-7-one

> <ALOGPS_LOGP>
3.07

> <JCHEM_LOGP>
4.177880046

> <ALOGPS_LOGS>
-4.10

> <JCHEM_MDDR_LIKE_RULE>
0

> <JCHEM_NUMBER_OF_RINGS>
5

> <JCHEM_PHYSIOLOGICAL_CHARGE>
0

> <JCHEM_PKA_STRONGEST_ACIDIC>
7.399417267334851

> <JCHEM_PKA_STRONGEST_BASIC>
2.7896680100232274

> <JCHEM_POLAR_SURFACE_AREA>
100.55

> <JCHEM_REFRACTIVITY>
130.6065

> <JCHEM_ROTATABLE_BOND_COUNT>
4

> <JCHEM_RULE_OF_FIVE>
1

> <ALOGPS_SOLUBILITY>
3.25e-02 g/l

> <JCHEM_TRADITIONAL_IUPAC>
tasosartan

> <JCHEM_VEBER_RULE>
0

> <DRUGBANK_ID>
DB01349

> <DRUG_GROUPS>
experimental

> <GENERIC_NAME>
Tasosartan

> <SYNONYMS>
Tasosartan

$$$$
