61996
  -OEChem-10051719383D

 56 58  0     1  0  0  0  0  0999 V2000
   -3.6987   -2.8500    0.3740 O   0  0  0  0  0  0  0  0  0  0  0  0
    1.3438   -0.1382   -0.4035 N   0  0  1  0  0  0  0  0  0  0  0  0
   -2.8259   -0.6580    0.1407 N   0  0  0  0  0  0  0  0  0  0  0  0
   -1.4373   -1.0103   -0.0546 C   0  0  1  0  0  0  0  0  0  0  0  0
   -0.9000   -0.5259   -1.4174 C   0  0  1  0  0  0  0  0  0  0  0  0
   -0.5956   -0.4292    1.0864 C   0  0  0  0  0  0  0  0  0  0  0  0
    0.6201   -0.7630   -1.5187 C   0  0  0  0  0  0  0  0  0  0  0  0
    0.8954   -0.6851    0.8819 C   0  0  0  0  0  0  0  0  0  0  0  0
   -1.5993   -1.2199   -2.5918 C   0  0  0  0  0  0  0  0  0  0  0  0
    2.7864   -0.3233   -0.5617 C   0  0  0  0  0  0  0  0  0  0  0  0
    3.5573    0.4251    0.5262 C   0  0  0  0  0  0  0  0  0  0  0  0
   -3.1933    0.7567    0.1319 C   0  0  0  0  0  0  0  0  0  0  0  0
   -3.8550   -1.6267    0.3418 C   0  0  0  0  0  0  0  0  0  0  0  0
   -5.2618   -1.0517    0.4808 C   0  0  0  0  0  0  0  0  0  0  0  0
    5.0473    0.2608    0.3614 C   0  0  0  0  0  0  0  0  0  0  0  0
   -3.1702    1.4220    1.3212 C   0  0  0  0  0  0  0  0  0  0  0  0
   -3.5344    1.3129   -1.0647 C   0  0  0  0  0  0  0  0  0  0  0  0
   -6.3171   -2.1235    0.7079 C   0  0  0  0  0  0  0  0  0  0  0  0
   -3.5212    2.7719    1.3130 C   0  0  0  0  0  0  0  0  0  0  0  0
   -3.8856    2.6628   -1.0727 C   0  0  0  0  0  0  0  0  0  0  0  0
    5.6888   -0.7979    0.9864 C   0  0  0  0  0  0  0  0  0  0  0  0
    5.7514    1.1710   -0.4123 C   0  0  0  0  0  0  0  0  0  0  0  0
   -3.8789    3.3923    0.1160 C   0  0  0  0  0  0  0  0  0  0  0  0
    7.0669   -0.9499    0.8340 C   0  0  0  0  0  0  0  0  0  0  0  0
    7.1296    1.0189   -0.5647 C   0  0  0  0  0  0  0  0  0  0  0  0
    7.7874   -0.0416    0.0584 C   0  0  0  0  0  0  0  0  0  0  0  0
   -1.3492   -2.1040   -0.0159 H   0  0  0  0  0  0  0  0  0  0  0  0
   -1.0508    0.5549   -1.5240 H   0  0  0  0  0  0  0  0  0  0  0  0
   -0.7163    0.6566    1.1664 H   0  0  0  0  0  0  0  0  0  0  0  0
   -0.9151   -0.8567    2.0449 H   0  0  0  0  0  0  0  0  0  0  0  0
    0.9721   -0.3344   -2.4661 H   0  0  0  0  0  0  0  0  0  0  0  0
    0.8294   -1.8411   -1.5567 H   0  0  0  0  0  0  0  0  0  0  0  0
    1.3839   -0.2017    1.7315 H   0  0  0  0  0  0  0  0  0  0  0  0
    1.1021   -1.7611    0.9500 H   0  0  0  0  0  0  0  0  0  0  0  0
   -2.6867   -1.1310   -2.5517 H   0  0  0  0  0  0  0  0  0  0  0  0
   -1.2644   -0.7936   -3.5435 H   0  0  0  0  0  0  0  0  0  0  0  0
   -1.3646   -2.2903   -2.6062 H   0  0  0  0  0  0  0  0  0  0  0  0
    3.0978    0.0667   -1.5398 H   0  0  0  0  0  0  0  0  0  0  0  0
    3.0500   -1.3898   -0.5497 H   0  0  0  0  0  0  0  0  0  0  0  0
    3.3012    1.4929    0.5102 H   0  0  0  0  0  0  0  0  0  0  0  0
    3.3193    0.0742    1.5352 H   0  0  0  0  0  0  0  0  0  0  0  0
   -5.5243   -0.5089   -0.4325 H   0  0  0  0  0  0  0  0  0  0  0  0
   -5.2949   -0.3661    1.3328 H   0  0  0  0  0  0  0  0  0  0  0  0
   -2.9087    0.9400    2.2573 H   0  0  0  0  0  0  0  0  0  0  0  0
   -3.5710    0.7577   -1.9926 H   0  0  0  0  0  0  0  0  0  0  0  0
   -7.3072   -1.6678    0.8072 H   0  0  0  0  0  0  0  0  0  0  0  0
   -6.1099   -2.6925    1.6203 H   0  0  0  0  0  0  0  0  0  0  0  0
   -6.3486   -2.8287   -0.1292 H   0  0  0  0  0  0  0  0  0  0  0  0
   -3.5201    3.3388    2.2393 H   0  0  0  0  0  0  0  0  0  0  0  0
   -4.1703    3.1444   -2.0036 H   0  0  0  0  0  0  0  0  0  0  0  0
    5.1368   -1.5125    1.5903 H   0  0  0  0  0  0  0  0  0  0  0  0
    5.2479    1.9990   -0.9031 H   0  0  0  0  0  0  0  0  0  0  0  0
   -4.1547    4.4428    0.1101 H   0  0  0  0  0  0  0  0  0  0  0  0
    7.5790   -1.7760    1.3186 H   0  0  0  0  0  0  0  0  0  0  0  0
    7.6904    1.7258   -1.1690 H   0  0  0  0  0  0  0  0  0  0  0  0
    8.8604   -0.1602   -0.0605 H   0  0  0  0  0  0  0  0  0  0  0  0
  1 13  2  0  0  0  0
  2  7  1  0  0  0  0
  2  8  1  0  0  0  0
  2 10  1  0  0  0  0
  3  4  1  0  0  0  0
  3 12  1  0  0  0  0
  3 13  1  0  0  0  0
  4  5  1  0  0  0  0
  4  6  1  0  0  0  0
  4 27  1  0  0  0  0
  5  7  1  0  0  0  0
  5  9  1  0  0  0  0
  5 28  1  0  0  0  0
  6  8  1  0  0  0  0
  6 29  1  0  0  0  0
  6 30  1  0  0  0  0
  7 31  1  0  0  0  0
  7 32  1  0  0  0  0
  8 33  1  0  0  0  0
  8 34  1  0  0  0  0
  9 35  1  0  0  0  0
  9 36  1  0  0  0  0
  9 37  1  0  0  0  0
 10 11  1  0  0  0  0
 10 38  1  0  0  0  0
 10 39  1  0  0  0  0
 11 15  1  0  0  0  0
 11 40  1  0  0  0  0
 11 41  1  0  0  0  0
 12 16  2  0  0  0  0
 12 17  1  0  0  0  0
 13 14  1  0  0  0  0
 14 18  1  0  0  0  0
 14 42  1  0  0  0  0
 14 43  1  0  0  0  0
 15 21  2  0  0  0  0
 15 22  1  0  0  0  0
 16 19  1  0  0  0  0
 16 44  1  0  0  0  0
 17 20  2  0  0  0  0
 17 45  1  0  0  0  0
 18 46  1  0  0  0  0
 18 47  1  0  0  0  0
 18 48  1  0  0  0  0
 19 23  2  0  0  0  0
 19 49  1  0  0  0  0
 20 23  1  0  0  0  0
 20 50  1  0  0  0  0
 21 24  1  0  0  0  0
 21 51  1  0  0  0  0
 22 25  2  0  0  0  0
 22 52  1  0  0  0  0
 23 53  1  0  0  0  0
 24 26  2  0  0  0  0
 24 54  1  0  0  0  0
 25 26  1  0  0  0  0
 25 55  1  0  0  0  0
 26 56  1  0  0  0  0
M  END
> <DATABASE_ID>
DB01571

> <DATABASE_NAME>
drugbank

> <ORIGINAL_SOURCE>
PUBCHEM

> <ORIGINAL_SOURCE_URL>
https://pubchem.ncbi.nlm.nih.gov/rest/pug/compound/inchikey/MLQRZXNZHAOCHQ-UHFFFAOYSA-N/SDF?record_type=3d

> <SMILES>
CCC(=O)N(C1CCN(CCC2=CC=CC=C2)CC1C)C1=CC=CC=C1

> <INCHI_IDENTIFIER>
InChI=1S/C23H30N2O/c1-3-23(26)25(21-12-8-5-9-13-21)22-15-17-24(18-19(22)2)16-14-20-10-6-4-7-11-20/h4-13,19,22H,3,14-18H2,1-2H3

> <INCHI_KEY>
MLQRZXNZHAOCHQ-UHFFFAOYSA-N

> <FORMULA>
C23H30N2O

> <MOLECULAR_WEIGHT>
350.4971

> <EXACT_MASS>
350.235813592

> <JCHEM_ACCEPTOR_COUNT>
2

> <JCHEM_AVERAGE_POLARIZABILITY>
41.642014395590074

> <JCHEM_BIOAVAILABILITY>
1

> <JCHEM_DONOR_COUNT>
0

> <JCHEM_FORMAL_CHARGE>
0

> <JCHEM_GHOSE_FILTER>
1

> <JCHEM_IUPAC>
N-[3-methyl-1-(2-phenylethyl)piperidin-4-yl]-N-phenylpropanamide

> <ALOGPS_LOGP>
4.29

> <JCHEM_LOGP>
4.294822107666667

> <ALOGPS_LOGS>
-4.37

> <JCHEM_MDDR_LIKE_RULE>
1

> <JCHEM_NUMBER_OF_RINGS>
3

> <JCHEM_PHYSIOLOGICAL_CHARGE>
1

> <JCHEM_PKA_STRONGEST_BASIC>
9.082512080964243

> <JCHEM_POLAR_SURFACE_AREA>
23.550000000000004

> <JCHEM_REFRACTIVITY>
107.89890000000004

> <JCHEM_ROTATABLE_BOND_COUNT>
6

> <JCHEM_RULE_OF_FIVE>
1

> <ALOGPS_SOLUBILITY>
1.50e-02 g/l

> <JCHEM_TRADITIONAL_IUPAC>
3-methylfentanyl

> <JCHEM_VEBER_RULE>
1

> <DRUGBANK_ID>
DB01571

> <DRUG_GROUPS>
illicit

> <GENERIC_NAME>
3-Methylfentanyl

> <SYNONYMS>
3-MF; mefentanyl

$$$$
