2681
  -OEChem-10051719403D

 62 61  0     0  0  0  0  0  0999 V2000
   -8.5606    0.1725    0.1068 N   0  3  0  0  0  0  0  0  0  0  0  0
   -7.3525   -0.6846    0.1497 C   0  0  0  0  0  0  0  0  0  0  0  0
   -6.0913    0.1548   -0.0189 C   0  0  0  0  0  0  0  0  0  0  0  0
   -4.8034   -0.6747    0.0055 C   0  0  0  0  0  0  0  0  0  0  0  0
   -3.5374    0.1707   -0.1755 C   0  0  0  0  0  0  0  0  0  0  0  0
   -2.2467   -0.6467   -0.0745 C   0  0  0  0  0  0  0  0  0  0  0  0
   -0.9798    0.2075   -0.1966 C   0  0  0  0  0  0  0  0  0  0  0  0
    0.3105   -0.6125   -0.1217 C   0  0  0  0  0  0  0  0  0  0  0  0
    1.5785    0.2456   -0.1850 C   0  0  0  0  0  0  0  0  0  0  0  0
   -9.8304   -0.6592    0.3399 C   0  0  0  0  0  0  0  0  0  0  0  0
   -8.6908    0.8666   -1.2567 C   0  0  0  0  0  0  0  0  0  0  0  0
   -8.4992    1.2597    1.1897 C   0  0  0  0  0  0  0  0  0  0  0  0
    2.9022   -0.5094   -0.0279 C   0  0  0  0  0  0  0  0  0  0  0  0
    4.1356    0.3886   -0.1555 C   0  0  0  0  0  0  0  0  0  0  0  0
    5.4247   -0.4190    0.0186 C   0  0  0  0  0  0  0  0  0  0  0  0
    6.6966    0.4303   -0.0775 C   0  0  0  0  0  0  0  0  0  0  0  0
    7.9835   -0.3847    0.0752 C   0  0  0  0  0  0  0  0  0  0  0  0
    9.2524    0.4741    0.0502 C   0  0  0  0  0  0  0  0  0  0  0  0
   10.5385   -0.3331    0.2312 C   0  0  0  0  0  0  0  0  0  0  0  0
   11.7697    0.5538    0.1230 C   0  0  0  0  0  0  0  0  0  0  0  0
   -7.4345   -1.4337   -0.6472 H   0  0  0  0  0  0  0  0  0  0  0  0
   -7.3398   -1.2089    1.1130 H   0  0  0  0  0  0  0  0  0  0  0  0
   -6.1000    0.6982   -0.9687 H   0  0  0  0  0  0  0  0  0  0  0  0
   -5.9991    0.8955    0.7815 H   0  0  0  0  0  0  0  0  0  0  0  0
   -4.8449   -1.4332   -0.7858 H   0  0  0  0  0  0  0  0  0  0  0  0
   -4.7440   -1.2136    0.9592 H   0  0  0  0  0  0  0  0  0  0  0  0
   -3.5734    0.6733   -1.1497 H   0  0  0  0  0  0  0  0  0  0  0  0
   -3.5210    0.9587    0.5876 H   0  0  0  0  0  0  0  0  0  0  0  0
   -2.2289   -1.1769    0.8856 H   0  0  0  0  0  0  0  0  0  0  0  0
   -2.2441   -1.4123   -0.8600 H   0  0  0  0  0  0  0  0  0  0  0  0
   -1.0028    0.7550   -1.1468 H   0  0  0  0  0  0  0  0  0  0  0  0
   -0.9776    0.9590    0.6026 H   0  0  0  0  0  0  0  0  0  0  0  0
    0.3278   -1.3418   -0.9407 H   0  0  0  0  0  0  0  0  0  0  0  0
    0.3170   -1.1861    0.8134 H   0  0  0  0  0  0  0  0  0  0  0  0
    1.5236    1.0138    0.5968 H   0  0  0  0  0  0  0  0  0  0  0  0
    1.5886    0.7808   -1.1430 H   0  0  0  0  0  0  0  0  0  0  0  0
  -10.6996    0.0035    0.2951 H   0  0  0  0  0  0  0  0  0  0  0  0
   -9.7539   -1.1268    1.3259 H   0  0  0  0  0  0  0  0  0  0  0  0
   -9.8859   -1.4201   -0.4441 H   0  0  0  0  0  0  0  0  0  0  0  0
   -7.9173    1.6308   -1.3612 H   0  0  0  0  0  0  0  0  0  0  0  0
   -9.6727    1.3487   -1.2997 H   0  0  0  0  0  0  0  0  0  0  0  0
   -8.6091    0.1072   -2.0397 H   0  0  0  0  0  0  0  0  0  0  0  0
   -8.2572    0.7837    2.1443 H   0  0  0  0  0  0  0  0  0  0  0  0
   -7.7577    2.0148    0.9177 H   0  0  0  0  0  0  0  0  0  0  0  0
   -9.4824    1.7379    1.2462 H   0  0  0  0  0  0  0  0  0  0  0  0
    2.9125   -1.0076    0.9493 H   0  0  0  0  0  0  0  0  0  0  0  0
    2.9512   -1.3002   -0.7866 H   0  0  0  0  0  0  0  0  0  0  0  0
    4.1369    0.8770   -1.1372 H   0  0  0  0  0  0  0  0  0  0  0  0
    4.0930    1.1807    0.6013 H   0  0  0  0  0  0  0  0  0  0  0  0
    5.4626   -1.2063   -0.7447 H   0  0  0  0  0  0  0  0  0  0  0  0
    5.4068   -0.9237    0.9927 H   0  0  0  0  0  0  0  0  0  0  0  0
    6.6662    1.2057    0.6979 H   0  0  0  0  0  0  0  0  0  0  0  0
    6.7125    0.9492   -1.0438 H   0  0  0  0  0  0  0  0  0  0  0  0
    7.9474   -0.9387    1.0213 H   0  0  0  0  0  0  0  0  0  0  0  0
    8.0356   -1.1311   -0.7270 H   0  0  0  0  0  0  0  0  0  0  0  0
    9.1895    1.2326    0.8405 H   0  0  0  0  0  0  0  0  0  0  0  0
    9.2945    1.0147   -0.9036 H   0  0  0  0  0  0  0  0  0  0  0  0
   10.5938   -1.1186   -0.5313 H   0  0  0  0  0  0  0  0  0  0  0  0
   10.5308   -0.8288    1.2086 H   0  0  0  0  0  0  0  0  0  0  0  0
   11.8217    1.0354   -0.8586 H   0  0  0  0  0  0  0  0  0  0  0  0
   12.6781   -0.0416    0.2577 H   0  0  0  0  0  0  0  0  0  0  0  0
   11.7586    1.3352    0.8896 H   0  0  0  0  0  0  0  0  0  0  0  0
  1  2  1  0  0  0  0
  1 10  1  0  0  0  0
  1 11  1  0  0  0  0
  1 12  1  0  0  0  0
  2  3  1  0  0  0  0
  2 21  1  0  0  0  0
  2 22  1  0  0  0  0
  3  4  1  0  0  0  0
  3 23  1  0  0  0  0
  3 24  1  0  0  0  0
  4  5  1  0  0  0  0
  4 25  1  0  0  0  0
  4 26  1  0  0  0  0
  5  6  1  0  0  0  0
  5 27  1  0  0  0  0
  5 28  1  0  0  0  0
  6  7  1  0  0  0  0
  6 29  1  0  0  0  0
  6 30  1  0  0  0  0
  7  8  1  0  0  0  0
  7 31  1  0  0  0  0
  7 32  1  0  0  0  0
  8  9  1  0  0  0  0
  8 33  1  0  0  0  0
  8 34  1  0  0  0  0
  9 13  1  0  0  0  0
  9 35  1  0  0  0  0
  9 36  1  0  0  0  0
 10 37  1  0  0  0  0
 10 38  1  0  0  0  0
 10 39  1  0  0  0  0
 11 40  1  0  0  0  0
 11 41  1  0  0  0  0
 11 42  1  0  0  0  0
 12 43  1  0  0  0  0
 12 44  1  0  0  0  0
 12 45  1  0  0  0  0
 13 14  1  0  0  0  0
 13 46  1  0  0  0  0
 13 47  1  0  0  0  0
 14 15  1  0  0  0  0
 14 48  1  0  0  0  0
 14 49  1  0  0  0  0
 15 16  1  0  0  0  0
 15 50  1  0  0  0  0
 15 51  1  0  0  0  0
 16 17  1  0  0  0  0
 16 52  1  0  0  0  0
 16 53  1  0  0  0  0
 17 18  1  0  0  0  0
 17 54  1  0  0  0  0
 17 55  1  0  0  0  0
 18 19  1  0  0  0  0
 18 56  1  0  0  0  0
 18 57  1  0  0  0  0
 19 20  1  0  0  0  0
 19 58  1  0  0  0  0
 19 59  1  0  0  0  0
 20 60  1  0  0  0  0
 20 61  1  0  0  0  0
 20 62  1  0  0  0  0
M  CHG  1   1   1
M  END
> <DATABASE_ID>
DB01718

> <DATABASE_NAME>
drugbank

> <ORIGINAL_SOURCE>
PUBCHEM

> <ORIGINAL_SOURCE_URL>
https://pubchem.ncbi.nlm.nih.gov/rest/pug/compound/inchikey/RLGQACBPNDBWTB-UHFFFAOYSA-N/SDF?record_type=3d

> <SMILES>
CCCCCCCCCCCCCCCC[N+](C)(C)C

> <INCHI_IDENTIFIER>
InChI=1S/C19H42N/c1-5-6-7-8-9-10-11-12-13-14-15-16-17-18-19-20(2,3)4/h5-19H2,1-4H3/q+1

> <INCHI_KEY>
RLGQACBPNDBWTB-UHFFFAOYSA-N

> <FORMULA>
C19H42N

> <MOLECULAR_WEIGHT>
284.5435

> <EXACT_MASS>
284.331725349

> <JCHEM_ACCEPTOR_COUNT>
0

> <JCHEM_AVERAGE_POLARIZABILITY>
41.08598414608958

> <JCHEM_BIOAVAILABILITY>
1

> <JCHEM_DONOR_COUNT>
0

> <JCHEM_FORMAL_CHARGE>
1

> <JCHEM_GHOSE_FILTER>
1

> <JCHEM_IUPAC>
hexadecyltrimethylazanium

> <ALOGPS_LOGP>
2.48

> <JCHEM_LOGP>
2.686555843861588

> <ALOGPS_LOGS>
-7.79

> <JCHEM_MDDR_LIKE_RULE>
0

> <JCHEM_NUMBER_OF_RINGS>
0

> <JCHEM_PHYSIOLOGICAL_CHARGE>
1

> <JCHEM_POLAR_SURFACE_AREA>
0

> <JCHEM_REFRACTIVITY>
104.98729999999998

> <JCHEM_ROTATABLE_BOND_COUNT>
15

> <JCHEM_RULE_OF_FIVE>
1

> <ALOGPS_SOLUBILITY>
5.24e-06 g/l

> <JCHEM_TRADITIONAL_IUPAC>
cetyl-trimethyl-ammonium

> <JCHEM_VEBER_RULE>
0

> <DRUGBANK_ID>
DB01718

> <SECONDARY_ACCESSION_NUMBERS>
EXPT00048; DB13159

> <DRUG_GROUPS>
approved

> <GENERIC_NAME>
Cetrimonium

> <SYNONYMS>
Cetrimonium cation; Cetrimonium ion; Cetyl-Trimethyl-Ammonium; Cetyltrimethylammonium; Cetyltrimethylammonium cation; Cetyltrimethylammonium ion; Hexadecyltrimethylammonium; Hexadecyltrimethylammonium cation; Hexadecyltrimethylammonium ion; N,N,N-Trimethyl-1-hexadecanaminium; Trimethylhexadecylammonium

> <PRODUCTS>
Bye Bye Burn Lot; Cetrimide Aqueous Soln 1%; Cetrimide Cream 0.5%; Cetrimide Tincture 0.5%; Chlorhexidine-cetrimide Soltn Conc; Resdan Dandruff Treatment Liquid 1%; Salvesept Crm; Savlodil; Savlon Crm 0.5%; Savlon Hospital Concentrate; Xylonor; Xylonor Gel; Xylonor Spray

> <SALTS>
Cetrimonium bromide; Cetrimonium carboxydecyl PEG-8 dimethicone; Cetrimonium chloride; Cetrimonium hydroxide

$$$$
