2952
  -OEChem-10051719323D

 33 35  0     0  0  0  0  0  0999 V2000
    0.2282   -0.2543   -0.0004 O   0  0  0  0  0  0  0  0  0  0  0  0
   -6.0990    2.9671    0.0010 O   0  0  0  0  0  0  0  0  0  0  0  0
   -6.0935   -1.6221   -0.0002 O   0  0  0  0  0  0  0  0  0  0  0  0
    7.4234    0.3059    0.0008 O   0  5  0  0  0  0  0  0  0  0  0  0
    6.5543    2.3264   -0.0011 O   0  0  0  0  0  0  0  0  0  0  0  0
   -4.3812   -0.0162    0.0000 N   0  0  0  0  0  0  0  0  0  0  0  0
   -6.4762    0.6732    0.0001 N   0  0  0  0  0  0  0  0  0  0  0  0
   -3.3246   -0.8538    0.0002 N   0  0  0  0  0  0  0  0  0  0  0  0
    6.4351    1.0780    0.0002 N   0  3  0  0  0  0  0  0  0  0  0  0
   -4.2393    1.4076   -0.0002 C   0  0  0  0  0  0  0  0  0  0  0  0
    1.2425   -1.1544   -0.0004 C   0  0  0  0  0  0  0  0  0  0  0  0
    2.5676   -0.5849    0.0001 C   0  0  0  0  0  0  0  0  0  0  0  0
   -0.9235   -0.9752   -0.0002 C   0  0  0  0  0  0  0  0  0  0  0  0
   -5.7019    1.8103   -0.0002 C   0  0  0  0  0  0  0  0  0  0  0  0
   -5.6951   -0.4655    0.0000 C   0  0  0  0  0  0  0  0  0  0  0  0
    0.7610   -2.4379   -0.0004 C   0  0  0  0  0  0  0  0  0  0  0  0
   -0.6496   -2.3232   -0.0002 C   0  0  0  0  0  0  0  0  0  0  0  0
    3.6854   -1.4191    0.0007 C   0  0  0  0  0  0  0  0  0  0  0  0
    2.7313    0.8004   -0.0006 C   0  0  0  0  0  0  0  0  0  0  0  0
   -2.1552   -0.2624    0.0002 C   0  0  0  0  0  0  0  0  0  0  0  0
    5.1305    0.5170    0.0003 C   0  0  0  0  0  0  0  0  0  0  0  0
    4.9669   -0.8682    0.0009 C   0  0  0  0  0  0  0  0  0  0  0  0
    4.0127    1.3513   -0.0006 C   0  0  0  0  0  0  0  0  0  0  0  0
   -3.7671    1.7657   -0.9187 H   0  0  0  0  0  0  0  0  0  0  0  0
   -3.7670    1.7660    0.9181 H   0  0  0  0  0  0  0  0  0  0  0  0
    1.3352   -3.3535   -0.0004 H   0  0  0  0  0  0  0  0  0  0  0  0
   -7.4897    0.6708    0.0004 H   0  0  0  0  0  0  0  0  0  0  0  0
   -1.3710   -3.1281   -0.0001 H   0  0  0  0  0  0  0  0  0  0  0  0
    3.5904   -2.5018    0.0012 H   0  0  0  0  0  0  0  0  0  0  0  0
    1.8854    1.4832   -0.0013 H   0  0  0  0  0  0  0  0  0  0  0  0
   -2.0167    0.8313    0.0002 H   0  0  0  0  0  0  0  0  0  0  0  0
    5.8144   -1.5489    0.0014 H   0  0  0  0  0  0  0  0  0  0  0  0
    4.1020    2.4348   -0.0012 H   0  0  0  0  0  0  0  0  0  0  0  0
  1 11  1  0  0  0  0
  1 13  1  0  0  0  0
  2 14  2  0  0  0  0
  3 15  2  0  0  0  0
  4  9  1  0  0  0  0
  5  9  2  0  0  0  0
  6  8  1  0  0  0  0
  6 10  1  0  0  0  0
  6 15  1  0  0  0  0
  7 14  1  0  0  0  0
  7 15  1  0  0  0  0
  7 27  1  0  0  0  0
  8 20  2  0  0  0  0
  9 21  1  0  0  0  0
 10 14  1  0  0  0  0
 10 24  1  0  0  0  0
 10 25  1  0  0  0  0
 11 12  1  0  0  0  0
 11 16  2  0  0  0  0
 12 18  2  0  0  0  0
 12 19  1  0  0  0  0
 13 17  2  0  0  0  0
 13 20  1  0  0  0  0
 16 17  1  0  0  0  0
 16 26  1  0  0  0  0
 17 28  1  0  0  0  0
 18 22  1  0  0  0  0
 18 29  1  0  0  0  0
 19 23  2  0  0  0  0
 19 30  1  0  0  0  0
 20 31  1  0  0  0  0
 21 22  2  0  0  0  0
 21 23  1  0  0  0  0
 22 32  1  0  0  0  0
 23 33  1  0  0  0  0
M  CHG  2   4  -1   9   1
M  END
> <DATABASE_ID>
DB01219

> <DATABASE_NAME>
drugbank

> <ORIGINAL_SOURCE>
PUBCHEM

> <ORIGINAL_SOURCE_URL>
https://pubchem.ncbi.nlm.nih.gov/rest/pug/compound/inchikey/OZOMQRBLCMDCEG-UHFFFAOYSA-N/SDF?record_type=3d

> <SMILES>
[O-][N+](=O)C1=CC=C(C=C1)C1=CC=C(O1)C=NN1CC(=O)NC1=O

> <INCHI_IDENTIFIER>
InChI=1S/C14H10N4O5/c19-13-8-17(14(20)16-13)15-7-11-5-6-12(23-11)9-1-3-10(4-2-9)18(21)22/h1-7H,8H2,(H,16,19,20)

> <INCHI_KEY>
OZOMQRBLCMDCEG-UHFFFAOYSA-N

> <FORMULA>
C14H10N4O5

> <MOLECULAR_WEIGHT>
314.253

> <EXACT_MASS>
314.06511945

> <JCHEM_ACCEPTOR_COUNT>
5

> <JCHEM_AVERAGE_POLARIZABILITY>
29.984830848970606

> <JCHEM_BIOAVAILABILITY>
1

> <JCHEM_DONOR_COUNT>
1

> <JCHEM_FORMAL_CHARGE>
0

> <JCHEM_GHOSE_FILTER>
1

> <JCHEM_IUPAC>
1-({[5-(4-nitrophenyl)furan-2-yl]methylidene}amino)imidazolidine-2,4-dione

> <ALOGPS_LOGP>
1.65

> <JCHEM_LOGP>
1.256485484666666

> <ALOGPS_LOGS>
-3.59

> <JCHEM_MDDR_LIKE_RULE>
0

> <JCHEM_NUMBER_OF_RINGS>
3

> <JCHEM_PHYSIOLOGICAL_CHARGE>
0

> <JCHEM_PKA>
14.889167005716253

> <JCHEM_PKA_STRONGEST_ACIDIC>
9.233154620304278

> <JCHEM_PKA_STRONGEST_BASIC>
-1.376752956749463

> <JCHEM_POLAR_SURFACE_AREA>
120.72999999999999

> <JCHEM_REFRACTIVITY>
78.87450000000001

> <JCHEM_ROTATABLE_BOND_COUNT>
4

> <JCHEM_RULE_OF_FIVE>
1

> <ALOGPS_SOLUBILITY>
8.05e-02 g/l

> <JCHEM_TRADITIONAL_IUPAC>
sodium, dantrolene

> <JCHEM_VEBER_RULE>
0

> <DRUGBANK_ID>
DB01219

> <SECONDARY_ACCESSION_NUMBERS>
APRD00901

> <DRUG_GROUPS>
approved; investigational

> <GENERIC_NAME>
Dantrolene

> <SYNONYMS>
1-((5-(p-nitrophenyl)furfurylidene)amino)hydantoin; Dantrolene; Dantroleno; Dantrolenum

> <PRODUCTS>
Dantrium; Dantrium Cap 100mg; Dantrium Cap 25mg; Dantrium Capsules; Dantrium Intravenous; Dantrolene; Dantrolene Sodium; RYANODEX dantrolene sodium; Revonto

> <INTERNATIONAL_BRANDS>
Dantamacrin

> <SALTS>
Dantrolene sodium

$$$$
