159055
  -OEChem-10051719413D

 27 28  0     1  0  0  0  0  0999 V2000
   -2.5236    0.3669    0.2597 O   0  0  0  0  0  0  0  0  0  0  0  0
    0.9678    0.2884    0.4111 C   0  0  0  0  0  0  0  0  0  0  0  0
   -0.2144    0.5208   -0.5698 C   0  0  1  0  0  0  0  0  0  0  0  0
    0.6028   -1.2103    0.6019 C   0  0  2  0  0  0  0  0  0  0  0  0
   -0.0159   -0.5640   -1.6533 C   0  0  0  0  0  0  0  0  0  0  0  0
    0.5689   -1.7483   -0.8515 C   0  0  0  0  0  0  0  0  0  0  0  0
   -0.8584   -1.1836    1.1146 C   0  0  0  0  0  0  0  0  0  0  0  0
   -1.3694   -0.0317    0.2721 C   0  0  0  0  0  0  0  0  0  0  0  0
    2.3676    0.5153   -0.1924 C   0  0  0  0  0  0  0  0  0  0  0  0
    0.9057    1.1276    1.7038 C   0  0  0  0  0  0  0  0  0  0  0  0
   -0.4310    1.9190   -1.0963 C   0  0  0  0  0  0  0  0  0  0  0  0
    1.2723   -1.7778    1.2529 H   0  0  0  0  0  0  0  0  0  0  0  0
    0.6783   -0.2453   -2.4382 H   0  0  0  0  0  0  0  0  0  0  0  0
   -0.9584   -0.8477   -2.1359 H   0  0  0  0  0  0  0  0  0  0  0  0
   -0.0480   -2.6478   -0.9503 H   0  0  0  0  0  0  0  0  0  0  0  0
    1.5732   -2.0000   -1.2082 H   0  0  0  0  0  0  0  0  0  0  0  0
   -0.9222   -0.9376    2.1767 H   0  0  0  0  0  0  0  0  0  0  0  0
   -1.4018   -2.1053    0.8944 H   0  0  0  0  0  0  0  0  0  0  0  0
    2.5336    0.0122   -1.1475 H   0  0  0  0  0  0  0  0  0  0  0  0
    3.1412    0.1571    0.4966 H   0  0  0  0  0  0  0  0  0  0  0  0
    2.5459    1.5824   -0.3673 H   0  0  0  0  0  0  0  0  0  0  0  0
    1.6122    0.7384    2.4456 H   0  0  0  0  0  0  0  0  0  0  0  0
   -0.0812    1.1504    2.1737 H   0  0  0  0  0  0  0  0  0  0  0  0
    1.1747    2.1710    1.5025 H   0  0  0  0  0  0  0  0  0  0  0  0
    0.4428    2.2768   -1.6497 H   0  0  0  0  0  0  0  0  0  0  0  0
   -1.2923    1.9524   -1.7726 H   0  0  0  0  0  0  0  0  0  0  0  0
   -0.6326    2.6250   -0.2839 H   0  0  0  0  0  0  0  0  0  0  0  0
  1  8  2  0  0  0  0
  2  3  1  0  0  0  0
  2  4  1  0  0  0  0
  2  9  1  0  0  0  0
  2 10  1  0  0  0  0
  3  5  1  0  0  0  0
  3  8  1  0  0  0  0
  3 11  1  0  0  0  0
  4  6  1  0  0  0  0
  4  7  1  0  0  0  0
  4 12  1  0  0  0  0
  5  6  1  0  0  0  0
  5 13  1  0  0  0  0
  5 14  1  0  0  0  0
  6 15  1  0  0  0  0
  6 16  1  0  0  0  0
  7  8  1  0  0  0  0
  7 17  1  0  0  0  0
  7 18  1  0  0  0  0
  9 19  1  0  0  0  0
  9 20  1  0  0  0  0
  9 21  1  0  0  0  0
 10 22  1  0  0  0  0
 10 23  1  0  0  0  0
 10 24  1  0  0  0  0
 11 25  1  0  0  0  0
 11 26  1  0  0  0  0
 11 27  1  0  0  0  0
M  END
> <DATABASE_ID>
DB01744

> <DATABASE_NAME>
drugbank

> <ORIGINAL_SOURCE>
PUBCHEM

> <ORIGINAL_SOURCE_URL>
https://pubchem.ncbi.nlm.nih.gov/rest/pug/compound/inchikey/DSSYKIVIOFKYAU-XCBNKYQSSA-N/SDF?record_type=3d

> <SMILES>
[H][C@@]12CC[C@@](C)(C(=O)C1)C2(C)C

> <INCHI_IDENTIFIER>
InChI=1S/C10H16O/c1-9(2)7-4-5-10(9,3)8(11)6-7/h7H,4-6H2,1-3H3/t7-,10+/m1/s1

> <INCHI_KEY>
DSSYKIVIOFKYAU-XCBNKYQSSA-N

> <FORMULA>
C10H16O

> <MOLECULAR_WEIGHT>
152.2334

> <EXACT_MASS>
152.120115134

> <JCHEM_ACCEPTOR_COUNT>
1

> <JCHEM_AVERAGE_POLARIZABILITY>
17.73508541789034

> <JCHEM_BIOAVAILABILITY>
1

> <JCHEM_DONOR_COUNT>
0

> <JCHEM_FORMAL_CHARGE>
0

> <JCHEM_GHOSE_FILTER>
0

> <JCHEM_IUPAC>
(1R,4R)-1,7,7-trimethylbicyclo[2.2.1]heptan-2-one

> <ALOGPS_LOGP>
2.85

> <JCHEM_LOGP>
2.5529855899999996

> <ALOGPS_LOGS>
-2.24

> <JCHEM_MDDR_LIKE_RULE>
0

> <JCHEM_NUMBER_OF_RINGS>
2

> <JCHEM_PHYSIOLOGICAL_CHARGE>
0

> <JCHEM_PKA_STRONGEST_BASIC>
-7.485708558665737

> <JCHEM_POLAR_SURFACE_AREA>
17.07

> <JCHEM_REFRACTIVITY>
44.492000000000004

> <JCHEM_ROTATABLE_BOND_COUNT>
0

> <JCHEM_RULE_OF_FIVE>
1

> <ALOGPS_SOLUBILITY>
8.80e-01 g/l

> <JCHEM_TRADITIONAL_IUPAC>
D-camphor

> <JCHEM_VEBER_RULE>
1

> <DRUGBANK_ID>
DB01744

> <SECONDARY_ACCESSION_NUMBERS>
EXPT00827

> <DRUG_GROUPS>
approved

> <GENERIC_NAME>
Camphor

> <SYNONYMS>
(+)-bornan-2-one; (+)-Camphor; (1R,4R)-camphor; (1R)-(+)-camphor; (R)-(+)-camphor; (R)-camphor; Camphor (natural); Camphor D-form; Camphor oil; Camphor(D); Camphora; D-Camphor; Dextrocamphor; Natural camphor

> <PRODUCTS>
365 Medicated Lip Balm; AIM Muscle Pain Relief Cream; Aching Head Rub; Air Salonpas; Amoray Care Chest Rub; Amrut Balm; Anbesol Liquid; Anbesol Maximum Strength Liquid; Antibiotic Cold Sore Ointment; Antiphlogistine Rub A 535 Extra Strength; Antiphlogistine Rub A535; Arctic Blast Pain Drops; Arneu; Arnica Ice Cooling; Arthritis Pain Reliever Herbalife; Arthritis Pain Relieving Cream; Arthritis Plus Gel; Arthro Rheuma Cream; Arthrocare Lotion; Artrex; Asana Kisser; Ass Kisser; Athletic Liniment; Au Kah Chuen Skin Lotion; Aulief Topical Pain Reliever; Aurisan Dps; Avapta; Avon Healthy Remedies Menthol & Camphor Soothing Relief Gel; Back Pain Relieving Oil; Balminil Camphorub; Balminil Nasal Ointment; Banana Boat Medicated Lip Balm; Band-aid Brand Anti-itch Gel; Band-aid Brand Anti-itch Spray; Banish My Pain; Bioease Pain Relieving Cold Therapy; Biofreeze; Bite Relief; Blistex Dct; Blistex Lip; Blistex Med Lip Conditioner Spf15 Ont; Blue Ice Fermented Cod Liver Oil Calm Balm; Blue Star; Bronchodex Vapo Ont; Bronchodex-rub; Bronchophan Onguent Vaporisant; Broncolin; CAMPHO-PHENIQUE ANTISEPTIC Gel; CARMEX original lip balm EXTERNAL ANALGESIC; CBD Clinic Deep-Rub Pain Relief - Level 1; CBD Clinic Deep-Rub Pain Relief - Level 5; CBD Clinic Pain Relief - Level 2; CBD Clinic Pain Relief - Level 4; CBD Clinic Pain Relief - Level 5; CBD Clinic Relax Massage; CBD Clinic Revive Massage; CBD Clinic Ultimate Massage; CBDMEDIC Active Sport Pain Relief; CBDMEDIC Arthritis Aches and Pain Relief; CBDMEDIC Back and Neck Pain Relief; CBDMEDIC Foot and Ankle Pain Relief; CBDMEDIC Massage Therapy Pain Relief; CBDMEDIC Muscle and Joint Pain Relief; CLM Patch; CVS Medicated Chest Rub Roll-On; Cajun Hot Ice Muscle and Joint Pain Rub; Cal Mo Dol Ont; Calmadol; Calmitol Itching Relief Ont; Cam Sun (huile Therapeutique); Camocare Pain Relieving Cream; Campho Rex; Campho-Phenique Pain Relieving Antiseptic Liquid; Camphomex; Camphor; Camphor Spirit; Camphor Spirit Liq; Camphor Spirit Liq 10%; Camphorated Oil 20%; Camphorated Oil Liniment; Camphorated Ointment Compound; Camphorated Opium Tincture; Camphorated Para Chlorophenol Liq; Canadian External Analgesic; Carmatis Ont; Carmex Lip Balm; Carmex Lip Ointment; Cbd Unlimited Mistx Topical Analgesic; Cbd-kings With Lidocaine 4%; Chapstick Medicated Lip Balm - Jar; Chapstick Medicated Lip Balm - Stk; Chapstick Medicated Lip Balm - Tube; Chase Coldsorex; CheeZheng Pain Relieveing Plaster; Cheezheng Pain Relieving; Chest Rub; Chest Rub Ont; Choice Personal Care Vapor Rub; Chun Gi So; Cm Systems 2 Gel; Cold Rub; Cold Sore Lotion; Cold Sore Therapy; Cold Sore Treatment; Coralite Muscle Joint; Crampy Belly Rub; Creo Grippe Enfants Sup; Creo Grippe Sup Adultes; Creo-rectal Adulte; Creo-rectal Enfants/children; Creo-rectal Nourrisson; Cresophene Liq; DDM Camphor Spirit; DDM Instant Antiseptic Pain Relief; Ddsgen; Deep Muscle Rub; Demo Cineol Inj; Demo-cineol Adultes/adults; Demo-cineol Enfants/children; Dentalgar Liq; Dermal Pain Relief Therapy; Dermasarra; Diclovix; Doctor Hoys Natural Pain Relief; Dr Bob Arnots Pain; Dr Bob Arnots Pain Pen; Dr Hos Pain Aid 5x Active Strength; Dr. J.I.s Arthritis Plus Gel; Dr. JIs Arthritis Plus; Dr. OH PATCH; Dr. Phillips Formulations Muscle Joint Relief; Dr.oh Patch; Dragon; Dream Cream; Dual Treatment - Cold Sore Therapy and Daily Lip Maintenance; Dynamiclear ORO; Earths Best Cold Relief Vapor; Earths Care Anti-itch; Earths Care Arnica Compound; Earths Care Muscle and Joint Rub; Earths Care Pain Relieving; Easy Joint; Eau Resolutive Soker; Fast Freeze; Flex24 Pain; Flex24 Pain Pen; Flex24 Performance; Flex24 Performance Pen; Flex24 Tape; Flower O Life Pain Relieving Balm; Formula A; Freds Antiseptic Instant Pain Relief; Frozen Ice Fast Pain Relief; GADADERM Frozen Ice Advance Pain Relief; Glenalgesic Blue Gel; Good Neighbor Pharmacy Anti-Itch Steroid Free; Gouttes Dentaires; Gouttes Pour Mal D'oreilles; Green Compass Reduce Topical Pain; HEB Camphor Phenol; HUMCO Camphor Spirit; Heat Rub; Heet Liniment Liq; Herbal Heat; Herbal Pain Relieving; Ho Liang Kee; Ice Quake Roll On; Inflammation OTC Bruise Relief; Inflammation OTC Deep Pain Care Cold; Inflammation OTC Deep Pain Care Hot; Inno Rheuma Cream; Instant Antiseptic Pain Relief; Itch Nix; Jack and Jill Rub; Jamp-cough Suppositories Adult; Jamp-suppositories Children; Jivamukti; Joint Comfort; Joints and Muscles Pain Relieving; Jupiter Pain Patch; KT Recovery Plus Pain Relief Gel; KT Recovery Plus Timed Relief Pain Relief Gel; Kalaya Breathe Easy Vaporizing Rub; Kalaya Pain Relief 6X with Arnica; Kama Sutra Pleasure Balm; Kapsin External Analgesic; Kaz Inhalant; KeVUENO Pain Relieving; Kinkan; Kiss Therapy Medicated Lip Balm; LEADER Camphor Spirit; Liniment Soker; Lip Conditioner Lip Balm; Littles Vapor Rub; Lotion Pour Feux Sauvages; Lucky SuperSoft Muscle and Joint; MHS Pain Relief Oil; MHS Tendon Liniment; MHS Wong Family Iron Palm Jow; MMA Elite Pain Relief; Magical Muscle Oil; Manteca Maslac; Marco Rub Camphorated Ont; Masterbalm; Mata Balm; MaxRelief Arnica; Maximum Strength Pain Cream with Pure Hemp Extract; Maximum Strength Pain Relief Sports Cream; Mecca Ointment; Medi-quik First Aid Spray; Medicated Analgesic Cream; Medicated Balm Arthritis Pain Relieving Cream; Medicated Blistex Dct Lip Balm; Medicated Chest Rub; Medicated Chest Rub - Ont; Medicated Chest Rub - Ont Top; Medicated Lip Balm; Medicated Lipbalm; Medicated Vapourizer Fluid; Medistik Ice; Menthol Camphor Cough Suppressant Rub; Menthol Camphor Vapor Rub; Mentholatum Cherry Vaporizing Rub; Mentholatum Childrens Nighttime Vaporizing Rub; Mentholatum Extra Strength Ont; Mentholatum Greaseless Vaporizing Cream; Mentholatum Lavender Vaporizing Rub; Mentholatum Nighttime Vaporizing Rub; Mentholatum No Mess Vaporizing Rub; Mentholatum Original; Meridian Balm; Mobility; Monkey Holding Peach Brand External Analgesic Balm; Motion Medicine; Mrx Liq; Muscle Rub Ultra; Muscle and Joint HRX Pain Relieving; Muscle rub; Nan San MUSFLEX External Analgesic; Natur 911; Natural Pain Relief Foot Cream; Naturland Inno Rheuma Cream; Naturland Sports Cream; Neptune Ice; Neptune Ice Patch; Neriumrx Cold Sore Therapy; Neriumrx Dermal Pain Therapy; Neutrogena Anti-itch Moisturizer; Novarnica; Novarnica Foot Pain Reliever; O24 Pain Neutralizer; OFF Bite and Itch Relief First Aid Antiseptic; ORO Dynamiclear; Onguent Camphre Menthol Alsi; Opium Camphre Tanin Tab; Orajel Cold Sore Moisturelock; Orajel Multi-action Cold Sore Medicine; Orajel for Codl Sores Relief and Concealer; Orajel for Cold Sores Maximum Strength; Oralgar Dps; Oriental Magic Oil; Pain Ease; Pain Reileving Herbal Oil; Pain Relief Cream; Pain Relief Cream Extra Strength; Pain Relief Gel; Pain Relief Herbal; Pain Relief Herbal balm; Pain Relief Rub; Pain Relief Rub Iampur; Pain Relieving; Pain Relieving Balm; Pain Relieving Chi Len Oil; Pain Relieving Iampur; Pain Relieving Liniment; Pain Relieving MUSFLEX; Pain Relieving Po Tong Oil; Pain-A-trate Cream; Pain-ease; Pain-oleum - Liniment; PainKillerNaturalOintment; Paregorique; Perform; Pharmacys Prescription Vapor Rub; Phoenix Balm; Pommade Au The Des Bois; Pro-Flex; Profoot; Profoot Pain Relief Patches; Pure Nerium Cold Sore Therapy; Pure Nerium Dermal Pain Relief Therapy; Quality Choice Camphor Spirit; Ramedica; Red Chilli Plaster; Red Flower Oil; Refined Gou Pi Pain Relieving Plaster; Rejuvaflex Natural Pain Relieving; Relexo Oil; Relief Assist; Relief Balm; Relief Recovery; Rhino-vaccin; Rps Care; Rubbex Creme; Rx Act; Salonpas - Pls Top; Salonpas DEEP RElieving TOPICAL ANALGESIC; Salonpas Gel-patch; Salonpas Medicated Plaster; Sarna; Sarna P; Savex 15 Ont SPF-15; Savex Ont; Savex With Paba; Savex With Sunscreen Ont; Sc Pain Relief Balm; Seldicine (Massage Cream); Shang Shi Zhi Tong Gao; Shang Shi Zhi Tong Pain Relieving Plaster; Shao Lin Gao Pain Relieving Plaster; SheXiang ZhuangGu Gao; Sheng Chun Pain Relief; SierraSil Pain Relief; Sof Skin Vaporizing Chest Rub and Cough Suppressant; Spirit Of Camphor; Sport Rub - Cream; Sports Balm; Sting Kure - Liq; Sting-eze-liq; StingEze Insect Bite Relief; Strain Pain Relieving Cream; Sunmark Camphor Spirit; Super Forte Xl10; Suppress Ointment; THAYERS TOPICAL PAIN RELIEVER MEDICATED SUPERHAZEL with ALOE VERA FORMULA; THAYERS TOPICAL PAIN RELIEVER SUPERHAZEL with ALOE VERA FORMULA; Tempo cool; Tetramex; Thera Derm Roll On; Thera Patch; Thera Wise Natural Vapor Rub; TheraDerm; Therapatch Vapor - Chest; Therapatch Vapour - Nose & Chin; Therapeutic Heat Lotion; Therapeutic Soothing Ice Gel; Thunas Salve for Rheumatic Pains; Tianhe Gutong Tiegao; Tianhe Gutong Tiegao (in Polyisobutylene Carrier); Tianhe Zhuanggu Gao; Tianhe Zhuifeng Gao; Tibetree Pain Relieveing Medicated Plaster; Tibetree Pain Relieveing Plaster; Tokuhon Medicated Plaster; Tong Luo Qu Tong Gao; Top Medicated; Top Medicated Pain Relieving; TopiCool Pain Relief with Cats Claw; Topical Analgesic Gel; Total Muscle Relief; Triaminic Night Time Rub; Triaminic Vapour Patch; Turmeric Infused Hemp Pain Cream; Turmeric Pain Relieving Cream; Ultra Strength Pain Relief Balm; Ultra Vedic; VIVA Patch; Valtrum Aerobic Sports; Valtrum Topical Analgesic Roll On; Vapor Plus; Vaporisateur Medicamente; Vaporizing; Vaporizing Chest Rub 4 oz.; Vaporizing Chest Rub 4 oz. 3 pk; Vaporizing Colds Rub - Ont; Vapourizing Chest Rub; Vaproizing; Vaseline Brand Lip Therapy Medicated Tube; Vida Mia Instant Antiseptic Pain Relief; Vital Vapor; White Cream; White Flower Ointment; Wish Care; Wok Lok Pain Relieving Oil; Womens Relief Balm; Womens Sports Balm; XtraCare Vaporizing Chest Rub; Yao Shen Gao Pain Relieving Plaster; Yu Long You Pain Relieving; ZYCAZIN Antiseptic Liquid; Zang Qi; Zen Hemp Balm; Zen Sports Balm; Zhenweilong Huoluo You External Analgesic; Zhuang Gu Feng Shi Pain Relieving Plaster; Zhuang Gu She Xiang Zhi Tong Gao; Zhuanggu Shexiang Zhitonggao Pain Relieving Plaster; amoray premium Vaporizing Inhaler; bB Medicated Pain Relieving Oil

$$$$
