29029
  -OEChem-12151821453D

 60 61  0     1  0  0  0  0  0999 V2000
   -2.1527   -2.7249    2.3838 Cl  0  0  0  0  0  0  0  0  0  0  0  0
   -1.8730    2.6586    1.5618 S   0  0  0  0  0  0  0  0  0  0  0  0
   -1.3847    0.7421   -0.3159 O   0  0  0  0  0  0  0  0  0  0  0  0
   -3.4272   -0.7861   -1.6918 O   0  0  0  0  0  0  0  0  0  0  0  0
   -5.5234    0.7873   -0.7758 O   0  0  0  0  0  0  0  0  0  0  0  0
   -4.0913    3.2511   -0.4658 O   0  0  0  0  0  0  0  0  0  0  0  0
    1.1344   -1.5746   -1.6268 O   0  0  0  0  0  0  0  0  0  0  0  0
    3.5331   -1.7738   -0.4983 N   0  0  1  0  0  0  0  0  0  0  0  0
    0.0978   -1.4134    0.4512 N   0  0  0  0  0  0  0  0  0  0  0  0
    4.0378    0.4850   -0.5293 C   0  0  2  0  0  0  0  0  0  0  0  0
    2.4696   -1.1563    0.3026 C   0  0  1  0  0  0  0  0  0  0  0  0
    2.7964    0.3380    0.3487 C   0  0  0  0  0  0  0  0  0  0  0  0
    4.6929   -0.8839   -0.4098 C   0  0  0  0  0  0  0  0  0  0  0  0
   -2.0927   -0.3611    0.2708 C   0  0  2  0  0  0  0  0  0  0  0  0
   -1.2640   -1.6147    0.0084 C   0  0  2  0  0  0  0  0  0  0  0  0
   -3.5112   -0.4714   -0.2997 C   0  0  1  0  0  0  0  0  0  0  0  0
    4.9467    1.6267   -0.1075 C   0  0  0  0  0  0  0  0  0  0  0  0
   -4.2608    0.8502   -0.1170 C   0  0  1  0  0  0  0  0  0  0  0  0
    1.1807   -1.4112   -0.4104 C   0  0  0  0  0  0  0  0  0  0  0  0
   -3.4463    2.0041   -0.7018 C   0  0  2  0  0  0  0  0  0  0  0  0
   -2.0125    2.0207   -0.1516 C   0  0  1  0  0  0  0  0  0  0  0  0
   -1.8923   -2.8854    0.6175 C   0  0  1  0  0  0  0  0  0  0  0  0
    3.8488   -3.1328   -0.0795 C   0  0  0  0  0  0  0  0  0  0  0  0
    4.2111    2.9656   -0.1260 C   0  0  0  0  0  0  0  0  0  0  0  0
   -1.0602   -4.1370    0.3521 C   0  0  0  0  0  0  0  0  0  0  0  0
    5.1285    4.1119    0.2685 C   0  0  0  0  0  0  0  0  0  0  0  0
   -0.0856    2.4854    1.7416 C   0  0  0  0  0  0  0  0  0  0  0  0
    3.7183    0.6423   -1.5696 H   0  0  0  0  0  0  0  0  0  0  0  0
    2.4387   -1.5556    1.3246 H   0  0  0  0  0  0  0  0  0  0  0  0
    3.0162    0.6269    1.3840 H   0  0  0  0  0  0  0  0  0  0  0  0
    1.9814    0.9713   -0.0177 H   0  0  0  0  0  0  0  0  0  0  0  0
    5.2151   -0.9894    0.5501 H   0  0  0  0  0  0  0  0  0  0  0  0
    5.4042   -1.0635   -1.2223 H   0  0  0  0  0  0  0  0  0  0  0  0
   -2.1479   -0.1764    1.3492 H   0  0  0  0  0  0  0  0  0  0  0  0
   -1.2128   -1.7705   -1.0767 H   0  0  0  0  0  0  0  0  0  0  0  0
   -4.0896   -1.2701    0.1732 H   0  0  0  0  0  0  0  0  0  0  0  0
    5.8113    1.6695   -0.7813 H   0  0  0  0  0  0  0  0  0  0  0  0
    5.3418    1.4445    0.9000 H   0  0  0  0  0  0  0  0  0  0  0  0
   -4.4655    1.0343    0.9442 H   0  0  0  0  0  0  0  0  0  0  0  0
   -3.4021    1.8893   -1.7922 H   0  0  0  0  0  0  0  0  0  0  0  0
    0.2500   -1.2576    1.4435 H   0  0  0  0  0  0  0  0  0  0  0  0
   -1.4402    2.7309   -0.7594 H   0  0  0  0  0  0  0  0  0  0  0  0
   -2.8803   -3.0602    0.1817 H   0  0  0  0  0  0  0  0  0  0  0  0
    2.9707   -3.7803   -0.1774 H   0  0  0  0  0  0  0  0  0  0  0  0
    4.1950   -3.1786    0.9593 H   0  0  0  0  0  0  0  0  0  0  0  0
    4.6295   -3.5570   -0.7202 H   0  0  0  0  0  0  0  0  0  0  0  0
    3.8095    3.1562   -1.1282 H   0  0  0  0  0  0  0  0  0  0  0  0
    3.3625    2.9523    0.5665 H   0  0  0  0  0  0  0  0  0  0  0  0
   -1.5788   -5.0320    0.7135 H   0  0  0  0  0  0  0  0  0  0  0  0
   -0.8897   -4.2665   -0.7220 H   0  0  0  0  0  0  0  0  0  0  0  0
   -0.0842   -4.0969    0.8477 H   0  0  0  0  0  0  0  0  0  0  0  0
   -2.7799   -0.1895   -2.1036 H   0  0  0  0  0  0  0  0  0  0  0  0
   -6.0145    0.0391   -0.3956 H   0  0  0  0  0  0  0  0  0  0  0  0
    5.5207    3.9698    1.2806 H   0  0  0  0  0  0  0  0  0  0  0  0
    4.5820    5.0599    0.2459 H   0  0  0  0  0  0  0  0  0  0  0  0
    5.9753    4.1916   -0.4205 H   0  0  0  0  0  0  0  0  0  0  0  0
   -4.9983    3.1798   -0.8094 H   0  0  0  0  0  0  0  0  0  0  0  0
    0.2240    2.9441    2.6846 H   0  0  0  0  0  0  0  0  0  0  0  0
    0.4386    2.9907    0.9263 H   0  0  0  0  0  0  0  0  0  0  0  0
    0.1973    1.4308    1.7699 H   0  0  0  0  0  0  0  0  0  0  0  0
  1 22  1  0  0  0  0
  2 21  1  0  0  0  0
  2 27  1  0  0  0  0
  3 14  1  0  0  0  0
  3 21  1  0  0  0  0
  4 16  1  0  0  0  0
  4 52  1  0  0  0  0
  5 18  1  0  0  0  0
  5 53  1  0  0  0  0
  6 20  1  0  0  0  0
  6 57  1  0  0  0  0
  7 19  2  0  0  0  0
  8 11  1  0  0  0  0
  8 13  1  0  0  0  0
  8 23  1  0  0  0  0
  9 15  1  0  0  0  0
  9 19  1  0  0  0  0
  9 41  1  0  0  0  0
 10 12  1  0  0  0  0
 10 13  1  0  0  0  0
 10 17  1  0  0  0  0
 10 28  1  0  0  0  0
 11 12  1  0  0  0  0
 11 19  1  0  0  0  0
 11 29  1  0  0  0  0
 12 30  1  0  0  0  0
 12 31  1  0  0  0  0
 13 32  1  0  0  0  0
 13 33  1  0  0  0  0
 14 15  1  0  0  0  0
 14 16  1  0  0  0  0
 14 34  1  0  0  0  0
 15 22  1  0  0  0  0
 15 35  1  0  0  0  0
 16 18  1  0  0  0  0
 16 36  1  0  0  0  0
 17 24  1  0  0  0  0
 17 37  1  0  0  0  0
 17 38  1  0  0  0  0
 18 20  1  0  0  0  0
 18 39  1  0  0  0  0
 20 21  1  0  0  0  0
 20 40  1  0  0  0  0
 21 42  1  0  0  0  0
 22 25  1  0  0  0  0
 22 43  1  0  0  0  0
 23 44  1  0  0  0  0
 23 45  1  0  0  0  0
 23 46  1  0  0  0  0
 24 26  1  0  0  0  0
 24 47  1  0  0  0  0
 24 48  1  0  0  0  0
 25 49  1  0  0  0  0
 25 50  1  0  0  0  0
 25 51  1  0  0  0  0
 26 54  1  0  0  0  0
 26 55  1  0  0  0  0
 26 56  1  0  0  0  0
 27 58  1  0  0  0  0
 27 59  1  0  0  0  0
 27 60  1  0  0  0  0
M  END
> <DATABASE_ID>
DB01190

> <DATABASE_NAME>
drugbank

> <ORIGINAL_SOURCE>
PUBCHEM

> <ORIGINAL_SOURCE_URL>
https://pubchem.ncbi.nlm.nih.gov/rest/pug/compound/inchikey/KDLRVYVGXIQJDK-NOWPCOIGSA-N/SDF?record_type=3d

> <SMILES>
CCC[C@@H]1C[C@H](N(C)C1)C(=O)NC(C(C)Cl)[C@H]1O[C@H](SC)[C@H](O)[C@@H](O)[C@H]1O

> <INCHI_IDENTIFIER>
InChI=1S/C18H33ClN2O5S/c1-5-6-10-7-11(21(3)8-10)17(25)20-12(9(2)19)16-14(23)13(22)15(24)18(26-16)27-4/h9-16,18,22-24H,5-8H2,1-4H3,(H,20,25)/t9?,10-,11+,12?,13+,14-,15-,16-,18-/m1/s1

> <INCHI_KEY>
KDLRVYVGXIQJDK-NOWPCOIGSA-N

> <FORMULA>
C18H33ClN2O5S

> <MOLECULAR_WEIGHT>
424.983

> <EXACT_MASS>
424.179870573

> <JCHEM_ACCEPTOR_COUNT>
6

> <JCHEM_ATOM_COUNT>
60

> <JCHEM_AVERAGE_POLARIZABILITY>
44.64809382087566

> <JCHEM_BIOAVAILABILITY>
1

> <JCHEM_DONOR_COUNT>
4

> <JCHEM_FORMAL_CHARGE>
0

> <JCHEM_GHOSE_FILTER>
1

> <JCHEM_IUPAC>
(2S,4R)-N-{2-chloro-1-[(2R,3R,4S,5R,6R)-3,4,5-trihydroxy-6-(methylsulfanyl)oxan-2-yl]propyl}-1-methyl-4-propylpyrrolidine-2-carboxamide

> <ALOGPS_LOGP>
1.76

> <JCHEM_LOGP>
1.0377376403333325

> <ALOGPS_LOGS>
-2.14

> <JCHEM_MDDR_LIKE_RULE>
0

> <JCHEM_NUMBER_OF_RINGS>
2

> <JCHEM_PHYSIOLOGICAL_CHARGE>
1

> <JCHEM_PKA>
13.078517579630162

> <JCHEM_PKA_STRONGEST_ACIDIC>
12.412864458097758

> <JCHEM_PKA_STRONGEST_BASIC>
7.551882356072367

> <JCHEM_POLAR_SURFACE_AREA>
102.25999999999999

> <JCHEM_REFRACTIVITY>
105.71729999999998

> <JCHEM_ROTATABLE_BOND_COUNT>
7

> <JCHEM_RULE_OF_FIVE>
1

> <ALOGPS_SOLUBILITY>
3.10e+00 g/l

> <JCHEM_TRADITIONAL_IUPAC>
clindamycin

> <JCHEM_VEBER_RULE>
0

> <DRUGBANK_ID>
DB01190

> <SECONDARY_ACCESSION_NUMBERS>
APRD00566

> <DRUG_GROUPS>
approved; vet_approved

> <GENERIC_NAME>
Clindamycin

> <SYNONYMS>
7-CDL; 7(S)-Chloro-7-deoxylincomycin; Clindamicina; Clindamycin; Clindamycine; Clindamycinum; Methyl 7-chloro-6,7,8-trideoxy-6-(1-methyl-trans-4-propyl-L-2-pyrrolidinecarboxamido)-1-thio-L-threo-alpha-D-galacto-octopyranoside

> <PRODUCTS>
Acanya; Adapalene 0.1% / Benzoyl Peroxide 2.5% / Clindamycin 1%; Adapalene 0.3% / Benzoyl Peroxide 2.5% / Clindamycin 1%; Ag-clindamycin; Apo-clindamycin; Auro-clindamycin; Ava-clindamycin; Benzaclin; Benzaclin Topical Gel; Benzoyl Peroxide 2.5% / Clindamycin 1% / Niacinamide 2% / Tretinoin 0.025%; Benzoyl Peroxide 2.5% / Clindamycin 1% / Niacinamide 4%; Benzoyl Peroxide 2.5%, Clindamycin Phosphate 1%, Niacinamide 2% / Tretinoin 0.05%; Benzoyl Peroxide 5% / Clindamycin 1% / Niacinamide 2% / Spironolactone 2%; Benzoyl Peroxide 5% / Clindamycin 1% / Niacinamide 2% / Spironolactone 2% / Tretinoin 0.025%; Benzoyl Peroxide 5% / Clindamycin 1% / Niacinamide 2% / Spironolactone 2% / Tretinoin 0.05%; Benzoyl Peroxide 5% / Clindamycin 1% / Niacinamide 2% / Tretinoin 0.05%; Benzoyl Peroxide 5% / Clindamycin 1% / Niacinamide 2% / Tretinoin 0.1%; Benzoyl Peroxide 5% / Clindamycin 1% / Niacinamide 4%; Benzoyl Peroxide 5% / Clindamycin1% / Niacinamide 2% / Tretinoin 0.025%; Biacna Topical Gel; CLIN-LIDO-Single Use Kit; CLIN-Single Use Kit; CLINDAMYCIN PALMITATE HYDROCHLORIDE (Pediatric); Cleocin; Cleocin Hydrochloride; Cleocin Pediatric; Cleocin Phosphate; Cleocin Phosphate (0009-6582) (Standalone); Cleocin T; Clinda-Derm; Clinda-T; ClindaMax; ClindaMax Lotion; ClindaReach; Clindacin ETZ; Clindacin P; Clindacin PAC; Clindagel; Clindamax; Clindamycin; Clindamycin - Benzoyl Peroxide; Clindamycin 1% / Hydrocortisone 2.5% / Niacinamide 4%; Clindamycin 1% / Niacinamide 2% / Tazarotene 0.05%; Clindamycin 1% / Niacinamide 4%; Clindamycin 1% / Niacinamide 4% / Spironolactone 2% / Tretinoin 0.025%; Clindamycin 1% / Niacinamide 4% / Tretinoin 0.025%; Clindamycin 1% / Niacinamide 4% / Tretinoin 0.05%; Clindamycin 1% / Sodium Sulfacetamide Monohydrate 5% / Tretinoin 0.025%; Clindamycin Hydrochloride; Clindamycin IV Infusion; Clindamycin Injection; Clindamycin Injection In 5% Dextrose; Clindamycin Injection Sdz; Clindamycin Injection USP; Clindamycin Injection, USP; Clindamycin Palmitate Hydrochloride; Clindamycin Palmitate Hydrochloride (Pediatric); Clindamycin Palmitate Hydrochloride (pediatric); Clindamycin Phoaphate Topical Solution USP, 1%; Clindamycin Phosphate; Clindamycin Phosphate Injection USP Liq; Clindamycin Phosphate Topical Solution USP; Clindamycin Phosphate Topical Solution USP, 1%; Clindamycin Phosphate and Benzoyl Peroxide; Clindamycin Phosphate and Tretinion; Clindamycin Phosphate and Tretinoin; Clindamycin and Benzoyl Peroxide; Clindamycin hydrochloride; Clindamycin in 5 Percent Dextrose; Clindamycin phosphate; Clindamycin phosphate and benzoyl peroxide; Clindamycine-150; Clindamycine-300; Clindap-T; Clindasol; Clindesse; Clindets; Clindoxyl Adv Gel; Clindoxyl Gel; Dalacin C 150 mg; Dalacin C 300 mg; Dalacin C Flavoured Granules; Dalacin C Phosphate; Dalacin T 1%; Dalacin Vaginal Cream; Duac; Evoclin; Imiquimod 5% / Levocetirizine Dihydrochloride 1% / Tretinoin 0.05%; Jamp Clindamycin; M-clindamycin; Med-clindamycin; Mylan-clindamycin; Neuac; Neuac Kit; Nra-clindamycin; Nu-clindamycin; NuCaraClinPAK; NuCaraRXPAK; Onexton; PMS-clindamycin; Ran-clindamycin; Ratio-clindamycin Capsules - 300mg; Ratio-clindamycin Capsules-150mg; Riva-clindamycin; Taro-benzoyl Peroxide / Clindamycin Kit; Taro-clindamycin; Taro-clindamycin/benzoyl Peroxide Gel; Teva-clindamycin; Veltin; Ziana

> <INTERNATIONAL_BRANDS>
Clinimycin; Dalacin C; Dalacin T Topical Solution; Zindaclin

> <SALTS>
Clindamycin hydrochloride; Clindamycin palmitate hydrochloride; Clindamycin phosphate

$$$$
