18104
  -OEChem-10051719283D

 61 64  0     0  0  0  0  0  0999 V2000
   -4.6338    1.2275    0.9832 S   0  0  0  0  0  0  0  0  0  0  0  0
    7.8798   -0.0530    0.7913 O   0  0  0  0  0  0  0  0  0  0  0  0
    1.7959    2.5401   -0.6554 O   0  0  0  0  0  0  0  0  0  0  0  0
    1.8458   -2.1969   -0.2789 N   0  0  0  0  0  0  0  0  0  0  0  0
    4.6664   -1.7450    0.1661 N   0  0  0  0  0  0  0  0  0  0  0  0
   -2.1790   -0.5410    0.2678 N   0  0  0  0  0  0  0  0  0  0  0  0
    2.7329   -3.2836    0.1535 C   0  0  0  0  0  0  0  0  0  0  0  0
    2.5928   -1.2069   -1.0645 C   0  0  0  0  0  0  0  0  0  0  0  0
    3.9199   -2.7346    0.9526 C   0  0  0  0  0  0  0  0  0  0  0  0
    3.7789   -0.6579   -0.2642 C   0  0  0  0  0  0  0  0  0  0  0  0
    0.7167   -2.7219   -1.0442 C   0  0  0  0  0  0  0  0  0  0  0  0
   -0.4778   -1.7628   -1.0336 C   0  0  0  0  0  0  0  0  0  0  0  0
    5.7970   -1.2208    0.9299 C   0  0  0  0  0  0  0  0  0  0  0  0
   -1.0049   -1.4185    0.3590 C   0  0  0  0  0  0  0  0  0  0  0  0
    6.8093   -0.5619    0.0065 C   0  0  0  0  0  0  0  0  0  0  0  0
   -1.9497    0.8583    0.2679 C   0  0  0  0  0  0  0  0  0  0  0  0
   -3.4463   -1.1594    0.1206 C   0  0  0  0  0  0  0  0  0  0  0  0
   -2.9900    1.7644    0.5537 C   0  0  0  0  0  0  0  0  0  0  0  0
   -4.6349   -0.4533    0.3919 C   0  0  0  0  0  0  0  0  0  0  0  0
   -0.6892    1.4096   -0.0503 C   0  0  0  0  0  0  0  0  0  0  0  0
   -3.5810   -2.4893   -0.3350 C   0  0  0  0  0  0  0  0  0  0  0  0
   -0.4662    2.7892   -0.0618 C   0  0  0  0  0  0  0  0  0  0  0  0
   -2.7589    3.1516    0.5454 C   0  0  0  0  0  0  0  0  0  0  0  0
   -5.8896   -1.0693    0.2373 C   0  0  0  0  0  0  0  0  0  0  0  0
   -1.5014    3.6610    0.2396 C   0  0  0  0  0  0  0  0  0  0  0  0
   -4.8306   -3.0952   -0.4916 C   0  0  0  0  0  0  0  0  0  0  0  0
   -5.9859   -2.3855   -0.2019 C   0  0  0  0  0  0  0  0  0  0  0  0
    0.8534    3.3110   -0.3811 C   0  0  0  0  0  0  0  0  0  0  0  0
    1.0987    4.8303   -0.3840 C   0  0  0  0  0  0  0  0  0  0  0  0
    2.5315    5.2138   -0.7197 C   0  0  0  0  0  0  0  0  0  0  0  0
    3.0997   -3.8554   -0.7098 H   0  0  0  0  0  0  0  0  0  0  0  0
    2.1826   -3.9801    0.7979 H   0  0  0  0  0  0  0  0  0  0  0  0
    1.9530   -0.3615   -1.3359 H   0  0  0  0  0  0  0  0  0  0  0  0
    2.9597   -1.6473   -2.0019 H   0  0  0  0  0  0  0  0  0  0  0  0
    4.5746   -3.5755    1.2119 H   0  0  0  0  0  0  0  0  0  0  0  0
    3.5618   -2.2959    1.8939 H   0  0  0  0  0  0  0  0  0  0  0  0
    3.4060   -0.0894    0.5988 H   0  0  0  0  0  0  0  0  0  0  0  0
    4.3055    0.0480   -0.9146 H   0  0  0  0  0  0  0  0  0  0  0  0
    1.0021   -2.9633   -2.0762 H   0  0  0  0  0  0  0  0  0  0  0  0
    0.3662   -3.6619   -0.5969 H   0  0  0  0  0  0  0  0  0  0  0  0
   -0.2137   -0.8566   -1.5880 H   0  0  0  0  0  0  0  0  0  0  0  0
   -1.2556   -2.2148   -1.6565 H   0  0  0  0  0  0  0  0  0  0  0  0
    6.3179   -2.0361    1.4502 H   0  0  0  0  0  0  0  0  0  0  0  0
    5.4787   -0.5268    1.7191 H   0  0  0  0  0  0  0  0  0  0  0  0
   -0.2226   -0.9618    0.9788 H   0  0  0  0  0  0  0  0  0  0  0  0
   -1.2485   -2.3378    0.9089 H   0  0  0  0  0  0  0  0  0  0  0  0
    7.2168   -1.2840   -0.7091 H   0  0  0  0  0  0  0  0  0  0  0  0
    6.3875    0.2816   -0.5459 H   0  0  0  0  0  0  0  0  0  0  0  0
    0.1538    0.7687   -0.2785 H   0  0  0  0  0  0  0  0  0  0  0  0
   -2.7283   -3.1223   -0.5533 H   0  0  0  0  0  0  0  0  0  0  0  0
   -3.5595    3.8512    0.7779 H   0  0  0  0  0  0  0  0  0  0  0  0
   -6.8076   -0.5284    0.4584 H   0  0  0  0  0  0  0  0  0  0  0  0
    8.5171    0.3507    0.1778 H   0  0  0  0  0  0  0  0  0  0  0  0
   -1.3802    4.7391    0.2472 H   0  0  0  0  0  0  0  0  0  0  0  0
   -4.8952   -4.1243   -0.8331 H   0  0  0  0  0  0  0  0  0  0  0  0
   -6.9589   -2.8526   -0.3183 H   0  0  0  0  0  0  0  0  0  0  0  0
    0.8619    5.2229    0.6110 H   0  0  0  0  0  0  0  0  0  0  0  0
    0.4347    5.2881   -1.1252 H   0  0  0  0  0  0  0  0  0  0  0  0
    2.8111    4.8517   -1.7146 H   0  0  0  0  0  0  0  0  0  0  0  0
    2.6489    6.3016   -0.7052 H   0  0  0  0  0  0  0  0  0  0  0  0
    3.2321    4.7832    0.0032 H   0  0  0  0  0  0  0  0  0  0  0  0
  1 18  1  0  0  0  0
  1 19  1  0  0  0  0
  2 15  1  0  0  0  0
  2 53  1  0  0  0  0
  3 28  2  0  0  0  0
  4  7  1  0  0  0  0
  4  8  1  0  0  0  0
  4 11  1  0  0  0  0
  5  9  1  0  0  0  0
  5 10  1  0  0  0  0
  5 13  1  0  0  0  0
  6 14  1  0  0  0  0
  6 16  1  0  0  0  0
  6 17  1  0  0  0  0
  7  9  1  0  0  0  0
  7 31  1  0  0  0  0
  7 32  1  0  0  0  0
  8 10  1  0  0  0  0
  8 33  1  0  0  0  0
  8 34  1  0  0  0  0
  9 35  1  0  0  0  0
  9 36  1  0  0  0  0
 10 37  1  0  0  0  0
 10 38  1  0  0  0  0
 11 12  1  0  0  0  0
 11 39  1  0  0  0  0
 11 40  1  0  0  0  0
 12 14  1  0  0  0  0
 12 41  1  0  0  0  0
 12 42  1  0  0  0  0
 13 15  1  0  0  0  0
 13 43  1  0  0  0  0
 13 44  1  0  0  0  0
 14 45  1  0  0  0  0
 14 46  1  0  0  0  0
 15 47  1  0  0  0  0
 15 48  1  0  0  0  0
 16 18  2  0  0  0  0
 16 20  1  0  0  0  0
 17 19  1  0  0  0  0
 17 21  2  0  0  0  0
 18 23  1  0  0  0  0
 19 24  2  0  0  0  0
 20 22  2  0  0  0  0
 20 49  1  0  0  0  0
 21 26  1  0  0  0  0
 21 50  1  0  0  0  0
 22 25  1  0  0  0  0
 22 28  1  0  0  0  0
 23 25  2  0  0  0  0
 23 51  1  0  0  0  0
 24 27  1  0  0  0  0
 24 52  1  0  0  0  0
 25 54  1  0  0  0  0
 26 27  2  0  0  0  0
 26 55  1  0  0  0  0
 27 56  1  0  0  0  0
 28 29  1  0  0  0  0
 29 30  1  0  0  0  0
 29 57  1  0  0  0  0
 29 58  1  0  0  0  0
 30 59  1  0  0  0  0
 30 60  1  0  0  0  0
 30 61  1  0  0  0  0
M  END
> <DATABASE_ID>
DB01038

> <DATABASE_NAME>
drugbank

> <ORIGINAL_SOURCE>
PUBCHEM

> <ORIGINAL_SOURCE_URL>
https://pubchem.ncbi.nlm.nih.gov/rest/pug/compound/inchikey/XZSMZRXAEFNJCU-UHFFFAOYSA-N/SDF?record_type=3d

> <SMILES>
CCC(=O)C1=CC=C2SC3=C(C=CC=C3)N(CCCN3CCN(CCO)CC3)C2=C1

> <INCHI_IDENTIFIER>
InChI=1S/C24H31N3O2S/c1-2-22(29)19-8-9-24-21(18-19)27(20-6-3-4-7-23(20)30-24)11-5-10-25-12-14-26(15-13-25)16-17-28/h3-4,6-9,18,28H,2,5,10-17H2,1H3

> <INCHI_KEY>
XZSMZRXAEFNJCU-UHFFFAOYSA-N

> <FORMULA>
C24H31N3O2S

> <MOLECULAR_WEIGHT>
425.59

> <EXACT_MASS>
425.213698424

> <JCHEM_ACCEPTOR_COUNT>
5

> <JCHEM_ATOM_COUNT>
61

> <JCHEM_AVERAGE_POLARIZABILITY>
49.224111231309145

> <JCHEM_BIOAVAILABILITY>
1

> <JCHEM_DONOR_COUNT>
1

> <JCHEM_FORMAL_CHARGE>
0

> <JCHEM_GHOSE_FILTER>
1

> <JCHEM_IUPAC>
1-(10-{3-[4-(2-hydroxyethyl)piperazin-1-yl]propyl}-10H-phenothiazin-2-yl)propan-1-one

> <ALOGPS_LOGP>
3.26

> <JCHEM_LOGP>
3.3461564986666668

> <ALOGPS_LOGS>
-4.06

> <JCHEM_MDDR_LIKE_RULE>
1

> <JCHEM_NUMBER_OF_RINGS>
4

> <JCHEM_PHYSIOLOGICAL_CHARGE>
1

> <JCHEM_PKA>
16.680092498664305

> <JCHEM_PKA_STRONGEST_ACIDIC>
15.556012646634006

> <JCHEM_PKA_STRONGEST_BASIC>
7.666166146203319

> <JCHEM_POLAR_SURFACE_AREA>
47.019999999999996

> <JCHEM_REFRACTIVITY>
126.3236

> <JCHEM_ROTATABLE_BOND_COUNT>
8

> <JCHEM_RULE_OF_FIVE>
1

> <ALOGPS_SOLUBILITY>
3.66e-02 g/l

> <JCHEM_TRADITIONAL_IUPAC>
carphenazine

> <JCHEM_VEBER_RULE>
0

> <DRUGBANK_ID>
DB01038

> <SECONDARY_ACCESSION_NUMBERS>
APRD00848

> <DRUG_GROUPS>
withdrawn

> <GENERIC_NAME>
Carphenazine

> <SYNONYMS>
Carfenazina; CarfÃ©nazine; Carfenazine; Carfenazinum; Carphenazine

> <INTERNATIONAL_BRANDS>
Proketazin; Proketazine

> <SALTS>
Carphenazine maleate

$$$$
