8515
  -OEChem-10051719423D

 25 28  0     0  0  0  0  0  0999 V2000
    0.4466    2.8877   -0.0014 O   0  0  0  0  0  0  0  0  0  0  0  0
   -1.8731   -2.3043   -0.0002 N   0  0  0  0  0  0  0  0  0  0  0  0
   -0.5221   -2.4623   -0.0003 N   0  0  0  0  0  0  0  0  0  0  0  0
   -1.1145   -0.2852   -0.0004 C   0  0  0  0  0  0  0  0  0  0  0  0
   -0.0645   -1.2061   -0.0007 C   0  0  0  0  0  0  0  0  0  0  0  0
   -1.0761    1.1011    0.0000 C   0  0  0  0  0  0  0  0  0  0  0  0
    1.2965   -0.7013   -0.0003 C   0  0  0  0  0  0  0  0  0  0  0  0
   -2.2887   -0.9979   -0.0001 C   0  0  0  0  0  0  0  0  0  0  0  0
    1.4752    0.7150    0.0000 C   0  0  0  0  0  0  0  0  0  0  0  0
    0.2929    1.6743   -0.0001 C   0  0  0  0  0  0  0  0  0  0  0  0
   -2.2863    1.7877    0.0003 C   0  0  0  0  0  0  0  0  0  0  0  0
   -3.5243   -0.3521    0.0007 C   0  0  0  0  0  0  0  0  0  0  0  0
    2.4051   -1.5484    0.0000 C   0  0  0  0  0  0  0  0  0  0  0  0
    2.7675    1.2453    0.0006 C   0  0  0  0  0  0  0  0  0  0  0  0
   -3.4908    1.0605    0.0008 C   0  0  0  0  0  0  0  0  0  0  0  0
    3.6885   -1.0001    0.0004 C   0  0  0  0  0  0  0  0  0  0  0  0
    3.8682    0.3858    0.0007 C   0  0  0  0  0  0  0  0  0  0  0  0
   -2.3137    2.8731    0.0005 H   0  0  0  0  0  0  0  0  0  0  0  0
   -2.4486   -3.1370    0.0001 H   0  0  0  0  0  0  0  0  0  0  0  0
   -4.4609   -0.8970    0.0011 H   0  0  0  0  0  0  0  0  0  0  0  0
    2.2913   -2.6289   -0.0002 H   0  0  0  0  0  0  0  0  0  0  0  0
    2.9390    2.3180    0.0008 H   0  0  0  0  0  0  0  0  0  0  0  0
   -4.4332    1.6050    0.0011 H   0  0  0  0  0  0  0  0  0  0  0  0
    4.5551   -1.6555    0.0006 H   0  0  0  0  0  0  0  0  0  0  0  0
    4.8737    0.7980    0.0010 H   0  0  0  0  0  0  0  0  0  0  0  0
  1 10  2  0  0  0  0
  2  3  1  0  0  0  0
  2  8  1  0  0  0  0
  2 19  1  0  0  0  0
  3  5  2  0  0  0  0
  4  5  1  0  0  0  0
  4  6  2  0  0  0  0
  4  8  1  0  0  0  0
  5  7  1  0  0  0  0
  6 10  1  0  0  0  0
  6 11  1  0  0  0  0
  7  9  1  0  0  0  0
  7 13  2  0  0  0  0
  8 12  2  0  0  0  0
  9 10  1  0  0  0  0
  9 14  2  0  0  0  0
 11 15  2  0  0  0  0
 11 18  1  0  0  0  0
 12 15  1  0  0  0  0
 12 20  1  0  0  0  0
 13 16  1  0  0  0  0
 13 21  1  0  0  0  0
 14 17  1  0  0  0  0
 14 22  1  0  0  0  0
 15 23  1  0  0  0  0
 16 17  2  0  0  0  0
 16 24  1  0  0  0  0
 17 25  1  0  0  0  0
M  END
> <DATABASE_ID>
DB01782

> <DATABASE_NAME>
drugbank

> <ORIGINAL_SOURCE>
PUBCHEM

> <ORIGINAL_SOURCE_URL>
https://pubchem.ncbi.nlm.nih.gov/rest/pug/compound/inchikey/ACPOUJIDANTYHO-UHFFFAOYSA-N/SDF?record_type=3d

> <SMILES>
O=C1C2=CC=CC3=C2C(=NN3)C2=C1C=CC=C2

> <INCHI_IDENTIFIER>
InChI=1S/C14H8N2O/c17-14-9-5-2-1-4-8(9)13-12-10(14)6-3-7-11(12)15-16-13/h1-7H,(H,15,16)

> <INCHI_KEY>
ACPOUJIDANTYHO-UHFFFAOYSA-N

> <FORMULA>
C14H8N2O

> <MOLECULAR_WEIGHT>
220.2261

> <EXACT_MASS>
220.063662888

> <JCHEM_ACCEPTOR_COUNT>
2

> <JCHEM_AVERAGE_POLARIZABILITY>
22.715243475079006

> <JCHEM_BIOAVAILABILITY>
1

> <JCHEM_DONOR_COUNT>
1

> <JCHEM_FORMAL_CHARGE>
0

> <JCHEM_GHOSE_FILTER>
1

> <JCHEM_IUPAC>
14,15-diazatetracyclo[7.6.1.0²,⁷.0¹³,¹⁶]hexadeca-1(15),2(7),3,5,9,11,13(16)-heptaen-8-one

> <ALOGPS_LOGP>
2.76

> <JCHEM_LOGP>
2.8154905973333335

> <ALOGPS_LOGS>
-3.07

> <JCHEM_MDDR_LIKE_RULE>
0

> <JCHEM_NUMBER_OF_RINGS>
4

> <JCHEM_PHYSIOLOGICAL_CHARGE>
0

> <JCHEM_PKA_STRONGEST_ACIDIC>
12.766082653968361

> <JCHEM_PKA_STRONGEST_BASIC>
0.4565368213464193

> <JCHEM_POLAR_SURFACE_AREA>
45.75

> <JCHEM_REFRACTIVITY>
65.35480000000001

> <JCHEM_ROTATABLE_BOND_COUNT>
0

> <JCHEM_RULE_OF_FIVE>
1

> <ALOGPS_SOLUBILITY>
1.86e-01 g/l

> <JCHEM_TRADITIONAL_IUPAC>
14,15-diazatetracyclo[7.6.1.0²,⁷.0¹³,¹⁶]hexadeca-1(15),2(7),3,5,9,11,13(16)-heptaen-8-one

> <JCHEM_VEBER_RULE>
0

> <DRUGBANK_ID>
DB01782

> <SECONDARY_ACCESSION_NUMBERS>
EXPT00232

> <DRUG_GROUPS>
experimental

> <GENERIC_NAME>
2,6-Dihydroanthra/1,9-Cd/Pyrazol-6-One

$$$$
