5287846
  -OEChem-10051719513D

 45 47  0     1  0  0  0  0  0999 V2000
   -3.2472    1.0577   -0.2028 O   0  0  0  0  0  0  0  0  0  0  0  0
   -5.0101   -0.1466    1.6438 O   0  0  0  0  0  0  0  0  0  0  0  0
    1.5285    1.7707   -0.1607 O   0  0  0  0  0  0  0  0  0  0  0  0
    3.7932    2.0517   -0.1407 O   0  0  0  0  0  0  0  0  0  0  0  0
   -3.9920   -0.1449   -0.5304 C   0  0  2  0  0  0  0  0  0  0  0  0
   -5.3005   -0.1400    0.2429 C   0  0  0  0  0  0  0  0  0  0  0  0
   -3.1220   -1.3696   -0.2083 C   0  0  0  0  0  0  0  0  0  0  0  0
   -1.7882   -0.7287   -0.2468 C   0  0  0  0  0  0  0  0  0  0  0  0
   -1.9379    0.6507   -0.2160 C   0  0  0  0  0  0  0  0  0  0  0  0
   -6.1377   -1.3806   -0.0793 C   0  0  0  0  0  0  0  0  0  0  0  0
   -6.1012    1.1308   -0.0486 C   0  0  0  0  0  0  0  0  0  0  0  0
   -0.5319   -1.3132   -0.2463 C   0  0  0  0  0  0  0  0  0  0  0  0
    0.5888   -0.4748   -0.2236 C   0  0  0  0  0  0  0  0  0  0  0  0
   -0.8534    1.5029   -0.1805 C   0  0  0  0  0  0  0  0  0  0  0  0
    4.4124   -0.7054   -0.1989 C   0  0  0  0  0  0  0  0  0  0  0  0
    0.4104    0.9130   -0.1899 C   0  0  0  0  0  0  0  0  0  0  0  0
    3.0061   -0.1877   -0.1983 C   0  0  0  0  0  0  0  0  0  0  0  0
    1.9433   -1.0028   -0.2252 C   0  0  0  0  0  0  0  0  0  0  0  0
    2.8338    1.2875   -0.1647 C   0  0  0  0  0  0  0  0  0  0  0  0
    4.3783   -2.2459   -0.2561 C   0  0  0  0  0  0  0  0  0  0  0  0
    5.1370   -0.1832   -1.4554 C   0  0  0  0  0  0  0  0  0  0  0  0
    5.2219   -0.2919    1.0245 C   0  0  0  0  0  0  0  0  0  0  0  0
    4.7683   -0.0497    2.2616 C   0  0  0  0  0  0  0  0  0  0  0  0
   -4.1913   -0.1075   -1.6116 H   0  0  0  0  0  0  0  0  0  0  0  0
   -3.2405   -2.1549   -0.9605 H   0  0  0  0  0  0  0  0  0  0  0  0
   -3.2973   -1.7846    0.7890 H   0  0  0  0  0  0  0  0  0  0  0  0
   -7.0925   -1.3547    0.4590 H   0  0  0  0  0  0  0  0  0  0  0  0
   -6.3521   -1.4535   -1.1506 H   0  0  0  0  0  0  0  0  0  0  0  0
   -5.6391   -2.3011    0.2422 H   0  0  0  0  0  0  0  0  0  0  0  0
   -5.5680    2.0284    0.2839 H   0  0  0  0  0  0  0  0  0  0  0  0
   -7.0513    1.1265    0.4985 H   0  0  0  0  0  0  0  0  0  0  0  0
   -6.3229    1.2306   -1.1162 H   0  0  0  0  0  0  0  0  0  0  0  0
   -0.4307   -2.3941   -0.2566 H   0  0  0  0  0  0  0  0  0  0  0  0
   -0.9779    2.5791   -0.1501 H   0  0  0  0  0  0  0  0  0  0  0  0
    1.9971   -2.0836   -0.2482 H   0  0  0  0  0  0  0  0  0  0  0  0
   -5.8543   -0.1559    2.1265 H   0  0  0  0  0  0  0  0  0  0  0  0
    3.9004   -2.6968    0.6230 H   0  0  0  0  0  0  0  0  0  0  0  0
    5.4022   -2.6448   -0.2695 H   0  0  0  0  0  0  0  0  0  0  0  0
    3.9043   -2.6258   -1.1698 H   0  0  0  0  0  0  0  0  0  0  0  0
    6.0811   -0.7213   -1.6117 H   0  0  0  0  0  0  0  0  0  0  0  0
    5.4007    0.8778   -1.4044 H   0  0  0  0  0  0  0  0  0  0  0  0
    4.5333   -0.3354   -2.3587 H   0  0  0  0  0  0  0  0  0  0  0  0
    6.3023   -0.2453    0.8890 H   0  0  0  0  0  0  0  0  0  0  0  0
    5.4604    0.2097    3.0557 H   0  0  0  0  0  0  0  0  0  0  0  0
    3.7158   -0.1114    2.5127 H   0  0  0  0  0  0  0  0  0  0  0  0
  1  5  1  0  0  0  0
  1  9  1  0  0  0  0
  2  6  1  0  0  0  0
  2 36  1  0  0  0  0
  3 16  1  0  0  0  0
  3 19  1  0  0  0  0
  4 19  2  0  0  0  0
  5  6  1  0  0  0  0
  5  7  1  0  0  0  0
  5 24  1  0  0  0  0
  6 10  1  0  0  0  0
  6 11  1  0  0  0  0
  7  8  1  0  0  0  0
  7 25  1  0  0  0  0
  7 26  1  0  0  0  0
  8  9  2  0  0  0  0
  8 12  1  0  0  0  0
  9 14  1  0  0  0  0
 10 27  1  0  0  0  0
 10 28  1  0  0  0  0
 10 29  1  0  0  0  0
 11 30  1  0  0  0  0
 11 31  1  0  0  0  0
 11 32  1  0  0  0  0
 12 13  2  0  0  0  0
 12 33  1  0  0  0  0
 13 16  1  0  0  0  0
 13 18  1  0  0  0  0
 14 16  2  0  0  0  0
 14 34  1  0  0  0  0
 15 17  1  0  0  0  0
 15 20  1  0  0  0  0
 15 21  1  0  0  0  0
 15 22  1  0  0  0  0
 17 18  2  0  0  0  0
 17 19  1  0  0  0  0
 18 35  1  0  0  0  0
 20 37  1  0  0  0  0
 20 38  1  0  0  0  0
 20 39  1  0  0  0  0
 21 40  1  0  0  0  0
 21 41  1  0  0  0  0
 21 42  1  0  0  0  0
 22 23  2  0  0  0  0
 22 43  1  0  0  0  0
 23 44  1  0  0  0  0
 23 45  1  0  0  0  0
M  END
> <DATABASE_ID>
DB02205

> <DATABASE_NAME>
drugbank

> <ORIGINAL_SOURCE>
PUBCHEM

> <ORIGINAL_SOURCE_URL>
https://pubchem.ncbi.nlm.nih.gov/rest/pug/compound/inchikey/JCDLLLXYAICSQV-INIZCTEOSA-N/SDF?record_type=3d

> <SMILES>
[H][C@]1(CC2=C(O1)C=C1OC(=O)C(=CC1=C2)C(C)(C)C=C)C(C)(C)O

> <INCHI_IDENTIFIER>
InChI=1S/C19H22O4/c1-6-18(2,3)13-8-11-7-12-9-16(19(4,5)21)22-14(12)10-15(11)23-17(13)20/h6-8,10,16,21H,1,9H2,2-5H3/t16-/m0/s1

> <INCHI_KEY>
JCDLLLXYAICSQV-INIZCTEOSA-N

> <FORMULA>
C19H22O4

> <MOLECULAR_WEIGHT>
314.3756

> <EXACT_MASS>
314.151809192

> <JCHEM_ACCEPTOR_COUNT>
3

> <JCHEM_AVERAGE_POLARIZABILITY>
35.050399055434234

> <JCHEM_BIOAVAILABILITY>
1

> <JCHEM_DONOR_COUNT>
1

> <JCHEM_FORMAL_CHARGE>
0

> <JCHEM_GHOSE_FILTER>
1

> <JCHEM_IUPAC>
(2S)-2-(2-hydroxypropan-2-yl)-6-(2-methylbut-3-en-2-yl)-2H,3H,7H-furo[3,2-g]chromen-7-one

> <ALOGPS_LOGP>
3.54

> <JCHEM_LOGP>
3.300159656333334

> <ALOGPS_LOGS>
-4.15

> <JCHEM_MDDR_LIKE_RULE>
0

> <JCHEM_NUMBER_OF_RINGS>
3

> <JCHEM_PHYSIOLOGICAL_CHARGE>
0

> <JCHEM_PKA_STRONGEST_ACIDIC>
14.296805394678913

> <JCHEM_PKA_STRONGEST_BASIC>
-3.106377320367444

> <JCHEM_POLAR_SURFACE_AREA>
55.760000000000005

> <JCHEM_REFRACTIVITY>
88.96780000000001

> <JCHEM_ROTATABLE_BOND_COUNT>
3

> <JCHEM_RULE_OF_FIVE>
1

> <ALOGPS_SOLUBILITY>
2.20e-02 g/l

> <JCHEM_TRADITIONAL_IUPAC>
(2S)-2-(2-hydroxypropan-2-yl)-6-(2-methylbut-3-en-2-yl)-2H,3H-furo[3,2-g]chromen-7-one

> <JCHEM_VEBER_RULE>
0

> <DRUGBANK_ID>
DB02205

> <SECONDARY_ACCESSION_NUMBERS>
EXPT00760

> <DRUG_GROUPS>
experimental

> <GENERIC_NAME>
6-(1,1-Dimethylallyl)-2-(1-Hydroxy-1-Methylethyl)-2,3-Dihydro-7h-Furo[3,2-G]Chromen-7-One

$$$$
