4293
  -OEChem-10051720063D

 29 30  0     0  0  0  0  0  0999 V2000
   -2.2190    1.7631    0.3079 S   0  0  0  0  0  0  0  0  0  0  0  0
    0.5468    1.0094    0.8771 S   0  0  0  0  0  0  0  0  0  0  0  0
    3.3440    0.3571    0.3365 S   0  0  0  0  0  0  0  0  0  0  0  0
   -1.3619   -2.5194    1.2789 S   0  0  0  0  0  0  0  0  0  0  0  0
   -2.0146    2.6473    1.4387 O   0  0  0  0  0  0  0  0  0  0  0  0
   -2.9540    2.1960   -0.8645 O   0  0  0  0  0  0  0  0  0  0  0  0
    4.3562    0.7845   -0.6135 O   0  0  0  0  0  0  0  0  0  0  0  0
    3.4108    0.7891    1.7219 O   0  0  0  0  0  0  0  0  0  0  0  0
   -2.8732    0.2787    0.8615 N   0  0  0  0  0  0  0  0  0  0  0  0
    3.2170   -1.3440    0.2903 N   0  0  0  0  0  0  0  0  0  0  0  0
   -0.5798    1.4130   -0.3276 C   0  0  0  0  0  0  0  0  0  0  0  0
   -3.0279   -0.8173   -0.1143 C   0  0  0  0  0  0  0  0  0  0  0  0
    1.7724    0.8161   -0.3029 C   0  0  0  0  0  0  0  0  0  0  0  0
   -0.0742    1.4094   -1.5835 C   0  0  0  0  0  0  0  0  0  0  0  0
    1.3070    1.0596   -1.5763 C   0  0  0  0  0  0  0  0  0  0  0  0
   -1.8243   -1.7144   -0.1470 C   0  0  0  0  0  0  0  0  0  0  0  0
   -1.0132   -1.9849   -1.2097 C   0  0  0  0  0  0  0  0  0  0  0  0
    0.0297   -2.8864   -0.8491 C   0  0  0  0  0  0  0  0  0  0  0  0
   -0.0417   -3.2569    0.4756 C   0  0  0  0  0  0  0  0  0  0  0  0
   -3.2455   -0.4187   -1.1111 H   0  0  0  0  0  0  0  0  0  0  0  0
   -3.9095   -1.4015    0.1764 H   0  0  0  0  0  0  0  0  0  0  0  0
   -2.6259   -0.0239    1.8126 H   0  0  0  0  0  0  0  0  0  0  0  0
   -0.6418    1.6388   -2.4756 H   0  0  0  0  0  0  0  0  0  0  0  0
    1.9249    0.9893   -2.4620 H   0  0  0  0  0  0  0  0  0  0  0  0
   -1.1472   -1.5707   -2.2006 H   0  0  0  0  0  0  0  0  0  0  0  0
    0.7941   -3.2437   -1.5267 H   0  0  0  0  0  0  0  0  0  0  0  0
    4.0884   -1.8735    0.1609 H   0  0  0  0  0  0  0  0  0  0  0  0
    2.5844   -1.7842    0.9707 H   0  0  0  0  0  0  0  0  0  0  0  0
    0.6192   -3.9242    1.0104 H   0  0  0  0  0  0  0  0  0  0  0  0
  1  5  2  0  0  0  0
  1  6  2  0  0  0  0
  1  9  1  0  0  0  0
  1 11  1  0  0  0  0
  2 11  1  0  0  0  0
  2 13  1  0  0  0  0
  3  7  2  0  0  0  0
  3  8  2  0  0  0  0
  3 10  1  0  0  0  0
  3 13  1  0  0  0  0
  4 16  1  0  0  0  0
  4 19  1  0  0  0  0
  9 12  1  0  0  0  0
  9 22  1  0  0  0  0
 10 27  1  0  0  0  0
 10 28  1  0  0  0  0
 11 14  2  0  0  0  0
 12 16  1  0  0  0  0
 12 20  1  0  0  0  0
 12 21  1  0  0  0  0
 13 15  2  0  0  0  0
 14 15  1  0  0  0  0
 14 23  1  0  0  0  0
 15 24  1  0  0  0  0
 16 17  2  0  0  0  0
 17 18  1  0  0  0  0
 17 25  1  0  0  0  0
 18 19  2  0  0  0  0
 18 26  1  0  0  0  0
 19 29  1  0  0  0  0
M  END
> <DATABASE_ID>
DB02986

> <DATABASE_NAME>
drugbank

> <ORIGINAL_SOURCE>
PUBCHEM

> <ORIGINAL_SOURCE_URL>
https://pubchem.ncbi.nlm.nih.gov/rest/pug/compound/inchikey/STOTVDLYLKWVJB-UHFFFAOYSA-N/SDF?record_type=3d

> <SMILES>
NS(=O)(=O)C1=CC=C(S1)S(=O)(=O)NCC1=CC=CS1

> <INCHI_IDENTIFIER>
InChI=1S/C9H10N2O4S4/c10-18(12,13)8-3-4-9(17-8)19(14,15)11-6-7-2-1-5-16-7/h1-5,11H,6H2,(H2,10,12,13)

> <INCHI_KEY>
STOTVDLYLKWVJB-UHFFFAOYSA-N

> <FORMULA>
C9H10N2O4S4

> <MOLECULAR_WEIGHT>
338.447

> <EXACT_MASS>
337.952339578

> <JCHEM_ACCEPTOR_COUNT>
4

> <JCHEM_AVERAGE_POLARIZABILITY>
30.94158901146946

> <JCHEM_BIOAVAILABILITY>
1

> <JCHEM_DONOR_COUNT>
2

> <JCHEM_FORMAL_CHARGE>
0

> <JCHEM_GHOSE_FILTER>
1

> <JCHEM_IUPAC>
N2-(thiophen-2-ylmethyl)thiophene-2,5-disulfonamide

> <ALOGPS_LOGP>
0.16

> <JCHEM_LOGP>
1.158771807666667

> <ALOGPS_LOGS>
-2.86

> <JCHEM_MDDR_LIKE_RULE>
0

> <JCHEM_NUMBER_OF_RINGS>
2

> <JCHEM_PHYSIOLOGICAL_CHARGE>
0

> <JCHEM_PKA>
8.932735163178332

> <JCHEM_PKA_STRONGEST_ACIDIC>
7.896282288947608

> <JCHEM_PKA_STRONGEST_BASIC>
-8.16440524049651

> <JCHEM_POLAR_SURFACE_AREA>
106.32999999999998

> <JCHEM_REFRACTIVITY>
72.19860000000001

> <JCHEM_ROTATABLE_BOND_COUNT>
4

> <JCHEM_RULE_OF_FIVE>
1

> <ALOGPS_SOLUBILITY>
4.63e-01 g/l

> <JCHEM_TRADITIONAL_IUPAC>
N2-(thiophen-2-ylmethyl)thiophene-2,5-disulfonamide

> <JCHEM_VEBER_RULE>
0

> <DRUGBANK_ID>
DB02986

> <SECONDARY_ACCESSION_NUMBERS>
EXPT03089

> <DRUG_GROUPS>
experimental

> <GENERIC_NAME>
N-(2-Thienylmethyl)-2,5-Thiophenedisulfonamide

$$$$
