5280881
  -OEChem-10051719523D

 54 54  0     1  0  0  0  0  0999 V2000
   -1.5121   -4.5075   -0.6811 O   0  0  0  0  0  0  0  0  0  0  0  0
    4.6181    0.2946    1.0691 O   0  0  0  0  0  0  0  0  0  0  0  0
   -0.7652    2.3950    2.3294 O   0  0  0  0  0  0  0  0  0  0  0  0
   -1.8919    3.4115    0.6398 O   0  0  0  0  0  0  0  0  0  0  0  0
    1.6948   -1.5755    1.8265 C   0  0  0  0  0  0  0  0  0  0  0  0
    1.7079   -1.3301    0.3463 C   0  0  0  0  0  0  0  0  0  0  0  0
    2.7590   -0.6299   -0.0993 C   0  0  0  0  0  0  0  0  0  0  0  0
    2.9587   -0.9032    2.3446 C   0  0  0  0  0  0  0  0  0  0  0  0
   -2.8789   -2.5414   -0.2913 C   0  0  0  0  0  0  0  0  0  0  0  0
   -2.9523   -1.0132   -0.3869 C   0  0  0  0  0  0  0  0  0  0  0  0
    3.5715   -0.3362    1.0988 C   0  0  0  0  0  0  0  0  0  0  0  0
   -1.5259   -3.0838   -0.7707 C   0  0  1  0  0  0  0  0  0  0  0  0
    3.1578   -0.1737   -1.4521 C   0  0  0  0  0  0  0  0  0  0  0  0
   -4.3194   -0.4938    0.0629 C   0  0  0  0  0  0  0  0  0  0  0  0
    0.6304   -1.8466   -0.4484 C   0  0  0  0  0  0  0  0  0  0  0  0
   -0.3961   -2.5423    0.0609 C   0  0  0  0  0  0  0  0  0  0  0  0
   -4.3837    1.0319   -0.0041 C   0  0  0  0  0  0  0  0  0  0  0  0
    3.2445    1.3178   -1.6489 C   0  0  0  0  0  0  0  0  0  0  0  0
    2.2552    2.1527   -2.0047 C   0  0  0  0  0  0  0  0  0  0  0  0
   -5.7290    1.5542    0.4740 C   0  0  0  0  0  0  0  0  0  0  0  0
    0.8462    1.7048   -2.2733 C   0  0  0  0  0  0  0  0  0  0  0  0
   -0.1767    2.3669   -1.3454 C   0  0  0  0  0  0  0  0  0  0  0  0
    0.0605    2.0480    0.1321 C   0  0  0  0  0  0  0  0  0  0  0  0
   -0.9735    2.6998    1.0217 C   0  0  0  0  0  0  0  0  0  0  0  0
    1.7191   -2.6451    2.0647 H   0  0  0  0  0  0  0  0  0  0  0  0
    0.8150   -1.1307    2.3061 H   0  0  0  0  0  0  0  0  0  0  0  0
    2.7268   -0.0986    3.0481 H   0  0  0  0  0  0  0  0  0  0  0  0
    3.6401   -1.6254    2.8030 H   0  0  0  0  0  0  0  0  0  0  0  0
   -3.6783   -2.9917   -0.8935 H   0  0  0  0  0  0  0  0  0  0  0  0
   -3.0682   -2.8661    0.7405 H   0  0  0  0  0  0  0  0  0  0  0  0
   -2.7607   -0.6983   -1.4199 H   0  0  0  0  0  0  0  0  0  0  0  0
   -2.1811   -0.5539    0.2416 H   0  0  0  0  0  0  0  0  0  0  0  0
   -1.3848   -2.8275   -1.8277 H   0  0  0  0  0  0  0  0  0  0  0  0
    4.1512   -0.5884   -1.6724 H   0  0  0  0  0  0  0  0  0  0  0  0
    2.5188   -0.6120   -2.2260 H   0  0  0  0  0  0  0  0  0  0  0  0
   -5.1038   -0.9235   -0.5719 H   0  0  0  0  0  0  0  0  0  0  0  0
   -4.5171   -0.8246    1.0898 H   0  0  0  0  0  0  0  0  0  0  0  0
    0.6553   -1.6637   -1.5179 H   0  0  0  0  0  0  0  0  0  0  0  0
   -0.4623   -2.7606    1.1235 H   0  0  0  0  0  0  0  0  0  0  0  0
   -3.5989    1.4547    0.6293 H   0  0  0  0  0  0  0  0  0  0  0  0
   -4.2011    1.3730   -1.0294 H   0  0  0  0  0  0  0  0  0  0  0  0
    4.2240    1.7585   -1.4698 H   0  0  0  0  0  0  0  0  0  0  0  0
    2.4737    3.2121   -2.1084 H   0  0  0  0  0  0  0  0  0  0  0  0
   -5.9201    1.2570    1.5102 H   0  0  0  0  0  0  0  0  0  0  0  0
   -6.5425    1.1701   -0.1496 H   0  0  0  0  0  0  0  0  0  0  0  0
   -5.7498    2.6474    0.4251 H   0  0  0  0  0  0  0  0  0  0  0  0
    0.6015    1.9766   -3.3077 H   0  0  0  0  0  0  0  0  0  0  0  0
    0.7257    0.6214   -2.2133 H   0  0  0  0  0  0  0  0  0  0  0  0
   -2.2491   -4.8418   -1.2203 H   0  0  0  0  0  0  0  0  0  0  0  0
   -0.1578    3.4545   -1.4937 H   0  0  0  0  0  0  0  0  0  0  0  0
   -1.1821    2.0352   -1.6350 H   0  0  0  0  0  0  0  0  0  0  0  0
    1.0447    2.4025    0.4543 H   0  0  0  0  0  0  0  0  0  0  0  0
   -0.0083    0.9692    0.2894 H   0  0  0  0  0  0  0  0  0  0  0  0
   -1.4349    2.8120    2.9126 H   0  0  0  0  0  0  0  0  0  0  0  0
  1 12  1  0  0  0  0
  1 49  1  0  0  0  0
  2 11  2  0  0  0  0
  3 24  1  0  0  0  0
  3 54  1  0  0  0  0
  4 24  2  0  0  0  0
  5  6  1  0  0  0  0
  5  8  1  0  0  0  0
  5 25  1  0  0  0  0
  5 26  1  0  0  0  0
  6  7  2  0  0  0  0
  6 15  1  0  0  0  0
  7 11  1  0  0  0  0
  7 13  1  0  0  0  0
  8 11  1  0  0  0  0
  8 27  1  0  0  0  0
  8 28  1  0  0  0  0
  9 10  1  0  0  0  0
  9 12  1  0  0  0  0
  9 29  1  0  0  0  0
  9 30  1  0  0  0  0
 10 14  1  0  0  0  0
 10 31  1  0  0  0  0
 10 32  1  0  0  0  0
 12 16  1  0  0  0  0
 12 33  1  0  0  0  0
 13 18  1  0  0  0  0
 13 34  1  0  0  0  0
 13 35  1  0  0  0  0
 14 17  1  0  0  0  0
 14 36  1  0  0  0  0
 14 37  1  0  0  0  0
 15 16  2  0  0  0  0
 15 38  1  0  0  0  0
 16 39  1  0  0  0  0
 17 20  1  0  0  0  0
 17 40  1  0  0  0  0
 17 41  1  0  0  0  0
 18 19  2  0  0  0  0
 18 42  1  0  0  0  0
 19 21  1  0  0  0  0
 19 43  1  0  0  0  0
 20 44  1  0  0  0  0
 20 45  1  0  0  0  0
 20 46  1  0  0  0  0
 21 22  1  0  0  0  0
 21 47  1  0  0  0  0
 21 48  1  0  0  0  0
 22 23  1  0  0  0  0
 22 50  1  0  0  0  0
 22 51  1  0  0  0  0
 23 24  1  0  0  0  0
 23 52  1  0  0  0  0
 23 53  1  0  0  0  0
M  END
> <DATABASE_ID>
DB02304

> <DATABASE_NAME>
drugbank

> <ORIGINAL_SOURCE>
PUBCHEM

> <ORIGINAL_SOURCE_URL>
https://pubchem.ncbi.nlm.nih.gov/rest/pug/compound/inchikey/PRFXRIUZNKLRHM-HKVRTXJWSA-N/SDF?record_type=3d

> <SMILES>
CCCCC[C@H](O)\C=C\C1=C(C\C=C/CCCC(O)=O)C(=O)CC1

> <INCHI_IDENTIFIER>
InChI=1S/C20H30O4/c1-2-3-6-9-17(21)14-12-16-13-15-19(22)18(16)10-7-4-5-8-11-20(23)24/h4,7,12,14,17,21H,2-3,5-6,8-11,13,15H2,1H3,(H,23,24)/b7-4-,14-12+/t17-/m0/s1

> <INCHI_KEY>
PRFXRIUZNKLRHM-HKVRTXJWSA-N

> <FORMULA>
C20H30O4

> <MOLECULAR_WEIGHT>
334.456

> <EXACT_MASS>
334.214409446

> <JCHEM_ACCEPTOR_COUNT>
4

> <JCHEM_ATOM_COUNT>
54

> <JCHEM_AVERAGE_POLARIZABILITY>
39.32241125285137

> <JCHEM_BIOAVAILABILITY>
1

> <JCHEM_DONOR_COUNT>
2

> <JCHEM_FORMAL_CHARGE>
0

> <JCHEM_GHOSE_FILTER>
1

> <JCHEM_IUPAC>
(5Z)-7-{2-[(1E,3S)-3-hydroxyoct-1-en-1-yl]-5-oxocyclopent-1-en-1-yl}hept-5-enoic acid

> <ALOGPS_LOGP>
4.07

> <JCHEM_LOGP>
4.18485735

> <ALOGPS_LOGS>
-4.05

> <JCHEM_MDDR_LIKE_RULE>
0

> <JCHEM_NUMBER_OF_RINGS>
1

> <JCHEM_PHYSIOLOGICAL_CHARGE>
-1

> <JCHEM_PKA>
17.769121310332174

> <JCHEM_PKA_STRONGEST_ACIDIC>
4.25375476006069

> <JCHEM_PKA_STRONGEST_BASIC>
-1.587391578492345

> <JCHEM_POLAR_SURFACE_AREA>
74.6

> <JCHEM_REFRACTIVITY>
98.60589999999998

> <JCHEM_ROTATABLE_BOND_COUNT>
12

> <JCHEM_RULE_OF_FIVE>
1

> <ALOGPS_SOLUBILITY>
2.99e-02 g/l

> <JCHEM_TRADITIONAL_IUPAC>
prostaglandin B2

> <JCHEM_VEBER_RULE>
0

> <DRUGBANK_ID>
DB02304

> <SECONDARY_ACCESSION_NUMBERS>
EXPT01314

> <DRUG_GROUPS>
experimental

> <GENERIC_NAME>
Prostaglandin B2

$$$$
