17754079
  -OEChem-10051719523D

 58 58  0     1  0  0  0  0  0999 V2000
   -5.4631   -1.0822   -0.5089 P   0  0  0  0  0  0  0  0  0  0  0  0
   -4.8867    0.1176    0.4108 O   0  0  0  0  0  0  0  0  0  0  0  0
   -2.6727   -0.8928    1.6622 O   0  0  0  0  0  0  0  0  0  0  0  0
    0.9335    0.3422   -1.4181 O   0  0  0  0  0  0  0  0  0  0  0  0
   -6.9488   -1.3100    0.0874 O   0  0  0  0  0  0  0  0  0  0  0  0
   -5.7396   -0.3738   -1.9361 O   0  0  0  0  0  0  0  0  0  0  0  0
   -4.6047   -2.3122   -0.5588 O   0  0  0  0  0  0  0  0  0  0  0  0
    8.1717    1.0748    0.6314 O   0  5  0  0  0  0  0  0  0  0  0  0
    7.5319    2.2054   -1.1381 O   0  0  0  0  0  0  0  0  0  0  0  0
   -1.4172   -0.2889   -0.1949 N   0  0  0  0  0  0  0  0  0  0  0  0
    2.0761   -0.6112    0.3966 N   0  0  0  0  0  0  0  0  0  0  0  0
    7.2882    1.4208   -0.1897 N   0  3  0  0  0  0  0  0  0  0  0  0
   -0.3473   -2.4869   -0.5686 C   0  0  0  0  0  0  0  0  0  0  0  0
   -0.2635   -1.1073    0.0973 C   0  0  1  0  0  0  0  0  0  0  0  0
    0.6053   -3.5479    0.0193 C   0  0  0  0  0  0  0  0  0  0  0  0
   -3.6219    0.6720    0.0830 C   0  0  1  0  0  0  0  0  0  0  0  0
   -3.4911    2.0845    0.6644 C   0  0  0  0  0  0  0  0  0  0  0  0
   -2.5366   -0.2512    0.6225 C   0  0  0  0  0  0  0  0  0  0  0  0
   -4.5619    3.0326    0.1136 C   0  0  0  0  0  0  0  0  0  0  0  0
    0.5164   -4.8838   -0.7198 C   0  0  0  0  0  0  0  0  0  0  0  0
    0.2909   -3.7580    1.5031 C   0  0  0  0  0  0  0  0  0  0  0  0
    0.9678   -0.3519   -0.4058 C   0  0  0  0  0  0  0  0  0  0  0  0
   -4.4464    4.4576    0.6600 C   0  0  0  0  0  0  0  0  0  0  0  0
   -5.4589    5.4214    0.0605 C   0  0  0  0  0  0  0  0  0  0  0  0
    3.3871   -0.0984    0.2503 C   0  0  0  0  0  0  0  0  0  0  0  0
    4.3856   -0.4691    1.1509 C   0  0  0  0  0  0  0  0  0  0  0  0
    3.6812    0.7757   -0.7962 C   0  0  0  0  0  0  0  0  0  0  0  0
    5.6782    0.0340    1.0051 C   0  0  0  0  0  0  0  0  0  0  0  0
    4.9740    1.2790   -0.9421 C   0  0  0  0  0  0  0  0  0  0  0  0
    5.9724    0.9081   -0.0414 C   0  0  0  0  0  0  0  0  0  0  0  0
   -1.3766   -2.8633   -0.4901 H   0  0  0  0  0  0  0  0  0  0  0  0
   -0.1482   -2.3875   -1.6442 H   0  0  0  0  0  0  0  0  0  0  0  0
   -0.2162   -1.1877    1.1863 H   0  0  0  0  0  0  0  0  0  0  0  0
    1.6409   -3.2031   -0.0730 H   0  0  0  0  0  0  0  0  0  0  0  0
   -3.5385    0.7301   -1.0090 H   0  0  0  0  0  0  0  0  0  0  0  0
   -3.5905    2.0403    1.7565 H   0  0  0  0  0  0  0  0  0  0  0  0
   -2.4929    2.4843    0.4491 H   0  0  0  0  0  0  0  0  0  0  0  0
   -1.4066    0.2668   -1.0456 H   0  0  0  0  0  0  0  0  0  0  0  0
   -5.5598    2.6438    0.3500 H   0  0  0  0  0  0  0  0  0  0  0  0
   -4.4845    3.0616   -0.9804 H   0  0  0  0  0  0  0  0  0  0  0  0
    0.7547   -4.7538   -1.7805 H   0  0  0  0  0  0  0  0  0  0  0  0
    1.2233   -5.6097   -0.3043 H   0  0  0  0  0  0  0  0  0  0  0  0
   -0.4902   -5.3095   -0.6489 H   0  0  0  0  0  0  0  0  0  0  0  0
   -0.7733   -3.9626    1.6625 H   0  0  0  0  0  0  0  0  0  0  0  0
    0.8550   -4.6110    1.8976 H   0  0  0  0  0  0  0  0  0  0  0  0
    0.5731   -2.8961    2.1131 H   0  0  0  0  0  0  0  0  0  0  0  0
   -4.5724    4.4398    1.7491 H   0  0  0  0  0  0  0  0  0  0  0  0
   -3.4381    4.8411    0.4631 H   0  0  0  0  0  0  0  0  0  0  0  0
    1.9490   -1.2293    1.1942 H   0  0  0  0  0  0  0  0  0  0  0  0
   -6.4815    5.0900    0.2664 H   0  0  0  0  0  0  0  0  0  0  0  0
   -5.3314    6.4212    0.4869 H   0  0  0  0  0  0  0  0  0  0  0  0
   -5.3333    5.4944   -1.0243 H   0  0  0  0  0  0  0  0  0  0  0  0
    4.1693   -1.1503    1.9701 H   0  0  0  0  0  0  0  0  0  0  0  0
    2.9626    1.1112   -1.5304 H   0  0  0  0  0  0  0  0  0  0  0  0
    6.4308   -0.2769    1.7254 H   0  0  0  0  0  0  0  0  0  0  0  0
    5.1679    1.9585   -1.7683 H   0  0  0  0  0  0  0  0  0  0  0  0
   -7.4842   -2.0610   -0.2467 H   0  0  0  0  0  0  0  0  0  0  0  0
   -6.0343   -0.9264   -2.6910 H   0  0  0  0  0  0  0  0  0  0  0  0
  1  2  1  0  0  0  0
  1  5  1  0  0  0  0
  1  6  1  0  0  0  0
  1  7  2  0  0  0  0
  2 16  1  0  0  0  0
  3 18  2  0  0  0  0
  4 22  2  0  0  0  0
  5 57  1  0  0  0  0
  6 58  1  0  0  0  0
  8 12  1  0  0  0  0
  9 12  2  0  0  0  0
 10 14  1  0  0  0  0
 10 18  1  0  0  0  0
 10 38  1  0  0  0  0
 11 22  1  0  0  0  0
 11 25  1  0  0  0  0
 11 49  1  0  0  0  0
 12 30  1  0  0  0  0
 13 14  1  0  0  0  0
 13 15  1  0  0  0  0
 13 31  1  0  0  0  0
 13 32  1  0  0  0  0
 14 22  1  0  0  0  0
 14 33  1  0  0  0  0
 15 20  1  0  0  0  0
 15 21  1  0  0  0  0
 15 34  1  0  0  0  0
 16 17  1  0  0  0  0
 16 18  1  0  0  0  0
 16 35  1  0  0  0  0
 17 19  1  0  0  0  0
 17 36  1  0  0  0  0
 17 37  1  0  0  0  0
 19 23  1  0  0  0  0
 19 39  1  0  0  0  0
 19 40  1  0  0  0  0
 20 41  1  0  0  0  0
 20 42  1  0  0  0  0
 20 43  1  0  0  0  0
 21 44  1  0  0  0  0
 21 45  1  0  0  0  0
 21 46  1  0  0  0  0
 23 24  1  0  0  0  0
 23 47  1  0  0  0  0
 23 48  1  0  0  0  0
 24 50  1  0  0  0  0
 24 51  1  0  0  0  0
 24 52  1  0  0  0  0
 25 26  2  0  0  0  0
 25 27  1  0  0  0  0
 26 28  1  0  0  0  0
 26 53  1  0  0  0  0
 27 29  2  0  0  0  0
 27 54  1  0  0  0  0
 28 30  2  0  0  0  0
 28 55  1  0  0  0  0
 29 30  1  0  0  0  0
 29 56  1  0  0  0  0
M  CHG  2   8  -1  12   1
M  END
> <DATABASE_ID>
DB02276

> <DATABASE_NAME>
drugbank

> <ORIGINAL_SOURCE>
PUBCHEM

> <ORIGINAL_SOURCE_URL>
https://pubchem.ncbi.nlm.nih.gov/rest/pug/compound/inchikey/HARXAJAHMRMERT-HOTGVXAUSA-N/SDF?record_type=3d

> <SMILES>
[H][C@@](CC(C)C)(NC(=O)[C@]([H])(CCCC)OP(O)(O)=O)C(=O)NC1=CC=C(C=C1)[N+]([O-])=O

> <INCHI_IDENTIFIER>
InChI=1S/C18H28N3O8P/c1-4-5-6-16(29-30(26,27)28)18(23)20-15(11-12(2)3)17(22)19-13-7-9-14(10-8-13)21(24)25/h7-10,12,15-16H,4-6,11H2,1-3H3,(H,19,22)(H,20,23)(H2,26,27,28)/t15-,16-/m0/s1

> <INCHI_KEY>
HARXAJAHMRMERT-HOTGVXAUSA-N

> <FORMULA>
C18H28N3O8P

> <MOLECULAR_WEIGHT>
445.404

> <EXACT_MASS>
445.161401399

> <JCHEM_ACCEPTOR_COUNT>
7

> <JCHEM_AVERAGE_POLARIZABILITY>
43.2994107892724

> <JCHEM_BIOAVAILABILITY>
1

> <JCHEM_DONOR_COUNT>
4

> <JCHEM_FORMAL_CHARGE>
0

> <JCHEM_GHOSE_FILTER>
1

> <JCHEM_IUPAC>
{[(1S)-1-{[(1S)-3-methyl-1-[(4-nitrophenyl)carbamoyl]butyl]carbamoyl}pentyl]oxy}phosphonic acid

> <ALOGPS_LOGP>
1.62

> <JCHEM_LOGP>
2.9081414216666666

> <ALOGPS_LOGS>
-4.39

> <JCHEM_MDDR_LIKE_RULE>
0

> <JCHEM_NUMBER_OF_RINGS>
1

> <JCHEM_PHYSIOLOGICAL_CHARGE>
-2

> <JCHEM_PKA>
6.453616503263105

> <JCHEM_PKA_STRONGEST_ACIDIC>
1.419601174322331

> <JCHEM_PKA_STRONGEST_BASIC>
-5.427423487982708

> <JCHEM_POLAR_SURFACE_AREA>
170.78

> <JCHEM_REFRACTIVITY>
110.01169999999998

> <JCHEM_ROTATABLE_BOND_COUNT>
12

> <JCHEM_RULE_OF_FIVE>
1

> <ALOGPS_SOLUBILITY>
1.81e-02 g/l

> <JCHEM_TRADITIONAL_IUPAC>
[(1S)-1-{[(1S)-3-methyl-1-[(4-nitrophenyl)carbamoyl]butyl]carbamoyl}pentyl]oxyphosphonic acid

> <JCHEM_VEBER_RULE>
0

> <DRUGBANK_ID>
DB02276

> <SECONDARY_ACCESSION_NUMBERS>
EXPT02185

> <DRUG_GROUPS>
experimental

> <GENERIC_NAME>
(S)-2-(Phosphonoxy)Caproyl-L-Leucyl-P-Nitroanilide

$$$$
