444764
  -OEChem-10051719593D

 22 22  0     0  0  0  0  0  0999 V2000
   -2.5908   -2.4302    0.5580 O   0  0  0  0  0  0  0  0  0  0  0  0
   -0.6025   -2.4620   -0.5429 O   0  0  0  0  0  0  0  0  0  0  0  0
    2.1989    1.7747    0.0430 O   0  0  0  0  0  0  0  0  0  0  0  0
    4.3147    0.3235    0.0653 O   0  0  0  0  0  0  0  0  0  0  0  0
    3.0533   -1.5813    0.0259 O   0  0  0  0  0  0  0  0  0  0  0  0
    0.7662   -0.1024    0.0034 N   0  0  0  0  0  0  0  0  0  0  0  0
   -0.5193    0.4465   -0.0129 C   0  0  0  0  0  0  0  0  0  0  0  0
   -1.6492   -0.3709   -0.0376 C   0  0  0  0  0  0  0  0  0  0  0  0
   -0.6622    1.8339   -0.0040 C   0  0  0  0  0  0  0  0  0  0  0  0
   -2.9222    0.1992   -0.0535 C   0  0  0  0  0  0  0  0  0  0  0  0
   -1.9352    2.4041   -0.0197 C   0  0  0  0  0  0  0  0  0  0  0  0
   -3.0651    1.5867   -0.0445 C   0  0  0  0  0  0  0  0  0  0  0  0
   -1.5355   -1.8241   -0.0491 C   0  0  0  0  0  0  0  0  0  0  0  0
    1.9818    0.5741    0.0286 C   0  0  0  0  0  0  0  0  0  0  0  0
    3.1673   -0.3717    0.0399 C   0  0  0  0  0  0  0  0  0  0  0  0
    0.1606    2.5344    0.0144 H   0  0  0  0  0  0  0  0  0  0  0  0
   -3.8226   -0.4088   -0.0869 H   0  0  0  0  0  0  0  0  0  0  0  0
    0.8193   -1.1176   -0.0017 H   0  0  0  0  0  0  0  0  0  0  0  0
   -2.0481    3.4844   -0.0136 H   0  0  0  0  0  0  0  0  0  0  0  0
   -4.0561    2.0311   -0.0601 H   0  0  0  0  0  0  0  0  0  0  0  0
   -2.5069   -3.4075    0.5465 H   0  0  0  0  0  0  0  0  0  0  0  0
    5.1026   -0.2607    0.0725 H   0  0  0  0  0  0  0  0  0  0  0  0
  1 13  1  0  0  0  0
  1 21  1  0  0  0  0
  2 13  2  0  0  0  0
  3 14  2  0  0  0  0
  4 15  1  0  0  0  0
  4 22  1  0  0  0  0
  5 15  2  0  0  0  0
  6  7  1  0  0  0  0
  6 14  1  0  0  0  0
  6 18  1  0  0  0  0
  7  8  1  0  0  0  0
  7  9  2  0  0  0  0
  8 10  2  0  0  0  0
  8 13  1  0  0  0  0
  9 11  1  0  0  0  0
  9 16  1  0  0  0  0
 10 12  1  0  0  0  0
 10 17  1  0  0  0  0
 11 12  2  0  0  0  0
 11 19  1  0  0  0  0
 12 20  1  0  0  0  0
 14 15  1  0  0  0  0
M  END
> <DATABASE_ID>
DB02622

> <DATABASE_NAME>
drugbank

> <ORIGINAL_SOURCE>
PUBCHEM

> <ORIGINAL_SOURCE_URL>
https://pubchem.ncbi.nlm.nih.gov/rest/pug/compound/inchikey/QBYNNSFEMMNINN-UHFFFAOYSA-N/SDF?record_type=3d

> <SMILES>
OC(=O)C(=O)NC1=C(C=CC=C1)C(O)=O

> <INCHI_IDENTIFIER>
InChI=1S/C9H7NO5/c11-7(9(14)15)10-6-4-2-1-3-5(6)8(12)13/h1-4H,(H,10,11)(H,12,13)(H,14,15)

> <INCHI_KEY>
QBYNNSFEMMNINN-UHFFFAOYSA-N

> <FORMULA>
C9H7NO5

> <MOLECULAR_WEIGHT>
209.1556

> <EXACT_MASS>
209.032422339

> <JCHEM_ACCEPTOR_COUNT>
5

> <JCHEM_AVERAGE_POLARIZABILITY>
18.533475359560867

> <JCHEM_BIOAVAILABILITY>
1

> <JCHEM_DONOR_COUNT>
3

> <JCHEM_FORMAL_CHARGE>
0

> <JCHEM_GHOSE_FILTER>
1

> <JCHEM_IUPAC>
2-(carboxyformamido)benzoic acid

> <ALOGPS_LOGP>
0.36

> <JCHEM_LOGP>
1.4781332363333333

> <ALOGPS_LOGS>
-2.36

> <JCHEM_MDDR_LIKE_RULE>
0

> <JCHEM_NUMBER_OF_RINGS>
1

> <JCHEM_PHYSIOLOGICAL_CHARGE>
-2

> <JCHEM_PKA>
3.577993485339882

> <JCHEM_PKA_STRONGEST_ACIDIC>
2.1060214799258046

> <JCHEM_PKA_STRONGEST_BASIC>
-6.883658189895979

> <JCHEM_POLAR_SURFACE_AREA>
103.7

> <JCHEM_REFRACTIVITY>
49.97210000000001

> <JCHEM_ROTATABLE_BOND_COUNT>
3

> <JCHEM_RULE_OF_FIVE>
1

> <ALOGPS_SOLUBILITY>
9.22e-01 g/l

> <JCHEM_TRADITIONAL_IUPAC>
2-(oxalyl-amino)-benzoic acid

> <JCHEM_VEBER_RULE>
0

> <DRUGBANK_ID>
DB02622

> <SECONDARY_ACCESSION_NUMBERS>
EXPT02412

> <DRUG_GROUPS>
experimental

> <GENERIC_NAME>
2-(Oxalyl-Amino)-Benzoic Acid

$$$$
