186
  -OEChem-10051720043D

 13 12  0     0  0  0  0  0  0999 V2000
    1.1642    0.0067    0.0783 P   0  0  0  0  0  0  0  0  0  0  0  0
   -0.3176    0.6561    0.0912 O   0  0  0  0  0  0  0  0  0  0  0  0
    1.3005   -0.6329   -1.4007 O   0  0  0  0  0  0  0  0  0  0  0  0
    2.1538    1.2850    0.0399 O   0  0  0  0  0  0  0  0  0  0  0  0
    1.4181   -0.9524    1.2048 O   0  0  0  0  0  0  0  0  0  0  0  0
   -1.5893   -1.2469   -0.0798 O   0  0  0  0  0  0  0  0  0  0  0  0
   -1.4863   -0.0320    0.0117 C   0  0  0  0  0  0  0  0  0  0  0  0
   -2.6436    0.9164    0.0546 C   0  0  0  0  0  0  0  0  0  0  0  0
   -2.5899    1.6056   -0.7918 H   0  0  0  0  0  0  0  0  0  0  0  0
   -3.5777    0.3518   -0.0150 H   0  0  0  0  0  0  0  0  0  0  0  0
   -2.6381    1.4655    0.9995 H   0  0  0  0  0  0  0  0  0  0  0  0
    2.0775   -1.1961   -1.6043 H   0  0  0  0  0  0  0  0  0  0  0  0
    3.1179    1.1422    0.1512 H   0  0  0  0  0  0  0  0  0  0  0  0
  1  2  1  0  0  0  0
  1  3  1  0  0  0  0
  1  4  1  0  0  0  0
  1  5  2  0  0  0  0
  2  7  1  0  0  0  0
  3 12  1  0  0  0  0
  4 13  1  0  0  0  0
  6  7  2  0  0  0  0
  7  8  1  0  0  0  0
  8  9  1  0  0  0  0
  8 10  1  0  0  0  0
  8 11  1  0  0  0  0
M  END
> <DATABASE_ID>
DB02897

> <DATABASE_NAME>
drugbank

> <ORIGINAL_SOURCE>
PUBCHEM

> <ORIGINAL_SOURCE_URL>
https://pubchem.ncbi.nlm.nih.gov/rest/pug/compound/inchikey/LIPOUNRJVLNBCD-UHFFFAOYSA-N/SDF?record_type=3d

> <SMILES>
CC(=O)OP(O)(O)=O

> <INCHI_IDENTIFIER>
InChI=1S/C2H5O5P/c1-2(3)7-8(4,5)6/h1H3,(H2,4,5,6)

> <INCHI_KEY>
LIPOUNRJVLNBCD-UHFFFAOYSA-N

> <FORMULA>
C2H5O5P

> <MOLECULAR_WEIGHT>
140.0319

> <EXACT_MASS>
139.987459782

> <JCHEM_ACCEPTOR_COUNT>
4

> <JCHEM_AVERAGE_POLARIZABILITY>
9.874133834614181

> <JCHEM_BIOAVAILABILITY>
1

> <JCHEM_DONOR_COUNT>
2

> <JCHEM_FORMAL_CHARGE>
0

> <JCHEM_GHOSE_FILTER>
0

> <JCHEM_IUPAC>
(acetyloxy)phosphonic acid

> <ALOGPS_LOGP>
-0.92

> <JCHEM_LOGP>
-0.8772108599999999

> <ALOGPS_LOGS>
-0.90

> <JCHEM_MDDR_LIKE_RULE>
0

> <JCHEM_NUMBER_OF_RINGS>
0

> <JCHEM_PHYSIOLOGICAL_CHARGE>
-2

> <JCHEM_PKA>
6.276046285834895

> <JCHEM_PKA_STRONGEST_ACIDIC>
1.2407072572323323

> <JCHEM_PKA_STRONGEST_BASIC>
-7.387612001654629

> <JCHEM_POLAR_SURFACE_AREA>
83.83000000000001

> <JCHEM_REFRACTIVITY>
23.8034

> <JCHEM_ROTATABLE_BOND_COUNT>
2

> <JCHEM_RULE_OF_FIVE>
1

> <ALOGPS_SOLUBILITY>
1.78e+01 g/l

> <JCHEM_TRADITIONAL_IUPAC>
acetylphosphate

> <JCHEM_VEBER_RULE>
0

> <DRUGBANK_ID>
DB02897

> <SECONDARY_ACCESSION_NUMBERS>
EXPT03212

> <DRUG_GROUPS>
experimental

> <GENERIC_NAME>
Acetylphosphate

$$$$
