44288441
  -OEChem-10051719543D

 24 23  0     1  0  0  0  0  0999 V2000
    1.8900    0.3508   -0.0698 P   0  0  1  0  0  0  0  0  0  0  0  0
    2.8498   -0.9443   -0.3263 O   0  0  0  0  0  0  0  0  0  0  0  0
    2.0923    0.8459    1.3440 O   0  5  0  0  0  0  0  0  0  0  0  0
    1.9678    1.2738   -1.2642 O   0  0  0  0  0  0  0  0  0  0  0  0
    0.1396   -1.7516    0.7007 N   0  3  0  0  0  0  0  0  0  0  0  0
    0.2488   -0.5162   -0.1347 C   0  0  1  0  0  0  0  0  0  0  0  0
   -0.8839    0.4520    0.2490 C   0  0  0  0  0  0  0  0  0  0  0  0
   -2.3211   -0.0980    0.1617 C   0  0  0  0  0  0  0  0  0  0  0  0
   -2.6183   -0.5349   -1.2762 C   0  0  0  0  0  0  0  0  0  0  0  0
   -3.3649    0.9225    0.6160 C   0  0  0  0  0  0  0  0  0  0  0  0
    0.1422   -0.8564   -1.1694 H   0  0  0  0  0  0  0  0  0  0  0  0
   -0.8019    1.3460   -0.3829 H   0  0  0  0  0  0  0  0  0  0  0  0
   -0.7081    0.8027    1.2745 H   0  0  0  0  0  0  0  0  0  0  0  0
   -2.4213   -0.9701    0.8179 H   0  0  0  0  0  0  0  0  0  0  0  0
    0.9339   -2.3799    0.5218 H   0  0  0  0  0  0  0  0  0  0  0  0
    0.1457   -1.5295    1.7049 H   0  0  0  0  0  0  0  0  0  0  0  0
   -0.7163   -2.2839    0.4981 H   0  0  0  0  0  0  0  0  0  0  0  0
   -2.4495    0.2826   -1.9854 H   0  0  0  0  0  0  0  0  0  0  0  0
   -1.9988   -1.3851   -1.5764 H   0  0  0  0  0  0  0  0  0  0  0  0
   -3.6622   -0.8529   -1.3744 H   0  0  0  0  0  0  0  0  0  0  0  0
   -3.3423    1.8193   -0.0123 H   0  0  0  0  0  0  0  0  0  0  0  0
   -3.1788    1.2296    1.6505 H   0  0  0  0  0  0  0  0  0  0  0  0
   -4.3737    0.4990    0.5684 H   0  0  0  0  0  0  0  0  0  0  0  0
    3.8210   -0.8086   -0.3494 H   0  0  0  0  0  0  0  0  0  0  0  0
  1  2  1  0  0  0  0
  1  3  1  0  0  0  0
  1  4  2  0  0  0  0
  1  6  1  0  0  0  0
  2 24  1  0  0  0  0
  5  6  1  0  0  0  0
  5 15  1  0  0  0  0
  5 16  1  0  0  0  0
  5 17  1  0  0  0  0
  6  7  1  0  0  0  0
  6 11  1  0  0  0  0
  7  8  1  0  0  0  0
  7 12  1  0  0  0  0
  7 13  1  0  0  0  0
  8  9  1  0  0  0  0
  8 10  1  0  0  0  0
  8 14  1  0  0  0  0
  9 18  1  0  0  0  0
  9 19  1  0  0  0  0
  9 20  1  0  0  0  0
 10 21  1  0  0  0  0
 10 22  1  0  0  0  0
 10 23  1  0  0  0  0
M  CHG  2   3  -1   5   1
M  END
> <DATABASE_ID>
DB02386

> <DATABASE_NAME>
drugbank

> <ORIGINAL_SOURCE>
PUBCHEM

> <ORIGINAL_SOURCE_URL>
https://pubchem.ncbi.nlm.nih.gov/rest/pug/compound/inchikey/HGCAUCAWEADMPM-RXMQYKEDSA-N/SDF?record_type=3d

> <SMILES>
CC(C)C[C@H](N)P(O)(O)=O

> <INCHI_IDENTIFIER>
InChI=1S/C5H14NO3P/c1-4(2)3-5(6)10(7,8)9/h4-5H,3,6H2,1-2H3,(H2,7,8,9)/t5-/m1/s1

> <INCHI_KEY>
HGCAUCAWEADMPM-RXMQYKEDSA-N

> <FORMULA>
C5H14NO3P

> <MOLECULAR_WEIGHT>
167.1433

> <EXACT_MASS>
167.071129831

> <JCHEM_ACCEPTOR_COUNT>
4

> <JCHEM_AVERAGE_POLARIZABILITY>
15.894157112625246

> <JCHEM_BIOAVAILABILITY>
1

> <JCHEM_DONOR_COUNT>
3

> <JCHEM_FORMAL_CHARGE>
0

> <JCHEM_GHOSE_FILTER>
0

> <JCHEM_IUPAC>
[(1R)-1-amino-3-methylbutyl]phosphonic acid

> <ALOGPS_LOGP>
-0.44

> <JCHEM_LOGP>
-1.4036519010848436

> <ALOGPS_LOGS>
-0.70

> <JCHEM_MDDR_LIKE_RULE>
0

> <JCHEM_NUMBER_OF_RINGS>
0

> <JCHEM_PHYSIOLOGICAL_CHARGE>
-1

> <JCHEM_PKA>
6.935064000912396

> <JCHEM_PKA_STRONGEST_ACIDIC>
-0.2424846012355104

> <JCHEM_PKA_STRONGEST_BASIC>
10.228822367843486

> <JCHEM_POLAR_SURFACE_AREA>
83.55000000000001

> <JCHEM_REFRACTIVITY>
38.8628

> <JCHEM_ROTATABLE_BOND_COUNT>
3

> <JCHEM_RULE_OF_FIVE>
1

> <ALOGPS_SOLUBILITY>
3.31e+01 g/l

> <JCHEM_TRADITIONAL_IUPAC>
leucine phosphonic acid

> <JCHEM_VEBER_RULE>
0

> <DRUGBANK_ID>
DB02386

> <SECONDARY_ACCESSION_NUMBERS>
EXPT02610

> <DRUG_GROUPS>
experimental

> <GENERIC_NAME>
Leucine Phosphonic Acid

$$$$
