444862
  -OEChem-10051720063D

 47 47  0     1  0  0  0  0  0999 V2000
    2.0812   -3.4789    0.2019 P   0  0  0  0  0  0  0  0  0  0  0  0
   -2.3236   -1.8050    1.3746 O   0  0  0  0  0  0  0  0  0  0  0  0
    0.9300    3.3597    1.1665 O   0  0  0  0  0  0  0  0  0  0  0  0
    2.3438   -1.8864    0.2860 O   0  0  0  0  0  0  0  0  0  0  0  0
   -2.2418   -1.7225   -0.8900 O   0  0  0  0  0  0  0  0  0  0  0  0
    0.4762   -3.5664    0.0251 O   0  0  0  0  0  0  0  0  0  0  0  0
    2.6391   -3.8849   -1.2607 O   0  0  0  0  0  0  0  0  0  0  0  0
    2.6373   -4.2767    1.3449 O   0  0  0  0  0  0  0  0  0  0  0  0
   -1.0381    0.8705   -0.1791 N   0  0  0  0  0  0  0  0  0  0  0  0
    3.7867    2.1577   -0.7569 N   0  0  0  0  0  0  0  0  0  0  0  0
   -2.2983    0.3635    0.3693 C   0  0  1  0  0  0  0  0  0  0  0  0
   -3.4751    0.9970   -0.3821 C   0  0  0  0  0  0  0  0  0  0  0  0
   -4.8344    0.4609    0.0805 C   0  0  0  0  0  0  0  0  0  0  0  0
    0.0462    0.6833    0.7708 C   0  0  0  0  0  0  0  0  0  0  0  0
    1.3562    1.1972    0.2351 C   0  0  0  0  0  0  0  0  0  0  0  0
   -5.9788    1.0937   -0.7125 C   0  0  0  0  0  0  0  0  0  0  0  0
    2.1956    0.3573   -0.4886 C   0  0  0  0  0  0  0  0  0  0  0  0
   -2.2753   -1.1437    0.1888 C   0  0  0  0  0  0  0  0  0  0  0  0
    1.7307    2.5166    0.4634 C   0  0  0  0  0  0  0  0  0  0  0  0
   -7.3321    0.5939   -0.2325 C   0  0  0  0  0  0  0  0  0  0  0  0
    1.8455   -1.0641   -0.7631 C   0  0  0  0  0  0  0  0  0  0  0  0
    2.9449    2.9441   -0.0493 C   0  0  0  0  0  0  0  0  0  0  0  0
    3.3890    0.8814   -0.9586 C   0  0  0  0  0  0  0  0  0  0  0  0
    3.3951    4.3518    0.1665 C   0  0  0  0  0  0  0  0  0  0  0  0
   -2.4006    0.6136    1.4330 H   0  0  0  0  0  0  0  0  0  0  0  0
   -3.4538    2.0862   -0.2464 H   0  0  0  0  0  0  0  0  0  0  0  0
   -3.3742    0.8102   -1.4600 H   0  0  0  0  0  0  0  0  0  0  0  0
   -4.9636    0.6715    1.1492 H   0  0  0  0  0  0  0  0  0  0  0  0
   -4.8785   -0.6273   -0.0422 H   0  0  0  0  0  0  0  0  0  0  0  0
   -1.1345    1.8666   -0.3773 H   0  0  0  0  0  0  0  0  0  0  0  0
   -0.1809    1.1710    1.7280 H   0  0  0  0  0  0  0  0  0  0  0  0
    0.1545   -0.3717    1.0490 H   0  0  0  0  0  0  0  0  0  0  0  0
   -5.8661    0.8624   -1.7781 H   0  0  0  0  0  0  0  0  0  0  0  0
   -5.9435    2.1847   -0.6113 H   0  0  0  0  0  0  0  0  0  0  0  0
   -7.4131   -0.4916   -0.3488 H   0  0  0  0  0  0  0  0  0  0  0  0
   -8.1354    1.0586   -0.8129 H   0  0  0  0  0  0  0  0  0  0  0  0
   -7.4894    0.8395    0.8226 H   0  0  0  0  0  0  0  0  0  0  0  0
    0.7712   -1.2144   -0.8990 H   0  0  0  0  0  0  0  0  0  0  0  0
    2.3110   -1.3764   -1.7056 H   0  0  0  0  0  0  0  0  0  0  0  0
    4.0882    0.2765   -1.5278 H   0  0  0  0  0  0  0  0  0  0  0  0
    3.4925    4.5627    1.2362 H   0  0  0  0  0  0  0  0  0  0  0  0
    4.3704    4.5285   -0.2995 H   0  0  0  0  0  0  0  0  0  0  0  0
    2.6811    5.0539   -0.2758 H   0  0  0  0  0  0  0  0  0  0  0  0
   -2.3184   -2.7781    1.2503 H   0  0  0  0  0  0  0  0  0  0  0  0
    0.0072    3.0626    1.1276 H   0  0  0  0  0  0  0  0  0  0  0  0
    0.0437   -4.4466    0.0418 H   0  0  0  0  0  0  0  0  0  0  0  0
    2.6437   -4.8305   -1.5211 H   0  0  0  0  0  0  0  0  0  0  0  0
  1  4  1  0  0  0  0
  1  6  1  0  0  0  0
  1  7  1  0  0  0  0
  1  8  2  0  0  0  0
  2 18  1  0  0  0  0
  2 44  1  0  0  0  0
  3 19  1  0  0  0  0
  3 45  1  0  0  0  0
  4 21  1  0  0  0  0
  5 18  2  0  0  0  0
  6 46  1  0  0  0  0
  7 47  1  0  0  0  0
  9 11  1  0  0  0  0
  9 14  1  0  0  0  0
  9 30  1  0  0  0  0
 10 22  2  0  0  0  0
 10 23  1  0  0  0  0
 11 12  1  0  0  0  0
 11 18  1  0  0  0  0
 11 25  1  0  0  0  0
 12 13  1  0  0  0  0
 12 26  1  0  0  0  0
 12 27  1  0  0  0  0
 13 16  1  0  0  0  0
 13 28  1  0  0  0  0
 13 29  1  0  0  0  0
 14 15  1  0  0  0  0
 14 31  1  0  0  0  0
 14 32  1  0  0  0  0
 15 17  1  0  0  0  0
 15 19  2  0  0  0  0
 16 20  1  0  0  0  0
 16 33  1  0  0  0  0
 16 34  1  0  0  0  0
 17 21  1  0  0  0  0
 17 23  2  0  0  0  0
 19 22  1  0  0  0  0
 20 35  1  0  0  0  0
 20 36  1  0  0  0  0
 20 37  1  0  0  0  0
 21 38  1  0  0  0  0
 21 39  1  0  0  0  0
 22 24  1  0  0  0  0
 23 40  1  0  0  0  0
 24 41  1  0  0  0  0
 24 42  1  0  0  0  0
 24 43  1  0  0  0  0
M  END
> <DATABASE_ID>
DB02981

> <DATABASE_NAME>
drugbank

> <ORIGINAL_SOURCE>
PUBCHEM

> <ORIGINAL_SOURCE_URL>
https://pubchem.ncbi.nlm.nih.gov/rest/pug/compound/inchikey/NHVFCSUYJRWFNW-LBPRGKRZSA-N/SDF?record_type=3d

> <SMILES>
[H][C@@](CCCC)(NCC1=C(COP(O)(O)=O)C=NC(C)=C1O)C(O)=O

> <INCHI_IDENTIFIER>
InChI=1S/C14H23N2O7P/c1-3-4-5-12(14(18)19)16-7-11-10(8-23-24(20,21)22)6-15-9(2)13(11)17/h6,12,16-17H,3-5,7-8H2,1-2H3,(H,18,19)(H2,20,21,22)/t12-/m0/s1

> <INCHI_KEY>
NHVFCSUYJRWFNW-LBPRGKRZSA-N

> <FORMULA>
C14H23N2O7P

> <MOLECULAR_WEIGHT>
362.3154

> <EXACT_MASS>
362.124287612

> <JCHEM_ACCEPTOR_COUNT>
8

> <JCHEM_AVERAGE_POLARIZABILITY>
34.91550735068837

> <JCHEM_BIOAVAILABILITY>
1

> <JCHEM_DONOR_COUNT>
5

> <JCHEM_FORMAL_CHARGE>
0

> <JCHEM_GHOSE_FILTER>
0

> <JCHEM_IUPAC>
(2S)-2-[({3-hydroxy-2-methyl-5-[(phosphonooxy)methyl]pyridin-4-yl}methyl)amino]hexanoic acid

> <ALOGPS_LOGP>
-0.29

> <JCHEM_LOGP>
-2.6834681617436686

> <ALOGPS_LOGS>
-2.72

> <JCHEM_MDDR_LIKE_RULE>
0

> <JCHEM_NUMBER_OF_RINGS>
1

> <JCHEM_PHYSIOLOGICAL_CHARGE>
-2

> <JCHEM_PKA>
1.9905381811640965

> <JCHEM_PKA_STRONGEST_ACIDIC>
1.1914235472800452

> <JCHEM_PKA_STRONGEST_BASIC>
10.075141417731382

> <JCHEM_POLAR_SURFACE_AREA>
149.21

> <JCHEM_REFRACTIVITY>
85.7148

> <JCHEM_ROTATABLE_BOND_COUNT>
10

> <JCHEM_RULE_OF_FIVE>
1

> <ALOGPS_SOLUBILITY>
6.87e-01 g/l

> <JCHEM_TRADITIONAL_IUPAC>
(2S)-2-[({3-hydroxy-2-methyl-5-[(phosphonooxy)methyl]pyridin-4-yl}methyl)amino]hexanoic acid

> <JCHEM_VEBER_RULE>
0

> <DRUGBANK_ID>
DB02981

> <SECONDARY_ACCESSION_NUMBERS>
EXPT02715

> <DRUG_GROUPS>
experimental

> <GENERIC_NAME>
Vitamin B6 Complexed with 2-Amino-Hexanoic Acid

$$$$
