936
  -OEChem-07251913343D

 15 15  0     0  0  0  0  0  0999 V2000
   -2.3940    1.1116   -0.0088 O   0  0  0  0  0  0  0  0  0  0  0  0
    1.7614   -1.2284   -0.0034 N   0  0  0  0  0  0  0  0  0  0  0  0
   -2.4052   -1.1814    0.0027 N   0  0  0  0  0  0  0  0  0  0  0  0
   -0.2969    0.0397    0.0024 C   0  0  0  0  0  0  0  0  0  0  0  0
    0.4261    1.2273    0.0039 C   0  0  0  0  0  0  0  0  0  0  0  0
    0.4117   -1.1510   -0.0013 C   0  0  0  0  0  0  0  0  0  0  0  0
    1.8161    1.1886    0.0018 C   0  0  0  0  0  0  0  0  0  0  0  0
   -1.7494    0.0472    0.0045 C   0  0  0  0  0  0  0  0  0  0  0  0
    2.4302   -0.0535   -0.0018 C   0  0  0  0  0  0  0  0  0  0  0  0
   -0.0720    2.1930    0.0070 H   0  0  0  0  0  0  0  0  0  0  0  0
   -0.0488   -2.1309   -0.0033 H   0  0  0  0  0  0  0  0  0  0  0  0
    2.4005    2.1016    0.0029 H   0  0  0  0  0  0  0  0  0  0  0  0
    3.5119   -0.1381   -0.0035 H   0  0  0  0  0  0  0  0  0  0  0  0
   -1.9562   -2.0884    0.0084 H   0  0  0  0  0  0  0  0  0  0  0  0
   -3.4202   -1.2053   -0.0028 H   0  0  0  0  0  0  0  0  0  0  0  0
  1  8  2  0  0  0  0
  2  6  1  0  0  0  0
  2  9  2  0  0  0  0
  3  8  1  0  0  0  0
  3 14  1  0  0  0  0
  3 15  1  0  0  0  0
  4  5  1  0  0  0  0
  4  6  2  0  0  0  0
  4  8  1  0  0  0  0
  5  7  2  0  0  0  0
  5 10  1  0  0  0  0
  6 11  1  0  0  0  0
  7  9  1  0  0  0  0
  7 12  1  0  0  0  0
  9 13  1  0  0  0  0
M  END
> <DATABASE_ID>
DB02701

> <DATABASE_NAME>
drugbank

> <ORIGINAL_SOURCE>
PUBCHEM

> <ORIGINAL_SOURCE_URL>
https://pubchem.ncbi.nlm.nih.gov/rest/pug/compound/inchikey/DFPAKSUCGFBDDF-UHFFFAOYSA-N/SDF?record_type=3d

> <SMILES>
NC(=O)C1=CN=CC=C1

> <INCHI_IDENTIFIER>
InChI=1S/C6H6N2O/c7-6(9)5-2-1-3-8-4-5/h1-4H,(H2,7,9)

> <INCHI_KEY>
DFPAKSUCGFBDDF-UHFFFAOYSA-N

> <FORMULA>
C6H6N2O

> <MOLECULAR_WEIGHT>
122.1246

> <EXACT_MASS>
122.048012824

> <JCHEM_ACCEPTOR_COUNT>
2

> <JCHEM_ATOM_COUNT>
15

> <JCHEM_AVERAGE_POLARIZABILITY>
11.711267443233845

> <JCHEM_BIOAVAILABILITY>
1

> <JCHEM_DONOR_COUNT>
1

> <JCHEM_FORMAL_CHARGE>
0

> <JCHEM_GHOSE_FILTER>
0

> <JCHEM_IUPAC>
pyridine-3-carboxamide

> <JCHEM_LOGP>
-0.3937863166666665

> <JCHEM_MDDR_LIKE_RULE>
0

> <JCHEM_NUMBER_OF_RINGS>
1

> <JCHEM_PHYSIOLOGICAL_CHARGE>
0

> <JCHEM_PKA_STRONGEST_ACIDIC>
13.385761887715242

> <JCHEM_PKA_STRONGEST_BASIC>
3.634895404358332

> <JCHEM_POLAR_SURFACE_AREA>
55.980000000000004

> <JCHEM_REFRACTIVITY>
32.979499999999994

> <JCHEM_ROTATABLE_BOND_COUNT>
1

> <JCHEM_RULE_OF_FIVE>
1

> <JCHEM_TRADITIONAL_IUPAC>
nicotinamide

> <JCHEM_VEBER_RULE>
0

> <DRUGBANK_ID>
DB02701

> <SECONDARY_ACCESSION_NUMBERS>
EXPT02307

> <DRUG_GROUPS>
approved; investigational

> <GENERIC_NAME>
Nicotinamide

> <SYNONYMS>
3-pyridinecarboxamide; Niacinamide; Nicotinamida; Nicotinamide; Nicotinamidum; Nicotinic acid amide; Nicotinic amide; Î²-pyridinecarboxamide

> <PRODUCTS>
50 Plus Multiple Vitamins & Minerals; A.H.C. C-cream; A.H.C. C-serum; A.H.C. C-toner; A.H.c Cotton 100 Mask Multi Peptide; A.H.c Cotton 100 Mask Skin Ceramide; A.H.c Cotton 100 Mask Soy Isoflavone; A.H.c Cotton 100 Mask Triple Hyaluronic; AAPE Continuous Renewal; AAPE Continuous Renewal Eye; AAPE Continuous Renewal Mask; AAPE Continuous Renewal Serum; AAPE Nutrient Facial Toner; AAPE Skin Ampoule; ABALONE CrystalDouble EX; ABALONE CrystalDouble EX SERUM; ACTIBEAU Intensive Moisturizing Facial Mask; AHA 7 Whitehead Power Liquid; AHC Revitalizing Special Gen Cream; AHC Revitalizing Special Gen Mask; AHC Revitalizing Special Gen Serum; AHC Revitalizing Special Gen Solution; AHC Vital C Complex Mask; AHC Whitening Special Gen Cream; AHC Whitening Special Gen Serum; AHC Whitening Special Gen Solution; ALA-C Snail Cell Reparing Essence; AQUTOP Moisturizing Signature Tone-up Cream; ARMIYOU HYDROGEN 1.5mL; ARTEMES 3R Effect Hyaluronic Ampoule; ATONO2 Oxygen Mothers Cream; Abalone Aqua Flood Water; Abalone Crystaldouble EX Bb; Abalone Crystaldouble EX Cc; Abalone Crystaldouble EX Homme; Abalone Homme Face; Acropass Trouble Cure; Active FE; Adapalene 0.1% / Benzoyl Peroxide 2.5% / Niacinamide 4%; Adapalene 0.3% / Benzoyl Peroxide 2.5% / Niacinamide 4%; Adapalene 0.3% / Niacinamide 4%; Adrenergy Tablets; Adult Formula 50+; Adult Infuvite Multiple Vitamins; Advanced B & T Formula; Ahc Premium Vital C Complex Cellulose Mask; Alertonic; Alkadrenergy Tablets; All Deep Multi; All New TS; Allbee C 800 Tab; Allbee With C 550 Cap; Allbee With Vitamin C Cap; Allvit Revital Up; Alsimine W Vitamins A D; Always Bright Spot Lumedic; Am Caps; Ambling Plant Probiotics Aqua Role Moisturizing; Ambling Plant Probiotics Balance Ampoule; Ambling Plant Probiotics Into Nature Essence I; An Adc Sp Intensive Moisture Essence; Anaplex Tab; Animal Shapes w/Iron Chewtabs; Antibe Beausenne Special Ampoule; Aplin Spot All Kill; Aplin Spot Remover; Appedrine; Aprilskin Magic Snow Fixing Foundation 22 Pink Beige; Aprilskin Magic Snow Fixing Foundation 23 Natural Beige; Aqua Bab Modeling Mask; Aqua Collagen Multi Vitamin Hydro Mask; Aqua Collagen Solu Tion Marine Hydroge L Eye Crea M Mask; Aqua Collagen Solu tion Multi Vitamin Hydroge l Mask; Aquatide Resurface Serum; Aquatide Soothing Lifting Mask; Are You The Real Kung Fu Panda Mask; Are You The Real Poppy Mask; Armax; Armiyou Hydrogen; Artemes 3R effect hyaluronic mask; Ascorbyl Palmitate 2% / Hyaluronic Acid Sodium Salt 0.2% / Niacinamide 5% / Tretinoin 0.025%; Azelaic Acid 15% / Niacinamide 4%; B 50 Capsules; B C Antistress Cap; B Complex 25mg Vitamin Supplement; B Complex 50 Vitamin Cap; B Complex 50+ Caplet; B Complex 500 Tab; B Complex Plus C 300mg Tab; B Complex Tablets; B Complex W C Forte Cap; B Complex W C and B12 Inj; B Complex W Vit C W Non-med Yeast&liver Tab; B Complex W Vitamin C Fortis Cap; B Complex With C 300mg; B Complex With C 300mg Tab; B Complex With C 550mg; B Compound 50mg Tab; B Plus C 300 mg; B Plus C 300mg Timed Release; B Stress C + Iron & Vite; B Totum 500; B Virol; B Vitamin Compound With B12 Thunas; B With C 500 Cap; B-100 Caps; B-100 Complex Tablets; B-100 Hi Potency B Vitamins Tab; B-100 Vitamin Supplement; B-50 Complex; B-50 Complex Tab; B-50 Hi Potency B Vitamins Tab; B-Combo; B-complex; B-complex 100; B-complex 50; B-complex Tab; B-complex Tablets; B-complex With Vitamin C, Biotin, Folic Acid; B-plex; B-plex 100; B-plus - Tab; B.E.T. Complex; B50 B Complex Tab; B50 Complex; B6-niacinamide Tab; BANILA CO It Radiant CC Tone up; BHA Blackhead Power Liquid; BK Cell 5DAYS OF SECRET SNOW WHITENING; BOTANIC HEAL boH 360 Lifting Solu tion; BOTANIC HEAL boH Air Jet Daily Mask Panthenol; BOTANIC HEAL boH Derma Defense All In One Essence; BOTANIC HEAL boH Derma Intensive Energy Essence; BOTANIC HEAL boH Derma Intensive Panthenol; BOTANIC HEAL boH Gauze Hydra Solu tion; BRING GREEN Artemisia Calming Intensive Serum; BRING GREEN Artemisia Calming Repair; Bacmin; Baegayul Honeysuckle Hydroge l Mask; Baegayul Peony Essence; Baegayul Peony Face Mist; Baegayul Peony Moisturizing; Baegayul Peony Toner; Bal-Care DHA; Bal-Care DHA Essential; Balanced B 125 Srt; Balanced B-100 B-complex Vitamins Tab; Balanced B-100 Timed Release; Balanced B-50 B-complex Vitamins Tab; Balanced B-50 B-complex Vitamins, Timed Rele; Balanced B-50 Complex; Balanced B-complex Vit + Vit C&e Tab; Balanced B100; Balanced B50 Complex; Banobagi Milk Thistle Repair; Banobagi Milk Thistle Repair Serum; Banobagi Milk Thistle Repair Toner; Banobagi Vita Cocktail Foil Mask Age; Banobagi Vita Cocktail Foil Mask Aqua; Banobagi Vita Cocktail Foil Mask Brightening; Barox White Golf; Barox White Magic; Barox White Magic Extra Repair Serum; Barox White Magic Mask; Bellaskin Brightening Contour Essence; Beminal Fortis Elx; Beminal W C Fortis Inj; Beminal With C Fortis Cap; Beminal With C Fortis Pws; Benzoyl Peroxide 2.5% / Clindamycin 1% / Niacinamide 2% / Tretinoin 0.025%; Benzoyl Peroxide 2.5% / Clindamycin 1% / Niacinamide 4%; Benzoyl Peroxide 2.5%, Clindamycin Phosphate 1%, Niacinamide 2% / Tretinoin 0.05%; Benzoyl Peroxide 5% / Clindamycin 1% / Niacinamide 2% / Spironolactone 2%; Benzoyl Peroxide 5% / Clindamycin 1% / Niacinamide 2% / Spironolactone 2% / Tretinoin 0.025%; Benzoyl Peroxide 5% / Clindamycin 1% / Niacinamide 2% / Spironolactone 2% / Tretinoin 0.05%; Benzoyl Peroxide 5% / Clindamycin 1% / Niacinamide 2% / Tretinoin 0.05%; Benzoyl Peroxide 5% / Clindamycin 1% / Niacinamide 2% / Tretinoin 0.1%; Benzoyl Peroxide 5% / Clindamycin 1% / Niacinamide 4%; Benzoyl Peroxide 5% / Clindamycin1% / Niacinamide 2% / Tretinoin 0.025%; Benzoyl Peroxide 5% / Niacinamide 2% / Tretinoin 0.025%; Benzoyl Peroxide 8% / Niacinamide 4%; Betamethasone Dipropionate 0.05% / Minoxidil 5% / Niacinamide 2% / Pentoxifylline 0.5%; Betamethasone Dipropionate 0.05% / Niacinamide 4%; Bev B-150; Bio-fen; Biovim Tab; Biovita; Birds Nest Forever Young Multi Care Lifting; Blue Tok Tok Tok All In One Capsule Essence; Body Rox; Bonnoir Hair Medi; Botanic Heal Boh Derma Intensive Cica Panthenol Ampoule; Botanic Heal Boh Derma Intensive Panthenol Cre Am Mist; Botanic Heal Boh Derma Shot Vitamin All In One Essence; Botanic Heal Boh Derma Shot Vitamin Eye; Botanic Heal Boh Probioderm Repair Ampoule Serum; Botanic Heal Boh Probioderm Repair Lifting; Botanic Heal boH 360 Lifting So lution; Botanic Heal boH Air Jet Daily Mask Panthenol; Botanic Heal boH All In One Bright So lution; Botanic Heal boH Gauze Hydra So lution; Botanic Twenty Hypercare Essence; Botanic Twenty Hypercare Nourishing; Botanic Twenty Light Watery; Botanic Twenty Recharging; Botanic Twenty Recharging Toner; Breast Essence III; Brightuning Peptide Ampoule; Brimonidine Tartrate 0.25% / Ivermectin 1% / Metronidazole 1% / Niacinamide 4%; Bring Green Carrot Vita Dark Spot Serum; Bring Green Fresh Mask Lemon; Brucke A.C.C. Cure Ampoule; Brucke Keep Cooling Hydrogel Soothing Mask; Buddate Lotus Moisture Essence; Bugs Bunny Chew Multi Vit Plus Iron; Bugs Bunny and Friends Multiple Vitamins; Bulgarian Rose Mist; Bulgarian Rose Sleeping Pack; By Selected Hyaluron Day Serum; C-B Complex; C. Vit-min Formula; CAVIALL Wrinkle-Free PowerTox; CELDERMA Crystal Skin Mask; CELDERMA Ninetalks Hydrogel Eye Patch; CELDERMA Ninetalks Hydrogel Eye Patch Box; CELDERMA Ninetalks Hydrogel Mask; CELDERMA Pearl Lace Hydrogel Mask; CELLSTORY Plus Cell Activator Ampoule; CELLSTORY Plus Cell Awake Essence; CELLSTORY Plus Cell Calming Mask; CELLSTORY Plus Cell Fluid; CELLSTORY Plus Cell Recovery; CELLSTORY Plus Cell Ultra; CELLSTORY Plus Cellplant Meso Care; CHAGA Anti Wrinkle Eye with fermented chaga extract; CHAGA Anti Wrinkle Skin with fermented chaga extract; CHAGA Anti Wrinkle with fermented chaga extract; CIZAR First Calming Serum; CRE AM2ATE Knight Seahorse; CRE AM2ATE Queen Snow Lotus; Calcipotriene 0.005% / Diclofenac Sodium 3% / Hyaluronic Acid Sodium Salt 2% / Niacinamide 2%; Calcipotriene 0.005% / Niacinamide 4%; Camellia Air Cushion 21 SPF50 PA; Camellia Air Cushion 22 SPF50 PA; Camellia CC Cream 21 SPF45 PA; Camellia CC Cream 22 SPF45 PA; Camellia Calming Sleeping Mask; Camellia Cooling CC 21 SPF50 PA; Camellia Cooling CC 22 SPF50 PA; Camellia Vital Dual Serum; Camellia Wrinkle Free Eye; Capture C-Brightening Ampoule; Capture Collagen Ampoule; Carbassist Tablets; Carione Rg; Cavan Alpha; Cavan Folate DHA; Cavan Folate OB; Cavan-EC SOD DHA; Caviall Real Caviar Multi-perfection O2 Serum; Cedevita Plus Vitamin Supplement; Cedevita Sugar-free Vitamin Supplement; Cell Power; Cell Power Day; Cell Power Essence; Cell Power Essential Skin; Cell Power Eye; Cell Power Night; Cell Renew Bio; Cell Renew Bio Toner; CellStin Ampoule Black; CellStin Micro Ampoule White; Cellapy A.Repair Plus; Cellapy Haircell; Cellmov Cell Line Mask; Cellpium Real Mask Pack; Cellpium double essence toner; Cellpium premiumEX hybrid essence; Cellpium premiumEX hybrid toner; Cellpium super richness ampoule; Celonia CM; Centella 70; Centella 80 Eye; Centella 90 Ampoule; Centella Reviving Toner; Centella and Green Tea Callus Mask; Central-vite 18 Essential; Centratex; Century Complete; Chela Iron Plus C,b Complex; Chela Potassium Plus; Chela-chromium 200; Chew.multiple Vits.with Extra C for Children; Chewable Multiple Vit Plus Iron for Children; Chewable Multiple Vitamins Plus Extra C; Chewable Multiple Vitamins Plus Iron Tab; Chewable Multiple Vitamins Tab; Chewable Multiple Vitamins for Children; Chewable Multivitamins; Chewable Multivitamins Plus Iron; Children Choice Multivit Chewable Tab; Children Choice Multivitamin W Iron Chew Tab; Children's Chew Multi & Min Tab; Children's Chewable Multi Vit W Iron; Children's Chewable Multi Vitamins; Children's Chewable Multi Vitamins With Iron Tablets; Children's Chewable Multi-vitamin; Children's Chewable Multi-vitamin Complete With Minerals; Children's Chewable Multiple Vit.plus Iron; Children's Chewable Multiple Vitamins (chewable Tablets); Children's Chewable Multiple Vitamins - Tab; Children's Chewable Multiple Vitamins With Extra Vitamin C (chewable Tablets); Children's Chewable Multiple Vitamins With Iron Tablets (chewable Tablets); Children's Chewable Multivitamin and Multimineral; Children's Chewable Tab; Children's Chewable Vit and Min Tab; Children's Vitamins Chewable; Children's Vitamins W Iron Chewable; Childrens Chew Multi Vitamin Tab; Childrens Chewab Vitamin W Chel Minerals; Childrens Chewable Multiple Vitamins; Childrens Chewable Multiple Vitamins Plus Fe; Childrens Chewable Multiple Vitamins Tab; Childrens Chewable Multiple Vitamins W.iron; Childrens Chewable Multivitamins; Childrens Chewable Multivitamins W Iron; Childrens Chewable Tab; Childrens Chewable Vitamin Tab; Childrens Chewable Vitamins; Childrens Chewable Vitamins W Iron; Childrens Multiple Vit and Min Chew Tab; Choice OB DHA; CitraNatal 90 DHA; CitraNatal Assure; CitraNatal DHA; CitraNatal Rx; Claon All 4 Cleanser; Clapiel Hyalon Serum; Classic Swiss One 10 Multivitamin and Mineral Tab; Clerian; Clerian Anti-Hairloss; Clerian H; Clindamycin 1% / Hydrocortisone 2.5% / Niacinamide 4%; Clindamycin 1% / Niacinamide 2% / Tazarotene 0.05%; Clindamycin 1% / Niacinamide 4%; Clindamycin 1% / Niacinamide 4% / Spironolactone 2% / Tretinoin 0.025%; Clindamycin 1% / Niacinamide 4% / Tretinoin 0.025%; Clindamycin 1% / Niacinamide 4% / Tretinoin 0.05%; Clobetasol Propionate 0.05% / Niacinamide 4%; Complete Mega B; Complete Multivitamins and Minerals Tablets Timed Release; Complete Multivitamins and Minerals for Children; Complete Natal DHA; Complete-RF Prenatal; CompleteNate Chewable; Complex-75; Complexe B 75mg; Complexe B Compose 75; Complexe B-75; Congju Princess Eye and Neck; Corvita; Corvite; Corvite Free; Costem cell 5 N; Croq-vit Pour Enfants; DPC Aura Booster Mask; DPC Dual Master Vitamin C; DPC Noblesse Suta Eye; DPC Skin Up Perfection; DPC Whitening Booster Mask; DRH Whitening G2 Serum; Daily Energy Brand B-complex; Daily Whitening Care Sheet Mask; Dalivit; Dapsone 6% / Niacinamide 2% / Spironolactone 5%; Dapsone 6% / Niacinamide 2% / Tretinoin 0.025%; Dapsone 6% / Niacinamide 4%; Dapsone 8.5% / Niacinamide 2% / Spironolactone 5%; Dapsone 8.5% / Niacinamide 2% / Tretinoin 0.025%; Dapsone 8.5% / Niacinamide 4%; De medicotem illuminating white cell ampoule; Deriton; Derma First Mask; Derma-force; DermaNIC; Desoximetasone 0.05% / Niacinamide 4%; Dexatrim Tablets; Dexifol; Dht X Hairloss; Dht X Scalp T; Dia-vite; Dialyvite; Dialyvite 3000; Dialyvite 5000; Dialyvite Supreme D; Dialyvite with Zinc; Diaplex; DoctorsLab Returning Platinum Mask; DoctorsLab Returning Platinum Neck; Doll Lash; Dong Sung Anti-Hair Loss; Dong Sung Monelyn; Dr Cellinme Mask Sheet; Dr Cellinme Skin Care Ampoule; Dr JmeeLab Double Complex Black Mask; Dr JmeeLab Double Complex Smile Zone; Dr. Cellmo; Dr. Color Effect Red; Dr. Gloderm Tabrx Liftup; Dr. Gloderm Tabrx Liftup Mask; Dr. Gloderm Tabrx Whitening; Dr. Gloderm Tabrx Whitening Mask; Dr. Gloderm Time To Liftup Mask; Dr. Gloderm Time To Whitening Mask; Dr. Pepti CENTELLA TONER; Dr. Pepti INTENSIVE; Dr.G Brightening Up Cushion SPF50 Plus PA Plus Plus Plus; Dr.Jart Dermask Micro Jet Clearing Solution; Dr.althea Aurora Cover Cushion 21; Dr.althea Power Whitening Glutathione; Dr.g Hydra Volume; Dr.g Lock and More A-clear Mask; Duet DHA; Duet DHA 400; Duet DHA 400 ec; Duet DHA Balanced; DuetDHA Balanced; DuetDHA Complete; Dynam Ampoule Et Tablet; E.S.T. Complex; EASYDEW DW EGF Derma Oneshot Ampoule; EH Hair Plus Regeneration Hair Care; Earthpals Children's Chewables Multi-vitamin & Mineral Tablets; Easydew EX Repair Control Active Soothing Serum; Easydew EX Repair Control Renewal Moisture; Econazole Nitrate 1% / Niacinamide 4%; Ecosom Tonic; Edge Cutimal Cat Whitening Mask; Edge OB; Efferlife Multivitamins and Minerals; Elastine Hair Gain; Elastine Hair Gain Scalp Antiaging Conditioner; Elastine Hair Gain Treatment; Elite OB Prenatal Multivitamin; Ellis Tonic; Emmune Perfect; Emmune Repair; Emp Collagen Boost; Enrich Core Pack - Children Vitamin and Mineral Supplement; Enviroflex - Tab; Escavite; Essential B Tablets; Essential Vitamins and Minerals; Everyday Multiple Vitamins; Everyday Multiple Vitamins With Iron; Ez-flex; FRESH MANDARIN AROMATHERAPY MASK 27g; Fem Time Tab; Feminique W Iron and Calcium Tab; First C Waterfall; Fizz Multivitamins for Kids W C Loz; Flinstones Multiple Plus Iron; Flintstones Multiple Vitamins; Flintstones Multiple Vitamins Plus Iron; Flintstones Multiple Vitamins Tab; Flintstones W Extra C Tab; Floriva; Floriva Plus; Fluocinolone Acetonide 0.01% / Niacinamide 4%; Fluocinolone Acetonide 0.01/ Niacinamide 4; Fluticasone Propionate 0.05% / Niacinamide 4%; Focalgin 90 DHA; Focalgin CA; Folcaps Care One; Folet DHA; Foltabs Prenatal; Foltabs Prenatal Plus DHA; For Kids Only Chewable Multivit. Plus Iron; For Kids Only Chewable Multivitamins - Tab; For-2; Forestheal Eye; Forestheal Vitamin C Moisturizer; Forestheal Vitamin C Serum; Forestheal Whipping Foa m Cleanser; Forestheal Witch Hazel Facial Toner; Formula 6100 Cap; Formula 9 Tab; Formula Cm; Formula Cp Cap; Formula Cw; Formula Cw-caplet; Formula D.S.; Formula F L W; Formula Gly; Formula Gm; Formula Hh; Formula Js; Formula Pro-B; Fortamines 10 Capsules; Fortamines-10 Comprimes; Fortaplex Inj; Forty Plus Vitamin Supplement; Fresh Mandarin Aromatherapy Mask; Frudia Citrus Brightening; Frudia Citrus Brightening Mask; Frudia Citrus Brightening Toner; GALACTOMYCES 80 Contouring EYE; GD11 Rx SCM S; GINSENG ROYAL SILK AMPOULE 17mL 4ea; Galactomyces 70; Galactomyces 90 Ampoule; Galactomyces 95 Whitening Power Essence; Galactomyces First Essence; Galactomyces Radiance Toner; Galactomyces and Rice Callus Mask; Garfield Chewable Multivits Plus Iron Tab; Gd11 Advanced Lab Energy Ampoule; Gem Miracle Black Pearl O2 Whitening; Gem Miracle Black Pearl O2 Whitening Snow Serum; Gem Miracle Black Pearl O2 Whitening Toner; Gemvites Jr Tab Chewable; Gentle Therapy; Geritol Liquid; Gestamine Comprimes; Ggulba Mask; Ginseng; Ginseng Berry 80 Eye Essence; Ginseng Berry 80 Overnight Mask; Ginseng Berry and Ginseng Callus Mask; Ginseng Royal Silk; Ginseng Royal Silk 120ml; Ginseng Royal Silk Ampoule; Ginseng Royal Silk Boosting Ampoule; Ginseng Royal Silk Cap Sule Essence; Ginseng Royal Silk Eye 25ml; Ginseng Royal Silk Gold Hydroge L Mask; Ginseng Royal Silk Gold Hydroge L Mask 10p; Ginseng Royal Silk Gold Hydroge L Mask 5p; Ginseng Royal Silk Toner; Ginseng Royal Silk Toner 120ml; Ginseng Royal Silk Watery 60g; Ginseng Royal Silk Wrinkle Up Spot; Ginseng Whitening; Globucel - Methode; Glyco Lite Ect; Glyco Plus Ect; Glyco-aide Tab; Grand Master Formula Tab; Great Day/am Formula Tab; Green Propolis 90 Ampoule; Green Tea Eye Ge l; Green Tea Eye Ge l 1.4g; Green Toner; Greentinol Multi Toner; H ALPHA 30 Skin; HANSKIN BiO CLEAR PEP MASK Brightening and Moisture; HANSKIN BiO FILL PEP MASK Firming and Moisture; HANSKIN BiO POWER PEP MASK Moisture and Vitality; HASOL Intensive Scalp Tonic; Hair-loss Recovery Conditioner; Hanskin Bio Origin The; Hanskin Bio Prism Brightening Alpha Serum; Hanskin Real Complexion; Hanskin Real Complexion Cre Am EX; Hanskin Super Three Solu Tion Vita Brightening Sheet Mask; Hanskin Vistra toner mask pad; Hanskin Vstra toning water radiance; Hasol Anti Hair loss day tonic; Hasol Anti hair loss day tonic; Hello Care Anti-wrinkle Ampoule Mask; Hello Care Moisturizing Ampoule Mask; Hello Care Pore and Sebum Ampoule Mask; Hello Care Whitening Ampoule Mask; Hemarexin Amp; Hemarexin Liquid and Drinkable Ampoules; Hemarexin Tab; HemeNatal OB; HemeNatal OB plus DHA; Hesol Rim; Hesol Rim Jean-Aeck Hair tonic; Hesol Rim Tonic; Hi Hanji; Hi Potency B52 B Complex Tab; Hi Potency Balanced B-100 Complex - Tab; Hi Potency Multi Tab; Hi Potency Stress B Tension With C; High Potency Multivitamins & Minerals Caplets; High Potency Vitamin B Complex + C Tab; Hill.vite; Honesi exofila; Honesi exofila crea m; Hormodausse Plus Calc Et D Tab; Hyalu Plus Up Mask; Hyaluronic Acid Sodium Salt 0.5% / Niacinamide 4% / Tretinoin 0.025%; Hyaluronic Acid Sodium Salt 0.5% / Niacinamide 4% / Tretinoin 0.05%; Hyaluronic Acid Sodium Salt 0.5% / Niacinamide 4% / Tretinoin 0.1%; Hyaluronic Acid Sodium Salt 1% / Niacinamide 4% / Tacrolimus 0.1%; Hyaluronic Acid Sodium Salt 2% / Mometasone Furoate 0.1% / Niacinamide 4%; Hydra Extra ConcentrateSerum; Hydra Moisture Day and Night; Hydrating All in one glow concentate ampoule; Hydro Multi-shield; HydroGold 9; Hylavite; Hypo Vites Tab; Hyporyl - Tab; IDENEL Light R Tox Daily; IDENEL Revitalizing Eye; INATAL Ultra; INCELLDERM Cocktail Aqua BB; INCELLDERM Vallatto Oi l Mist; ISTINA Intense Revitalizing Serum; ISTINA Nourishing Age-defying Hydration Cream; ISTINA Radiating Anti-Wrinkle Eye Serum; Iberet 500; Ideal Tone Up Glow Bb; Imiquimod 5% / Levocetirizine Dihydrochloride 1% / Niacinamide 2%; Imiquimod 5% / Levocetirizine Dihydrochloride 1% / Tretinoin 0.05%; Imiquimod 5% / Niacinamide 4%; Inatal Advance; Incellderm Active; Incellderm Dermatology Booster; Incellderm Dermatology Serum; Infa Drops Multivitamins; Infant Multivitamin Drops; Infantol Drops; Infuvite Adult Multiple Vitamins; Insur-all Vitamin Supplement; Intensive Bubble Essence; Intensive Tone Up; Intensive Tone Up Body; Iron Polysaccharides Folic Acid DHA; Iron, Vit & Min Supp; Isotonix Multitech Vitamin Mineral Supplemen; Ivermectin 1% / Metronidazole 1% / Niacinamide 4%; J9 Ultra Advanced Intensive Scalp Serum V2; JAYJUN GOLD SNOW BLACK MASK 25mL; Jayjun Anti Dust Brightening Mask 01 Jayjun Anti Dust Luminous Mask; Jayjun Anti Dust Brightening Mask 02 Jayjun Anti Dust Luster Ample; Jayjun Baby Pure Shining Mask Step2 Baby Pure Shining Mask; Jayjun Collagen Skin Fit Mask Step 01 Hyaluronic Acid Essence; Jayjun Collagen Skin Fit Mask Step 02 Collagen Skin Fit Mask; Jayjun Collagen Skin Fit Mask Step 02 Plant Stem Cell Mask; Jayjun Essential Brightening Mask; Jayjun Gold Snow Black Mask; Jayjun Gold Snow Time Solu Tion Eye; Jayjun Honey Dew Green Mask; Jayjun Honey Dew Purple Mask; Jayjun Honey Dew Red Mask; Jayjun Intensive Shining; Jayjun Intensive Shining Eye; Jayjun Intensive Shining Mask Step 02 Intensive Shining Mask; Jayjun Intensive Shining Toner; Jayjun Multi Vita Tone Up Mask; Jayjun New Real Water Brightening Black Mask Step 02 New Vita Snow Essence; Jayjun New Real Water Brightening Black Mask Step 03 New Real Water Brightening Black Mask; Jayjun Pollution Proof Luminous Mask; Jayjun Real Water Brightening Black; Jayjun Real Water Brightening Black Mask Step 02 Vita Snow Essence; Jayjun Real Water Brightening Black Mask Step 03 Real Water Brightening Black Mask; Jayjun Real Water Brightening Black Mask Step2 Jayjun Vita Snow Essence; Jayjun Real Water Brightening Black Mask Step3 Real Water Brightening Black Mask; Jayjun Real Water Brightening Black Sleeping Pack; Jayjun Real Water Brightening Black Toner; K.L. Vitamin-mineral; Kanga Sport Vitamins B & C Plus Minerals; Kanga-B Vitamin B Group + C; Kanga-V Multivitamins & Minerals; Kanga-kid Multi-vitamin & Mineral; Karatica I M Cure; Kenwood Liquid Supplement; Ketoconazole 2% / Niacinamide 4%; Kid's Choice Children's Chewable Vitamins - Tab; Kids Stuff Tablets; Kids Stuff With Iron Tablets; Kimchi Vitamin chewable multivitamin; L-Methyl PNV DHA; L.C. Supplement; L.G.I.T.; LA FEMME V Feminine Cleanser; Lactic Acid 10% / Niacinamide 4%; Lancell hair loss prevention hair grower clean formula; Lancell hair loss prevention hair grower tonic; Lebody Bu W Renewal Up; Lebody Lab Renewal Dual Effect 24k Gold Serum; Lebody Lab Renewal Dual Effect Btx Collagen Serum; Lebody Lab Renewal Dual Effect Hyaluronic Serum; Lebody Lab Renewal Dual Effect Idebenone Serum; Lebody Lab Renewal Dual Effect Peptide Serum; Lecinq Prebenone Serum; Leritone Junior; Limulus Bio Cellulose Mask; Limulus Deep Sea Moisture; Limulus The 1 and Only; Lip And Hand Camellia; Lip And Hand Shea Butter; Lip And Hand Wild Rose; Lipovite; Liqui B Complex; Liqui B Complex Plus; Liqui Infant Vitamins; Liqui Vita; Liquid B Complex 50; Livron Plus Ampoule; Livron Plus Tab; Lorid; Low Potency B Complex Tab; LuBi AMPOULE; Lysamine Diet Supp Amp-tab; M.V.I. 12; M.V.I. Adult; M.V.I. Paediatric; M.V.I. Pediatric; M.V.I.-12; MD CELL Scalp; MD CELL Solution; MEDIUS Heart Ppyoung Ppyoung Eye; MINOXIDIL 7% / NIACINAMIDE 4% s; MIRACLETOX EXCLUSIVE Vita9 Collagen Serum; MIRACLETOX Time Rewind Advanced Essential Toner; MIRACLETOX Time Rewind Advanced Feel; MIRACLETOX Time Rewind Advanced Lifting Ampoule; MIRACLETOX Time Rewind Advanced Lifting Ampoule 40mL; MIRACLETOX Time Rewind Advanced Mask; MIRACLETOX Time Rewind Advanced Meso Tox; MIRACLETOX Time Rewind Advanced TOX Ampoule; MIRACLETOX Time Rewind Beyond Feel; MIRACLETOX Time Rewind Beyond Mask; MIRACLETOX Time Rewind Beyond TOX Ampoule; MIRACLETOX Time Rewind Perfection Feel; MIRACLETOX Time Rewind Perfection Mask; MIRACLETOX Time Rewind Perfection TOX Ampoule; MISSHA Time Revolution Immortal Youth Blue Essence; MISSHA Time Revolution Night Repair Science Activator Ampoule; MISSHA Time Revolution The First Treatment Essence Intensive; MIZON ENJOY VITAL UP TIME Whitening Mask; MU LAB TURN AROUND 2W Refresh Ex; MULBIT Aqua Mask Pack; MULBIT Collagen Mask Pack; MULBIT Donkey Milk Mask; MULBIT Donkey Milk Moisturizing; MULBIT Firming Mask Pack; MULBIT Hydro Special Ample; MYNEPHROCAPS DIALYSIS/STRESS Vitamin Supplement; Madeca; Madeca Derma Intensive Vital Crea m; Madeca Derma Mask; Madeca Derma Mask II; Madeca Derma Ultra Moisture Hydroge l Mask; Maintain Multiple Vitamin & Minerals; Maltlevol 12 Liq; Maltlevol Liq; Manefit Beauty Planner Lily Brightening Eye Mask; Manefit Beauty Planner Lily Whitening Brightening Mask; Manefit Beauty Planner Lily Whitening Eye Patch; Manefit Bling Bling Whitening Platinum Hydrogel Mask; Manefit Bling Bling Wrinkle Gold Hydro Gel Mask; Mari Huana Real Natural Sparkle Essence; Mari Huana real nature hemp seed; Marnatal F; Master Key Multi Vitamin Multi Mineral Formula 2; Materna; Materna - Tab; Materna-tab; Maxclinic Deep and Deeper Meso Change Ampoule; Maxclinic Miraclinic Contour Ing Object; Maxi 10 Tab; Maxi 6 Liq; Maxine Vitamin and Mineral Supplement; Medi All 4 Cleanser; Medi All 4 Cleanser (NIACINAMIDE); Medi Hydro DP B Tox Ampoule; Medi Hydro DP BB Cream; Medi Hydro DP Cream; Medi Hydro DP Emulsion; Medi Hydro DP Stem C Ampoule; Medi Hydro DP Toner; Medi Hydro DP Vita C Ampoule; Medi Peel Centella Mezzo; Medi Peel Luxury 24k Gold Ampoule; Medi Peel Tranex Mela X; Medi Peel Tranex Toning9 Essence Dual; Medi SM 24K Gold Hydrogel Peptide Mask Pack; Medi-10; Medipeel Tranex Toning9 Essential Mask; Mega 13 Multivitamin Formula; Mega Balance; Mega Plex III - Pck; Mega Plex IV - Pck; Mega Vitaminerals; Mega-vim 75 With Beta-carotene - Tablets; Megavite Rx; Megavites Tab; Men's; Men's 50+; Men's Biomultiple Vitamin and Mineral Supplement; Men's Multi Master Formula; Meplex T 750; Metacinamide Tab; Metronidazole 1% / Niacinamide 4%; Miesoo Perfect Pure Seed; Miesoo Perfect Pure Seed Cycling Ampoule; Miesoo Perfect Pure Seed Essence; Miesoo Perfect Pure Seed Toner; Milky Peel Mask; Milltrium Senior Vitamin and Mineral Supplement; Min-chex Cap; Mineral Homme White; Mineral Homme White Toner; Mini-B Tab; Miracle Laser Skin Mist; Miracle Moisturizer Essence; Miracle Of Skin; Missha Time Revolution Night Repair New Science Activator Ampoule Mask; Mizon Black Snail All In One Crea M; Mizon Snail Repair Eye Crea M; Mizon Snail Repair Intensive Ampoule; Mizon Snail Repair Intensive Gold Eye Ge L; Moistie Cell Plus; Moistie Fill Plus; Moistie Pure Essence; Moistie Tok Plus; Moisture Bound; Moms Choice Rx; Mor-vites Tab; Moringa Purify Water; Mulbit Me Firming Sleeping Pack; Mulbit Medist; Multi #2; Multi - N.T.O.x Formula - Tab; Multi 1000; Multi 12 Injection; Multi B; Multi Enfants Tab; Multi II IV Vi Tab; Multi Nt-OX; Multi Plex I - Tab; Multi Plex II - Tab; Multi Rol; Multi Vita 10 Sleeping Pack; Multi Vitamin & Minerals; Multi Vitamin - Mineral; Multi Vitamin Drops with Fluoride; Multi Vitamin Drops with Fluoride and Iron; Multi Vitamin Drops with Fluoride with Iron; Multi Vitamin Plus Iron; Multi Vitamin and Fluoride; Multi Vitamin and Mineral vitamin; Multi Vitamin with Fluoride; Multi Vitamin, Iron and Fluoride; Multi Vitamins & Minerals; Multi Vite Liq Adult; Multi Vite Liq Junior; Multi-11; Multi-12 Pediatric; Multi-12/k1 Pediatric; Multi-Nate 30; Multi-Vit with Fluoride; Multi-Vit with Fluoride and Iron; Multi-Vitamin Drops with Fluoride and Iron; Multi-Vitamin Fluoride; Multi-Vitamin With Fluoride; Multi-Vitamin with Fluoride; Multi-actin; Multi-kid; Multi-phyto Capsules; Multi-vitamin Dietary Supplement; Multi-vitamines Enfants Comprime; Multi-vitamins; Multi-vitamins With Minerals; MultiVitamin Drops with Fluoride and Iron; MultiVitamin with Fluoride; MultiVitamin with Fluoride Chewable; MultiVitamin with Fluoride Drops; MultiVitamin, Iron and Fluoride Drops; Multinate DHA; Multinate DHA Extra; Multipack II; Multiple Vit Plus Iron Tab; Multiple Vitamin Plus Minerals Tab; Multiple Vitamin Tab; Multiple Vitamins; Multiple Vitamins & Minerals Tablets; Multiple Vitamins - Tablet; Multiple Vitamins Childrens Chewable; Multiple Vitamins Plus Iron - Tab; Multiple Vitamins Plus Iron Tab; Multiple Vitamins Plus Iron for Women; Multiple Vitamins Tab; Multiple Vitamins W Iron Tab; Multiple Vitamins W Minerals Tab; Multiple Vitamins With Iron; Multiple Vitamins With Iron Tablets; Multiple Vitamins With Minerals Tablets; Multiple Vitamins and Minerals; Multiple Vitamins and Minerals Capsules; Multiple Vitamins and Minerals Tab; Multisol; Multivit Et Fer Ampoules Et Comprimes; Multivit-liq; Multivitamin; Multivitamin & Minerals (iron Free); Multivitamin & Multimineral; Multivitamin Drops with Fluoride; Multivitamin with Fluoride; Multivitamine; Multivitamines; Multivitamines Et Mineraux; Multivitamines Et Mineraux Junior Regulier; Multivitamines Et Mineraux Reguliers / Regular Multivitamins and Minerals; Multivitamines Plus Fer Pour Enfants (chewable Tablets); Multivitamines Pour Enfants (chewable Tablets); Multivitamins; Multivitamins W Iron; Multivitamins W Minerals Extra Strength; Multivitamins and Minerals - Complete; Multivitamins and Minerals Tablets; Multivitamins and Minerals for Men; Multivitamins and Minerals for Women; Multivitamins and Multiminerals Formula Regular Tablet; Multivitamins for Children; Multra Plex; Multra With Iron; Mustus Daily Harvest Squeeze Tone Up Mask Pack; Mvc; Mvc 9 Plus 3 Inj; Mvc 9+4 Inj; Mycellcare All in One Serum; N.E.U. Complex; NDM SCALP Tonic; NEOGEN DERMALOGY Real Fresh Foam Cereal; NEOGEN DERMALOGY Real Fresh Foam Cranberry; NEOGEN DERMALOGY Real Fresh Foam Green Tea; NESTABS DHA Prenatal Multi-vitamin/Mineral Supplement with DHA/EPA; NESTABS Prenatal Multi-vitamin/Mineral Supplement; NYAAM NYAAM Mulberry Stem Serum; NYAAM NYAAM Peptide Serum; NYAAM NYAAM Skin Reborn Serum; NYAAM NYAAM Vita Serum; NataChew; NataFort; Natal-V RX Multi-vitamin/Multi-mineral; Natalvirt 90dha; Natalvirt Ca; Natavite; Natural Friend White Day Soft Cream; Natural Sun AQ Total Anti-aging Essence Sun; Naturalth Goat Milk Premium Tone Up; Ndm Scalp; Neo Bex Elixir; Neo Vites Tab; Neo-bex; Neo-bex Injectable; Neo-vites & Minerals Tab; Neogen Agecure 3d Lifting Compression Span Tex Mask; Neogen Agecure 3d Lifting Wrinkle Neck Mask; Neogen Agecure One Minute Wrinkle Rx; Neogen Code 9 Black Volume; Neogen Code9 Gold Black Caviar Essence; Neogen Code9 Lemon Green Caviar Essence; Neogen Dermalogy H2 Dermadeca Serum; Neogen Dermalogy Pink Cactus Liftmax Knit Mask; Neogen Dermalogy White Truffle Hydramax Knit Mask; Neogen Dermalogy White Truffle Serum In Oi L Drop; Neomultivite; Neonatal Plus Vitamin; Neonatal Vitamin; NephPlex Rx; Nephron FA; New Chapter's D'adamo 4 Your Type Multiple for Type O; New Premium Notamo; New Premium Notamo Tonic; Niaacinamide Azelaic AC TURMER FA B6 Zinc Ox Copper; Niacex B6; Niacin-niacinamide Tab; Niacinamide; Niacinamide 100 Mg Tablets; Niacinamide 100mg; Niacinamide 100mg USP - Tab; Niacinamide 2% / Spironolactone 5% / Tretinoin 0.025%; Niacinamide 2% / Spironolactone 5% / Tretinoin 0.05%; Niacinamide 250mg With 50mg C; Niacinamide 250mg With Vitamin C; Niacinamide 4% / Clobetasol Propionate 0.05%; Niacinamide 4% / Sodium Sulfacetamide Monohydrate 10%; Niacinamide 4% / Sodium Sulfacetamide Monohydrate 10% / Sulfur Precipitated 2%; Niacinamide 4% / Sodium Sulfacetamide Monohydrate 15%; Niacinamide 4% / Spironolactone 5%; Niacinamide 4% / Tacrolimus 0.03%; Niacinamide 4% / Tacrolimus 0.1%; Niacinamide 4% / Tazarotene 0.05%; Niacinamide 4% / Tazarotene 0.1%; Niacinamide 4% / Tretinoin 0.025%; Niacinamide 4% / Tretinoin 0.05%; Niacinamide 4% / Tretinoin 0.1%; Niacinamide 4% / Triamcinolone Acetonide 0.1%; Niacinamide 500 Tab 500mg; Niacinamide 500 mg; Niacinamide 500mg; Niacinamide 500mg - Tab; Niacinamide Ctr Srt 500mg; Niacinamide Inj 100mg/ml; Niacinamide Tab 100mg; Niacinamide Tab 100mg Yeast Free; Niacinamide Tab 500mg; Niacinamide-B6 Cap; Niacinamide-S Tab 50mg; NicAzel; Nicadan; Nicadan ZX; Nicomide; Nicotamine Tab 500mg; Nicotinamide Zcf; Nioxin Recharging Complex; Niva-Plus; Niveola P.H.c 3d Festival Mask Pack; Niveola White Tiger 3d Animal Mask Pack; Notamo Hair Tonic; Nrg Plus Liq; Numark Multivitamins; Nutra-clear; Nutri-Tab OB; Nutri-Tab OB plus DHA; Nutrilite Double X; Nutrol-B-complex; O Hui White Extreme Cellshine Essence; OB Complete Prenatal; OHUI White Extreme 3D Black Mask; Ohui White Extreme Darkness Away; Olympian Multi Vit Plus Minerals Tab; Omega-3 Rx Complete; Onccor; Oncovite; One A Day Advance Fem; One A Day Multiple Vit W Minerals; One A Day Tab; One Daily Vitamin and Mineral Dietary Supplement; One Per Day Vitamin and Mineral Dietary Supplement; One Tablet Daily Mens Formula; One-A-day Advance Fem - Tablets; Organic night repair ampoule; Orifer F; Orti B; Osteo-force; Ouhi Cell Power No 1 Essence; Ouhi Cell Power No 1 Eye; P.N. Vitamin-mineral Drink; P.R.O. Complex; P1P AC Repair Ampoule; P1P Chitosan V-mask; P1P Magic Whitening Antiaging; P1P Mela Care; P8 Tone - Up and Brightening CreamEX; PHS Hair Science Fem Hair Loss Tonic; PHS Hair Science Hom Hair Loss Tonic; PHS Hair Science Pro Hair Loss Tonic; PM Caps; PNV Ferrous Fumarate Docusate Folic Acid; PNV Prenatal Plus Multivitamin; PNV Prenatal Vitamin Plus Vitamin A; PNV Tabs 29-1; PNV-First; PNV-Select; PR Natal 400; PR Natal 400 ec; PR Natal 430; PR Natal 430 ec; PREMIUM TS Talmostop; PREMIUM TS Talmostop Rich; Paire OB Plus DHA; Palm Springs Multvit and Min Tab; Pandas Dream Magic; Papa Recipe Bombee Brightening Honey Mask Pack; Papa Recipe Eggplant Clearing; Paramettes Chewable Multivitamins Plus Iron; Paramettes Chewable Multivits With Iron Tab; Paramettes Multivits Plus Iron Tab (teens); Paramettes Syrup; Pediatric Infuvite Multiple Vitamins; Pediatric Infuvite Multiple Vitamins for Infusion; Peptide Up Volume Essence; Peptide Volume Essence Premium; Peptide no sebum Repair; Permathene-12 - Caplet; Phosthenine Vitamines Et Fer (ampoules Buvable); Phytofortis + Calcium A-D; Phytopecia Hair Boosting; Phytopecia Hair Tonic; Phytoplex B Liq; Phytopure; Phytovim Cap; Plalab Placenta Ample Essence; Plalab Placenta Mask; Plalab Placenta R-20; Plalab Placenta Skin Booster; Plan36.5 Tranex 11 Plus; Ply Vi Sol Chewable Tab; Pml Crono; Pnv Ob DHA; Pnv-OB-dha; Pnv-VP-U; Poly Vi Flor Chewable Tab; Poly-VI-sol Drops; Poly-Vi-Flor; Poly-Vi-Flor with Iron; Poly-Vitamin with Fluoride; Polymine Avec Zinc Et Cuivre; Potassium Plus Vit B Complex; Pre-Tabs DHA Prenatal Multi-vitamin/Mineral Supplement with DHA/EPA; PreNatal 19; PrePLUS; PreTAB; Prefera OB plus DHA; PreferaOB; PreferaOB ONE; PreferaOB One; PreferaOB plus DHA; Pregvit; Pregvit Folic 4; Pregvit Folic 5; Premel; Premium Dr. Althea Power Whitening Glutathione Mask; Premium Dr. Althea Water Glow Skin Renewal Hydrogel Mask; Premium Prenatal; Premium Prenatal - Tablets; Premium TS; Prena1; Prena1 Plus; Prenatabs FA; Prenatal; Prenatal Plus; Prenatal Plus Iron; Prenatal Plus Multivitamin Plus DHA MiniCaps; Prenatal Supplement - Tab; Prenatal Vi-min; Prenatal Vitamin and Mineral Supplement; Prenatal Vitamin and Mineral Supplement -tab; Prenatal Vitamin and Mineral Supplement Tab; Prenatal Vitamins Plus; Prenatal Vitamins and Minerals Tablets; Prenatal and Post Partum Supplement; Prenate Elite; Prenate Star; Preplus; Prestige Caviar Full Intensive Vitality Toner; Prestige Caviar Super Aqua Serum; Prestige Jeju Snail; Prestige Jeju Snail Essence; Prestige Jeju Snail Toner; Prestige Shiny Gold; Prestige Snail Repairing; Prestige Snail Repairing Ampoule; Prestige Snail Repairing Booster; Prevital Tab; PrimaCare; Primerose Double Effect Eye; Primerose Egf; Primerose Snail Hydro Essence; Primerose White Milky Cb; Pro Enz Tab; Propolis 27 Cover Cushion; Propolis 50 Volume Mist; Propolis 80; Propolis 80 Sleeping Pack; Propolis 90 Ampoule; Propolis Repair Mask; Propolis Softening Toner; Propolis and Rose Callus Mask; Protective Base Sun for Dry Skin; Protective Base Sun for Oily Skin; Pure C Serum; Pure Vita White; Pure White Brightening; Pure White Brightening Essence; Pure White Brightening Toner; PureFe OB Plus; PureFe Plus; PureVit DualFe Plus; Q.T. #4 Vitamin and Mineral Dietary Supplement; Q.T. Vitamin and Mineral Drink Mix; Queen Purecell Whitening 3-step Mask; Queens Rose Recovery; Queens Rose Recovery Eye; Queens Rose Recovery Toner; Quflora FE; Quflora FE Pediatric Drops; Quflora Pediatric; Quflora Pediatric Drops; R.E.S. Complex; R2B Wrinkle cure Cream; RE FAC-x; RE Nata; RE Nata OB; RE Prenatal Multivitamin with Iron; ROA Cytomedy Cell Pure 2500 Ampoule; ROSELLE TEA EYE GE L 1.4g; RUBELLI Black Pearl Mask; RUBELLI WATER GLOW ESSENCE 80mL; Ra Sence Loe Cure Solu tion Aloe Mask; Re Ob 90 DHA; ReEn Hairloss Clinic Jahajin Shampoo for Sensitive Scalp; ReEn Mogangbichaek Conditioner; ReEn Mogangbichaek for Sensitive Scalp; Red Ginseng Brightening Mask Pack; Red Ginseng Vitalizing Hydrog El Mask; Renal Caps Dialysis/Stress Vitamin Supplement; Renardblanc Multilayer Mask; Renate; Renate DHA; Rep Nutrinature Ultra Nourishing; Replavite; Revit Plus Cap; Revit Tab; Revital Perfecting Dual Ampoule; Revitex Ampoules Et Comprimes; Revival 1 Tab; Right Choice A.M. Multi Formula - Caplet; Rose Edition Mask Sheet; Rose Oasis 50 Moisture Bomb; Rose Oasis 70 Cream; Rose Oasis 80 Ampoule; Roselle Tea Eye Ge L; Round Around Repairing Active Serum; Rubelli Water Glow Essence; Ruby Cell 4u; Ruby Cell 4u Ampoule; Ruby Cell 4u Ampoule Premium; S ALPHA 30 Skin; Saccharomyces The First; Saccharomyces The First Eye; Saffron Edition Mask Sheet; Sallys Box Secret Garden Lemon Oil Ampoule Mask; Scalp Scaling; Se-Care Conceive; Se-Natal 19; Se-Natal 19 Chewable; Se-Natal One; Se-Tan PLUS; Seanol Facial Treatment Mask; Secret Key Thanakha Mild SunCream SPF47 PA PLUS PLUS PLUS; Select OB; Select-OB Plus DHA Prenatal Supplement Plus DHA; Senior Multi One; Seolheun Ginseng Nature Cream; Seolheun Ginseng Nature Essence; SetonET; SetonET-EC; Sheza Gusl Firming Mask Pack; Shieldlife Whitening Ion Mask; Sibergin B - Cap; SimmyungSaengMoSu Hair tonic; Siseundeusi Luminant; Siseundeusi Luminant Essence; Siseundeusi Luminant Mask Pack Step2(whitening); Siseundeusi Luminant Skin Toner; Skederm Ultimate Eye; Skin Project Ya Cooling Celluven Mask; Skinfood Miracle Food 10 Solu Tion; Skinfood Miracle Food 10 Solu Tion 1ml; Skinfood Real Tea Ge L Mask Chamomile; Skinfood Real Tea Ge L Mask Lavender; Skinfood Real Tea Ge L Mask Rose; Snail Essential EX Wrinkle Essence; Snail Gold Hydro Lip; Snail Skin Booster; Snail Solu Tion Skin Booster; Snail Solu Tion Wrinkle Up Spot; Snow Milk Sheet Mask Light; Snow Milk Sheet Mask Normal; Snow Milk Sheet Mask Rich; Snow White; Snow White Cleansing Foam; Snow White Essence; Snow White Milky; Snow White Milky Pack; Snow White Spot; Sollume Esthe Repair Serum; Somarexin and C 1000; Somavit Brand Vitamins and Minerals Complex; Sonatural Centella Facial Thin Mask; Sopalamine 3b Plus; Sopalamine/3b Plus C; Spectrum 2 Cap; Spectrum Performa Multivitamins and Minerals Tablets; Stem Cell Whitening Serum; Stress B Capsules With Vitamin C; Stress B Complex With C, E & Iron; Stress B With 1000 Mg Vitamin C; Stress B&c Tab; Stress Complex 600 Avec Vit E Cuivre Zinc; Stress Ctr Srt; Stress Formula; Stress Formula + Iron; Stress Formula B-comp + 500mg Vit C Tab; Stress Formula Multivitamin Tablets USP; Stress Formula Tab; Stress Formula Vit B With C Complex; Stress Forte Plus Lipotropic Factors; Stress Tab; Stress Tab With Iron and Vitamin E; Stress Tab With Zinc, Copper and Vitamin E; Stress Tablets; Stress Vitamin B With C Complex Tablets; Stressmates; Stresstabs + Zinc-copper; Strovite One Caplets; Sulfur; Sun-rype Vitaburst; Super Amazing Revolution For Eye; Super Amazing Revolution For Face; Super B Compound W 500mg Vit C; Super Charged Energy; Super Kids Chewable Multivitamin Multimineral (chewable Tablets); Super Multi; Super Pantoplex; Super Stress Capsules; Super Vita Vim Multivitamins and Minerals; Super Vita-vim With Beta-carotene - Tab; Super-pote Vitamin Supplement; Supplement De Multivitamines Infusion Arome Fruits Rouges; Supravite 10ml Ampoule; Supravite Bouteille 250ml; Supravite C 1000; Supravite Pour Enfants; Supravite Stress Avec Vit E; Supravite Stress Avec Vit E Cuivre Et Zinc; Supravite Stress Avec Vit E Et Fer; Surbex 500 Filmtab; Surbex-500 With Iron; Surbex-500 With Zinc; Swical-energy 3e Age; Swical-energy-2; Swiss One; Swiss One Multi Vit & Chel Min Tab; Swiss One Multivitamin and Mineral Caplet; Swiss Total One; T.R.I. B-plex Src; TAMHADA Synergy Whitening Mask; TL-Folate; TOAS Rejuvenation; TRONVite; TS (Talmostop); TS (Talmostop) Hair Tonic; TS (Talmostop) Talhwan; Tandem OB; Tandem Plus; Tangerine Bright Sleeping Mask; Tar-end; Tender Age Multi Vitamins; Teradia Diamond Intensive Hydrogel Eye; Teradia Diamond Water Mask; Teradia Milk Skin Creampad; Thanks 12 Rich Caviar Mask; Thanks 12 Rich Caviar Mist; The All Medicare V PLA Synergy Whitening Mask; The Hayan Cherry Blossom Brightening Essence; The Oozoo Face Energy Shot Premium Black Ampoule1; The Oozoo Face Energy Shot Premium Black Ampoule2; The Oozoo Face Energy Shot Premium Black Mask; Therapytion Natural Deep Clean; Therapytion Natural Relaxing; Therapytion Nokmosu Neutral and oily Hair; Therapytion Nokmosu Sensitive and Dry Hair; Thrivite 19; Thrivite Rx; Time Release B 100 Compound - Tablet; Time Return Melatonin; Timed Release B Complex 100 Srt; Timed Release B-complex 100; Timed Release B-complex 50; Timed Release Vita-vim Srt; Tini-cal Ampoules; Toni Com Liq; Tonicol Et A-D-C Ampoules/comprimes; Tonimol Cap Liq; Tonymoly Naturalth Goat Milk Whitening Essence; Tonymoly Naturalth Goat Milk Whitening Toner; Tonymoly Pandas Dream White Hand; Too im Cell ALL IN ONE; Total Living Concepts Formula One - Tab; Totalvit Plus; Tri-Zel; TriAdvance; Tricare Prenatal; Tricare Prenatal 2-part Daily Prenatal Vitamin System; Tricare Prenatal Compleat; Tricare Prenatal Quick Dissolve; Trinatal GT; Trinatal Rx 1; Trinatal Ultra; TriphroCaps; Triveen-Duo DHA; Twin Ultra Liquid Fruit Punch Flavor; Twin Ultra Liquid Grape Flavor; Twin Ultra Liquid Lemon-lime Flavor; Twin Ultra Liquid Orange Flavor; Ultimate Nourishing Rice Overnight Spa Mask; Ultimate OB DHA; UltimateCare ONE NF; Ultra Enerforce; Ultra Hr; Ultra V AQUA SHINE MASK; Ultra V IDEBANONE; Ultra V IDEBENONE AMPOULE; Ultra V IDEBENONE NUTRITIONAL; Ultra Waterfall Cream; Ultra Whitening; Ultra Whitening Ample; Ultra Whitening First Essence; Uniwell Natural; Uniwell Natural Toner; Usana Megavitamin Tablets - Tab; V & M Vitamin and Mineral Supplement; V V Vitalizing Eye; V V Vitalizing Serum; V-Natal; VIL-Rx; VIRGIN GRACE Hyalu Plus Serum; VP-HEME One; VP-Vite Rx; Vasculine; Vasula Tab; Vege 1 Daily Tab; Vena-Bal DHA; Viamon Ampoules Et Comprimes; Vigo Multivitamins Drops/lozenge; Vimeral Tab; Vinacal; Vinate AZ; Virt Nate; Virt Vite GT; Virt-Advance; Virt-Bal DHA Plus; Virt-Caps; Virt-Nate; Virt-PN; Virt-Pn; Virt-Tabs; Virt-Vite Plus; Vit B Complex Ctr; Vit B Complex Plus Vit C 550mg; Vit-HA Multi Vitamin and Zinc Supplement; Vita B + C 500 Tab; Vita Balance 2000; Vita C 35 Tone Up Ampule; Vita Plex Tab; Vita Solu Tion Mask; Vita Vim Multivitamins and Minerals Tab; Vita Vim With Beta Carotene-caplet; Vita Volu 101 Essence; Vita Volu Volume Booster; Vita-B; Vita-B-75 Cap; Vita-acinamid Cap 500mg; Vita-vim - Tab; Vita-vim With Beta-carotene - Tab; Vita-worth B-complex Tablets; VitaPhil Aide; Vitabanks Vitamin Tab; Vitabrid C12 FACE 4g; Vitabrid C12 FACE BRIGHTENING; Vitabrid C12 FACE Pow der 2g; Vitabrid C12 SENSITIVE Spot Pow der Serum; Vitaday Junior Tab; Vitaday Tab; Vitafant; Vitafer - Liq; Vitaflex Dietary Suplement; Vitafol Ultra; Vital Be-100; Vital-D Rx; Vitalife - Capsule; Vitamin A C E W.niacinam.beta Car.and Min.; Vitamin B + C Cap; Vitamin B Complex; Vitamin B Complex + C 300mg Cap; Vitamin B Complex + C 600mg Tab; Vitamin B Complex 100; Vitamin B Complex 100 Tab; Vitamin B Complex 50; Vitamin B Complex Plus 300mg Vitamin C; Vitamin B Complex Plus C 300mg Timed Release; Vitamin B Complex Suppl; Vitamin B Complex W C 300mg Tab; Vitamin B Complex W C Tab; Vitamin B Compound W C Tab 500mg; Vitamin B Compound W Vit C 250mg Tab; Vitamin B Compound With Vitamin C Fortis Capsule Dtc; Vitamin B Cpd W Vit C Tab; Vitamin B Tablets; Vitamin B-Complex; Vitamin B3 Tab 500mg; Vitamin and Mineral Supplement - Liq; Vitamine 110 Liq; Vitamine Du Groupe B Plus Fer - Liq; Vitamines Et Mineraux; Vitamines Et Mineraux Comprimes; Vitamines Et Mineraux Enfants 970; Vitamines Pour Bebes Et Enfants; Vitaphil 90 DHA; Vitaphil DHA; Vitaplex; Vitasure; Vitogen B Stress C Vit E Zinc & Cop; Vitogen B Stress C600; Vitogen Multiple Vitamins Tab; Viva Kids - Tab; Vol-Care Rx; Vol-Nate; Vol-Plus; Vol-Tab Rx; Volcanic Grape Callus Mask; Volcanic Homme; Volcanic Homme All in One Essence; Volcanic Homme Toner; Volcanic Pore Eraser Ampoule; Voye Fresh Up Amazing Recovery Mask V Stemcell Recovery Ampule; Voye Fresh Up Perfect Moisture Mask V Hyaluron Moisture Ampule; Voye Fresh Up Real Lifting Mask V Tox Lifting Ampule; Vp-heme Ob; Vp-zel; Vyqua; W Lab SNAIL GREENTEA; W Lab SNAIL GREENTEA ESSENCE; Waterful Essence Sun; Wellage Deep Layer Fresh Moisture; Wellage Fresh Water Essence Mist; White Lie; White Mineral Homme Fluid; White Mineral Homme Fo am Cleanser; White Mineral Homme Toner; White Vita First Essence; White Vita Floral; White Vita Floral Essence Brightening; White Vita Floral Toner; White truffle Anti Wrinkle; White truffle Whitening; Whitening ConcentrateTreatment Mask; Wisderma Most Moist Bio Ampoule; Women's Biomultiple Vitamin and Mineral Supplement; Women's Formula; Xvite; Yenaan Jinaek; Yenaan Jinaek Essence; Yenaan Jinaek Eye; Youngcellogy Aios Ampoule; Z Bec Tab; Zaol Doctors Order Scalp Scaling; Zatean-Pn; Zoo Chews; Zoo Chews Plus Iron; bdr Re-action tonic professional multi active booster; bdr Re-charge contour push up serum high-potential moisturizer; bdr Re-construct enriched nourishing formula; denovo 3 H; derma J PEPTASTIN SOOTHING GEL MASK; do good Deep Aqua Treatment Toner; do good Perfecting Aqua Ge l Moisturizer; do good Perfecting Aqua Mask; do good Perfecting Aqua Mask 5ea; do good Pure Repair Centella; do good Pure Repair Centella Essence; it Radiant Brightening Toner; reFACE TOX AMPULE; rep Nutrinature Ultra All in One Multitem; rep Nutrinature Ultra Moist Ge l; rep Nutrinature Ultra Moist Gel Oil; rep Nutrinature Ultra Nourishing Cream; rep Nutrinature Ultra-All-Night Moisture Relief Mask; rootree Mobitherapy Age Defy Eye; rootree Mobitherapy Age Returning; rootree Mobitherapy Repair Serum; vitaMedMD One Rx; vitaMedMD Rx Plus

> <SALTS>
Nicotinamide hydrochloride

$$$$
