6992003
  -OEChem-10051720263D

 34 33  0     1  0  0  0  0  0999 V2000
   -4.3694   -0.5350    0.9109 O   0  5  0  0  0  0  0  0  0  0  0  0
   -2.9425   -1.7361   -0.4017 O   0  0  0  0  0  0  0  0  0  0  0  0
    3.4441   -0.1060    0.1320 N   0  3  0  0  0  0  0  0  0  0  0  0
   -3.0161    1.8085    0.4340 N   0  3  0  0  0  0  0  0  0  0  0  0
    2.0826   -0.0822    0.7158 C   0  0  0  0  0  0  0  0  0  0  0  0
    1.0435    0.2366   -0.3521 C   0  0  0  0  0  0  0  0  0  0  0  0
   -0.3958    0.2279    0.1752 C   0  0  0  0  0  0  0  0  0  0  0  0
   -1.3929    0.5652   -0.9423 C   0  0  0  0  0  0  0  0  0  0  0  0
    3.5528   -1.1803   -0.9603 C   0  0  0  0  0  0  0  0  0  0  0  0
    3.7929    1.2500   -0.4991 C   0  0  0  0  0  0  0  0  0  0  0  0
    4.4961   -0.4142    1.2076 C   0  0  0  0  0  0  0  0  0  0  0  0
   -2.8564    0.6390   -0.4866 C   0  0  1  0  0  0  0  0  0  0  0  0
   -3.4387   -0.6732    0.0665 C   0  0  0  0  0  0  0  0  0  0  0  0
    1.8878   -1.0624    1.1677 H   0  0  0  0  0  0  0  0  0  0  0  0
    2.0637    0.6716    1.5122 H   0  0  0  0  0  0  0  0  0  0  0  0
    1.0810   -0.4868   -1.1719 H   0  0  0  0  0  0  0  0  0  0  0  0
    1.2188    1.2283   -0.7816 H   0  0  0  0  0  0  0  0  0  0  0  0
   -0.6196   -0.7563    0.6012 H   0  0  0  0  0  0  0  0  0  0  0  0
   -0.4757    0.9579    0.9882 H   0  0  0  0  0  0  0  0  0  0  0  0
   -1.3008   -0.1859   -1.7374 H   0  0  0  0  0  0  0  0  0  0  0  0
   -1.1125    1.5238   -1.3986 H   0  0  0  0  0  0  0  0  0  0  0  0
    4.6095   -1.2888   -1.2252 H   0  0  0  0  0  0  0  0  0  0  0  0
    3.1670   -2.1217   -0.5587 H   0  0  0  0  0  0  0  0  0  0  0  0
    2.9991   -0.8672   -1.8483 H   0  0  0  0  0  0  0  0  0  0  0  0
    4.8570    1.2409   -0.7562 H   0  0  0  0  0  0  0  0  0  0  0  0
    3.2109    1.3959   -1.4122 H   0  0  0  0  0  0  0  0  0  0  0  0
    3.5891    2.0349    0.2350 H   0  0  0  0  0  0  0  0  0  0  0  0
    4.2647   -1.3931    1.6376 H   0  0  0  0  0  0  0  0  0  0  0  0
    5.4856   -0.4229    0.7414 H   0  0  0  0  0  0  0  0  0  0  0  0
    4.4382    0.3660    1.9722 H   0  0  0  0  0  0  0  0  0  0  0  0
   -3.4685    0.8955   -1.3604 H   0  0  0  0  0  0  0  0  0  0  0  0
   -2.5441    1.6545    1.3346 H   0  0  0  0  0  0  0  0  0  0  0  0
   -4.0094    1.9811    0.6391 H   0  0  0  0  0  0  0  0  0  0  0  0
   -2.6358    2.6719    0.0238 H   0  0  0  0  0  0  0  0  0  0  0  0
  1 13  1  0  0  0  0
  2 13  2  0  0  0  0
  3  5  1  0  0  0  0
  3  9  1  0  0  0  0
  3 10  1  0  0  0  0
  3 11  1  0  0  0  0
  4 12  1  0  0  0  0
  4 32  1  0  0  0  0
  4 33  1  0  0  0  0
  4 34  1  0  0  0  0
  5  6  1  0  0  0  0
  5 14  1  0  0  0  0
  5 15  1  0  0  0  0
  6  7  1  0  0  0  0
  6 16  1  0  0  0  0
  6 17  1  0  0  0  0
  7  8  1  0  0  0  0
  7 18  1  0  0  0  0
  7 19  1  0  0  0  0
  8 12  1  0  0  0  0
  8 20  1  0  0  0  0
  8 21  1  0  0  0  0
  9 22  1  0  0  0  0
  9 23  1  0  0  0  0
  9 24  1  0  0  0  0
 10 25  1  0  0  0  0
 10 26  1  0  0  0  0
 10 27  1  0  0  0  0
 11 28  1  0  0  0  0
 11 29  1  0  0  0  0
 11 30  1  0  0  0  0
 12 13  1  0  0  0  0
 12 31  1  0  0  0  0
M  CHG  3   1  -1   3   1   4   1
M  END
> <DATABASE_ID>
DB03977

> <DATABASE_NAME>
drugbank

> <ORIGINAL_SOURCE>
PUBCHEM

> <ORIGINAL_SOURCE_URL>
https://pubchem.ncbi.nlm.nih.gov/rest/pug/compound/inchikey/MXNRLFUSFKVQSK-QMMMGPOBSA-O/SDF?record_type=3d

> <SMILES>
[H][C@](N)(CCCC[N+](C)(C)C)C(O)=O

> <INCHI_IDENTIFIER>
InChI=1S/C9H20N2O2/c1-11(2,3)7-5-4-6-8(10)9(12)13/h8H,4-7,10H2,1-3H3/p+1/t8-/m0/s1

> <INCHI_KEY>
MXNRLFUSFKVQSK-QMMMGPOBSA-O

> <FORMULA>
C9H21N2O2

> <MOLECULAR_WEIGHT>
189.2752

> <EXACT_MASS>
189.160302926

> <JCHEM_ACCEPTOR_COUNT>
3

> <JCHEM_AVERAGE_POLARIZABILITY>
21.970316769466727

> <JCHEM_BIOAVAILABILITY>
1

> <JCHEM_DONOR_COUNT>
2

> <JCHEM_FORMAL_CHARGE>
1

> <JCHEM_GHOSE_FILTER>
0

> <JCHEM_IUPAC>
[(5S)-5-amino-5-carboxypentyl]trimethylazanium

> <ALOGPS_LOGP>
-3.00

> <JCHEM_LOGP>
-6.198754912366285

> <ALOGPS_LOGS>
-2.98

> <JCHEM_MDDR_LIKE_RULE>
0

> <JCHEM_NUMBER_OF_RINGS>
0

> <JCHEM_PHYSIOLOGICAL_CHARGE>
1

> <JCHEM_PKA_STRONGEST_ACIDIC>
2.407558396399148

> <JCHEM_PKA_STRONGEST_BASIC>
9.526420173475088

> <JCHEM_POLAR_SURFACE_AREA>
63.32000000000001

> <JCHEM_REFRACTIVITY>
63.7924

> <JCHEM_ROTATABLE_BOND_COUNT>
6

> <JCHEM_RULE_OF_FIVE>
1

> <ALOGPS_SOLUBILITY>
2.33e-01 g/l

> <JCHEM_TRADITIONAL_IUPAC>
trimethyllysine

> <JCHEM_VEBER_RULE>
0

> <DRUGBANK_ID>
DB03977

> <SECONDARY_ACCESSION_NUMBERS>
EXPT02087

> <DRUG_GROUPS>
experimental

> <GENERIC_NAME>
N-Trimethyllysine

$$$$
