996
  -OEChem-10051720123D

 13 13  0     0  0  0  0  0  0999 V2000
   -2.3622    0.0001   -0.0004 O   0  0  0  0  0  0  0  0  0  0  0  0
   -1.0011    0.0000    0.0003 C   0  0  0  0  0  0  0  0  0  0  0  0
   -0.3037    1.2080    0.0002 C   0  0  0  0  0  0  0  0  0  0  0  0
   -0.3038   -1.2079    0.0001 C   0  0  0  0  0  0  0  0  0  0  0  0
    1.0912    1.2080   -0.0001 C   0  0  0  0  0  0  0  0  0  0  0  0
    1.0911   -1.2080    0.0000 C   0  0  0  0  0  0  0  0  0  0  0  0
    1.7886    0.0000   -0.0002 C   0  0  0  0  0  0  0  0  0  0  0  0
   -0.8351    2.1559    0.0002 H   0  0  0  0  0  0  0  0  0  0  0  0
   -0.8415   -2.1521    0.0000 H   0  0  0  0  0  0  0  0  0  0  0  0
    1.6345    2.1484   -0.0003 H   0  0  0  0  0  0  0  0  0  0  0  0
    1.6341   -2.1486   -0.0002 H   0  0  0  0  0  0  0  0  0  0  0  0
    2.8747   -0.0001   -0.0004 H   0  0  0  0  0  0  0  0  0  0  0  0
   -2.6772    0.9203   -0.0005 H   0  0  0  0  0  0  0  0  0  0  0  0
  1  2  1  0  0  0  0
  1 13  1  0  0  0  0
  2  3  2  0  0  0  0
  2  4  1  0  0  0  0
  3  5  1  0  0  0  0
  3  8  1  0  0  0  0
  4  6  2  0  0  0  0
  4  9  1  0  0  0  0
  5  7  2  0  0  0  0
  5 10  1  0  0  0  0
  6  7  1  0  0  0  0
  6 11  1  0  0  0  0
  7 12  1  0  0  0  0
M  END
> <DATABASE_ID>
DB03255

> <DATABASE_NAME>
drugbank

> <ORIGINAL_SOURCE>
PUBCHEM

> <ORIGINAL_SOURCE_URL>
https://pubchem.ncbi.nlm.nih.gov/rest/pug/compound/inchikey/ISWSIDIOOBJBQZ-UHFFFAOYSA-N/SDF?record_type=3d

> <SMILES>
OC1=CC=CC=C1

> <INCHI_IDENTIFIER>
InChI=1S/C6H6O/c7-6-4-2-1-3-5-6/h1-5,7H

> <INCHI_KEY>
ISWSIDIOOBJBQZ-UHFFFAOYSA-N

> <FORMULA>
C6H6O

> <MOLECULAR_WEIGHT>
94.1112

> <EXACT_MASS>
94.041864814

> <JCHEM_ACCEPTOR_COUNT>
1

> <JCHEM_AVERAGE_POLARIZABILITY>
9.812560861971928

> <JCHEM_BIOAVAILABILITY>
1

> <JCHEM_DONOR_COUNT>
1

> <JCHEM_FORMAL_CHARGE>
0

> <JCHEM_GHOSE_FILTER>
0

> <JCHEM_IUPAC>
phenol

> <ALOGPS_LOGP>
1.39

> <JCHEM_LOGP>
1.6696804943333332

> <ALOGPS_LOGS>
-0.31

> <JCHEM_MDDR_LIKE_RULE>
0

> <JCHEM_NUMBER_OF_RINGS>
1

> <JCHEM_PHYSIOLOGICAL_CHARGE>
0

> <JCHEM_PKA_STRONGEST_ACIDIC>
10.016150276173818

> <JCHEM_PKA_STRONGEST_BASIC>
-5.476712177992348

> <JCHEM_POLAR_SURFACE_AREA>
20.23

> <JCHEM_REFRACTIVITY>
28.038899999999998

> <JCHEM_ROTATABLE_BOND_COUNT>
0

> <JCHEM_RULE_OF_FIVE>
1

> <ALOGPS_SOLUBILITY>
4.66e+01 g/l

> <JCHEM_TRADITIONAL_IUPAC>
phenol

> <JCHEM_VEBER_RULE>
1

> <DRUGBANK_ID>
DB03255

> <SECONDARY_ACCESSION_NUMBERS>
EXPT01917

> <DRUG_GROUPS>
approved; experimental

> <GENERIC_NAME>
Phenol

> <SYNONYMS>
Acide carbolique; Acide phénique; Benzenol; Carbolic acid; Carbolsäure; Fenol; Hydroxybenzene; Karbolsäure; Monohydroxybenzene; Oxybenzene; Phenic Acid; Phenol; Phenyl alcohol; Phenyl hydroxide; Phenylic Acid; Phenylic alcohol; PHOH

> <PRODUCTS>
Ambix First Aid; Anbesol Gel; Anbesol Liquid; Anbesol Maximum Strength Liquid; Aseptil Rojo; Au Kah Chuen Skin Lotion; Balzarol Ont; Banana Boat Medicated Lip Balm; Bite Relief; Blistex Complete Care (Blistex Lip Medex, Blistex Medicated Lip, Blistex Five Star Lip Protection Broad Spectrum, and Blistex Complete Moisture); Blistex Dct; Blistex Lip; Blistex Lip Medex; Blistex Medicated; Blistex Medicated Variety Pack (Blistex Medicated Berry Lip Balm, Blistex Medicated Lip Balm, Blistex Medicated Lip); Blistex con Medicacion Crema Labial; Budpak First Aid; CAMPHO-PHENIQUE ANTISEPTIC Gel; CAMPHOR (SYNTHETIC) and PHENOL; CVS Camphor Phenol Gel; CVS Health Maximum Strength Sore Throat Fast Relief; CVS Health Sore Throat Fast Relief Oral Anesthetic; Calamine Phenolated Topical Suspension; Campho Phenique Cold Sore Treatment; Campho-Phenique Antiseptic; Campho-Phenique Cold Sore Treatment; Campho-Phenique Pain Relieving Antiseptic Liquid; Care One Sore Throat; Carmex Lip Balm; Carmex Lip Ointment; Castellani Paint; Castellani Paint 1.5%; Cepastat Cherry; Cepastat Extra Strength; ChapIce Camphor Phenol Gel; Chapstick Medicated; Chapstick Medicated Lip Balm - Jar; Chapstick Medicated Lip Balm - Stk; Chapstick Medicated Lip Balm - Tube; Chigarid; Chloraseptic Sore Throat; Chloraseptic Sore Throat (Kids Grape) Grape; Chloraseptic Sore Throat Cherry; Chloraseptic Sore Throat Citrus; Chloraseptic Sore Throat Max; Chloraseptic Sore Throat Menthol; Chloraseptic Warming Sore Throat; Coghlan s Sting Relief; DDM Instant Antiseptic Pain Relief; Dermagesic; Dermaphy Ont; Dg Health Sore Throat; Diluent Sterile; Diluent for Allergenic Extract Sterile Normal Saline With Phenol (0.4%); Equaline Sore Throat; Equate Sore Throat; First Aid; Fortinia ID; Freds Antiseptic Instant Pain Relief; Glycerinated Phenol Saline; Good Neighbor Pharmacy Sore Throat; Good Sense Sore Throat; HEB Camphor Phenol; HEB Sore Throat Cherry Flavor; HEB Sore Throat Menthol Flavor; Healthy Accents Sore Throat; Instant Antiseptic Pain Relief; Kank-A with Blistex Medicated Lip; Labisan; Labisan Cold Sore; Leader Camphor Phenol Gel; Leader Sore Throat; Leader Sore throat; Lip Conditioner Lip Balm; Liver supplement; MAKESENSE First Aid; Major Camphor and Phenol; Maximum Strength Cold Sore Treatment; Mecca Ointment; Medicated Blistex Dct Lip Balm; Medicated Lip Balm; Medicated Lipbalm; NICE SORE THROAT Cherry; NICE SORE THROAT Honey Lemon; NICE SORE THROAT Spearmint; Natur 911; OFF Bite and Itch Relief First Aid Antiseptic; Oral Relief; Ozonol Ont; Pain A Lay; Pain Relieving Petro Carbo; Phen-oris - Ont Top; Phenol; Phenol 6%; Phenol Saline Inj; Phenoris Ont; Phylorinol; Poison Oak; Preferred Plus Medicated Lip Balm; Rugby Cherry Flavor; Rx Act Sore Throat; Shopko Camphor Phenol Gel; Smart Sense Sore Throat; Sore Throat; Sore Throat Cherry; Sore Throat Menthol; Sore Throat ReadyInCase; Sore Throat Relief; Sore Throat Relief Cherry; Sore Throat Relief Cherry Flavor; Sore Throat Relief Menthol; Sore throat cherry; Sterile Diluent for Allergenic Extract; Sting Eze; Sting Kure - Liq; Sting-eze-liq; StingEze Insect Bite Relief; StingEze Max Insect Bite Relief; Sunmark Phenolated Calamine; Sunmark Sore Throat; Sunmark sore throat; Throat Relief; TopCare Cherry Flavor; Topcare Sore Throat; Topcare Sore Throat Menthol Flavor; Ulcerease; Vaseline Brand Lip Therapy Medicated Tube; Vicks Formula 44 Sore Throat; Vida Mia Instant Antiseptic Pain Relief; Walgreens Camphor Phenol Gel; Yat Tip Xiao; ZYCAZIN Antiseptic Liquid; eos Medicated Pain Relieving Lip Balm; meijer Maximum Strength Sore Throat Fast Relief

$$$$
