7248
  -OEChem-10051720073D

 20 20  0     0  0  0  0  0  0999 V2000
    2.9564   -0.4135   -0.0003 N   0  0  0  0  0  0  0  0  0  0  0  0
   -0.7299   -0.7848    0.0001 C   0  0  0  0  0  0  0  0  0  0  0  0
   -1.1313    0.5511    0.0001 C   0  0  0  0  0  0  0  0  0  0  0  0
    0.6277   -1.1052    0.0001 C   0  0  0  0  0  0  0  0  0  0  0  0
   -0.1750    1.5665    0.0001 C   0  0  0  0  0  0  0  0  0  0  0  0
    1.5839   -0.0898   -0.0001 C   0  0  0  0  0  0  0  0  0  0  0  0
    1.1826    1.2461    0.0001 C   0  0  0  0  0  0  0  0  0  0  0  0
   -1.7356   -1.8889    0.0000 C   0  0  0  0  0  0  0  0  0  0  0  0
   -2.5788    0.9187   -0.0003 C   0  0  0  0  0  0  0  0  0  0  0  0
    0.9453   -2.1455    0.0001 H   0  0  0  0  0  0  0  0  0  0  0  0
   -0.4702    2.6124    0.0001 H   0  0  0  0  0  0  0  0  0  0  0  0
    1.9183    2.0464    0.0001 H   0  0  0  0  0  0  0  0  0  0  0  0
   -1.2570   -2.8745    0.0002 H   0  0  0  0  0  0  0  0  0  0  0  0
   -2.3661   -1.8365    0.8936 H   0  0  0  0  0  0  0  0  0  0  0  0
   -2.3656   -1.8367   -0.8939 H   0  0  0  0  0  0  0  0  0  0  0  0
   -3.0765    0.5278    0.8931 H   0  0  0  0  0  0  0  0  0  0  0  0
   -2.7216    2.0050    0.0000 H   0  0  0  0  0  0  0  0  0  0  0  0
   -3.0757    0.5283   -0.8945 H   0  0  0  0  0  0  0  0  0  0  0  0
    3.2484   -1.3817   -0.0010 H   0  0  0  0  0  0  0  0  0  0  0  0
    3.6500    0.3224   -0.0010 H   0  0  0  0  0  0  0  0  0  0  0  0
  1  6  1  0  0  0  0
  1 19  1  0  0  0  0
  1 20  1  0  0  0  0
  2  3  2  0  0  0  0
  2  4  1  0  0  0  0
  2  8  1  0  0  0  0
  3  5  1  0  0  0  0
  3  9  1  0  0  0  0
  4  6  2  0  0  0  0
  4 10  1  0  0  0  0
  5  7  2  0  0  0  0
  5 11  1  0  0  0  0
  6  7  1  0  0  0  0
  7 12  1  0  0  0  0
  8 13  1  0  0  0  0
  8 14  1  0  0  0  0
  8 15  1  0  0  0  0
  9 16  1  0  0  0  0
  9 17  1  0  0  0  0
  9 18  1  0  0  0  0
M  END
> <DATABASE_ID>
DB03018

> <DATABASE_NAME>
drugbank

> <ORIGINAL_SOURCE>
PUBCHEM

> <ORIGINAL_SOURCE_URL>
https://pubchem.ncbi.nlm.nih.gov/rest/pug/compound/inchikey/DOLQYFPDPKPQSS-UHFFFAOYSA-N/SDF?record_type=3d

> <SMILES>
CC1=CC=C(N)C=C1C

> <INCHI_IDENTIFIER>
InChI=1S/C8H11N/c1-6-3-4-8(9)5-7(6)2/h3-5H,9H2,1-2H3

> <INCHI_KEY>
DOLQYFPDPKPQSS-UHFFFAOYSA-N

> <FORMULA>
C8H11N

> <MOLECULAR_WEIGHT>
121.1796

> <EXACT_MASS>
121.089149357

> <JCHEM_ACCEPTOR_COUNT>
1

> <JCHEM_AVERAGE_POLARIZABILITY>
14.411226535478349

> <JCHEM_BIOAVAILABILITY>
1

> <JCHEM_DONOR_COUNT>
1

> <JCHEM_FORMAL_CHARGE>
0

> <JCHEM_GHOSE_FILTER>
0

> <JCHEM_IUPAC>
3,4-dimethylaniline

> <ALOGPS_LOGP>
1.82

> <JCHEM_LOGP>
2.1711626406666666

> <ALOGPS_LOGS>
-1.43

> <JCHEM_MDDR_LIKE_RULE>
0

> <JCHEM_NUMBER_OF_RINGS>
1

> <JCHEM_PHYSIOLOGICAL_CHARGE>
0

> <JCHEM_PKA_STRONGEST_BASIC>
5.181573369928031

> <JCHEM_POLAR_SURFACE_AREA>
26.02

> <JCHEM_REFRACTIVITY>
40.840799999999994

> <JCHEM_ROTATABLE_BOND_COUNT>
0

> <JCHEM_RULE_OF_FIVE>
1

> <ALOGPS_SOLUBILITY>
4.48e+00 g/l

> <JCHEM_TRADITIONAL_IUPAC>
3,4-dimethylaniline

> <JCHEM_VEBER_RULE>
1

> <DRUGBANK_ID>
DB03018

> <SECONDARY_ACCESSION_NUMBERS>
EXPT00155

> <DRUG_GROUPS>
experimental

> <GENERIC_NAME>
3,4-Dimethylaniline

$$$$
