444865
  -OEChem-10051720173D

 38 41  0     1  0  0  0  0  0999 V2000
   -4.9363   -1.1606   -0.1013 O   0  0  0  0  0  0  0  0  0  0  0  0
    5.8363   -0.0720    0.2220 O   0  0  0  0  0  0  0  0  0  0  0  0
   -2.5971   -0.5817    0.2301 C   0  0  2  0  0  0  0  0  0  0  0  0
   -2.0015    0.6835   -0.4208 C   0  0  1  0  0  0  0  0  0  0  0  0
   -1.9934   -1.7709   -0.5039 C   0  0  0  0  0  0  0  0  0  0  0  0
   -2.9401    1.8027    0.0297 C   0  0  0  0  0  0  0  0  0  0  0  0
   -4.0659   -0.3030   -0.0326 C   0  0  0  0  0  0  0  0  0  0  0  0
   -0.5137    0.7599   -0.2261 C   0  0  0  0  0  0  0  0  0  0  0  0
   -4.3316    1.1855   -0.1681 C   0  0  0  0  0  0  0  0  0  0  0  0
   -0.4602   -1.7928   -0.3551 C   0  0  0  0  0  0  0  0  0  0  0  0
    0.2459   -0.4391   -0.2567 C   0  0  0  0  0  0  0  0  0  0  0  0
   -2.4282   -0.6951    1.7561 C   0  0  0  0  0  0  0  0  0  0  0  0
    0.1341    1.9899   -0.1028 C   0  0  0  0  0  0  0  0  0  0  0  0
    1.6672   -0.3823   -0.1374 C   0  0  0  0  0  0  0  0  0  0  0  0
    2.2950    0.8822   -0.0035 C   0  0  0  0  0  0  0  0  0  0  0  0
    1.5201    2.0482    0.0119 C   0  0  0  0  0  0  0  0  0  0  0  0
    2.5021   -1.5247   -0.1406 C   0  0  0  0  0  0  0  0  0  0  0  0
    3.6924    0.9689    0.1147 C   0  0  0  0  0  0  0  0  0  0  0  0
    3.8899   -1.4228   -0.0211 C   0  0  0  0  0  0  0  0  0  0  0  0
    4.4850   -0.1758    0.1054 C   0  0  0  0  0  0  0  0  0  0  0  0
   -2.1298    0.6180   -1.5155 H   0  0  0  0  0  0  0  0  0  0  0  0
   -2.2495   -1.7185   -1.5712 H   0  0  0  0  0  0  0  0  0  0  0  0
   -2.4171   -2.7183   -0.1489 H   0  0  0  0  0  0  0  0  0  0  0  0
   -2.8250    2.7146   -0.5653 H   0  0  0  0  0  0  0  0  0  0  0  0
   -2.7751    2.0725    1.0791 H   0  0  0  0  0  0  0  0  0  0  0  0
   -4.7121    1.3864   -1.1737 H   0  0  0  0  0  0  0  0  0  0  0  0
   -5.0363    1.5296    0.5917 H   0  0  0  0  0  0  0  0  0  0  0  0
   -0.0490   -2.3541   -1.2027 H   0  0  0  0  0  0  0  0  0  0  0  0
   -0.2240   -2.3524    0.5595 H   0  0  0  0  0  0  0  0  0  0  0  0
   -1.3808   -0.6748    2.0703 H   0  0  0  0  0  0  0  0  0  0  0  0
   -2.9458    0.1079    2.2924 H   0  0  0  0  0  0  0  0  0  0  0  0
   -2.8615   -1.6363    2.1153 H   0  0  0  0  0  0  0  0  0  0  0  0
   -0.4279    2.9195   -0.1022 H   0  0  0  0  0  0  0  0  0  0  0  0
    1.9914    3.0246    0.1092 H   0  0  0  0  0  0  0  0  0  0  0  0
    2.0818   -2.5233   -0.2366 H   0  0  0  0  0  0  0  0  0  0  0  0
    4.1739    1.9404    0.2167 H   0  0  0  0  0  0  0  0  0  0  0  0
    4.4908   -2.3282   -0.0291 H   0  0  0  0  0  0  0  0  0  0  0  0
    6.2246   -0.9635    0.1966 H   0  0  0  0  0  0  0  0  0  0  0  0
  1  7  2  0  0  0  0
  2 20  1  0  0  0  0
  2 38  1  0  0  0  0
  3  4  1  0  0  0  0
  3  5  1  0  0  0  0
  3  7  1  0  0  0  0
  3 12  1  0  0  0  0
  4  6  1  0  0  0  0
  4  8  1  0  0  0  0
  4 21  1  0  0  0  0
  5 10  1  0  0  0  0
  5 22  1  0  0  0  0
  5 23  1  0  0  0  0
  6  9  1  0  0  0  0
  6 24  1  0  0  0  0
  6 25  1  0  0  0  0
  7  9  1  0  0  0  0
  8 11  2  0  0  0  0
  8 13  1  0  0  0  0
  9 26  1  0  0  0  0
  9 27  1  0  0  0  0
 10 11  1  0  0  0  0
 10 28  1  0  0  0  0
 10 29  1  0  0  0  0
 11 14  1  0  0  0  0
 12 30  1  0  0  0  0
 12 31  1  0  0  0  0
 12 32  1  0  0  0  0
 13 16  2  0  0  0  0
 13 33  1  0  0  0  0
 14 15  2  0  0  0  0
 14 17  1  0  0  0  0
 15 16  1  0  0  0  0
 15 18  1  0  0  0  0
 16 34  1  0  0  0  0
 17 19  2  0  0  0  0
 17 35  1  0  0  0  0
 18 20  2  0  0  0  0
 18 36  1  0  0  0  0
 19 20  1  0  0  0  0
 19 37  1  0  0  0  0
M  END
> <DATABASE_ID>
DB03515

> <DATABASE_NAME>
drugbank

> <ORIGINAL_SOURCE>
PUBCHEM

> <ORIGINAL_SOURCE_URL>
https://pubchem.ncbi.nlm.nih.gov/rest/pug/compound/inchikey/PDRGHUMCVRDZLQ-WMZOPIPTSA-N/SDF?record_type=3d

> <SMILES>
[H][C@@]12CCC(=O)[C@@]1(C)CCC1=C2C=CC2=C1C=CC(O)=C2

> <INCHI_IDENTIFIER>
InChI=1S/C18H18O2/c1-18-9-8-14-13-5-3-12(19)10-11(13)2-4-15(14)16(18)6-7-17(18)20/h2-5,10,16,19H,6-9H2,1H3/t16-,18-/m0/s1

> <INCHI_KEY>
PDRGHUMCVRDZLQ-WMZOPIPTSA-N

> <FORMULA>
C18H18O2

> <MOLECULAR_WEIGHT>
266.3343

> <EXACT_MASS>
266.13067982

> <JCHEM_ACCEPTOR_COUNT>
2

> <JCHEM_AVERAGE_POLARIZABILITY>
30.106240961429478

> <JCHEM_BIOAVAILABILITY>
1

> <JCHEM_DONOR_COUNT>
1

> <JCHEM_FORMAL_CHARGE>
0

> <JCHEM_GHOSE_FILTER>
1

> <JCHEM_IUPAC>
(11S,15S)-5-hydroxy-15-methyltetracyclo[8.7.0.0²,⁷.0¹¹,¹⁵]heptadeca-1(10),2(7),3,5,8-pentaen-14-one

> <ALOGPS_LOGP>
4.32

> <JCHEM_LOGP>
4.299056170666667

> <ALOGPS_LOGS>
-4.71

> <JCHEM_MDDR_LIKE_RULE>
0

> <JCHEM_NUMBER_OF_RINGS>
4

> <JCHEM_PHYSIOLOGICAL_CHARGE>
0

> <JCHEM_PKA>
19.584238089474

> <JCHEM_PKA_STRONGEST_ACIDIC>
9.778880920403427

> <JCHEM_PKA_STRONGEST_BASIC>
-5.497017869942497

> <JCHEM_POLAR_SURFACE_AREA>
37.3

> <JCHEM_REFRACTIVITY>
79.03559999999999

> <JCHEM_ROTATABLE_BOND_COUNT>
0

> <JCHEM_RULE_OF_FIVE>
1

> <ALOGPS_SOLUBILITY>
5.20e-03 g/l

> <JCHEM_TRADITIONAL_IUPAC>
equilenin

> <JCHEM_VEBER_RULE>
1

> <DRUGBANK_ID>
DB03515

> <SECONDARY_ACCESSION_NUMBERS>
EXPT01356

> <DRUG_GROUPS>
experimental

> <GENERIC_NAME>
Equilenin

$$$$
