5289288
  -OEChem-10051720243D

 61 65  0     0  0  0  0  0  0999 V2000
    3.6042   -0.1529   -0.2383 O   0  0  0  0  0  0  0  0  0  0  0  0
   -1.5182   -0.6545    3.2185 O   0  0  0  0  0  0  0  0  0  0  0  0
    0.3493    0.4475    2.5369 O   0  0  0  0  0  0  0  0  0  0  0  0
   -5.3715    1.4784   -2.2412 O   0  0  0  0  0  0  0  0  0  0  0  0
   -5.5256   -1.0438    1.6423 O   0  0  0  0  0  0  0  0  0  0  0  0
    3.4910   -4.9029   -0.4084 N   0  0  0  0  0  0  0  0  0  0  0  0
    4.1746    4.5900   -0.0712 N   0  0  0  0  0  0  0  0  0  0  0  0
   -4.9278    0.2017   -0.2889 N   0  0  0  0  0  0  0  0  0  0  0  0
    1.3591   -1.1809   -0.2626 C   0  0  0  0  0  0  0  0  0  0  0  0
    0.7486    0.0301   -0.2153 C   0  0  0  0  0  0  0  0  0  0  0  0
    1.6147    1.2310   -0.1768 C   0  0  0  0  0  0  0  0  0  0  0  0
    0.5749   -2.4905   -0.3058 C   0  0  0  0  0  0  0  0  0  0  0  0
    2.8203   -1.3008   -0.2752 C   0  0  0  0  0  0  0  0  0  0  0  0
   -0.7152    0.0743   -0.2052 C   0  0  0  0  0  0  0  0  0  0  0  0
    3.0018    1.0769   -0.1905 C   0  0  0  0  0  0  0  0  0  0  0  0
    2.7456   -3.7581   -0.3632 C   0  0  0  0  0  0  0  0  0  0  0  0
    1.4022   -3.7445   -0.3552 C   0  0  0  0  0  0  0  0  0  0  0  0
    3.4445   -2.4886   -0.3213 C   0  0  0  0  0  0  0  0  0  0  0  0
    1.0918    2.5328   -0.1268 C   0  0  0  0  0  0  0  0  0  0  0  0
   -1.4305    0.0516    0.9879 C   0  0  0  0  0  0  0  0  0  0  0  0
    3.8536    2.1850   -0.1555 C   0  0  0  0  0  0  0  0  0  0  0  0
    3.3201    3.4695   -0.1061 C   0  0  0  0  0  0  0  0  0  0  0  0
   -1.3801    0.1386   -1.4259 C   0  0  0  0  0  0  0  0  0  0  0  0
    1.9394    3.6434   -0.0917 C   0  0  0  0  0  0  0  0  0  0  0  0
   -3.4963    0.1580   -0.2604 C   0  0  0  0  0  0  0  0  0  0  0  0
   -2.8245    0.0936    0.9604 C   0  0  0  0  0  0  0  0  0  0  0  0
   -2.7740    0.1807   -1.4536 C   0  0  0  0  0  0  0  0  0  0  0  0
    4.4311   -5.2370    0.6522 C   0  0  0  0  0  0  0  0  0  0  0  0
    3.2082   -5.9543   -1.3754 C   0  0  0  0  0  0  0  0  0  0  0  0
   -0.7656   -0.0145    2.2844 C   0  0  0  0  0  0  0  0  0  0  0  0
    3.7557    5.8520   -0.6489 C   0  0  0  0  0  0  0  0  0  0  0  0
    5.4790    4.4999    0.5554 C   0  0  0  0  0  0  0  0  0  0  0  0
   -5.6857    0.8248   -1.2599 C   0  0  0  0  0  0  0  0  0  0  0  0
   -5.7602   -0.3731    0.6504 C   0  0  0  0  0  0  0  0  0  0  0  0
   -7.0954    0.6165   -0.8983 C   0  0  0  0  0  0  0  0  0  0  0  0
   -7.1392   -0.0798    0.2332 C   0  0  0  0  0  0  0  0  0  0  0  0
   -0.0722   -2.4992   -1.1914 H   0  0  0  0  0  0  0  0  0  0  0  0
   -0.0634   -2.5639    0.5831 H   0  0  0  0  0  0  0  0  0  0  0  0
    0.8491   -4.6806   -0.3794 H   0  0  0  0  0  0  0  0  0  0  0  0
    4.5317   -2.5155   -0.3366 H   0  0  0  0  0  0  0  0  0  0  0  0
    0.0191    2.7095   -0.1109 H   0  0  0  0  0  0  0  0  0  0  0  0
    4.9274    2.0179   -0.1796 H   0  0  0  0  0  0  0  0  0  0  0  0
   -0.8326    0.1512   -2.3654 H   0  0  0  0  0  0  0  0  0  0  0  0
    1.4866    4.6297   -0.0413 H   0  0  0  0  0  0  0  0  0  0  0  0
   -3.3839    0.1231    1.8908 H   0  0  0  0  0  0  0  0  0  0  0  0
   -3.2643    0.2027   -2.4219 H   0  0  0  0  0  0  0  0  0  0  0  0
    4.1231   -6.1603    1.1549 H   0  0  0  0  0  0  0  0  0  0  0  0
    5.4318   -5.3876    0.2340 H   0  0  0  0  0  0  0  0  0  0  0  0
    4.4988   -4.4538    1.4155 H   0  0  0  0  0  0  0  0  0  0  0  0
    2.8366   -5.5397   -2.3193 H   0  0  0  0  0  0  0  0  0  0  0  0
    4.1156   -6.5237   -1.6050 H   0  0  0  0  0  0  0  0  0  0  0  0
    2.4599   -6.6483   -0.9783 H   0  0  0  0  0  0  0  0  0  0  0  0
    4.6165    6.5003   -0.8477 H   0  0  0  0  0  0  0  0  0  0  0  0
    3.0894    6.3891    0.0341 H   0  0  0  0  0  0  0  0  0  0  0  0
    3.2449    5.7047   -1.6073 H   0  0  0  0  0  0  0  0  0  0  0  0
    6.1995    4.0209   -0.1158 H   0  0  0  0  0  0  0  0  0  0  0  0
    5.4346    3.9373    1.4949 H   0  0  0  0  0  0  0  0  0  0  0  0
    5.8688    5.4940    0.8017 H   0  0  0  0  0  0  0  0  0  0  0  0
   -7.9320    0.9864   -1.4669 H   0  0  0  0  0  0  0  0  0  0  0  0
   -8.0187   -0.3975    0.7677 H   0  0  0  0  0  0  0  0  0  0  0  0
   -1.0649   -0.6950    4.0876 H   0  0  0  0  0  0  0  0  0  0  0  0
  1 13  1  0  0  0  0
  1 15  1  0  0  0  0
  2 30  1  0  0  0  0
  2 61  1  0  0  0  0
  3 30  2  0  0  0  0
  4 33  2  0  0  0  0
  5 34  2  0  0  0  0
  6 16  1  0  0  0  0
  6 28  1  0  0  0  0
  6 29  1  0  0  0  0
  7 22  1  0  0  0  0
  7 31  1  0  0  0  0
  7 32  1  0  0  0  0
  8 25  1  0  0  0  0
  8 33  1  0  0  0  0
  8 34  1  0  0  0  0
  9 10  2  0  0  0  0
  9 12  1  0  0  0  0
  9 13  1  0  0  0  0
 10 11  1  0  0  0  0
 10 14  1  0  0  0  0
 11 15  2  0  0  0  0
 11 19  1  0  0  0  0
 12 17  1  0  0  0  0
 12 37  1  0  0  0  0
 12 38  1  0  0  0  0
 13 18  2  0  0  0  0
 14 20  2  0  0  0  0
 14 23  1  0  0  0  0
 15 21  1  0  0  0  0
 16 17  2  0  0  0  0
 16 18  1  0  0  0  0
 17 39  1  0  0  0  0
 18 40  1  0  0  0  0
 19 24  2  0  0  0  0
 19 41  1  0  0  0  0
 20 26  1  0  0  0  0
 20 30  1  0  0  0  0
 21 22  2  0  0  0  0
 21 42  1  0  0  0  0
 22 24  1  0  0  0  0
 23 27  2  0  0  0  0
 23 43  1  0  0  0  0
 24 44  1  0  0  0  0
 25 26  2  0  0  0  0
 25 27  1  0  0  0  0
 26 45  1  0  0  0  0
 27 46  1  0  0  0  0
 28 47  1  0  0  0  0
 28 48  1  0  0  0  0
 28 49  1  0  0  0  0
 29 50  1  0  0  0  0
 29 51  1  0  0  0  0
 29 52  1  0  0  0  0
 31 53  1  0  0  0  0
 31 54  1  0  0  0  0
 31 55  1  0  0  0  0
 32 56  1  0  0  0  0
 32 57  1  0  0  0  0
 32 58  1  0  0  0  0
 33 35  1  0  0  0  0
 34 36  1  0  0  0  0
 35 36  2  0  0  0  0
 35 59  1  0  0  0  0
 36 60  1  0  0  0  0
M  END
> <DATABASE_ID>
DB03903

> <DATABASE_NAME>
drugbank

> <ORIGINAL_SOURCE>
PUBCHEM

> <ORIGINAL_SOURCE_URL>
https://pubchem.ncbi.nlm.nih.gov/rest/pug/compound/inchikey/KGFLZYXDJDOIEE-UHFFFAOYSA-N/SDF?record_type=3d

> <SMILES>
CN(C)C1=CCC2=C(C3=CC=C(C=C3OC2=C1)N(C)C)C1=CC=C(C=C1C(O)=O)N1C(=O)C=CC1=O

> <INCHI_IDENTIFIER>
InChI=1S/C28H25N3O5/c1-29(2)16-5-9-20-23(14-16)36-24-15-17(30(3)4)6-10-21(24)27(20)19-8-7-18(13-22(19)28(34)35)31-25(32)11-12-26(31)33/h5-9,11-15H,10H2,1-4H3,(H,34,35)

> <INCHI_KEY>
KGFLZYXDJDOIEE-UHFFFAOYSA-N

> <FORMULA>
C28H25N3O5

> <MOLECULAR_WEIGHT>
483.5152

> <EXACT_MASS>
483.179420925

> <JCHEM_ACCEPTOR_COUNT>
7

> <JCHEM_AVERAGE_POLARIZABILITY>
52.50273785516451

> <JCHEM_BIOAVAILABILITY>
1

> <JCHEM_DONOR_COUNT>
1

> <JCHEM_FORMAL_CHARGE>
0

> <JCHEM_GHOSE_FILTER>
0

> <JCHEM_IUPAC>
2-[3,6-bis(dimethylamino)-1H-xanthen-9-yl]-5-(2,5-dioxo-2,5-dihydro-1H-pyrrol-1-yl)benzoic acid

> <ALOGPS_LOGP>
3.97

> <JCHEM_LOGP>
-0.09798378948462375

> <ALOGPS_LOGS>
-4.39

> <JCHEM_MDDR_LIKE_RULE>
0

> <JCHEM_NUMBER_OF_RINGS>
5

> <JCHEM_PHYSIOLOGICAL_CHARGE>
0

> <JCHEM_PKA_STRONGEST_ACIDIC>
3.7211201310026714

> <JCHEM_PKA_STRONGEST_BASIC>
7.420547931502934

> <JCHEM_POLAR_SURFACE_AREA>
90.38999999999999

> <JCHEM_REFRACTIVITY>
150.85230000000004

> <JCHEM_ROTATABLE_BOND_COUNT>
5

> <JCHEM_RULE_OF_FIVE>
1

> <ALOGPS_SOLUBILITY>
1.99e-02 g/l

> <JCHEM_TRADITIONAL_IUPAC>
Tmr

> <JCHEM_VEBER_RULE>
0

> <DRUGBANK_ID>
DB03903

> <SECONDARY_ACCESSION_NUMBERS>
EXPT02780

> <DRUG_GROUPS>
experimental

> <GENERIC_NAME>
Tmr

$$$$
