6604901
  -OEChem-10051720213D

 38 40  0     1  0  0  0  0  0999 V2000
   -1.1785   -0.6860   -0.0515 O   0  0  0  0  0  0  0  0  0  0  0  0
   -0.1168    2.7214    0.1192 O   0  0  0  0  0  0  0  0  0  0  0  0
   -2.6825    2.1638   -1.5713 O   0  0  0  0  0  0  0  0  0  0  0  0
   -3.3826   -0.7276    1.4098 O   0  0  0  0  0  0  0  0  0  0  0  0
    1.1313   -0.2219   -0.2258 N   0  0  0  0  0  0  0  0  0  0  0  0
   -4.6503   -0.5783   -0.5369 N   0  0  0  0  0  0  0  0  0  0  0  0
    2.6280   -1.3723   -1.4144 N   0  0  0  0  0  0  0  0  0  0  0  0
    2.6050    0.8186    1.4012 N   0  0  0  0  0  0  0  0  0  0  0  0
    4.9305    0.1783    1.0298 N   0  0  0  0  0  0  0  0  0  0  0  0
    5.5915   -1.2925   -0.7385 N   0  0  0  0  0  0  0  0  0  0  0  0
   -0.5867    1.5619   -0.5453 C   0  0  1  0  0  0  0  0  0  0  0  0
   -0.1645    0.3036    0.1975 C   0  0  1  0  0  0  0  0  0  0  0  0
   -2.0949    1.4615   -0.4897 C   0  0  2  0  0  0  0  0  0  0  0  0
   -2.3250   -0.0335   -0.6078 C   0  0  2  0  0  0  0  0  0  0  0  0
   -3.4910   -0.4755    0.2126 C   0  0  0  0  0  0  0  0  0  0  0  0
    2.3472    0.0358    0.3429 C   0  0  0  0  0  0  0  0  0  0  0  0
    1.3531   -1.0732   -1.2770 C   0  0  0  0  0  0  0  0  0  0  0  0
    3.2607   -0.6860   -0.4085 C   0  0  0  0  0  0  0  0  0  0  0  0
   -5.9139   -1.0086    0.0166 C   0  0  0  0  0  0  0  0  0  0  0  0
    4.5968   -0.5949   -0.0314 C   0  0  0  0  0  0  0  0  0  0  0  0
    3.9287    0.8275    1.6708 C   0  0  0  0  0  0  0  0  0  0  0  0
   -5.7863   -1.3221    1.4977 C   0  0  0  0  0  0  0  0  0  0  0  0
   -0.2297    1.5876   -1.5820 H   0  0  0  0  0  0  0  0  0  0  0  0
   -0.1106    0.4607    1.2818 H   0  0  0  0  0  0  0  0  0  0  0  0
   -2.4865    1.8851    0.4431 H   0  0  0  0  0  0  0  0  0  0  0  0
   -2.4289   -0.3614   -1.6484 H   0  0  0  0  0  0  0  0  0  0  0  0
    0.8550    2.6879    0.1150 H   0  0  0  0  0  0  0  0  0  0  0  0
   -3.6395    1.9936   -1.5432 H   0  0  0  0  0  0  0  0  0  0  0  0
    0.5560   -1.4376   -1.9108 H   0  0  0  0  0  0  0  0  0  0  0  0
   -4.6307   -0.3387   -1.5237 H   0  0  0  0  0  0  0  0  0  0  0  0
   -6.6401   -0.2076   -0.1520 H   0  0  0  0  0  0  0  0  0  0  0  0
   -6.2384   -1.8910   -0.5432 H   0  0  0  0  0  0  0  0  0  0  0  0
    4.2321    1.4373    2.5151 H   0  0  0  0  0  0  0  0  0  0  0  0
   -5.1187   -2.1660    1.6998 H   0  0  0  0  0  0  0  0  0  0  0  0
   -5.5298   -0.4442    2.0996 H   0  0  0  0  0  0  0  0  0  0  0  0
   -6.7716   -1.6416    1.8607 H   0  0  0  0  0  0  0  0  0  0  0  0
    6.5553   -1.2103   -0.4451 H   0  0  0  0  0  0  0  0  0  0  0  0
    5.3450   -1.8702   -1.5308 H   0  0  0  0  0  0  0  0  0  0  0  0
  1 12  1  0  0  0  0
  1 14  1  0  0  0  0
  2 11  1  0  0  0  0
  2 27  1  0  0  0  0
  3 13  1  0  0  0  0
  3 28  1  0  0  0  0
  4 15  2  0  0  0  0
  5 12  1  0  0  0  0
  5 16  1  0  0  0  0
  5 17  1  0  0  0  0
  6 15  1  0  0  0  0
  6 19  1  0  0  0  0
  6 30  1  0  0  0  0
  7 17  2  0  0  0  0
  7 18  1  0  0  0  0
  8 16  2  0  0  0  0
  8 21  1  0  0  0  0
  9 20  1  0  0  0  0
  9 21  2  0  0  0  0
 10 20  1  0  0  0  0
 10 37  1  0  0  0  0
 10 38  1  0  0  0  0
 11 12  1  0  0  0  0
 11 13  1  0  0  0  0
 11 23  1  0  0  0  0
 12 24  1  0  0  0  0
 13 14  1  0  0  0  0
 13 25  1  0  0  0  0
 14 15  1  0  0  0  0
 14 26  1  0  0  0  0
 16 18  1  0  0  0  0
 17 29  1  0  0  0  0
 18 20  2  0  0  0  0
 19 22  1  0  0  0  0
 19 31  1  0  0  0  0
 19 32  1  0  0  0  0
 21 33  1  0  0  0  0
 22 34  1  0  0  0  0
 22 35  1  0  0  0  0
 22 36  1  0  0  0  0
M  END
> <DATABASE_ID>
DB03719

> <DATABASE_NAME>
drugbank

> <ORIGINAL_SOURCE>
PUBCHEM

> <ORIGINAL_SOURCE_URL>
https://pubchem.ncbi.nlm.nih.gov/rest/pug/compound/inchikey/JADDQZYHOWSFJD-BMYQGPEFSA-N/SDF?record_type=3d

> <SMILES>
CCNC(=O)[C@@H]1O[C@H]([C@H](O)[C@H]1O)N1C=NC2=C1N=CN=C2N

> <INCHI_IDENTIFIER>
InChI=1S/C12H16N6O4/c1-2-14-11(21)8-6(19)7(20)12(22-8)18-4-17-5-9(13)15-3-16-10(5)18/h3-4,6-8,12,19-20H,2H2,1H3,(H,14,21)(H2,13,15,16)/t6-,7-,8-,12-/m1/s1

> <INCHI_KEY>
JADDQZYHOWSFJD-BMYQGPEFSA-N

> <FORMULA>
C12H16N6O4

> <MOLECULAR_WEIGHT>
308.2932

> <EXACT_MASS>
308.12330303

> <JCHEM_ACCEPTOR_COUNT>
8

> <JCHEM_AVERAGE_POLARIZABILITY>
29.851140646838722

> <JCHEM_BIOAVAILABILITY>
1

> <JCHEM_DONOR_COUNT>
4

> <JCHEM_FORMAL_CHARGE>
0

> <JCHEM_GHOSE_FILTER>
0

> <JCHEM_IUPAC>
(2R,3R,4R,5R)-5-(6-amino-9H-purin-9-yl)-N-ethyl-3,4-dihydroxyoxolane-2-carboxamide

> <ALOGPS_LOGP>
-0.60

> <JCHEM_LOGP>
-1.9971479269999999

> <ALOGPS_LOGS>
-1.62

> <JCHEM_MDDR_LIKE_RULE>
0

> <JCHEM_NUMBER_OF_RINGS>
3

> <JCHEM_PHYSIOLOGICAL_CHARGE>
0

> <JCHEM_PKA>
13.802647539346012

> <JCHEM_PKA_STRONGEST_ACIDIC>
12.393688119397073

> <JCHEM_PKA_STRONGEST_BASIC>
4.988338332254887

> <JCHEM_POLAR_SURFACE_AREA>
148.41

> <JCHEM_REFRACTIVITY>
74.5305

> <JCHEM_ROTATABLE_BOND_COUNT>
3

> <JCHEM_RULE_OF_FIVE>
1

> <ALOGPS_SOLUBILITY>
7.34e+00 g/l

> <JCHEM_TRADITIONAL_IUPAC>
(2R,3R,4R,5R)-5-(6-aminopurin-9-yl)-N-ethyl-3,4-dihydroxyoxolane-2-carboxamide

> <JCHEM_VEBER_RULE>
0

> <DRUGBANK_ID>
DB03719

> <SECONDARY_ACCESSION_NUMBERS>
EXPT02324

> <DRUG_GROUPS>
experimental

> <GENERIC_NAME>
N-Ethyl-5'-Carboxamido Adenosine

$$$$
