6992039
  -OEChem-10051720233D

 24 23  0     1  0  0  0  0  0999 V2000
    2.0114   -1.2315   -1.2473 F   0  0  0  0  0  0  0  0  0  0  0  0
    2.9712   -0.4860    0.5582 F   0  0  0  0  0  0  0  0  0  0  0  0
    0.7462    1.1225   -1.6176 O   0  0  0  0  0  0  0  0  0  0  0  0
    0.8536    2.2206    0.3547 O   0  0  0  0  0  0  0  0  0  0  0  0
    0.5789   -0.0025    1.8431 N   0  0  0  0  0  0  0  0  0  0  0  0
   -4.4440    0.1073    0.0136 N   0  0  0  0  0  0  0  0  0  0  0  0
    0.6196   -0.2196    0.3897 C   0  0  2  0  0  0  0  0  0  0  0  0
   -0.7100   -0.8614   -0.0737 C   0  0  0  0  0  0  0  0  0  0  0  0
   -1.9731   -0.0441    0.2416 C   0  0  0  0  0  0  0  0  0  0  0  0
    1.8456   -1.0867    0.0916 C   0  0  0  0  0  0  0  0  0  0  0  0
   -3.2583   -0.6829   -0.2943 C   0  0  0  0  0  0  0  0  0  0  0  0
    0.7590    1.1643   -0.2595 C   0  0  0  0  0  0  0  0  0  0  0  0
   -0.8121   -1.8522    0.3896 H   0  0  0  0  0  0  0  0  0  0  0  0
   -0.6701   -1.0380   -1.1567 H   0  0  0  0  0  0  0  0  0  0  0  0
   -1.8821    0.9627   -0.1833 H   0  0  0  0  0  0  0  0  0  0  0  0
   -2.0759    0.0755    1.3266 H   0  0  0  0  0  0  0  0  0  0  0  0
    1.7755   -2.0828    0.5401 H   0  0  0  0  0  0  0  0  0  0  0  0
   -3.3764   -1.6854    0.1322 H   0  0  0  0  0  0  0  0  0  0  0  0
   -3.1852   -0.7971   -1.3814 H   0  0  0  0  0  0  0  0  0  0  0  0
   -0.1386    0.6793    2.0839 H   0  0  0  0  0  0  0  0  0  0  0  0
    1.4642    0.3915    2.1602 H   0  0  0  0  0  0  0  0  0  0  0  0
   -4.5402    0.2010    1.0239 H   0  0  0  0  0  0  0  0  0  0  0  0
   -5.2742   -0.3883   -0.3085 H   0  0  0  0  0  0  0  0  0  0  0  0
    0.8248    2.0174   -2.0114 H   0  0  0  0  0  0  0  0  0  0  0  0
  1 10  1  0  0  0  0
  2 10  1  0  0  0  0
  3 12  1  0  0  0  0
  3 24  1  0  0  0  0
  4 12  2  0  0  0  0
  5  7  1  0  0  0  0
  5 20  1  0  0  0  0
  5 21  1  0  0  0  0
  6 11  1  0  0  0  0
  6 22  1  0  0  0  0
  6 23  1  0  0  0  0
  7  8  1  0  0  0  0
  7 10  1  0  0  0  0
  7 12  1  0  0  0  0
  8  9  1  0  0  0  0
  8 13  1  0  0  0  0
  8 14  1  0  0  0  0
  9 11  1  0  0  0  0
  9 15  1  0  0  0  0
  9 16  1  0  0  0  0
 10 17  1  0  0  0  0
 11 18  1  0  0  0  0
 11 19  1  0  0  0  0
M  END
> <DATABASE_ID>
DB03856

> <DATABASE_NAME>
drugbank

> <ORIGINAL_SOURCE>
PUBCHEM

> <ORIGINAL_SOURCE_URL>
https://pubchem.ncbi.nlm.nih.gov/rest/pug/compound/inchikey/VLCYCQAOQCDTCN-ZCFIWIBFSA-N/SDF?record_type=3d

> <SMILES>
NCCC[C@@](N)(C(F)F)C(O)=O

> <INCHI_IDENTIFIER>
InChI=1S/C6H12F2N2O2/c7-4(8)6(10,5(11)12)2-1-3-9/h4H,1-3,9-10H2,(H,11,12)/t6-/m1/s1

> <INCHI_KEY>
VLCYCQAOQCDTCN-ZCFIWIBFSA-N

> <FORMULA>
C6H12F2N2O2

> <MOLECULAR_WEIGHT>
182.1685

> <EXACT_MASS>
182.086684048

> <JCHEM_ACCEPTOR_COUNT>
4

> <JCHEM_AVERAGE_POLARIZABILITY>
15.821010012647381

> <JCHEM_BIOAVAILABILITY>
1

> <JCHEM_DONOR_COUNT>
3

> <JCHEM_FORMAL_CHARGE>
0

> <JCHEM_GHOSE_FILTER>
0

> <JCHEM_IUPAC>
(2S)-2,5-diamino-2-(difluoromethyl)pentanoic acid

> <ALOGPS_LOGP>
-2.05

> <JCHEM_LOGP>
-2.908437200546133

> <ALOGPS_LOGS>
-0.56

> <JCHEM_MDDR_LIKE_RULE>
0

> <JCHEM_NUMBER_OF_RINGS>
0

> <JCHEM_PHYSIOLOGICAL_CHARGE>
1

> <JCHEM_PKA_STRONGEST_ACIDIC>
2.190272271177595

> <JCHEM_PKA_STRONGEST_BASIC>
10.204405323783407

> <JCHEM_POLAR_SURFACE_AREA>
89.34

> <JCHEM_REFRACTIVITY>
37.7336

> <JCHEM_ROTATABLE_BOND_COUNT>
5

> <JCHEM_RULE_OF_FIVE>
1

> <ALOGPS_SOLUBILITY>
5.00e+01 g/l

> <JCHEM_TRADITIONAL_IUPAC>
Î±-difluoromethylornithine

> <JCHEM_VEBER_RULE>
0

> <DRUGBANK_ID>
DB03856

> <SECONDARY_ACCESSION_NUMBERS>
EXPT01229

> <DRUG_GROUPS>
experimental; investigational

> <GENERIC_NAME>
L-Eflornithine

> <SYNONYMS>
(-)-2-difluoromethylornithine

$$$$
