44
  -OEChem-10051720203D

 10  9  0     0  0  0  0  0  0999 V2000
    0.2540    1.8282    0.1073 O   0  0  0  0  0  0  0  0  0  0  0  0
    0.9104   -1.6133   -0.0835 O   0  5  0  0  0  0  0  0  0  0  0  0
   -1.2885   -0.2648    1.2943 O   0  5  0  0  0  0  0  0  0  0  0  0
    2.2928    0.1988    0.0800 O   0  0  0  0  0  0  0  0  0  0  0  0
   -2.1410   -0.2692   -0.8258 O   0  0  0  0  0  0  0  0  0  0  0  0
    0.0381    0.5541   -0.4929 C   0  0  0  0  0  0  0  0  0  0  0  0
    1.1892   -0.3823   -0.1292 C   0  0  0  0  0  0  0  0  0  0  0  0
   -1.2551   -0.0515    0.0498 C   0  0  0  0  0  0  0  0  0  0  0  0
    0.0087    0.6775   -1.5806 H   0  0  0  0  0  0  0  0  0  0  0  0
   -0.4898    2.3992   -0.1504 H   0  0  0  0  0  0  0  0  0  0  0  0
  1  6  1  0  0  0  0
  1 10  1  0  0  0  0
  2  7  1  0  0  0  0
  3  8  1  0  0  0  0
  4  7  2  0  0  0  0
  5  8  2  0  0  0  0
  6  7  1  0  0  0  0
  6  8  1  0  0  0  0
  6  9  1  0  0  0  0
M  CHG  2   2  -1   3  -1
M  END
> <DATABASE_ID>
DB03680

> <DATABASE_NAME>
drugbank

> <ORIGINAL_SOURCE>
PUBCHEM

> <ORIGINAL_SOURCE_URL>
https://pubchem.ncbi.nlm.nih.gov/rest/pug/compound/inchikey/ROBFUDYVXSDBQM-UHFFFAOYSA-L/SDF?record_type=3d

> <SMILES>
OC(C([O-])=O)C([O-])=O

> <INCHI_IDENTIFIER>
InChI=1S/C3H4O5/c4-1(2(5)6)3(7)8/h1,4H,(H,5,6)(H,7,8)/p-2

> <INCHI_KEY>
ROBFUDYVXSDBQM-UHFFFAOYSA-L

> <FORMULA>
C3H2O5

> <MOLECULAR_WEIGHT>
118.045

> <EXACT_MASS>
117.990223174

> <JCHEM_ACCEPTOR_COUNT>
5

> <JCHEM_AVERAGE_POLARIZABILITY>
8.16387476892388

> <JCHEM_BIOAVAILABILITY>
1

> <JCHEM_DONOR_COUNT>
1

> <JCHEM_FORMAL_CHARGE>
-2

> <JCHEM_GHOSE_FILTER>
0

> <JCHEM_IUPAC>
2-hydroxypropanedioate

> <ALOGPS_LOGP>
-0.92

> <JCHEM_LOGP>
-1.0462757289999998

> <ALOGPS_LOGS>
0.55

> <JCHEM_MDDR_LIKE_RULE>
0

> <JCHEM_NUMBER_OF_RINGS>
0

> <JCHEM_PHYSIOLOGICAL_CHARGE>
-2

> <JCHEM_PKA>
4.791393825073151

> <JCHEM_PKA_STRONGEST_ACIDIC>
2.156503841175261

> <JCHEM_PKA_STRONGEST_BASIC>
-4.856106978575348

> <JCHEM_POLAR_SURFACE_AREA>
100.49000000000001

> <JCHEM_REFRACTIVITY>
42.00020000000001

> <JCHEM_ROTATABLE_BOND_COUNT>
2

> <JCHEM_RULE_OF_FIVE>
1

> <ALOGPS_SOLUBILITY>
5.42e+02 g/l

> <JCHEM_TRADITIONAL_IUPAC>
tartronate

> <JCHEM_VEBER_RULE>
0

> <DRUGBANK_ID>
DB03680

> <SECONDARY_ACCESSION_NUMBERS>
EXPT03129

> <DRUG_GROUPS>
experimental

> <GENERIC_NAME>
Tartronate

$$$$
