7245
  -OEChem-10051720093D

 13 13  0     0  0  0  0  0  0999 V2000
    2.2677   -1.2333    0.0002 Cl  0  0  0  0  0  0  0  0  0  0  0  0
    1.5040    1.6750   -0.0001 O   0  0  0  0  0  0  0  0  0  0  0  0
    0.4596    0.7990   -0.0001 C   0  0  0  0  0  0  0  0  0  0  0  0
    0.6712   -0.5797    0.0000 C   0  0  0  0  0  0  0  0  0  0  0  0
   -0.8403    1.3051    0.0001 C   0  0  0  0  0  0  0  0  0  0  0  0
   -0.4169   -1.4523   -0.0002 C   0  0  0  0  0  0  0  0  0  0  0  0
   -1.9285    0.4325    0.0002 C   0  0  0  0  0  0  0  0  0  0  0  0
   -1.7168   -0.9462    0.0000 C   0  0  0  0  0  0  0  0  0  0  0  0
   -1.0125    2.3780    0.0002 H   0  0  0  0  0  0  0  0  0  0  0  0
   -0.2687   -2.5292   -0.0003 H   0  0  0  0  0  0  0  0  0  0  0  0
   -2.9406    0.8265    0.0003 H   0  0  0  0  0  0  0  0  0  0  0  0
   -2.5642   -1.6256    0.0000 H   0  0  0  0  0  0  0  0  0  0  0  0
    2.3312    1.1630   -0.0002 H   0  0  0  0  0  0  0  0  0  0  0  0
  1  4  1  0  0  0  0
  2  3  1  0  0  0  0
  2 13  1  0  0  0  0
  3  4  1  0  0  0  0
  3  5  2  0  0  0  0
  4  6  2  0  0  0  0
  5  7  1  0  0  0  0
  5  9  1  0  0  0  0
  6  8  1  0  0  0  0
  6 10  1  0  0  0  0
  7  8  2  0  0  0  0
  7 11  1  0  0  0  0
  8 12  1  0  0  0  0
M  END
> <DATABASE_ID>
DB03110

> <DATABASE_NAME>
drugbank

> <ORIGINAL_SOURCE>
PUBCHEM

> <ORIGINAL_SOURCE_URL>
https://pubchem.ncbi.nlm.nih.gov/rest/pug/compound/inchikey/ISPYQTSUDJAMAB-UHFFFAOYSA-N/SDF?record_type=3d

> <SMILES>
OC1=CC=CC=C1Cl

> <INCHI_IDENTIFIER>
InChI=1S/C6H5ClO/c7-5-3-1-2-4-6(5)8/h1-4,8H

> <INCHI_KEY>
ISPYQTSUDJAMAB-UHFFFAOYSA-N

> <FORMULA>
C6H5ClO

> <MOLECULAR_WEIGHT>
128.556

> <EXACT_MASS>
128.002892489

> <JCHEM_ACCEPTOR_COUNT>
1

> <JCHEM_AVERAGE_POLARIZABILITY>
11.926234913461851

> <JCHEM_BIOAVAILABILITY>
1

> <JCHEM_DONOR_COUNT>
1

> <JCHEM_FORMAL_CHARGE>
0

> <JCHEM_GHOSE_FILTER>
0

> <JCHEM_IUPAC>
2-chlorophenol

> <ALOGPS_LOGP>
2.40

> <JCHEM_LOGP>
2.2737251706666664

> <ALOGPS_LOGS>
-0.94

> <JCHEM_MDDR_LIKE_RULE>
0

> <JCHEM_NUMBER_OF_RINGS>
1

> <JCHEM_PHYSIOLOGICAL_CHARGE>
0

> <JCHEM_PKA_STRONGEST_ACIDIC>
7.967587621167141

> <JCHEM_PKA_STRONGEST_BASIC>
-6.726155654146216

> <JCHEM_POLAR_SURFACE_AREA>
20.23

> <JCHEM_REFRACTIVITY>
32.8437

> <JCHEM_ROTATABLE_BOND_COUNT>
0

> <JCHEM_RULE_OF_FIVE>
1

> <ALOGPS_SOLUBILITY>
1.48e+01 g/l

> <JCHEM_TRADITIONAL_IUPAC>
2-chlorophenol

> <JCHEM_VEBER_RULE>
1

> <DRUGBANK_ID>
DB03110

> <SECONDARY_ACCESSION_NUMBERS>
EXPT00108

> <DRUG_GROUPS>
experimental

> <GENERIC_NAME>
2-Chlorophenol

$$$$
