10964
  -OEChem-10051720083D

  9  8  0     0  0  0  0  0  0999 V2000
    1.3685    0.8902    0.0022 O   0  0  0  0  0  0  0  0  0  0  0  0
   -1.3685    0.8902    0.0022 O   0  0  0  0  0  0  0  0  0  0  0  0
   -0.0001   -1.1149    0.0069 C   0  0  0  0  0  0  0  0  0  0  0  0
    1.2852   -0.3328   -0.0057 C   0  0  0  0  0  0  0  0  0  0  0  0
   -1.2852   -0.3328   -0.0056 C   0  0  0  0  0  0  0  0  0  0  0  0
    0.0000   -1.7434    0.9028 H   0  0  0  0  0  0  0  0  0  0  0  0
   -0.0001   -1.7651   -0.8735 H   0  0  0  0  0  0  0  0  0  0  0  0
    2.2008   -0.9494   -0.0178 H   0  0  0  0  0  0  0  0  0  0  0  0
   -2.2008   -0.9493   -0.0176 H   0  0  0  0  0  0  0  0  0  0  0  0
  1  4  2  0  0  0  0
  2  5  2  0  0  0  0
  3  4  1  0  0  0  0
  3  5  1  0  0  0  0
  3  6  1  0  0  0  0
  3  7  1  0  0  0  0
  4  8  1  0  0  0  0
  5  9  1  0  0  0  0
M  END
> <DATABASE_ID>
DB03057

> <DATABASE_NAME>
drugbank

> <ORIGINAL_SOURCE>
PUBCHEM

> <ORIGINAL_SOURCE_URL>
https://pubchem.ncbi.nlm.nih.gov/rest/pug/compound/inchikey/WSMYVTOQOOLQHP-UHFFFAOYSA-N/SDF?record_type=3d

> <SMILES>
O=CCC=O

> <INCHI_IDENTIFIER>
InChI=1S/C3H4O2/c4-2-1-3-5/h2-3H,1H2

> <INCHI_KEY>
WSMYVTOQOOLQHP-UHFFFAOYSA-N

> <FORMULA>
C3H4O2

> <MOLECULAR_WEIGHT>
72.0627

> <EXACT_MASS>
72.021129372

> <JCHEM_ACCEPTOR_COUNT>
2

> <JCHEM_AVERAGE_POLARIZABILITY>
6.419189938704783

> <JCHEM_BIOAVAILABILITY>
1

> <JCHEM_DONOR_COUNT>
0

> <JCHEM_FORMAL_CHARGE>
0

> <JCHEM_GHOSE_FILTER>
0

> <JCHEM_IUPAC>
propanedial

> <ALOGPS_LOGP>
0.10

> <JCHEM_LOGP>
-0.6483497730000001

> <ALOGPS_LOGS>
0.52

> <JCHEM_MDDR_LIKE_RULE>
0

> <JCHEM_NUMBER_OF_RINGS>
0

> <JCHEM_PHYSIOLOGICAL_CHARGE>
-1

> <JCHEM_PKA_STRONGEST_ACIDIC>
6.681544640809551

> <JCHEM_PKA_STRONGEST_BASIC>
-6.809543765546642

> <JCHEM_POLAR_SURFACE_AREA>
34.14

> <JCHEM_REFRACTIVITY>
17.137

> <JCHEM_ROTATABLE_BOND_COUNT>
2

> <JCHEM_RULE_OF_FIVE>
1

> <ALOGPS_SOLUBILITY>
2.41e+02 g/l

> <JCHEM_TRADITIONAL_IUPAC>
malonaldehyde

> <JCHEM_VEBER_RULE>
1

> <DRUGBANK_ID>
DB03057

> <SECONDARY_ACCESSION_NUMBERS>
EXPT02141

> <DRUG_GROUPS>
experimental

> <GENERIC_NAME>
Malonaldehyde

$$$$
