676454
  -OEChem-10051720203D

 18 18  0     0  0  0  0  0  0999 V2000
    3.7254    0.3990   -0.6398 S   0  0  0  0  0  0  0  0  0  0  0  0
    1.1313    0.7084   -0.1168 N   0  0  0  0  0  0  0  0  0  0  0  0
    2.2540   -1.0616    0.9886 N   0  0  0  0  0  0  0  0  0  0  0  0
   -0.2176    0.3528   -0.0873 C   0  0  0  0  0  0  0  0  0  0  0  0
   -1.1830    1.3039    0.2429 C   0  0  0  0  0  0  0  0  0  0  0  0
   -0.6002   -0.9548   -0.3866 C   0  0  0  0  0  0  0  0  0  0  0  0
   -2.5315    0.9474    0.2734 C   0  0  0  0  0  0  0  0  0  0  0  0
   -1.9485   -1.3112   -0.3558 C   0  0  0  0  0  0  0  0  0  0  0  0
   -2.9143   -0.3601   -0.0262 C   0  0  0  0  0  0  0  0  0  0  0  0
    2.2843   -0.0239    0.1078 C   0  0  0  0  0  0  0  0  0  0  0  0
   -0.8977    2.3258    0.4795 H   0  0  0  0  0  0  0  0  0  0  0  0
    0.1293   -1.7105   -0.6647 H   0  0  0  0  0  0  0  0  0  0  0  0
    1.2970    1.6823   -0.3626 H   0  0  0  0  0  0  0  0  0  0  0  0
   -3.2833    1.6879    0.5304 H   0  0  0  0  0  0  0  0  0  0  0  0
   -2.2471   -2.3281   -0.5929 H   0  0  0  0  0  0  0  0  0  0  0  0
   -3.9641   -0.6374   -0.0035 H   0  0  0  0  0  0  0  0  0  0  0  0
    3.0865   -1.6065    1.1869 H   0  0  0  0  0  0  0  0  0  0  0  0
    1.4115   -1.3188    1.4912 H   0  0  0  0  0  0  0  0  0  0  0  0
  1 10  2  0  0  0  0
  2  4  1  0  0  0  0
  2 10  1  0  0  0  0
  2 13  1  0  0  0  0
  3 10  1  0  0  0  0
  3 17  1  0  0  0  0
  3 18  1  0  0  0  0
  4  5  2  0  0  0  0
  4  6  1  0  0  0  0
  5  7  1  0  0  0  0
  5 11  1  0  0  0  0
  6  8  2  0  0  0  0
  6 12  1  0  0  0  0
  7  9  2  0  0  0  0
  7 14  1  0  0  0  0
  8  9  1  0  0  0  0
  8 15  1  0  0  0  0
  9 16  1  0  0  0  0
M  END
> <DATABASE_ID>
DB03694

> <DATABASE_NAME>
drugbank

> <ORIGINAL_SOURCE>
PUBCHEM

> <ORIGINAL_SOURCE_URL>
https://pubchem.ncbi.nlm.nih.gov/rest/pug/compound/inchikey/FULZLIGZKMKICU-UHFFFAOYSA-N/SDF?record_type=3d

> <SMILES>
NC(=S)NC1=CC=CC=C1

> <INCHI_IDENTIFIER>
InChI=1S/C7H8N2S/c8-7(10)9-6-4-2-1-3-5-6/h1-5H,(H3,8,9,10)

> <INCHI_KEY>
FULZLIGZKMKICU-UHFFFAOYSA-N

> <FORMULA>
C7H8N2S

> <MOLECULAR_WEIGHT>
152.217

> <EXACT_MASS>
152.040818956

> <JCHEM_ACCEPTOR_COUNT>
0

> <JCHEM_AVERAGE_POLARIZABILITY>
16.051560062272085

> <JCHEM_BIOAVAILABILITY>
1

> <JCHEM_DONOR_COUNT>
2

> <JCHEM_FORMAL_CHARGE>
0

> <JCHEM_GHOSE_FILTER>
0

> <JCHEM_IUPAC>
phenylthiourea

> <ALOGPS_LOGP>
0.57

> <JCHEM_LOGP>
1.7672802339999998

> <ALOGPS_LOGS>
-2.23

> <JCHEM_MDDR_LIKE_RULE>
0

> <JCHEM_NUMBER_OF_RINGS>
1

> <JCHEM_PHYSIOLOGICAL_CHARGE>
0

> <JCHEM_PKA>
16.994488277548236

> <JCHEM_PKA_STRONGEST_ACIDIC>
9.617820215620773

> <JCHEM_PKA_STRONGEST_BASIC>
-3.000000259575515

> <JCHEM_POLAR_SURFACE_AREA>
38.05

> <JCHEM_REFRACTIVITY>
47.588600000000014

> <JCHEM_ROTATABLE_BOND_COUNT>
1

> <JCHEM_RULE_OF_FIVE>
1

> <ALOGPS_SOLUBILITY>
9.04e-01 g/l

> <JCHEM_TRADITIONAL_IUPAC>
N-phenylthiourea

> <JCHEM_VEBER_RULE>
1

> <DRUGBANK_ID>
DB03694

> <SECONDARY_ACCESSION_NUMBERS>
EXPT03208

> <DRUG_GROUPS>
experimental

> <GENERIC_NAME>
N-Phenylthiourea

$$$$
