909781
  -OEChem-10051720383D

 40 42  0     1  0  0  0  0  0999 V2000
   -3.2334   -2.8843   -0.3104 O   0  0  0  0  0  0  0  0  0  0  0  0
   -0.4799    2.8018    0.9682 O   0  0  0  0  0  0  0  0  0  0  0  0
   -0.4533    2.8799   -1.3032 O   0  0  0  0  0  0  0  0  0  0  0  0
   -1.8855    0.4023   -0.3138 N   0  0  0  0  0  0  0  0  0  0  0  0
   -1.2140   -1.7388   -0.2057 N   0  0  0  0  0  0  0  0  0  0  0  0
    1.3640   -1.0909   -0.0486 N   0  0  0  0  0  0  0  0  0  0  0  0
   -3.1053   -0.4445   -0.3714 C   0  0  2  0  0  0  0  0  0  0  0  0
   -3.9900   -0.1299    0.8277 C   0  0  0  0  0  0  0  0  0  0  0  0
   -2.5698   -1.8602   -0.2938 C   0  0  0  0  0  0  0  0  0  0  0  0
   -3.8202   -0.2034   -1.6944 C   0  0  0  0  0  0  0  0  0  0  0  0
   -3.2135   -0.3023    2.1328 C   0  0  0  0  0  0  0  0  0  0  0  0
   -4.5550    1.2868    0.7261 C   0  0  0  0  0  0  0  0  0  0  0  0
   -0.8965   -0.4250   -0.2219 C   0  0  0  0  0  0  0  0  0  0  0  0
    0.5072   -0.0480   -0.1384 C   0  0  0  0  0  0  0  0  0  0  0  0
    0.8977    1.2757   -0.1521 C   0  0  0  0  0  0  0  0  0  0  0  0
    2.6817   -0.8269    0.0328 C   0  0  0  0  0  0  0  0  0  0  0  0
    3.1783    0.4934    0.0263 C   0  0  0  0  0  0  0  0  0  0  0  0
    2.2562    1.5445   -0.0680 C   0  0  0  0  0  0  0  0  0  0  0  0
   -0.0537    2.3719   -0.2508 C   0  0  0  0  0  0  0  0  0  0  0  0
    3.5983   -1.8708    0.1268 C   0  0  0  0  0  0  0  0  0  0  0  0
    4.5603    0.7324    0.1129 C   0  0  0  0  0  0  0  0  0  0  0  0
    4.9723   -1.6334    0.2129 C   0  0  0  0  0  0  0  0  0  0  0  0
    5.4543   -0.3304    0.2059 C   0  0  0  0  0  0  0  0  0  0  0  0
   -4.8357   -0.8301    0.8522 H   0  0  0  0  0  0  0  0  0  0  0  0
   -4.7928   -0.7071   -1.7207 H   0  0  0  0  0  0  0  0  0  0  0  0
   -3.9688    0.8619   -1.8998 H   0  0  0  0  0  0  0  0  0  0  0  0
   -3.2324   -0.6003   -2.5314 H   0  0  0  0  0  0  0  0  0  0  0  0
   -2.3809    0.4033    2.2225 H   0  0  0  0  0  0  0  0  0  0  0  0
   -3.8764   -0.1177    2.9865 H   0  0  0  0  0  0  0  0  0  0  0  0
   -2.8250   -1.3178    2.2554 H   0  0  0  0  0  0  0  0  0  0  0  0
   -3.7679    2.0399    0.6152 H   0  0  0  0  0  0  0  0  0  0  0  0
   -5.1183    1.5359    1.6328 H   0  0  0  0  0  0  0  0  0  0  0  0
   -5.2537    1.3887   -0.1098 H   0  0  0  0  0  0  0  0  0  0  0  0
   -0.5626   -2.5126   -0.1390 H   0  0  0  0  0  0  0  0  0  0  0  0
    2.6039    2.5760   -0.0760 H   0  0  0  0  0  0  0  0  0  0  0  0
    3.2459   -2.9006    0.1343 H   0  0  0  0  0  0  0  0  0  0  0  0
    4.9482    1.7486    0.1084 H   0  0  0  0  0  0  0  0  0  0  0  0
    5.6628   -2.4687    0.2852 H   0  0  0  0  0  0  0  0  0  0  0  0
    6.5214   -0.1419    0.2727 H   0  0  0  0  0  0  0  0  0  0  0  0
   -1.1243    3.5375    0.8908 H   0  0  0  0  0  0  0  0  0  0  0  0
  1  9  2  0  0  0  0
  2 19  1  0  0  0  0
  2 40  1  0  0  0  0
  3 19  2  0  0  0  0
  4  7  1  0  0  0  0
  4 13  2  0  0  0  0
  5  9  1  0  0  0  0
  5 13  1  0  0  0  0
  5 34  1  0  0  0  0
  6 14  2  0  0  0  0
  6 16  1  0  0  0  0
  7  8  1  0  0  0  0
  7  9  1  0  0  0  0
  7 10  1  0  0  0  0
  8 11  1  0  0  0  0
  8 12  1  0  0  0  0
  8 24  1  0  0  0  0
 10 25  1  0  0  0  0
 10 26  1  0  0  0  0
 10 27  1  0  0  0  0
 11 28  1  0  0  0  0
 11 29  1  0  0  0  0
 11 30  1  0  0  0  0
 12 31  1  0  0  0  0
 12 32  1  0  0  0  0
 12 33  1  0  0  0  0
 13 14  1  0  0  0  0
 14 15  1  0  0  0  0
 15 18  2  0  0  0  0
 15 19  1  0  0  0  0
 16 17  1  0  0  0  0
 16 20  2  0  0  0  0
 17 18  1  0  0  0  0
 17 21  2  0  0  0  0
 18 35  1  0  0  0  0
 20 22  1  0  0  0  0
 20 36  1  0  0  0  0
 21 23  1  0  0  0  0
 21 37  1  0  0  0  0
 22 23  2  0  0  0  0
 22 38  1  0  0  0  0
 23 39  1  0  0  0  0
M  END
> <DATABASE_ID>
DB04582

> <DATABASE_NAME>
drugbank

> <ORIGINAL_SOURCE>
PUBCHEM

> <ORIGINAL_SOURCE_URL>
https://pubchem.ncbi.nlm.nih.gov/rest/pug/compound/inchikey/CABMTIJINOIHOD-QGZVFWFLSA-N/SDF?record_type=3d

> <SMILES>
CC(C)[C@@]1(C)N=C(NC1=O)C1=NC2=CC=CC=C2C=C1C(O)=O

> <INCHI_IDENTIFIER>
InChI=1S/C17H17N3O3/c1-9(2)17(3)16(23)19-14(20-17)13-11(15(21)22)8-10-6-4-5-7-12(10)18-13/h4-9H,1-3H3,(H,21,22)(H,19,20,23)/t17-/m1/s1

> <INCHI_KEY>
CABMTIJINOIHOD-QGZVFWFLSA-N

> <FORMULA>
C17H17N3O3

> <MOLECULAR_WEIGHT>
311.3352

> <EXACT_MASS>
311.126991425

> <JCHEM_ACCEPTOR_COUNT>
5

> <JCHEM_AVERAGE_POLARIZABILITY>
32.81848901590878

> <JCHEM_BIOAVAILABILITY>
1

> <JCHEM_DONOR_COUNT>
2

> <JCHEM_FORMAL_CHARGE>
0

> <JCHEM_GHOSE_FILTER>
1

> <JCHEM_IUPAC>
2-[(4R)-4-methyl-5-oxo-4-(propan-2-yl)-4,5-dihydro-1H-imidazol-2-yl]quinoline-3-carboxylic acid

> <ALOGPS_LOGP>
2.58

> <JCHEM_LOGP>
2.726476818915258

> <ALOGPS_LOGS>
-3.71

> <JCHEM_MDDR_LIKE_RULE>
0

> <JCHEM_NUMBER_OF_RINGS>
3

> <JCHEM_PHYSIOLOGICAL_CHARGE>
-1

> <JCHEM_PKA>
12.702196791349468

> <JCHEM_PKA_STRONGEST_ACIDIC>
3.668946735318157

> <JCHEM_PKA_STRONGEST_BASIC>
1.7675915018988337

> <JCHEM_POLAR_SURFACE_AREA>
91.65

> <JCHEM_REFRACTIVITY>
84.1053

> <JCHEM_ROTATABLE_BOND_COUNT>
3

> <JCHEM_RULE_OF_FIVE>
1

> <ALOGPS_SOLUBILITY>
6.04e-02 g/l

> <JCHEM_TRADITIONAL_IUPAC>
imazaquin

> <JCHEM_VEBER_RULE>
0

> <DRUGBANK_ID>
DB04582

> <DRUG_GROUPS>
experimental

> <GENERIC_NAME>
IMAZAQUIN

$$$$
