4469987
  -OEChem-10051720283D

 17 17  0     0  0  0  0  0  0999 V2000
   -2.3083    0.7791   -0.0008 O   0  0  0  0  0  0  0  0  0  0  0  0
    0.0370    0.7757   -0.0003 N   0  3  0  0  0  0  0  0  0  0  0  0
   -1.2247   -1.2595    0.0006 N   0  0  0  0  0  0  0  0  0  0  0  0
    2.4264    0.6121   -0.0002 N   0  0  0  0  0  0  0  0  0  0  0  0
    1.2009    0.0965   -0.0005 C   0  0  0  0  0  0  0  0  0  0  0  0
   -1.2732    0.1224   -0.0003 C   0  0  0  0  0  0  0  0  0  0  0  0
    1.1219   -1.3912   -0.0003 C   0  0  0  0  0  0  0  0  0  0  0  0
    0.0901    2.2537    0.0011 C   0  0  0  0  0  0  0  0  0  0  0  0
   -0.0701   -1.9887    0.0006 C   0  0  0  0  0  0  0  0  0  0  0  0
    2.0363   -1.9737   -0.0004 H   0  0  0  0  0  0  0  0  0  0  0  0
    0.6171    2.5939    0.8976 H   0  0  0  0  0  0  0  0  0  0  0  0
   -0.9112    2.6915    0.0020 H   0  0  0  0  0  0  0  0  0  0  0  0
    0.6163    2.5956   -0.8953 H   0  0  0  0  0  0  0  0  0  0  0  0
   -2.1008   -1.7739    0.0010 H   0  0  0  0  0  0  0  0  0  0  0  0
   -0.1847   -3.0651    0.0010 H   0  0  0  0  0  0  0  0  0  0  0  0
    3.2468    0.0155   -0.0003 H   0  0  0  0  0  0  0  0  0  0  0  0
    2.5745    1.6146   -0.0001 H   0  0  0  0  0  0  0  0  0  0  0  0
  1  6  2  0  0  0  0
  2  5  2  0  0  0  0
  2  6  1  0  0  0  0
  2  8  1  0  0  0  0
  3  6  1  0  0  0  0
  3  9  1  0  0  0  0
  3 14  1  0  0  0  0
  4  5  1  0  0  0  0
  4 16  1  0  0  0  0
  4 17  1  0  0  0  0
  5  7  1  0  0  0  0
  7  9  2  0  0  0  0
  7 10  1  0  0  0  0
  8 11  1  0  0  0  0
  8 12  1  0  0  0  0
  8 13  1  0  0  0  0
  9 15  1  0  0  0  0
M  CHG  1   2   1
M  END
> <DATABASE_ID>
DB04103

> <DATABASE_NAME>
drugbank

> <ORIGINAL_SOURCE>
PUBCHEM

> <ORIGINAL_SOURCE_URL>
https://pubchem.ncbi.nlm.nih.gov/rest/pug/compound/inchikey/UPHQQDZIRIHPHU-UHFFFAOYSA-O/SDF?record_type=3d

> <SMILES>
C[N+]1=C(N)C=CNC1=O

> <INCHI_IDENTIFIER>
InChI=1S/C5H7N3O/c1-8-4(6)2-3-7-5(8)9/h2-3H,1H3,(H2,6,7,9)/p+1

> <INCHI_KEY>
UPHQQDZIRIHPHU-UHFFFAOYSA-O

> <FORMULA>
C5H8N3O

> <MOLECULAR_WEIGHT>
126.1365

> <EXACT_MASS>
126.066736893

> <JCHEM_ACCEPTOR_COUNT>
2

> <JCHEM_AVERAGE_POLARIZABILITY>
12.268130171062573

> <JCHEM_BIOAVAILABILITY>
1

> <JCHEM_DONOR_COUNT>
2

> <JCHEM_FORMAL_CHARGE>
1

> <JCHEM_GHOSE_FILTER>
0

> <JCHEM_IUPAC>
6-amino-1-methyl-2-oxo-2,3-dihydropyrimidin-1-ium

> <ALOGPS_LOGP>
-1.69

> <JCHEM_LOGP>
-4.301929061805079

> <ALOGPS_LOGS>
-1.15

> <JCHEM_MDDR_LIKE_RULE>
0

> <JCHEM_NUMBER_OF_RINGS>
1

> <JCHEM_PHYSIOLOGICAL_CHARGE>
1

> <JCHEM_PKA_STRONGEST_ACIDIC>
8.520816361889803

> <JCHEM_PKA_STRONGEST_BASIC>
-4.820666774069685

> <JCHEM_POLAR_SURFACE_AREA>
58.13

> <JCHEM_REFRACTIVITY>
33.6452

> <JCHEM_ROTATABLE_BOND_COUNT>
0

> <JCHEM_RULE_OF_FIVE>
1

> <ALOGPS_SOLUBILITY>
1.15e+01 g/l

> <JCHEM_TRADITIONAL_IUPAC>
3-methylcytosine

> <JCHEM_VEBER_RULE>
0

> <DRUGBANK_ID>
DB04103

> <SECONDARY_ACCESSION_NUMBERS>
EXPT00178

> <DRUG_GROUPS>
experimental

> <GENERIC_NAME>
3-Methylcytosine

$$$$
