5494414
  -OEChem-10051720393D

 53 55  0     1  0  0  0  0  0999 V2000
    5.6433   -1.8968    1.3641 O   0  0  0  0  0  0  0  0  0  0  0  0
   -4.2951   -0.8432   -2.0917 O   0  0  0  0  0  0  0  0  0  0  0  0
    1.9456    2.6952   -0.1867 N   0  0  0  0  0  0  0  0  0  0  0  0
    2.1960   -2.0392    0.1143 N   0  0  0  0  0  0  0  0  0  0  0  0
    2.2820    0.2938   -0.0430 N   0  0  0  0  0  0  0  0  0  0  0  0
   -0.2798    2.7767   -0.0833 N   0  0  0  0  0  0  0  0  0  0  0  0
    0.1553   -0.8896    0.1389 N   0  0  0  0  0  0  0  0  0  0  0  0
   -1.9501    0.2476    0.1645 N   0  0  0  0  0  0  0  0  0  0  0  0
    3.3097    3.1555   -0.2826 C   0  0  0  0  0  0  0  0  0  0  0  0
    3.6410   -2.1504    0.0477 C   0  0  2  0  0  0  0  0  0  0  0  0
    1.5243    1.4003   -0.0800 C   0  0  0  0  0  0  0  0  0  0  0  0
    0.1419    1.4725   -0.0177 C   0  0  0  0  0  0  0  0  0  0  0  0
    4.0348   -3.5715   -0.3744 C   0  0  0  0  0  0  0  0  0  0  0  0
   -0.5462    0.2686    0.0955 C   0  0  0  0  0  0  0  0  0  0  0  0
    1.5214   -0.8342    0.0691 C   0  0  0  0  0  0  0  0  0  0  0  0
    0.8260    3.4843   -0.1838 C   0  0  0  0  0  0  0  0  0  0  0  0
    4.1186    2.8136    0.9700 C   0  0  0  0  0  0  0  0  0  0  0  0
    3.9964    2.6496   -1.5527 C   0  0  0  0  0  0  0  0  0  0  0  0
    4.2239   -1.8091    1.4192 C   0  0  0  0  0  0  0  0  0  0  0  0
    3.4558   -3.9650   -1.7275 C   0  0  0  0  0  0  0  0  0  0  0  0
   -2.7088   -0.9621    0.2815 C   0  0  0  0  0  0  0  0  0  0  0  0
   -4.1819   -0.6613    0.2956 C   0  0  0  0  0  0  0  0  0  0  0  0
   -4.9011   -0.6171   -0.8925 C   0  0  0  0  0  0  0  0  0  0  0  0
   -4.8081   -0.4294    1.5144 C   0  0  0  0  0  0  0  0  0  0  0  0
   -6.2671   -0.3368   -0.8615 C   0  0  0  0  0  0  0  0  0  0  0  0
   -6.1742   -0.1491    1.5452 C   0  0  0  0  0  0  0  0  0  0  0  0
   -6.9038   -0.1028    0.3574 C   0  0  0  0  0  0  0  0  0  0  0  0
    3.2623    4.2505   -0.3514 H   0  0  0  0  0  0  0  0  0  0  0  0
    4.0491   -1.4664   -0.7085 H   0  0  0  0  0  0  0  0  0  0  0  0
    5.1265   -3.6569   -0.4301 H   0  0  0  0  0  0  0  0  0  0  0  0
    3.6959   -4.2981    0.3748 H   0  0  0  0  0  0  0  0  0  0  0  0
    1.6389   -2.8721    0.2669 H   0  0  0  0  0  0  0  0  0  0  0  0
    0.8744    4.5623   -0.2571 H   0  0  0  0  0  0  0  0  0  0  0  0
    3.6111    3.1683    1.8738 H   0  0  0  0  0  0  0  0  0  0  0  0
    5.1048    3.2886    0.9298 H   0  0  0  0  0  0  0  0  0  0  0  0
    4.2759    1.7356    1.0767 H   0  0  0  0  0  0  0  0  0  0  0  0
    4.1442    1.5648   -1.5364 H   0  0  0  0  0  0  0  0  0  0  0  0
    4.9811    3.1155   -1.6668 H   0  0  0  0  0  0  0  0  0  0  0  0
    3.4042    2.8926   -2.4418 H   0  0  0  0  0  0  0  0  0  0  0  0
    3.8707   -2.5068    2.1866 H   0  0  0  0  0  0  0  0  0  0  0  0
    3.9595   -0.7992    1.7472 H   0  0  0  0  0  0  0  0  0  0  0  0
   -2.4258    1.1431    0.1313 H   0  0  0  0  0  0  0  0  0  0  0  0
    3.7560   -3.2540   -2.5038 H   0  0  0  0  0  0  0  0  0  0  0  0
    2.3628   -4.0110   -1.7046 H   0  0  0  0  0  0  0  0  0  0  0  0
    3.8220   -4.9553   -2.0172 H   0  0  0  0  0  0  0  0  0  0  0  0
   -2.4726   -1.6509   -0.5392 H   0  0  0  0  0  0  0  0  0  0  0  0
   -2.4369   -1.4917    1.2040 H   0  0  0  0  0  0  0  0  0  0  0  0
    5.9505   -1.2507    0.7054 H   0  0  0  0  0  0  0  0  0  0  0  0
   -4.2503   -0.4605    2.4463 H   0  0  0  0  0  0  0  0  0  0  0  0
   -6.8479   -0.2975   -1.7792 H   0  0  0  0  0  0  0  0  0  0  0  0
   -6.6698    0.0338    2.4942 H   0  0  0  0  0  0  0  0  0  0  0  0
   -7.9674    0.1157    0.3816 H   0  0  0  0  0  0  0  0  0  0  0  0
   -4.9567   -0.7694   -2.8006 H   0  0  0  0  0  0  0  0  0  0  0  0
  1 19  1  0  0  0  0
  1 48  1  0  0  0  0
  2 23  1  0  0  0  0
  2 53  1  0  0  0  0
  3  9  1  0  0  0  0
  3 11  1  0  0  0  0
  3 16  1  0  0  0  0
  4 10  1  0  0  0  0
  4 15  1  0  0  0  0
  4 32  1  0  0  0  0
  5 11  2  0  0  0  0
  5 15  1  0  0  0  0
  6 12  1  0  0  0  0
  6 16  2  0  0  0  0
  7 14  1  0  0  0  0
  7 15  2  0  0  0  0
  8 14  1  0  0  0  0
  8 21  1  0  0  0  0
  8 42  1  0  0  0  0
  9 17  1  0  0  0  0
  9 18  1  0  0  0  0
  9 28  1  0  0  0  0
 10 13  1  0  0  0  0
 10 19  1  0  0  0  0
 10 29  1  0  0  0  0
 11 12  1  0  0  0  0
 12 14  2  0  0  0  0
 13 20  1  0  0  0  0
 13 30  1  0  0  0  0
 13 31  1  0  0  0  0
 16 33  1  0  0  0  0
 17 34  1  0  0  0  0
 17 35  1  0  0  0  0
 17 36  1  0  0  0  0
 18 37  1  0  0  0  0
 18 38  1  0  0  0  0
 18 39  1  0  0  0  0
 19 40  1  0  0  0  0
 19 41  1  0  0  0  0
 20 43  1  0  0  0  0
 20 44  1  0  0  0  0
 20 45  1  0  0  0  0
 21 22  1  0  0  0  0
 21 46  1  0  0  0  0
 21 47  1  0  0  0  0
 22 23  1  0  0  0  0
 22 24  2  0  0  0  0
 23 25  2  0  0  0  0
 24 26  1  0  0  0  0
 24 49  1  0  0  0  0
 25 27  1  0  0  0  0
 25 50  1  0  0  0  0
 26 27  2  0  0  0  0
 26 51  1  0  0  0  0
 27 52  1  0  0  0  0
M  END
> <DATABASE_ID>
DB04662

> <DATABASE_NAME>
drugbank

> <ORIGINAL_SOURCE>
PUBCHEM

> <ORIGINAL_SOURCE_URL>
https://pubchem.ncbi.nlm.nih.gov/rest/pug/compound/inchikey/NDUVSANREQEDRE-CQSZACIVSA-N/SDF?record_type=3d

> <SMILES>
[H][C@@](CC)(CO)NC1=NC2=C(N=CN2C(C)C)C(NCC2=CC=CC=C2O)=N1

> <INCHI_IDENTIFIER>
InChI=1S/C19H26N6O2/c1-4-14(10-26)22-19-23-17(20-9-13-7-5-6-8-15(13)27)16-18(24-19)25(11-21-16)12(2)3/h5-8,11-12,14,26-27H,4,9-10H2,1-3H3,(H2,20,22,23,24)/t14-/m1/s1

> <INCHI_KEY>
NDUVSANREQEDRE-CQSZACIVSA-N

> <FORMULA>
C19H26N6O2

> <MOLECULAR_WEIGHT>
370.4487

> <EXACT_MASS>
370.211724106

> <JCHEM_ACCEPTOR_COUNT>
7

> <JCHEM_AVERAGE_POLARIZABILITY>
41.11182334972717

> <JCHEM_BIOAVAILABILITY>
1

> <JCHEM_DONOR_COUNT>
4

> <JCHEM_FORMAL_CHARGE>
0

> <JCHEM_GHOSE_FILTER>
1

> <JCHEM_IUPAC>
2-{[(2-{[(2R)-1-hydroxybutan-2-yl]amino}-9-(propan-2-yl)-9H-purin-6-yl)amino]methyl}phenol

> <ALOGPS_LOGP>
3.00

> <JCHEM_LOGP>
2.5892177490000003

> <ALOGPS_LOGS>
-3.14

> <JCHEM_MDDR_LIKE_RULE>
1

> <JCHEM_NUMBER_OF_RINGS>
3

> <JCHEM_PHYSIOLOGICAL_CHARGE>
0

> <JCHEM_PKA>
14.33718505547792

> <JCHEM_PKA_STRONGEST_ACIDIC>
9.230340207231794

> <JCHEM_PKA_STRONGEST_BASIC>
5.548064749543277

> <JCHEM_POLAR_SURFACE_AREA>
108.12

> <JCHEM_REFRACTIVITY>
108.12519999999998

> <JCHEM_ROTATABLE_BOND_COUNT>
8

> <JCHEM_RULE_OF_FIVE>
1

> <ALOGPS_SOLUBILITY>
2.68e-01 g/l

> <JCHEM_TRADITIONAL_IUPAC>
olomoucine II

> <JCHEM_VEBER_RULE>
0

> <DRUGBANK_ID>
DB04662

> <DRUG_GROUPS>
experimental

> <GENERIC_NAME>
OLOMOUCINE II

$$$$
