5459372
  -OEChem-10051720403D

 41 43  0     1  0  0  0  0  0999 V2000
   -4.0653    0.9833    1.8138 O   0  0  0  0  0  0  0  0  0  0  0  0
   -4.2917    0.5758   -1.8096 O   0  0  0  0  0  0  0  0  0  0  0  0
   -2.2480    2.7173    0.2800 O   0  0  0  0  0  0  0  0  0  0  0  0
   -4.9590   -2.5157    0.1867 O   0  0  0  0  0  0  0  0  0  0  0  0
   -1.8501   -0.5606    0.2563 N   0  0  0  0  0  0  0  0  0  0  0  0
   -0.1877    0.6330   -0.5941 N   0  0  0  0  0  0  0  0  0  0  0  0
    2.6501    0.2219    0.2152 N   0  0  0  0  0  0  0  0  0  0  0  0
   -3.2107   -0.9458    0.6174 C   0  0  1  0  0  0  0  0  0  0  0  0
   -4.1741    0.2629    0.5833 C   0  0  2  0  0  0  0  0  0  0  0  0
   -3.9211    1.2202   -0.5944 C   0  0  1  0  0  0  0  0  0  0  0  0
   -2.4623    1.6879   -0.6829 C   0  0  2  0  0  0  0  0  0  0  0  0
   -1.4873    0.6061   -0.3702 C   0  0  0  0  0  0  0  0  0  0  0  0
   -3.6931   -2.0908   -0.2782 C   0  0  0  0  0  0  0  0  0  0  0  0
   -0.7186   -1.2932    0.4741 C   0  0  0  0  0  0  0  0  0  0  0  0
    0.2937   -0.5405   -0.0716 C   0  0  0  0  0  0  0  0  0  0  0  0
    1.7290   -0.8545   -0.1340 C   0  0  0  0  0  0  0  0  0  0  0  0
    4.0188    0.1040    0.1181 C   0  0  0  0  0  0  0  0  0  0  0  0
    4.6190   -1.0911   -0.3344 C   0  0  0  0  0  0  0  0  0  0  0  0
    4.8712    1.1738    0.4679 C   0  0  0  0  0  0  0  0  0  0  0  0
    6.0053   -1.2106   -0.4324 C   0  0  0  0  0  0  0  0  0  0  0  0
    6.2575    1.0543    0.3697 C   0  0  0  0  0  0  0  0  0  0  0  0
    6.8245   -0.1378   -0.0806 C   0  0  0  0  0  0  0  0  0  0  0  0
   -3.1511   -1.3048    1.6544 H   0  0  0  0  0  0  0  0  0  0  0  0
   -5.2091   -0.0946    0.5381 H   0  0  0  0  0  0  0  0  0  0  0  0
   -4.5739    2.0947   -0.4866 H   0  0  0  0  0  0  0  0  0  0  0  0
   -2.2421    2.0965   -1.6759 H   0  0  0  0  0  0  0  0  0  0  0  0
   -3.0119   -2.9479   -0.2317 H   0  0  0  0  0  0  0  0  0  0  0  0
   -3.7802   -1.8124   -1.3300 H   0  0  0  0  0  0  0  0  0  0  0  0
   -0.7323   -2.2549    0.9681 H   0  0  0  0  0  0  0  0  0  0  0  0
   -4.7018    1.7177    1.7815 H   0  0  0  0  0  0  0  0  0  0  0  0
   -3.5137    0.1215   -2.1731 H   0  0  0  0  0  0  0  0  0  0  0  0
   -2.8314    3.4605    0.0500 H   0  0  0  0  0  0  0  0  0  0  0  0
    1.9290   -1.7121    0.5214 H   0  0  0  0  0  0  0  0  0  0  0  0
    1.9316   -1.1787   -1.1632 H   0  0  0  0  0  0  0  0  0  0  0  0
   -4.8513   -2.8236    1.1028 H   0  0  0  0  0  0  0  0  0  0  0  0
    2.2654    1.0960    0.5559 H   0  0  0  0  0  0  0  0  0  0  0  0
    4.0238   -1.9554   -0.6172 H   0  0  0  0  0  0  0  0  0  0  0  0
    4.4471    2.1114    0.8212 H   0  0  0  0  0  0  0  0  0  0  0  0
    6.4477   -2.1389   -0.7820 H   0  0  0  0  0  0  0  0  0  0  0  0
    6.8954    1.8893    0.6438 H   0  0  0  0  0  0  0  0  0  0  0  0
    7.9038   -0.2310   -0.1568 H   0  0  0  0  0  0  0  0  0  0  0  0
  1  9  1  0  0  0  0
  1 30  1  0  0  0  0
  2 10  1  0  0  0  0
  2 31  1  0  0  0  0
  3 11  1  0  0  0  0
  3 32  1  0  0  0  0
  4 13  1  0  0  0  0
  4 35  1  0  0  0  0
  5  8  1  0  0  0  0
  5 12  1  0  0  0  0
  5 14  1  0  0  0  0
  6 12  2  0  0  0  0
  6 15  1  0  0  0  0
  7 16  1  0  0  0  0
  7 17  1  0  0  0  0
  7 36  1  0  0  0  0
  8  9  1  0  0  0  0
  8 13  1  0  0  0  0
  8 23  1  0  0  0  0
  9 10  1  0  0  0  0
  9 24  1  0  0  0  0
 10 11  1  0  0  0  0
 10 25  1  0  0  0  0
 11 12  1  0  0  0  0
 11 26  1  0  0  0  0
 13 27  1  0  0  0  0
 13 28  1  0  0  0  0
 14 15  2  0  0  0  0
 14 29  1  0  0  0  0
 15 16  1  0  0  0  0
 16 33  1  0  0  0  0
 16 34  1  0  0  0  0
 17 18  2  0  0  0  0
 17 19  1  0  0  0  0
 18 20  1  0  0  0  0
 18 37  1  0  0  0  0
 19 21  2  0  0  0  0
 19 38  1  0  0  0  0
 20 22  2  0  0  0  0
 20 39  1  0  0  0  0
 21 22  1  0  0  0  0
 21 40  1  0  0  0  0
 22 41  1  0  0  0  0
M  END
> <DATABASE_ID>
DB04712

> <DATABASE_NAME>
drugbank

> <ORIGINAL_SOURCE>
PUBCHEM

> <ORIGINAL_SOURCE_URL>
https://pubchem.ncbi.nlm.nih.gov/rest/pug/compound/inchikey/ADKWVGPRAQKVKB-YIYPIFLZSA-N/SDF?record_type=3d

> <SMILES>
OC[C@@H]1[C@@H](O)[C@H](O)[C@@H](O)C2=NC(CNC3=CC=CC=C3)=CN12

> <INCHI_IDENTIFIER>
InChI=1S/C15H19N3O4/c19-8-11-12(20)13(21)14(22)15-17-10(7-18(11)15)6-16-9-4-2-1-3-5-9/h1-5,7,11-14,16,19-22H,6,8H2/t11-,12-,13+,14-/m1/s1

> <INCHI_KEY>
ADKWVGPRAQKVKB-YIYPIFLZSA-N

> <FORMULA>
C15H19N3O4

> <MOLECULAR_WEIGHT>
305.3291

> <EXACT_MASS>
305.137556111

> <JCHEM_ACCEPTOR_COUNT>
6

> <JCHEM_AVERAGE_POLARIZABILITY>
32.25820299227284

> <JCHEM_BIOAVAILABILITY>
1

> <JCHEM_DONOR_COUNT>
5

> <JCHEM_FORMAL_CHARGE>
0

> <JCHEM_GHOSE_FILTER>
0

> <JCHEM_IUPAC>
(5R,6R,7S,8S)-5-(hydroxymethyl)-2-[(phenylamino)methyl]-5H,6H,7H,8H-imidazo[1,2-a]pyridine-6,7,8-triol

> <ALOGPS_LOGP>
0.12

> <JCHEM_LOGP>
-1.1875818033333332

> <ALOGPS_LOGS>
-1.66

> <JCHEM_MDDR_LIKE_RULE>
0

> <JCHEM_NUMBER_OF_RINGS>
3

> <JCHEM_PHYSIOLOGICAL_CHARGE>
0

> <JCHEM_PKA>
13.44496176704304

> <JCHEM_PKA_STRONGEST_ACIDIC>
12.325631580249034

> <JCHEM_PKA_STRONGEST_BASIC>
4.859588487297995

> <JCHEM_POLAR_SURFACE_AREA>
110.77000000000001

> <JCHEM_REFRACTIVITY>
80.0004

> <JCHEM_ROTATABLE_BOND_COUNT>
4

> <JCHEM_RULE_OF_FIVE>
1

> <ALOGPS_SOLUBILITY>
6.65e+00 g/l

> <JCHEM_TRADITIONAL_IUPAC>
(5R,6R,7S,8S)-5-(hydroxymethyl)-2-[(phenylamino)methyl]-5H,6H,7H,8H-imidazo[1,2-a]pyridine-6,7,8-triol

> <JCHEM_VEBER_RULE>
0

> <DRUGBANK_ID>
DB04712

> <DRUG_GROUPS>
experimental

> <GENERIC_NAME>
ANILINOMETHYL GLUCO-PHENYLIMIDAZOLE

$$$$
