6951130
  -OEChem-10051720273D

 25 24  0     1  0  0  0  0  0999 V2000
   -1.8250   -0.7646    1.2807 O   0  5  0  0  0  0  0  0  0  0  0  0
   -0.8881   -1.6843   -0.5848 O   0  0  0  0  0  0  0  0  0  0  0  0
   -0.4242    1.5925    0.9635 N   0  3  0  0  0  0  0  0  0  0  0  0
   -0.6082    0.6541   -0.1946 C   0  0  2  0  0  0  0  0  0  0  0  0
    0.6939    0.6330   -1.0245 C   0  0  0  0  0  0  0  0  0  0  0  0
    1.9288   -0.0555   -0.3969 C   0  0  0  0  0  0  0  0  0  0  0  0
   -1.7519    1.2353   -1.0434 C   0  0  0  0  0  0  0  0  0  0  0  0
    1.5864   -1.5137   -0.0687 C   0  0  0  0  0  0  0  0  0  0  0  0
    2.4447    0.6397    0.8613 C   0  0  0  0  0  0  0  0  0  0  0  0
   -1.1565   -0.7365    0.2073 C   0  0  0  0  0  0  0  0  0  0  0  0
    0.9729    1.6615   -1.2932 H   0  0  0  0  0  0  0  0  0  0  0  0
    0.4937    0.1313   -1.9821 H   0  0  0  0  0  0  0  0  0  0  0  0
    2.7296   -0.0415   -1.1473 H   0  0  0  0  0  0  0  0  0  0  0  0
    0.0997    2.4387    0.7030 H   0  0  0  0  0  0  0  0  0  0  0  0
    0.0587    1.1450    1.7502 H   0  0  0  0  0  0  0  0  0  0  0  0
   -1.3317    1.9049    1.3355 H   0  0  0  0  0  0  0  0  0  0  0  0
   -1.5144    2.2499   -1.3843 H   0  0  0  0  0  0  0  0  0  0  0  0
   -1.9391    0.6252   -1.9352 H   0  0  0  0  0  0  0  0  0  0  0  0
   -2.6929    1.2879   -0.4821 H   0  0  0  0  0  0  0  0  0  0  0  0
    2.5306   -2.0112    0.1994 H   0  0  0  0  0  0  0  0  0  0  0  0
    0.9757   -1.6495    0.8253 H   0  0  0  0  0  0  0  0  0  0  0  0
    1.2499   -2.0687   -0.9478 H   0  0  0  0  0  0  0  0  0  0  0  0
    2.4689    1.7268    0.7381 H   0  0  0  0  0  0  0  0  0  0  0  0
    3.4730    0.3151    1.0608 H   0  0  0  0  0  0  0  0  0  0  0  0
    1.8713    0.3863    1.7559 H   0  0  0  0  0  0  0  0  0  0  0  0
  1 10  1  0  0  0  0
  2 10  2  0  0  0  0
  3  4  1  0  0  0  0
  3 14  1  0  0  0  0
  3 15  1  0  0  0  0
  3 16  1  0  0  0  0
  4  5  1  0  0  0  0
  4  7  1  0  0  0  0
  4 10  1  0  0  0  0
  5  6  1  0  0  0  0
  5 11  1  0  0  0  0
  5 12  1  0  0  0  0
  6  8  1  0  0  0  0
  6  9  1  0  0  0  0
  6 13  1  0  0  0  0
  7 17  1  0  0  0  0
  7 18  1  0  0  0  0
  7 19  1  0  0  0  0
  8 20  1  0  0  0  0
  8 21  1  0  0  0  0
  8 22  1  0  0  0  0
  9 23  1  0  0  0  0
  9 24  1  0  0  0  0
  9 25  1  0  0  0  0
M  CHG  2   1  -1   3   1
M  END
> <DATABASE_ID>
DB04063

> <DATABASE_NAME>
drugbank

> <ORIGINAL_SOURCE>
PUBCHEM

> <ORIGINAL_SOURCE_URL>
https://pubchem.ncbi.nlm.nih.gov/rest/pug/compound/inchikey/ARSWQPLPYROOBG-ZETCQYMHSA-N/SDF?record_type=3d

> <SMILES>
CC(C)C[C@](C)(N)C(O)=O

> <INCHI_IDENTIFIER>
InChI=1S/C7H15NO2/c1-5(2)4-7(3,8)6(9)10/h5H,4,8H2,1-3H3,(H,9,10)/t7-/m0/s1

> <INCHI_KEY>
ARSWQPLPYROOBG-ZETCQYMHSA-N

> <FORMULA>
C7H15NO2

> <MOLECULAR_WEIGHT>
145.1995

> <EXACT_MASS>
145.110278729

> <JCHEM_ACCEPTOR_COUNT>
3

> <JCHEM_AVERAGE_POLARIZABILITY>
16.024018754391435

> <JCHEM_BIOAVAILABILITY>
1

> <JCHEM_DONOR_COUNT>
2

> <JCHEM_FORMAL_CHARGE>
0

> <JCHEM_GHOSE_FILTER>
0

> <JCHEM_IUPAC>
(2S)-2-amino-2,4-dimethylpentanoic acid

> <ALOGPS_LOGP>
-1.45

> <JCHEM_LOGP>
-1.153916451419139

> <ALOGPS_LOGS>
-0.69

> <JCHEM_MDDR_LIKE_RULE>
0

> <JCHEM_NUMBER_OF_RINGS>
0

> <JCHEM_PHYSIOLOGICAL_CHARGE>
0

> <JCHEM_PKA_STRONGEST_ACIDIC>
2.8109346042451366

> <JCHEM_PKA_STRONGEST_BASIC>
9.762221821308753

> <JCHEM_POLAR_SURFACE_AREA>
63.32

> <JCHEM_REFRACTIVITY>
38.88420000000001

> <JCHEM_ROTATABLE_BOND_COUNT>
3

> <JCHEM_RULE_OF_FIVE>
1

> <ALOGPS_SOLUBILITY>
2.98e+01 g/l

> <JCHEM_TRADITIONAL_IUPAC>
2-methylleucine

> <JCHEM_VEBER_RULE>
0

> <DRUGBANK_ID>
DB04063

> <SECONDARY_ACCESSION_NUMBERS>
EXPT00130

> <DRUG_GROUPS>
experimental

> <GENERIC_NAME>
2-Methylleucine

$$$$
