93072
  -OEChem-10051720313D

 20 19  0     1  0  0  0  0  0999 V2000
   -1.9106   -1.5293    0.8858 O   0  0  0  0  0  0  0  0  0  0  0  0
    3.3810    0.2915    0.8071 O   0  0  0  0  0  0  0  0  0  0  0  0
   -0.7610   -2.8462   -0.5562 O   0  0  0  0  0  0  0  0  0  0  0  0
    2.2586    1.1049   -0.9908 O   0  0  0  0  0  0  0  0  0  0  0  0
   -2.0273    1.3338   -1.1580 O   0  0  0  0  0  0  0  0  0  0  0  0
   -0.5177    0.6057    0.4549 N   0  0  0  0  0  0  0  0  0  0  0  0
   -1.7783    2.4953    0.8065 N   0  0  0  0  0  0  0  0  0  0  0  0
   -0.0261   -0.5561   -0.2461 C   0  0  1  0  0  0  0  0  0  0  0  0
    1.4162   -0.8740    0.1583 C   0  0  0  0  0  0  0  0  0  0  0  0
   -0.9163   -1.7638   -0.0037 C   0  0  0  0  0  0  0  0  0  0  0  0
    2.3652    0.2784   -0.0956 C   0  0  0  0  0  0  0  0  0  0  0  0
   -1.4835    1.4597   -0.0622 C   0  0  0  0  0  0  0  0  0  0  0  0
   -0.0799   -0.3387   -1.3201 H   0  0  0  0  0  0  0  0  0  0  0  0
    1.7932   -1.7452   -0.3891 H   0  0  0  0  0  0  0  0  0  0  0  0
    1.4450   -1.1177    1.2283 H   0  0  0  0  0  0  0  0  0  0  0  0
   -0.2074    0.7611    1.4095 H   0  0  0  0  0  0  0  0  0  0  0  0
   -2.4728   -2.3212    1.0248 H   0  0  0  0  0  0  0  0  0  0  0  0
   -1.3177    2.5838    1.7060 H   0  0  0  0  0  0  0  0  0  0  0  0
   -2.4664    3.2014    0.5677 H   0  0  0  0  0  0  0  0  0  0  0  0
    4.0009    1.0351    0.6486 H   0  0  0  0  0  0  0  0  0  0  0  0
  1 10  1  0  0  0  0
  1 17  1  0  0  0  0
  2 11  1  0  0  0  0
  2 20  1  0  0  0  0
  3 10  2  0  0  0  0
  4 11  2  0  0  0  0
  5 12  2  0  0  0  0
  6  8  1  0  0  0  0
  6 12  1  0  0  0  0
  6 16  1  0  0  0  0
  7 12  1  0  0  0  0
  7 18  1  0  0  0  0
  7 19  1  0  0  0  0
  8  9  1  0  0  0  0
  8 10  1  0  0  0  0
  8 13  1  0  0  0  0
  9 11  1  0  0  0  0
  9 14  1  0  0  0  0
  9 15  1  0  0  0  0
M  END
> <DATABASE_ID>
DB04252

> <DATABASE_NAME>
drugbank

> <ORIGINAL_SOURCE>
PUBCHEM

> <ORIGINAL_SOURCE_URL>
https://pubchem.ncbi.nlm.nih.gov/rest/pug/compound/inchikey/HLKXYZVTANABHZ-REOHCLBHSA-N/SDF?record_type=3d

> <SMILES>
NC(=O)N[C@@H](CC(O)=O)C(O)=O

> <INCHI_IDENTIFIER>
InChI=1S/C5H8N2O5/c6-5(12)7-2(4(10)11)1-3(8)9/h2H,1H2,(H,8,9)(H,10,11)(H3,6,7,12)/t2-/m0/s1

> <INCHI_KEY>
HLKXYZVTANABHZ-REOHCLBHSA-N

> <FORMULA>
C5H8N2O5

> <MOLECULAR_WEIGHT>
176.1274

> <EXACT_MASS>
176.043321376

> <JCHEM_ACCEPTOR_COUNT>
5

> <JCHEM_AVERAGE_POLARIZABILITY>
14.723989238645803

> <JCHEM_BIOAVAILABILITY>
1

> <JCHEM_DONOR_COUNT>
4

> <JCHEM_FORMAL_CHARGE>
0

> <JCHEM_GHOSE_FILTER>
0

> <JCHEM_IUPAC>
(2S)-2-(carbamoylamino)butanedioic acid

> <ALOGPS_LOGP>
-1.12

> <JCHEM_LOGP>
-1.7352221553333331

> <ALOGPS_LOGS>
-0.92

> <JCHEM_MDDR_LIKE_RULE>
0

> <JCHEM_NUMBER_OF_RINGS>
0

> <JCHEM_PHYSIOLOGICAL_CHARGE>
-2

> <JCHEM_PKA>
5.2526016307709105

> <JCHEM_PKA_STRONGEST_ACIDIC>
3.333225520739885

> <JCHEM_PKA_STRONGEST_BASIC>
-2.589637248709309

> <JCHEM_POLAR_SURFACE_AREA>
129.72000000000003

> <JCHEM_REFRACTIVITY>
34.653200000000005

> <JCHEM_ROTATABLE_BOND_COUNT>
4

> <JCHEM_RULE_OF_FIVE>
1

> <ALOGPS_SOLUBILITY>
2.13e+01 g/l

> <JCHEM_TRADITIONAL_IUPAC>
carbamylaspartic acid

> <JCHEM_VEBER_RULE>
0

> <DRUGBANK_ID>
DB04252

> <SECONDARY_ACCESSION_NUMBERS>
EXPT02310

> <DRUG_GROUPS>
experimental

> <GENERIC_NAME>
N-Carbamoyl-L-Aspartate

$$$$
