4472
  -OEChem-10051720433D

 40 41  0     0  0  0  0  0  0999 V2000
   -1.9449    0.7227   -1.5258 O   0  0  0  0  0  0  0  0  0  0  0  0
    3.2342   -0.5399    1.9592 O   0  0  0  0  0  0  0  0  0  0  0  0
   -3.2680    1.6620    0.1334 N   0  0  0  0  0  0  0  0  0  0  0  0
    1.5221    1.3254    0.8438 N   0  0  0  0  0  0  0  0  0  0  0  0
    2.7345    0.9719    0.2713 N   0  0  0  0  0  0  0  0  0  0  0  0
    7.2179   -0.8637   -0.9873 N   0  0  0  0  0  0  0  0  0  0  0  0
   -0.8964    1.5139    0.5087 C   0  0  0  0  0  0  0  0  0  0  0  0
    0.4321    1.0610   -0.0873 C   0  0  0  0  0  0  0  0  0  0  0  0
   -4.5247    1.5142   -0.5610 C   0  0  0  0  0  0  0  0  0  0  0  0
   -2.0666    1.2452   -0.4211 C   0  0  0  0  0  0  0  0  0  0  0  0
   -5.1841    0.2003   -0.2558 C   0  0  0  0  0  0  0  0  0  0  0  0
   -4.9101   -0.9072   -1.0498 C   0  0  0  0  0  0  0  0  0  0  0  0
   -6.0616    0.1043    0.8179 C   0  0  0  0  0  0  0  0  0  0  0  0
   -5.5223   -2.1280   -0.7663 C   0  0  0  0  0  0  0  0  0  0  0  0
   -6.6739   -1.1166    1.1014 C   0  0  0  0  0  0  0  0  0  0  0  0
    3.5206    0.0274    0.9077 C   0  0  0  0  0  0  0  0  0  0  0  0
   -6.4041   -2.2327    0.3092 C   0  0  0  0  0  0  0  0  0  0  0  0
    4.8138   -0.2841    0.2449 C   0  0  0  0  0  0  0  0  0  0  0  0
    5.8636   -0.7318    1.0110 C   0  0  0  0  0  0  0  0  0  0  0  0
    4.9224   -0.1158   -1.1149 C   0  0  0  0  0  0  0  0  0  0  0  0
    7.0472   -1.0085    0.3459 C   0  0  0  0  0  0  0  0  0  0  0  0
    6.1483   -0.4200   -1.6849 C   0  0  0  0  0  0  0  0  0  0  0  0
   -0.8705    2.5902    0.7203 H   0  0  0  0  0  0  0  0  0  0  0  0
   -1.0855    0.9891    1.4536 H   0  0  0  0  0  0  0  0  0  0  0  0
    0.6031    1.5853   -1.0366 H   0  0  0  0  0  0  0  0  0  0  0  0
    0.3851   -0.0122   -0.3119 H   0  0  0  0  0  0  0  0  0  0  0  0
   -4.3639    1.6201   -1.6406 H   0  0  0  0  0  0  0  0  0  0  0  0
   -5.1682    2.3472   -0.2556 H   0  0  0  0  0  0  0  0  0  0  0  0
   -3.2775    2.0692    1.0642 H   0  0  0  0  0  0  0  0  0  0  0  0
    1.5688    2.3241    1.0436 H   0  0  0  0  0  0  0  0  0  0  0  0
   -4.2289   -0.8388   -1.8931 H   0  0  0  0  0  0  0  0  0  0  0  0
   -6.2775    0.9666    1.4426 H   0  0  0  0  0  0  0  0  0  0  0  0
    3.0254    1.4856   -0.5541 H   0  0  0  0  0  0  0  0  0  0  0  0
   -5.3132   -2.9968   -1.3836 H   0  0  0  0  0  0  0  0  0  0  0  0
   -7.3602   -1.1985    1.9392 H   0  0  0  0  0  0  0  0  0  0  0  0
   -6.8809   -3.1833    0.5300 H   0  0  0  0  0  0  0  0  0  0  0  0
    5.7966   -0.8656    2.0844 H   0  0  0  0  0  0  0  0  0  0  0  0
    4.1115    0.2049   -1.7571 H   0  0  0  0  0  0  0  0  0  0  0  0
    7.9182   -1.3642    0.8867 H   0  0  0  0  0  0  0  0  0  0  0  0
    6.3046   -0.3184   -2.7539 H   0  0  0  0  0  0  0  0  0  0  0  0
  1 10  2  0  0  0  0
  2 16  2  0  0  0  0
  3  9  1  0  0  0  0
  3 10  1  0  0  0  0
  3 29  1  0  0  0  0
  4  5  1  0  0  0  0
  4  8  1  0  0  0  0
  4 30  1  0  0  0  0
  5 16  1  0  0  0  0
  5 33  1  0  0  0  0
  6 21  2  0  0  0  0
  6 22  1  0  0  0  0
  7  8  1  0  0  0  0
  7 10  1  0  0  0  0
  7 23  1  0  0  0  0
  7 24  1  0  0  0  0
  8 25  1  0  0  0  0
  8 26  1  0  0  0  0
  9 11  1  0  0  0  0
  9 27  1  0  0  0  0
  9 28  1  0  0  0  0
 11 12  2  0  0  0  0
 11 13  1  0  0  0  0
 12 14  1  0  0  0  0
 12 31  1  0  0  0  0
 13 15  2  0  0  0  0
 13 32  1  0  0  0  0
 14 17  2  0  0  0  0
 14 34  1  0  0  0  0
 15 17  1  0  0  0  0
 15 35  1  0  0  0  0
 16 18  1  0  0  0  0
 17 36  1  0  0  0  0
 18 19  2  0  0  0  0
 18 20  1  0  0  0  0
 19 21  1  0  0  0  0
 19 37  1  0  0  0  0
 20 22  2  0  0  0  0
 20 38  1  0  0  0  0
 21 39  1  0  0  0  0
 22 40  1  0  0  0  0
M  END
> <DATABASE_ID>
DB04820

> <DATABASE_NAME>
drugbank

> <ORIGINAL_SOURCE>
PUBCHEM

> <ORIGINAL_SOURCE_URL>
https://pubchem.ncbi.nlm.nih.gov/rest/pug/compound/inchikey/NOIIUHRQUVNIDD-UHFFFAOYSA-N/SDF?record_type=3d

> <SMILES>
O=C(CCNNC(=O)C1=CC=NC=C1)NCC1=CC=CC=C1

> <INCHI_IDENTIFIER>
InChI=1S/C16H18N4O2/c21-15(18-12-13-4-2-1-3-5-13)8-11-19-20-16(22)14-6-9-17-10-7-14/h1-7,9-10,19H,8,11-12H2,(H,18,21)(H,20,22)

> <INCHI_KEY>
NOIIUHRQUVNIDD-UHFFFAOYSA-N

> <FORMULA>
C16H18N4O2

> <MOLECULAR_WEIGHT>
298.3397

> <EXACT_MASS>
298.14297584

> <JCHEM_ACCEPTOR_COUNT>
4

> <JCHEM_AVERAGE_POLARIZABILITY>
32.06613333190208

> <JCHEM_BIOAVAILABILITY>
1

> <JCHEM_DONOR_COUNT>
3

> <JCHEM_FORMAL_CHARGE>
0

> <JCHEM_GHOSE_FILTER>
1

> <JCHEM_IUPAC>
N-benzyl-3-(pyridin-4-ylformohydrazido)propanamide

> <ALOGPS_LOGP>
0.65

> <JCHEM_LOGP>
0.3896166700000003

> <ALOGPS_LOGS>
-3.53

> <JCHEM_MDDR_LIKE_RULE>
0

> <JCHEM_NUMBER_OF_RINGS>
2

> <JCHEM_PHYSIOLOGICAL_CHARGE>
0

> <JCHEM_PKA>
15.169849537582095

> <JCHEM_PKA_STRONGEST_ACIDIC>
13.652996672057789

> <JCHEM_PKA_STRONGEST_BASIC>
3.4076431615680582

> <JCHEM_POLAR_SURFACE_AREA>
83.12

> <JCHEM_REFRACTIVITY>
93.90660000000001

> <JCHEM_ROTATABLE_BOND_COUNT>
7

> <JCHEM_RULE_OF_FIVE>
1

> <ALOGPS_SOLUBILITY>
8.73e-02 g/l

> <JCHEM_TRADITIONAL_IUPAC>
nialamide

> <JCHEM_VEBER_RULE>
0

> <DRUGBANK_ID>
DB04820

> <DRUG_GROUPS>
approved; withdrawn

> <GENERIC_NAME>
Nialamide

> <SYNONYMS>
1-(2-(Benzylcarbamoyl)ethyl)-2-isonicotinoylhydrazine; 2-(2-(Benzylcarbamoyl)ethyl)hydrazide isonicotinic acid; 2-(2-(Benzylcarbamyl)ethyl)hydrazide isonicotinic acid; BEIH; Isonicotinic acid 2-((2-benzylcarbamoyl)ethyl)hydrazide; Isonicotinic acid, 2-(2-(benzylcarbamoyl)ethyl)hydrazide; N-(2-(Benzylcarbamyl)ethylamino)isonicotinamide; N-benzyl-beta-(isonicotinoylhydrazine)propionamide; N-benzyl-beta-(isonicotinylhydrazino)propionamide; N-Isonicotinoyl-N'(beta-N-benzylcarboxamidoethyl)hydrazine; Nialamida; Nialamide; Nialamidum

> <INTERNATIONAL_BRANDS>
Delmoneurina; Niamid; Niamide; Nuredal; Surgex

$$$$
