311
  -OEChem-10051720323D

 21 20  0     0  0  0  0  0  0999 V2000
    0.0296    0.2095    1.6069 O   0  0  0  0  0  0  0  0  0  0  0  0
   -0.8558    1.7979   -1.4962 O   0  0  0  0  0  0  0  0  0  0  0  0
   -1.3554    2.2689    0.6622 O   0  0  0  0  0  0  0  0  0  0  0  0
   -2.3908   -2.3046   -0.7871 O   0  0  0  0  0  0  0  0  0  0  0  0
    3.5351   -0.4033   -0.9273 O   0  0  0  0  0  0  0  0  0  0  0  0
   -2.5559   -0.6265    0.7317 O   0  0  0  0  0  0  0  0  0  0  0  0
    2.5438   -1.1245    0.9835 O   0  0  0  0  0  0  0  0  0  0  0  0
    0.1007    0.3620    0.1941 C   0  0  0  0  0  0  0  0  0  0  0  0
   -0.4905   -0.8791   -0.4971 C   0  0  0  0  0  0  0  0  0  0  0  0
    1.5374    0.7096   -0.2266 C   0  0  0  0  0  0  0  0  0  0  0  0
   -0.7650    1.5773   -0.1587 C   0  0  0  0  0  0  0  0  0  0  0  0
   -1.9098   -1.2305   -0.1154 C   0  0  0  0  0  0  0  0  0  0  0  0
    2.5767   -0.3568    0.0300 C   0  0  0  0  0  0  0  0  0  0  0  0
    0.1120   -1.7555   -0.2286 H   0  0  0  0  0  0  0  0  0  0  0  0
   -0.4574   -0.7614   -1.5866 H   0  0  0  0  0  0  0  0  0  0  0  0
    1.8842    1.6080    0.3000 H   0  0  0  0  0  0  0  0  0  0  0  0
    1.5589    0.9361   -1.3004 H   0  0  0  0  0  0  0  0  0  0  0  0
    0.4620    0.9771    2.0186 H   0  0  0  0  0  0  0  0  0  0  0  0
   -1.4293    2.5669   -1.7015 H   0  0  0  0  0  0  0  0  0  0  0  0
   -3.3078   -2.5252   -0.5172 H   0  0  0  0  0  0  0  0  0  0  0  0
    4.1914   -1.1116   -0.7546 H   0  0  0  0  0  0  0  0  0  0  0  0
  1  8  1  0  0  0  0
  1 18  1  0  0  0  0
  2 11  1  0  0  0  0
  2 19  1  0  0  0  0
  3 11  2  0  0  0  0
  4 12  1  0  0  0  0
  4 20  1  0  0  0  0
  5 13  1  0  0  0  0
  5 21  1  0  0  0  0
  6 12  2  0  0  0  0
  7 13  2  0  0  0  0
  8  9  1  0  0  0  0
  8 10  1  0  0  0  0
  8 11  1  0  0  0  0
  9 12  1  0  0  0  0
  9 14  1  0  0  0  0
  9 15  1  0  0  0  0
 10 13  1  0  0  0  0
 10 16  1  0  0  0  0
 10 17  1  0  0  0  0
M  END
> <DATABASE_ID>
DB04272

> <DATABASE_NAME>
drugbank

> <ORIGINAL_SOURCE>
PUBCHEM

> <ORIGINAL_SOURCE_URL>
https://pubchem.ncbi.nlm.nih.gov/rest/pug/compound/inchikey/KRKNYBCHXYNGOX-UHFFFAOYSA-N/SDF?record_type=3d

> <SMILES>
OC(=O)CC(O)(CC(O)=O)C(O)=O

> <INCHI_IDENTIFIER>
InChI=1S/C6H8O7/c7-3(8)1-6(13,5(11)12)2-4(9)10/h13H,1-2H2,(H,7,8)(H,9,10)(H,11,12)

> <INCHI_KEY>
KRKNYBCHXYNGOX-UHFFFAOYSA-N

> <FORMULA>
C6H8O7

> <MOLECULAR_WEIGHT>
192.1235

> <EXACT_MASS>
192.02700261

> <JCHEM_ACCEPTOR_COUNT>
7

> <JCHEM_AVERAGE_POLARIZABILITY>
15.535026604328738

> <JCHEM_BIOAVAILABILITY>
1

> <JCHEM_DONOR_COUNT>
4

> <JCHEM_FORMAL_CHARGE>
0

> <JCHEM_GHOSE_FILTER>
0

> <JCHEM_IUPAC>
2-hydroxypropane-1,2,3-tricarboxylic acid

> <ALOGPS_LOGP>
-1.33

> <JCHEM_LOGP>
-1.3226874519999998

> <ALOGPS_LOGS>
-0.26

> <JCHEM_MDDR_LIKE_RULE>
0

> <JCHEM_NUMBER_OF_RINGS>
0

> <JCHEM_PHYSIOLOGICAL_CHARGE>
-3

> <JCHEM_PKA>
4.674836176324

> <JCHEM_PKA_STRONGEST_ACIDIC>
3.0479515131680714

> <JCHEM_PKA_STRONGEST_BASIC>
-4.185693450231931

> <JCHEM_POLAR_SURFACE_AREA>
132.13

> <JCHEM_REFRACTIVITY>
35.6239

> <JCHEM_ROTATABLE_BOND_COUNT>
5

> <JCHEM_RULE_OF_FIVE>
1

> <ALOGPS_SOLUBILITY>
1.06e+02 g/l

> <JCHEM_TRADITIONAL_IUPAC>
citric acid

> <JCHEM_VEBER_RULE>
0

> <DRUGBANK_ID>
DB04272

> <SECONDARY_ACCESSION_NUMBERS>
EXPT00922

> <DRUG_GROUPS>
approved; nutraceutical; vet_approved

> <GENERIC_NAME>
Citric acid

> <SYNONYMS>
2-hydroxy-1,2,3-propanetricarboxyic acid; 2-Hydroxytricarballylic acid; 3-carboxy-3-hydroxypentane-1,5-dioic acid; ácido cítrico; Acidum citricum; Anhydrous citric acid; Citric acid monoglyceride; Citric Acid, Anhydrous; Citric acid,anhydrous; Citronensäure

> <PRODUCTS>
A-C-D Solution; ACD Blood-Pack Units (PL 146 Plastic); ACD Solution Modified; ADSOL Red Cell Preservation Solution System in Plastic Container (PL 146 Plastic); Acd A; Acd-A; Additive Formula 3; Additive Solution Formula 3 As-3; Adsol Red Cell Preservation System In Plastic Container (pl 146 Plastic); Alka Seltzer; Alka Seltzer Evt; Alka Seltzer Flavoured; Alka Seltzer Original; Alka-Seltzer; Alka-Seltzer Extra Strength; Alka-Seltzer Gold; Alka-Seltzer HEARTBURN; Alka-Seltzer Heartburn; Alka-Seltzer Lemon Lime; Alka-Seltzer Original; Alka-Seltzer XTRA STRENGTH; Alka-seltzer Flavoured; Alka-seltzer Flavoured - Evt; All-Natural Pen Spray; Anticoagulant Cit Phos Dex Adenine Sol USP; Anticoagulant Citrate Dextr Sol Formula A USP; Anticoagulant Citrate Dextrose A; Anticoagulant Citrate Dextrose A ACD-A; Anticoagulant Citrate Dextrose Solution USP (acd) Formula A; Anticoagulant Citrate Dextrose Solution USP (acd) Formula B; Anticoagulant Citrate Dextrose Solution-A; Anticoagulant Citrate Phosphate Dextrose (CPD) Blood-Pack Units in PL 146 Plastic; Anticoagulant Solution Citrate Phosphate Dextrose (cpd); As 3; Best Choice Effervescent Antacid Pain Relief; Bicaruvas; Blood Pack Unit Cpd; Bromo Seltzer; CPD/ADSOL Red Cell Preservation Solution System (PL 2209); CPDA-1 Blood Collection System; CVS Health Antacid and Pain Reliever; Care One Original Antacid and Pain Relief; Citracleen; Citrasate C0125; Citrasate C10125; Citrasate C1125; Citrasate C1150; Citrasate C2125; Citrasate C2150; Citrasate C3125; Citrasate C3150; Citrasate C4125; Citric Buffered Normal Saline; Citrocarbonate Eff Pws; Clenpiq; Cpd; Cpd Adenine Cpda 1; Cpd Solution; Cpd/adsol; Cpda-1; Cytra 3; Cytra-2; Cytra-K; Cytra-K Crystals; DG Health Effervescent Antacid and Pain Relief; Drug Mart Effervescent Pain Relief; E-Z-gas II; Effervescent Antacid and Pain Relief; Effervescent Pain Relief; Effervescent Pain Relief Fast Relief; Effervescent Pain Relief Fast Relief Fast Relief; EnLyte; Equaline Effervescent Antacid and Pain Relief; Equate Effervescent Antacid and Pain Relief; Family Care Effervescent Antacid and Pain Relief; Family Wellness Effervescent Antacid and Pain Relief; Freds Effervescent Antacid Pain Relief; Good Sense Effervescent Antacid and Pain Relief; Haemonetics Additive Solution Formula 3 (AS-3); Haemonetics Anticoagulant Citrate Dextrose Solution; Haemonetics Anticoagulant Citrate Phosphate Double Dextrose Solution (CP2D); Hand Sanitizer; Hand Washing; Hemasate Ultra Hs0125; Hemasate Ultra Hs1125; Hemasate Ultra Hs1150; Hemasate Ultra Hs2125; Hemasate Ultra Hs2150; Hemasate Ultra Hs3125; Hemasate Ultra Hs3150; Hemasate Ultra Hs4125; Hemosate Ultra Hs0125; Hemosate Ultra Hs1125; Hemosate Ultra Hs1150; Hemosate Ultra Hs2125; Hemosate Ultra Hs2150; Hemosate Ultra Hs3125; Hemosate Ultra Hs3150; Hemosate Ultra Hs4125; Heparin Sodium 1000units In 0.9% Sodium Chloride Injection USP; Heparin Sodium In 5% Dextrose Injection, 25000unit/500ml; HyVee Health Effervescent Antacid and Pain Relief; IDkit HP ONE; IMUFLEX WB-RP Blood Bag System with Integral Whole Blood Leukocyte Reduction Filter (Removing Platelets) with Diversion Blood Sampling Arm Anticoagulant Citrate Phosphate Dextrose (CPD) AND OPTISOL (AS-5) Red Cell Preservative; IMUFLEX WB-SP BLOOD BAG SYSTEM with Integral Whole Blood Leukocyte Reduction Filter (Saving Platelets) with Diversion Blood Sampling Arm; IMUFLEX WB-SP Blood Bag System with Integral Whole Blood Leukocyte Reduction Filter (Saving Platelets) with Diversion Blood Sampling Arm Anticoagulant Citrate Phosphate Dextrose (CPD) and OPTISOL (AS-5) Red Cell Preservative; Kroger Effervescent Antacid and Pain Relief; Leader Effervescent Antacid and Pain Relief; Leucoflex CGP; Leukotrap WB System; Lytren; Lytren Rhs Liq; MTL1 Leucoflex; Medique Medi Seltzer; Meijer Effervescent Antacid and Pain Relief; Neutra-seltzer; Nutricel Additive System - CP2D; Oracit; Oral Purgative; Pain Relief Fast Relief; Pico-salax; Picodan; Picoflo; Picot Plus Effervescent; Potassium Citrate Citric Acid Crystals; Potassium Citrate and Citric Acid; Potassium Citrate-Citric Acid; Potassium Citrate-Sodium Citrate-Citric Acid; PramLyte; Premier Value Antacid and Pain Relief Medicine; Prepopik; Publix Fast Relief Effervescent; Puralor; Purg-odan; Quality Choice Effervescent Antacid and Pain Relief; Renacidin; Riga Purgative Lemon Flav Liq; Sal De Uvas Picot; Sal de Uvas Picot; Signature Care Effervescent Antacid and Pain Relief; Smart Sense Effervescent Antacid and Pain Relief; Sodium Citrate and Citric Acid; Sodium Citrate-Citric Acid; Sterile Cord Blood Collection Unit; Sterile Cord Blood Collection Unit (MSC127D); Sterile Cord Blood Collection Unit (MSC128D); Stop Hair; TERUFLEX Blood Bag System Anticoagulant Citrate Phosphate Dextrose (CPD) AND OPTISOL Red Cell Preservative; TERUFLEX Blood Bag System Anticoagulant Citrate Phosphate Dextrose Adenine (CPDA-1); TERUFLEX Blood Bag System with Blood Sampling Arm Anticoagulant Citrate Phosphate Dextrose (CPD) AND OPTISOL (AS-5) Red Cell Preservative; TERUFLEX Blood Bag System with Diversion Blood Sampling Arm Anticoagulant Citrate Phosphate Dextrose (CPD) AND OPTISOL (AS-5) Red Cell Preservative; Top Value Effervescent Pain Relief; TopCare Effervescent Antacid and Pain Relief; Tricitrates; Urologic G for Irrigation; Urologic Solution G; Vida Mia Pain Relief; Virtrate-2; Virtrate-3; Virtrate-K; Walgreens Effervescent Pain Relief; Whitening Lemon Peel; WinCo Foods Effervescent Antacid and Pain Relief; Zee-Seltzer Antacid and Pain Reliever; bdr Re-action natural low base skin refiner exfoliation essence

> <SALTS>
Citric acid monohydrate

$$$$
