23190
  -OEChem-10051720373D

 33 35  0     1  0  0  0  0  0999 V2000
    2.0158   -0.5141   -0.9556 O   0  0  0  0  0  0  0  0  0  0  0  0
    1.2326    2.2715    1.1770 O   0  0  0  0  0  0  0  0  0  0  0  0
    3.4262    2.1361   -0.4214 O   0  0  0  0  0  0  0  0  0  0  0  0
    3.7970   -2.6040   -0.3878 O   0  0  0  0  0  0  0  0  0  0  0  0
   -0.1973   -0.2458   -0.1428 N   0  0  0  0  0  0  0  0  0  0  0  0
   -1.6167   -1.8778    0.3830 N   0  0  0  0  0  0  0  0  0  0  0  0
   -4.1530    0.7582   -0.2012 N   0  0  0  0  0  0  0  0  0  0  0  0
   -4.5944   -1.5000    0.4421 N   0  0  0  0  0  0  0  0  0  0  0  0
    1.0763    0.4239   -0.3964 C   0  0  1  0  0  0  0  0  0  0  0  0
    1.7367    0.9926    0.8502 C   0  0  1  0  0  0  0  0  0  0  0  0
    3.1945    1.0174    0.4346 C   0  0  1  0  0  0  0  0  0  0  0  0
    3.3209   -0.2632   -0.3845 C   0  0  1  0  0  0  0  0  0  0  0  0
    3.7166   -1.4689    0.4563 C   0  0  0  0  0  0  0  0  0  0  0  0
   -1.4493    0.3111   -0.2265 C   0  0  0  0  0  0  0  0  0  0  0  0
   -0.3523   -1.5556    0.2249 C   0  0  0  0  0  0  0  0  0  0  0  0
   -2.3151   -0.7261    0.1054 C   0  0  0  0  0  0  0  0  0  0  0  0
   -1.8856    1.5877   -0.5525 C   0  0  0  0  0  0  0  0  0  0  0  0
   -3.6878   -0.4765    0.1120 C   0  0  0  0  0  0  0  0  0  0  0  0
   -3.2650    1.7335   -0.5169 C   0  0  0  0  0  0  0  0  0  0  0  0
    0.8888    1.1924   -1.1557 H   0  0  0  0  0  0  0  0  0  0  0  0
    1.5976    0.3299    1.7122 H   0  0  0  0  0  0  0  0  0  0  0  0
    3.8859    1.0924    1.2787 H   0  0  0  0  0  0  0  0  0  0  0  0
    4.0143   -0.1526   -1.2259 H   0  0  0  0  0  0  0  0  0  0  0  0
    2.9808   -1.6865    1.2367 H   0  0  0  0  0  0  0  0  0  0  0  0
    4.6933   -1.3185    0.9255 H   0  0  0  0  0  0  0  0  0  0  0  0
    1.4027    2.8631    0.4243 H   0  0  0  0  0  0  0  0  0  0  0  0
    0.4838   -2.2263    0.3682 H   0  0  0  0  0  0  0  0  0  0  0  0
    4.3552    2.0956   -0.7061 H   0  0  0  0  0  0  0  0  0  0  0  0
   -1.2193    2.3995   -0.8098 H   0  0  0  0  0  0  0  0  0  0  0  0
    2.9248   -2.7245   -0.8010 H   0  0  0  0  0  0  0  0  0  0  0  0
   -3.7160    2.6927   -0.7546 H   0  0  0  0  0  0  0  0  0  0  0  0
   -5.5853   -1.3001    0.4421 H   0  0  0  0  0  0  0  0  0  0  0  0
   -4.2581   -2.4239    0.6778 H   0  0  0  0  0  0  0  0  0  0  0  0
  1  9  1  0  0  0  0
  1 12  1  0  0  0  0
  2 10  1  0  0  0  0
  2 26  1  0  0  0  0
  3 11  1  0  0  0  0
  3 28  1  0  0  0  0
  4 13  1  0  0  0  0
  4 30  1  0  0  0  0
  5  9  1  0  0  0  0
  5 14  1  0  0  0  0
  5 15  1  0  0  0  0
  6 15  2  0  0  0  0
  6 16  1  0  0  0  0
  7 18  2  0  0  0  0
  7 19  1  0  0  0  0
  8 18  1  0  0  0  0
  8 32  1  0  0  0  0
  8 33  1  0  0  0  0
  9 10  1  0  0  0  0
  9 20  1  0  0  0  0
 10 11  1  0  0  0  0
 10 21  1  0  0  0  0
 11 12  1  0  0  0  0
 11 22  1  0  0  0  0
 12 13  1  0  0  0  0
 12 23  1  0  0  0  0
 13 24  1  0  0  0  0
 13 25  1  0  0  0  0
 14 16  2  0  0  0  0
 14 17  1  0  0  0  0
 15 27  1  0  0  0  0
 16 18  1  0  0  0  0
 17 19  2  0  0  0  0
 17 29  1  0  0  0  0
 19 31  1  0  0  0  0
M  END
> <DATABASE_ID>
DB04546

> <DATABASE_NAME>
drugbank

> <ORIGINAL_SOURCE>
PUBCHEM

> <ORIGINAL_SOURCE_URL>
https://pubchem.ncbi.nlm.nih.gov/rest/pug/compound/inchikey/DBZQFUNLCALWDY-PNHWDRBUSA-N/SDF?record_type=3d

> <SMILES>
[H][C@]1(CO)O[C@@]([H])(N2C=NC3=C2C=CNC3=N)[C@]([H])(O)[C@]1([H])O

> <INCHI_IDENTIFIER>
InChI=1S/C11H14N4O4/c12-10-7-5(1-2-13-10)15(4-14-7)11-9(18)8(17)6(3-16)19-11/h1-2,4,6,8-9,11,16-18H,3H2,(H2,12,13)/t6-,8-,9-,11-/m1/s1

> <INCHI_KEY>
DBZQFUNLCALWDY-PNHWDRBUSA-N

> <FORMULA>
C11H14N4O4

> <MOLECULAR_WEIGHT>
266.2533

> <EXACT_MASS>
266.101504956

> <JCHEM_ACCEPTOR_COUNT>
7

> <JCHEM_AVERAGE_POLARIZABILITY>
25.703355753513165

> <JCHEM_BIOAVAILABILITY>
1

> <JCHEM_DONOR_COUNT>
5

> <JCHEM_FORMAL_CHARGE>
0

> <JCHEM_GHOSE_FILTER>
0

> <JCHEM_IUPAC>
(2R,3S,4R,5R)-2-(hydroxymethyl)-5-{4-imino-1H,4H,5H-imidazo[4,5-c]pyridin-1-yl}oxolane-3,4-diol

> <ALOGPS_LOGP>
-1.93

> <JCHEM_LOGP>
-1.9245784746666665

> <ALOGPS_LOGS>
-1.51

> <JCHEM_MDDR_LIKE_RULE>
0

> <JCHEM_NUMBER_OF_RINGS>
3

> <JCHEM_PHYSIOLOGICAL_CHARGE>
1

> <JCHEM_PKA>
12.525208496546504

> <JCHEM_PKA_STRONGEST_ACIDIC>
11.639400822811929

> <JCHEM_PKA_STRONGEST_BASIC>
6.994313114424148

> <JCHEM_POLAR_SURFACE_AREA>
123.62000000000002

> <JCHEM_REFRACTIVITY>
74.9644

> <JCHEM_ROTATABLE_BOND_COUNT>
2

> <JCHEM_RULE_OF_FIVE>
1

> <ALOGPS_SOLUBILITY>
8.20e+00 g/l

> <JCHEM_TRADITIONAL_IUPAC>
(2R,3S,4R,5R)-2-(hydroxymethyl)-5-{4-imino-5H-imidazo[4,5-c]pyridin-1-yl}oxolane-3,4-diol

> <JCHEM_VEBER_RULE>
0

> <DRUGBANK_ID>
DB04546

> <SECONDARY_ACCESSION_NUMBERS>
EXPT00425

> <DRUG_GROUPS>
experimental

> <GENERIC_NAME>
3-Deaza-Adenosine

$$$$
