5289109
  -OEChem-10051720413D

 50 52  0     0  0  0  0  0  0999 V2000
    2.3221   -1.3231    0.9755 O   0  0  0  0  0  0  0  0  0  0  0  0
   -2.3081   -1.3066   -0.9761 O   0  0  0  0  0  0  0  0  0  0  0  0
    3.2941    0.7335    1.4252 N   0  0  0  0  0  0  0  0  0  0  0  0
   -3.2883    0.7492   -1.4148 N   0  0  0  0  0  0  0  0  0  0  0  0
    1.0964    1.9366    0.4817 N   0  0  0  0  0  0  0  0  0  0  0  0
   -1.1161    1.9374   -0.4733 N   0  0  0  0  0  0  0  0  0  0  0  0
    5.5673    0.0468    0.8522 C   0  0  0  0  0  0  0  0  0  0  0  0
   -5.5552    0.0547   -0.8552 C   0  0  0  0  0  0  0  0  0  0  0  0
    4.5441    0.2197    1.9374 C   0  0  0  0  0  0  0  0  0  0  0  0
   -4.5342    0.2374   -1.9267 C   0  0  0  0  0  0  0  0  0  0  0  0
    5.6469   -1.1604    0.1685 C   0  0  0  0  0  0  0  0  0  0  0  0
   -5.6415   -1.1593   -0.1738 C   0  0  0  0  0  0  0  0  0  0  0  0
    6.5965   -1.3204   -0.8406 C   0  0  0  0  0  0  0  0  0  0  0  0
   -6.5955   -1.3297    0.8295 C   0  0  0  0  0  0  0  0  0  0  0  0
    6.4236    1.0966    0.5413 C   0  0  0  0  0  0  0  0  0  0  0  0
   -6.4228    1.0983   -0.5332 C   0  0  0  0  0  0  0  0  0  0  0  0
    7.4597   -0.2720   -1.1588 C   0  0  0  0  0  0  0  0  0  0  0  0
   -7.4632   -0.2862    1.1514 C   0  0  0  0  0  0  0  0  0  0  0  0
    7.3732    0.9366   -0.4677 C   0  0  0  0  0  0  0  0  0  0  0  0
   -7.3768    0.9279    0.4700 C   0  0  0  0  0  0  0  0  0  0  0  0
    2.2490   -0.0805    0.9710 C   0  0  0  0  0  0  0  0  0  0  0  0
   -2.2644   -0.0791   -0.9758 C   0  0  0  0  0  0  0  0  0  0  0  0
    1.0640    0.5879    0.4622 C   0  0  0  0  0  0  0  0  0  0  0  0
   -1.0536    0.6039   -0.4518 C   0  0  0  0  0  0  0  0  0  0  0  0
    6.6903   -2.6130   -1.5790 C   0  0  0  0  0  0  0  0  0  0  0  0
   -6.6892   -2.6281    1.5575 C   0  0  0  0  0  0  0  0  0  0  0  0
   -0.0076   -0.1466   -0.0032 C   0  0  0  0  0  0  0  0  0  0  0  0
   -0.0106    2.5384    0.0065 C   0  0  0  0  0  0  0  0  0  0  0  0
    4.3642   -0.7330    2.4494 H   0  0  0  0  0  0  0  0  0  0  0  0
    4.9026    0.9242    2.6966 H   0  0  0  0  0  0  0  0  0  0  0  0
   -4.8918    0.9460   -2.6828 H   0  0  0  0  0  0  0  0  0  0  0  0
   -4.3529   -0.7097   -2.4492 H   0  0  0  0  0  0  0  0  0  0  0  0
    4.9765   -1.9792    0.4165 H   0  0  0  0  0  0  0  0  0  0  0  0
   -4.9682   -1.9756   -0.4235 H   0  0  0  0  0  0  0  0  0  0  0  0
    6.3635    2.0430    1.0715 H   0  0  0  0  0  0  0  0  0  0  0  0
   -6.3643    2.0499   -1.0550 H   0  0  0  0  0  0  0  0  0  0  0  0
    3.1832    1.7425    1.3770 H   0  0  0  0  0  0  0  0  0  0  0  0
   -3.1720    1.7569   -1.3577 H   0  0  0  0  0  0  0  0  0  0  0  0
    8.2027   -0.3834   -1.9441 H   0  0  0  0  0  0  0  0  0  0  0  0
   -8.2096   -0.4056    1.9323 H   0  0  0  0  0  0  0  0  0  0  0  0
    8.0445    1.7533   -0.7160 H   0  0  0  0  0  0  0  0  0  0  0  0
   -8.0518    1.7409    0.7212 H   0  0  0  0  0  0  0  0  0  0  0  0
    6.0068   -2.6074   -2.4338 H   0  0  0  0  0  0  0  0  0  0  0  0
    7.7075   -2.7879   -1.9452 H   0  0  0  0  0  0  0  0  0  0  0  0
    6.4345   -3.4569   -0.9293 H   0  0  0  0  0  0  0  0  0  0  0  0
   -6.4343   -3.4667    0.9006 H   0  0  0  0  0  0  0  0  0  0  0  0
   -6.0051   -2.6297    2.4118 H   0  0  0  0  0  0  0  0  0  0  0  0
   -7.7062   -2.8057    1.9233 H   0  0  0  0  0  0  0  0  0  0  0  0
   -0.0097   -1.2288   -0.0083 H   0  0  0  0  0  0  0  0  0  0  0  0
   -0.0118    3.6215    0.0104 H   0  0  0  0  0  0  0  0  0  0  0  0
  1 21  2  0  0  0  0
  2 22  2  0  0  0  0
  3  9  1  0  0  0  0
  3 21  1  0  0  0  0
  3 37  1  0  0  0  0
  4 10  1  0  0  0  0
  4 22  1  0  0  0  0
  4 38  1  0  0  0  0
  5 23  2  0  0  0  0
  5 28  1  0  0  0  0
  6 24  1  0  0  0  0
  6 28  2  0  0  0  0
  7  9  1  0  0  0  0
  7 11  1  0  0  0  0
  7 15  2  0  0  0  0
  8 10  1  0  0  0  0
  8 12  1  0  0  0  0
  8 16  2  0  0  0  0
  9 29  1  0  0  0  0
  9 30  1  0  0  0  0
 10 31  1  0  0  0  0
 10 32  1  0  0  0  0
 11 13  2  0  0  0  0
 11 33  1  0  0  0  0
 12 14  2  0  0  0  0
 12 34  1  0  0  0  0
 13 17  1  0  0  0  0
 13 25  1  0  0  0  0
 14 18  1  0  0  0  0
 14 26  1  0  0  0  0
 15 19  1  0  0  0  0
 15 35  1  0  0  0  0
 16 20  1  0  0  0  0
 16 36  1  0  0  0  0
 17 19  2  0  0  0  0
 17 39  1  0  0  0  0
 18 20  2  0  0  0  0
 18 40  1  0  0  0  0
 19 41  1  0  0  0  0
 20 42  1  0  0  0  0
 21 23  1  0  0  0  0
 22 24  1  0  0  0  0
 23 27  1  0  0  0  0
 24 27  2  0  0  0  0
 25 43  1  0  0  0  0
 25 44  1  0  0  0  0
 25 45  1  0  0  0  0
 26 46  1  0  0  0  0
 26 47  1  0  0  0  0
 26 48  1  0  0  0  0
 27 49  1  0  0  0  0
 28 50  1  0  0  0  0
M  END
> <DATABASE_ID>
DB04759

> <DATABASE_NAME>
drugbank

> <ORIGINAL_SOURCE>
PUBCHEM

> <ORIGINAL_SOURCE_URL>
https://pubchem.ncbi.nlm.nih.gov/rest/pug/compound/inchikey/GTBUZLPQANSGGE-UHFFFAOYSA-N/SDF?record_type=3d

> <SMILES>
CC1=CC(CNC(=O)C2=CC(=NC=N2)C(=O)NCC2=CC=CC(C)=C2)=CC=C1

> <INCHI_IDENTIFIER>
InChI=1S/C22H22N4O2/c1-15-5-3-7-17(9-15)12-23-21(27)19-11-20(26-14-25-19)22(28)24-13-18-8-4-6-16(2)10-18/h3-11,14H,12-13H2,1-2H3,(H,23,27)(H,24,28)

> <INCHI_KEY>
GTBUZLPQANSGGE-UHFFFAOYSA-N

> <FORMULA>
C22H22N4O2

> <MOLECULAR_WEIGHT>
374.4357

> <EXACT_MASS>
374.174275968

> <JCHEM_ACCEPTOR_COUNT>
4

> <JCHEM_AVERAGE_POLARIZABILITY>
41.8144178805122

> <JCHEM_BIOAVAILABILITY>
1

> <JCHEM_DONOR_COUNT>
2

> <JCHEM_FORMAL_CHARGE>
0

> <JCHEM_GHOSE_FILTER>
1

> <JCHEM_IUPAC>
N4,N6-bis[(3-methylphenyl)methyl]pyrimidine-4,6-dicarboxamide

> <ALOGPS_LOGP>
1.97

> <JCHEM_LOGP>
3.445857840666667

> <ALOGPS_LOGS>
-4.70

> <JCHEM_MDDR_LIKE_RULE>
1

> <JCHEM_NUMBER_OF_RINGS>
3

> <JCHEM_PHYSIOLOGICAL_CHARGE>
0

> <JCHEM_PKA>
14.099404550734121

> <JCHEM_PKA_STRONGEST_ACIDIC>
13.338096407787141

> <JCHEM_PKA_STRONGEST_BASIC>
-2.7813047407411444

> <JCHEM_POLAR_SURFACE_AREA>
83.97999999999999

> <JCHEM_REFRACTIVITY>
109.2361

> <JCHEM_ROTATABLE_BOND_COUNT>
6

> <JCHEM_RULE_OF_FIVE>
1

> <ALOGPS_SOLUBILITY>
7.51e-03 g/l

> <JCHEM_TRADITIONAL_IUPAC>
N4,N6-bis[(3-methylphenyl)methyl]pyrimidine-4,6-dicarboxamide

> <JCHEM_VEBER_RULE>
0

> <DRUGBANK_ID>
DB04759

> <DRUG_GROUPS>
experimental

> <GENERIC_NAME>
PYRIMIDINE-4,6-DICARBOXYLIC ACID BIS-(3-METHYL-BENZYLAMIDE)

$$$$
