448819
  -OEChem-10051720273D

 22 22  0     1  0  0  0  0  0999 V2000
   -0.1521    1.2425   -0.5901 O   0  0  0  0  0  0  0  0  0  0  0  0
    2.1566   -1.3243    0.6628 O   0  0  0  0  0  0  0  0  0  0  0  0
   -1.6526   -1.1358   -1.3513 O   0  0  0  0  0  0  0  0  0  0  0  0
   -1.5090    1.2854    1.3528 O   0  0  0  0  0  0  0  0  0  0  0  0
    1.0244   -0.8150   -0.0315 C   0  0  1  0  0  0  0  0  0  0  0  0
   -0.2515   -1.3753    0.5966 C   0  0  0  0  0  0  0  0  0  0  0  0
    1.0223    0.7151    0.0326 C   0  0  1  0  0  0  0  0  0  0  0  0
   -1.4912   -0.7135    0.0015 C   0  0  1  0  0  0  0  0  0  0  0  0
   -1.3745    0.8115    0.0165 C   0  0  2  0  0  0  0  0  0  0  0  0
    2.2277    1.3093   -0.6900 C   0  0  0  0  0  0  0  0  0  0  0  0
    1.0935   -1.1445   -1.0751 H   0  0  0  0  0  0  0  0  0  0  0  0
   -0.2822   -2.4588    0.4258 H   0  0  0  0  0  0  0  0  0  0  0  0
   -0.2194   -1.2433    1.6848 H   0  0  0  0  0  0  0  0  0  0  0  0
    1.0664    1.0551    1.0753 H   0  0  0  0  0  0  0  0  0  0  0  0
   -2.3770   -1.0389    0.5575 H   0  0  0  0  0  0  0  0  0  0  0  0
   -2.1843    1.2554   -0.5715 H   0  0  0  0  0  0  0  0  0  0  0  0
    2.1886    2.4037   -0.6571 H   0  0  0  0  0  0  0  0  0  0  0  0
    3.1703    0.9834   -0.2406 H   0  0  0  0  0  0  0  0  0  0  0  0
    2.2269    1.0277   -1.7489 H   0  0  0  0  0  0  0  0  0  0  0  0
    2.1239   -2.2944    0.6054 H   0  0  0  0  0  0  0  0  0  0  0  0
   -0.9561   -0.7201   -1.8869 H   0  0  0  0  0  0  0  0  0  0  0  0
   -1.1228    0.6409    1.9665 H   0  0  0  0  0  0  0  0  0  0  0  0
  1  7  1  0  0  0  0
  1  9  1  0  0  0  0
  2  5  1  0  0  0  0
  2 20  1  0  0  0  0
  3  8  1  0  0  0  0
  3 21  1  0  0  0  0
  4  9  1  0  0  0  0
  4 22  1  0  0  0  0
  5  6  1  0  0  0  0
  5  7  1  0  0  0  0
  5 11  1  0  0  0  0
  6  8  1  0  0  0  0
  6 12  1  0  0  0  0
  6 13  1  0  0  0  0
  7 10  1  0  0  0  0
  7 14  1  0  0  0  0
  8  9  1  0  0  0  0
  8 15  1  0  0  0  0
  9 16  1  0  0  0  0
 10 17  1  0  0  0  0
 10 18  1  0  0  0  0
 10 19  1  0  0  0  0
M  END
> <DATABASE_ID>
DB04028

> <DATABASE_NAME>
drugbank

> <ORIGINAL_SOURCE>
PUBCHEM

> <ORIGINAL_SOURCE_URL>
https://pubchem.ncbi.nlm.nih.gov/rest/pug/compound/inchikey/KYPWIZMAJMNPMJ-VANKVMQKSA-N/SDF?record_type=3d

> <SMILES>
[H][C@]1(O)C[C@]([H])(O)[C@@]([H])(O)O[C@]1([H])C

> <INCHI_IDENTIFIER>
InChI=1S/C6H12O4/c1-3-4(7)2-5(8)6(9)10-3/h3-9H,2H2,1H3/t3-,4+,5+,6+/m1/s1

> <INCHI_KEY>
KYPWIZMAJMNPMJ-VANKVMQKSA-N

> <FORMULA>
C6H12O4

> <MOLECULAR_WEIGHT>
148.1571

> <EXACT_MASS>
148.073558872

> <JCHEM_ACCEPTOR_COUNT>
4

> <JCHEM_AVERAGE_POLARIZABILITY>
14.353028358634319

> <JCHEM_BIOAVAILABILITY>
1

> <JCHEM_DONOR_COUNT>
3

> <JCHEM_FORMAL_CHARGE>
0

> <JCHEM_GHOSE_FILTER>
0

> <JCHEM_IUPAC>
(2S,3S,5S,6R)-6-methyloxane-2,3,5-triol

> <ALOGPS_LOGP>
-1.73

> <JCHEM_LOGP>
-1.1953345703333336

> <ALOGPS_LOGS>
0.76

> <JCHEM_MDDR_LIKE_RULE>
0

> <JCHEM_NUMBER_OF_RINGS>
1

> <JCHEM_PHYSIOLOGICAL_CHARGE>
0

> <JCHEM_PKA>
13.86966577993596

> <JCHEM_PKA_STRONGEST_ACIDIC>
11.43374602682118

> <JCHEM_PKA_STRONGEST_BASIC>
-3.1878166539528996

> <JCHEM_POLAR_SURFACE_AREA>
69.92

> <JCHEM_REFRACTIVITY>
33.282599999999995

> <JCHEM_ROTATABLE_BOND_COUNT>
0

> <JCHEM_RULE_OF_FIVE>
1

> <ALOGPS_SOLUBILITY>
8.48e+02 g/l

> <JCHEM_TRADITIONAL_IUPAC>
α-tyv

> <JCHEM_VEBER_RULE>
0

> <DRUGBANK_ID>
DB04028

> <SECONDARY_ACCESSION_NUMBERS>
EXPT03143

> <DRUG_GROUPS>
experimental

> <GENERIC_NAME>
Tyvelose

> <SYNONYMS>
3,6-dideoxy-α-D-arabino-hexopyranose; α-Tyv; α-tyvelopyranose

$$$$
