168140
  -OEChem-10051720403D

 14 13  0     0  0  0  0  0  0999 V2000
    0.9473    2.1063   -0.4557 S   0  0  0  0  0  0  0  0  0  0  0  0
    0.0685    0.4480    0.0506 P   0  0  0  0  0  0  0  0  0  0  0  0
    0.7100   -0.9220   -0.5380 O   0  0  0  0  0  0  0  0  0  0  0  0
   -1.4910    0.3644   -0.3951 O   0  0  0  0  0  0  0  0  0  0  0  0
    0.0057    0.1648    1.6480 O   0  0  0  0  0  0  0  0  0  0  0  0
    1.9969   -1.3378   -0.1137 C   0  0  0  0  0  0  0  0  0  0  0  0
   -2.2373   -0.8236   -0.1961 C   0  0  0  0  0  0  0  0  0  0  0  0
    2.7519   -0.6186   -0.4401 H   0  0  0  0  0  0  0  0  0  0  0  0
    2.2155   -2.3090   -0.5648 H   0  0  0  0  0  0  0  0  0  0  0  0
    2.0232   -1.4395    0.9741 H   0  0  0  0  0  0  0  0  0  0  0  0
   -1.7670   -1.6609   -0.7173 H   0  0  0  0  0  0  0  0  0  0  0  0
   -3.2406   -0.6755   -0.6036 H   0  0  0  0  0  0  0  0  0  0  0  0
   -2.3211   -1.0442    0.8704 H   0  0  0  0  0  0  0  0  0  0  0  0
   -0.4195   -0.6562    1.9745 H   0  0  0  0  0  0  0  0  0  0  0  0
  1  2  2  0  0  0  0
  2  3  1  0  0  0  0
  2  4  1  0  0  0  0
  2  5  1  0  0  0  0
  3  6  1  0  0  0  0
  4  7  1  0  0  0  0
  5 14  1  0  0  0  0
  6  8  1  0  0  0  0
  6  9  1  0  0  0  0
  6 10  1  0  0  0  0
  7 11  1  0  0  0  0
  7 12  1  0  0  0  0
  7 13  1  0  0  0  0
M  END
> <DATABASE_ID>
DB04687

> <DATABASE_NAME>
drugbank

> <ORIGINAL_SOURCE>
PUBCHEM

> <ORIGINAL_SOURCE_URL>
https://pubchem.ncbi.nlm.nih.gov/rest/pug/compound/inchikey/WWJJVKAEQGGYHJ-UHFFFAOYSA-N/SDF?record_type=3d

> <SMILES>
COP(O)(=S)OC

> <INCHI_IDENTIFIER>
InChI=1S/C2H7O3PS/c1-4-6(3,7)5-2/h1-2H3,(H,3,7)

> <INCHI_KEY>
WWJJVKAEQGGYHJ-UHFFFAOYSA-N

> <FORMULA>
C2H7O3PS

> <MOLECULAR_WEIGHT>
142.114

> <EXACT_MASS>
141.985351292

> <JCHEM_ACCEPTOR_COUNT>
1

> <JCHEM_AVERAGE_POLARIZABILITY>
11.844783762502903

> <JCHEM_BIOAVAILABILITY>
1

> <JCHEM_DONOR_COUNT>
1

> <JCHEM_FORMAL_CHARGE>
0

> <JCHEM_GHOSE_FILTER>
0

> <JCHEM_IUPAC>
dimethoxy(sulfanylidene)phosphinous acid

> <ALOGPS_LOGP>
0.32

> <JCHEM_LOGP>
0.6256872069999999

> <ALOGPS_LOGS>
-1.16

> <JCHEM_MDDR_LIKE_RULE>
0

> <JCHEM_NUMBER_OF_RINGS>
0

> <JCHEM_PHYSIOLOGICAL_CHARGE>
-1

> <JCHEM_PKA_STRONGEST_ACIDIC>
2.8595944005744904

> <JCHEM_POLAR_SURFACE_AREA>
38.69

> <JCHEM_REFRACTIVITY>
31.607400000000002

> <JCHEM_ROTATABLE_BOND_COUNT>
2

> <JCHEM_RULE_OF_FIVE>
1

> <ALOGPS_SOLUBILITY>
9.93e+00 g/l

> <JCHEM_TRADITIONAL_IUPAC>
dimethyl thiophosphate

> <JCHEM_VEBER_RULE>
1

> <DRUGBANK_ID>
DB04687

> <DRUG_GROUPS>
experimental

> <GENERIC_NAME>
DIMETHYL THIOPHOSPHATE

$$$$
