439183
  -OEChem-10051720363D

 18 17  0     1  0  0  0  0  0999 V2000
   -2.1755   -0.1438    0.2187 P   0  0  0  0  0  0  0  0  0  0  0  0
   -0.5943    0.1773    0.3092 O   0  0  0  0  0  0  0  0  0  0  0  0
    1.6823    1.8632    0.2321 O   0  0  0  0  0  0  0  0  0  0  0  0
   -2.2628   -1.3519   -0.8527 O   0  0  0  0  0  0  0  0  0  0  0  0
   -2.7497    1.1247   -0.6034 O   0  0  0  0  0  0  0  0  0  0  0  0
    2.2445   -1.5571   -0.6738 O   0  0  0  0  0  0  0  0  0  0  0  0
   -2.8484   -0.4035    1.5348 O   0  0  0  0  0  0  0  0  0  0  0  0
    2.7503   -0.4100    1.2242 O   0  0  0  0  0  0  0  0  0  0  0  0
    0.1121    0.4341   -0.8996 C   0  0  0  0  0  0  0  0  0  0  0  0
    1.5778    0.7116   -0.5924 C   0  0  2  0  0  0  0  0  0  0  0  0
    2.2637   -0.4446    0.1030 C   0  0  0  0  0  0  0  0  0  0  0  0
   -0.3306    1.3126   -1.3801 H   0  0  0  0  0  0  0  0  0  0  0  0
    0.0128   -0.4260   -1.5688 H   0  0  0  0  0  0  0  0  0  0  0  0
    2.1285    0.9254   -1.5143 H   0  0  0  0  0  0  0  0  0  0  0  0
    1.1263    1.7188    1.0170 H   0  0  0  0  0  0  0  0  0  0  0  0
   -3.1339   -1.7661   -1.0309 H   0  0  0  0  0  0  0  0  0  0  0  0
   -3.7196    1.2173   -0.7165 H   0  0  0  0  0  0  0  0  0  0  0  0
    2.6726   -2.3204   -0.2307 H   0  0  0  0  0  0  0  0  0  0  0  0
  1  2  1  0  0  0  0
  1  4  1  0  0  0  0
  1  5  1  0  0  0  0
  1  7  2  0  0  0  0
  2  9  1  0  0  0  0
  3 10  1  0  0  0  0
  3 15  1  0  0  0  0
  4 16  1  0  0  0  0
  5 17  1  0  0  0  0
  6 11  1  0  0  0  0
  6 18  1  0  0  0  0
  8 11  2  0  0  0  0
  9 10  1  0  0  0  0
  9 12  1  0  0  0  0
  9 13  1  0  0  0  0
 10 11  1  0  0  0  0
 10 14  1  0  0  0  0
M  END
> <DATABASE_ID>
DB04510

> <DATABASE_NAME>
drugbank

> <ORIGINAL_SOURCE>
PUBCHEM

> <ORIGINAL_SOURCE_URL>
https://pubchem.ncbi.nlm.nih.gov/rest/pug/compound/inchikey/OSJPPGNTCRNQQC-UWTATZPHSA-N/SDF?record_type=3d

> <SMILES>
O[C@H](COP(O)(O)=O)C(O)=O

> <INCHI_IDENTIFIER>
InChI=1S/C3H7O7P/c4-2(3(5)6)1-10-11(7,8)9/h2,4H,1H2,(H,5,6)(H2,7,8,9)/t2-/m1/s1

> <INCHI_KEY>
OSJPPGNTCRNQQC-UWTATZPHSA-N

> <FORMULA>
C3H7O7P

> <MOLECULAR_WEIGHT>
186.0572

> <EXACT_MASS>
185.99293909

> <JCHEM_ACCEPTOR_COUNT>
6

> <JCHEM_AVERAGE_POLARIZABILITY>
13.54084019277687

> <JCHEM_BIOAVAILABILITY>
1

> <JCHEM_DONOR_COUNT>
4

> <JCHEM_FORMAL_CHARGE>
0

> <JCHEM_GHOSE_FILTER>
0

> <JCHEM_IUPAC>
(2R)-2-hydroxy-3-(phosphonooxy)propanoic acid

> <ALOGPS_LOGP>
-2.26

> <JCHEM_LOGP>
-1.642305516

> <ALOGPS_LOGS>
-0.95

> <JCHEM_MDDR_LIKE_RULE>
0

> <JCHEM_NUMBER_OF_RINGS>
0

> <JCHEM_PHYSIOLOGICAL_CHARGE>
-3

> <JCHEM_PKA>
3.4930984077105847

> <JCHEM_PKA_STRONGEST_ACIDIC>
1.3022122249394052

> <JCHEM_PKA_STRONGEST_BASIC>
-4.151933713507117

> <JCHEM_POLAR_SURFACE_AREA>
124.29

> <JCHEM_REFRACTIVITY>
31.256400000000003

> <JCHEM_ROTATABLE_BOND_COUNT>
4

> <JCHEM_RULE_OF_FIVE>
1

> <ALOGPS_SOLUBILITY>
2.10e+01 g/l

> <JCHEM_TRADITIONAL_IUPAC>
D-glycerate 3-phosphate

> <JCHEM_VEBER_RULE>
0

> <DRUGBANK_ID>
DB04510

> <SECONDARY_ACCESSION_NUMBERS>
EXPT00187

> <DRUG_GROUPS>
experimental

> <GENERIC_NAME>
3-phospho-D-glyceric acid

> <SYNONYMS>
3-Phospho-(R)-glycerate; 3-phospho-D-glycerate; 3-Phosphoglycerate; D-glycerate 3-phosphate

$$$$
