64972
  -OEChem-10051720443D

 53 56  0     1  0  0  0  0  0999 V2000
   -2.4501   -1.9006    0.1847 O   0  0  0  0  0  0  0  0  0  0  0  0
    2.2721   -1.1442   -0.0897 O   0  0  0  0  0  0  0  0  0  0  0  0
   -3.2349    1.8700   -1.0595 O   0  0  0  0  0  0  0  0  0  0  0  0
   -0.7692    2.6095   -0.0603 O   0  0  0  0  0  0  0  0  0  0  0  0
   -0.0168    4.7662   -0.1070 O   0  0  0  0  0  0  0  0  0  0  0  0
   -4.1081   -0.1569   -0.1238 C   0  0  1  0  0  0  0  0  0  0  0  0
   -3.0356    0.9399    0.0068 C   0  0  1  0  0  0  0  0  0  0  0  0
   -3.6713   -1.3631    0.7159 C   0  0  1  0  0  0  0  0  0  0  0  0
   -1.6315    0.3751   -0.0053 C   0  0  0  0  0  0  0  0  0  0  0  0
   -1.4163   -1.0033    0.0765 C   0  0  0  0  0  0  0  0  0  0  0  0
   -0.1127   -1.5281    0.0194 C   0  0  0  0  0  0  0  0  0  0  0  0
   -0.5034    1.2171   -0.0603 C   0  0  0  0  0  0  0  0  0  0  0  0
    0.8173    0.7439   -0.0988 C   0  0  0  0  0  0  0  0  0  0  0  0
    0.9914   -0.6565   -0.0750 C   0  0  0  0  0  0  0  0  0  0  0  0
   -5.4820    0.3921    0.2697 C   0  0  0  0  0  0  0  0  0  0  0  0
    2.5112   -2.5266   -0.4114 C   0  0  0  0  0  0  0  0  0  0  0  0
   -4.6799   -2.5084    0.6995 C   0  0  0  0  0  0  0  0  0  0  0  0
    1.9044    1.7512   -0.1684 C   0  0  0  0  0  0  0  0  0  0  0  0
    0.1198   -2.9706    0.0879 C   0  0  0  0  0  0  0  0  0  0  0  0
    1.3504   -3.4375   -0.1274 C   0  0  0  0  0  0  0  0  0  0  0  0
    3.3516    1.3518   -0.2405 C   0  0  0  0  0  0  0  0  0  0  0  0
    3.7082   -2.9490    0.4494 C   0  0  0  0  0  0  0  0  0  0  0  0
    2.8930   -2.6026   -1.8941 C   0  0  0  0  0  0  0  0  0  0  0  0
    1.5992    3.0575   -0.1719 C   0  0  0  0  0  0  0  0  0  0  0  0
    0.2254    3.5651   -0.1105 C   0  0  0  0  0  0  0  0  0  0  0  0
    3.9426    1.2263    1.1551 C   0  0  0  0  0  0  0  0  0  0  0  0
    5.4252    0.8816    1.1392 C   0  0  0  0  0  0  0  0  0  0  0  0
   -4.1623   -0.4602   -1.1798 H   0  0  0  0  0  0  0  0  0  0  0  0
   -3.1605    1.4775    0.9563 H   0  0  0  0  0  0  0  0  0  0  0  0
   -3.5008   -1.0743    1.7623 H   0  0  0  0  0  0  0  0  0  0  0  0
   -5.5089    0.6668    1.3296 H   0  0  0  0  0  0  0  0  0  0  0  0
   -5.7447    1.2779   -0.3167 H   0  0  0  0  0  0  0  0  0  0  0  0
   -6.2695   -0.3464    0.0902 H   0  0  0  0  0  0  0  0  0  0  0  0
   -4.9113   -2.8118   -0.3274 H   0  0  0  0  0  0  0  0  0  0  0  0
   -4.2630   -3.3896    1.2002 H   0  0  0  0  0  0  0  0  0  0  0  0
   -5.6104   -2.2404    1.2075 H   0  0  0  0  0  0  0  0  0  0  0  0
   -0.7001   -3.6518    0.2812 H   0  0  0  0  0  0  0  0  0  0  0  0
    1.5181   -4.5113   -0.1179 H   0  0  0  0  0  0  0  0  0  0  0  0
   -4.0039    2.4200   -0.8355 H   0  0  0  0  0  0  0  0  0  0  0  0
    3.9084    2.1460   -0.7611 H   0  0  0  0  0  0  0  0  0  0  0  0
    3.5387    0.4811   -0.8722 H   0  0  0  0  0  0  0  0  0  0  0  0
    4.0062   -3.9859    0.2586 H   0  0  0  0  0  0  0  0  0  0  0  0
    4.5734   -2.3043    0.2579 H   0  0  0  0  0  0  0  0  0  0  0  0
    3.4780   -2.8468    1.5168 H   0  0  0  0  0  0  0  0  0  0  0  0
    2.0685   -2.2612   -2.5315 H   0  0  0  0  0  0  0  0  0  0  0  0
    3.7422   -1.9444   -2.1122 H   0  0  0  0  0  0  0  0  0  0  0  0
    3.1596   -3.6215   -2.1957 H   0  0  0  0  0  0  0  0  0  0  0  0
    2.3783    3.8129   -0.2192 H   0  0  0  0  0  0  0  0  0  0  0  0
    3.4139    0.4550    1.7278 H   0  0  0  0  0  0  0  0  0  0  0  0
    3.8144    2.1662    1.7069 H   0  0  0  0  0  0  0  0  0  0  0  0
    6.0017    1.6613    0.6313 H   0  0  0  0  0  0  0  0  0  0  0  0
    5.6016   -0.0666    0.6226 H   0  0  0  0  0  0  0  0  0  0  0  0
    5.8048    0.7890    2.1615 H   0  0  0  0  0  0  0  0  0  0  0  0
  1  8  1  0  0  0  0
  1 10  1  0  0  0  0
  2 14  1  0  0  0  0
  2 16  1  0  0  0  0
  3  7  1  0  0  0  0
  3 39  1  0  0  0  0
  4 12  1  0  0  0  0
  4 25  1  0  0  0  0
  5 25  2  0  0  0  0
  6  7  1  0  0  0  0
  6  8  1  0  0  0  0
  6 15  1  0  0  0  0
  6 28  1  0  0  0  0
  7  9  1  0  0  0  0
  7 29  1  0  0  0  0
  8 17  1  0  0  0  0
  8 30  1  0  0  0  0
  9 10  2  0  0  0  0
  9 12  1  0  0  0  0
 10 11  1  0  0  0  0
 11 14  2  0  0  0  0
 11 19  1  0  0  0  0
 12 13  2  0  0  0  0
 13 14  1  0  0  0  0
 13 18  1  0  0  0  0
 15 31  1  0  0  0  0
 15 32  1  0  0  0  0
 15 33  1  0  0  0  0
 16 20  1  0  0  0  0
 16 22  1  0  0  0  0
 16 23  1  0  0  0  0
 17 34  1  0  0  0  0
 17 35  1  0  0  0  0
 17 36  1  0  0  0  0
 18 21  1  0  0  0  0
 18 24  2  0  0  0  0
 19 20  2  0  0  0  0
 19 37  1  0  0  0  0
 20 38  1  0  0  0  0
 21 26  1  0  0  0  0
 21 40  1  0  0  0  0
 21 41  1  0  0  0  0
 22 42  1  0  0  0  0
 22 43  1  0  0  0  0
 22 44  1  0  0  0  0
 23 45  1  0  0  0  0
 23 46  1  0  0  0  0
 23 47  1  0  0  0  0
 24 25  1  0  0  0  0
 24 48  1  0  0  0  0
 26 27  1  0  0  0  0
 26 49  1  0  0  0  0
 26 50  1  0  0  0  0
 27 51  1  0  0  0  0
 27 52  1  0  0  0  0
 27 53  1  0  0  0  0
M  END
> <DATABASE_ID>
DB04886

> <DATABASE_NAME>
drugbank

> <ORIGINAL_SOURCE>
PUBCHEM

> <ORIGINAL_SOURCE_URL>
https://pubchem.ncbi.nlm.nih.gov/rest/pug/compound/inchikey/NIDRYBLTWYFCFV-FMTVUPSXSA-N/SDF?record_type=3d

> <SMILES>
CCCC1=CC(=O)OC2=C1C1=C(C=CC(C)(C)O1)C1=C2[C@@H](O)[C@H](C)[C@@H](C)O1

> <INCHI_IDENTIFIER>
InChI=1S/C22H26O5/c1-6-7-13-10-15(23)26-21-16(13)20-14(8-9-22(4,5)27-20)19-17(21)18(24)11(2)12(3)25-19/h8-12,18,24H,6-7H2,1-5H3/t11-,12-,18+/m1/s1

> <INCHI_KEY>
NIDRYBLTWYFCFV-FMTVUPSXSA-N

> <FORMULA>
C22H26O5

> <MOLECULAR_WEIGHT>
370.4388

> <EXACT_MASS>
370.178023942

> <JCHEM_ACCEPTOR_COUNT>
4

> <JCHEM_AVERAGE_POLARIZABILITY>
40.99482070187777

> <JCHEM_BIOAVAILABILITY>
1

> <JCHEM_DONOR_COUNT>
1

> <JCHEM_FORMAL_CHARGE>
0

> <JCHEM_GHOSE_FILTER>
1

> <JCHEM_IUPAC>
(10R,11S,12S)-12-hydroxy-6,6,10,11-tetramethyl-4-propyl-6,10,11,12-tetrahydro-2H-1,5,9-trioxatriphenylen-2-one

> <ALOGPS_LOGP>
4.18

> <JCHEM_LOGP>
3.7915943689999994

> <ALOGPS_LOGS>
-4.32

> <JCHEM_MDDR_LIKE_RULE>
0

> <JCHEM_NUMBER_OF_RINGS>
4

> <JCHEM_PHYSIOLOGICAL_CHARGE>
0

> <JCHEM_PKA_STRONGEST_ACIDIC>
13.625542014318452

> <JCHEM_PKA_STRONGEST_BASIC>
-3.3999879229371084

> <JCHEM_POLAR_SURFACE_AREA>
64.99000000000001

> <JCHEM_REFRACTIVITY>
104.10690000000001

> <JCHEM_ROTATABLE_BOND_COUNT>
2

> <JCHEM_RULE_OF_FIVE>
1

> <ALOGPS_SOLUBILITY>
1.78e-02 g/l

> <JCHEM_TRADITIONAL_IUPAC>
calanolide A

> <JCHEM_VEBER_RULE>
0

> <DRUGBANK_ID>
DB04886

> <DRUG_GROUPS>
investigational

> <GENERIC_NAME>
Calanolide A

> <SYNONYMS>
(+)-calanolide A

$$$$
