449146
  -OEChem-10051720363D

 18 18  0     0  0  0  0  0  0999 V2000
    0.0244   -2.0231    0.0161 O   0  0  0  0  0  0  0  0  0  0  0  0
   -2.6661   -1.3877   -0.0219 O   0  0  0  0  0  0  0  0  0  0  0  0
    2.6388   -0.1621    1.0999 O   0  0  0  0  0  0  0  0  0  0  0  0
    2.6397   -0.1322   -1.1793 N   0  0  0  0  0  0  0  0  0  0  0  0
    0.5846    0.3036    0.0259 C   0  0  0  0  0  0  0  0  0  0  0  0
   -0.3670   -0.7163    0.0118 C   0  0  0  0  0  0  0  0  0  0  0  0
   -1.7259   -0.4020   -0.0079 C   0  0  0  0  0  0  0  0  0  0  0  0
    0.1774    1.6377    0.0204 C   0  0  0  0  0  0  0  0  0  0  0  0
   -2.1331    0.9321   -0.0135 C   0  0  0  0  0  0  0  0  0  0  0  0
   -1.1814    1.9519    0.0007 C   0  0  0  0  0  0  0  0  0  0  0  0
    2.0087   -0.0018    0.0478 C   0  0  0  0  0  0  0  0  0  0  0  0
    0.9093    2.4413    0.0318 H   0  0  0  0  0  0  0  0  0  0  0  0
   -3.1901    1.1838   -0.0288 H   0  0  0  0  0  0  0  0  0  0  0  0
   -1.4986    2.9906   -0.0036 H   0  0  0  0  0  0  0  0  0  0  0  0
    0.9928   -2.0898    0.0264 H   0  0  0  0  0  0  0  0  0  0  0  0
    2.1439   -0.0155   -2.0574 H   0  0  0  0  0  0  0  0  0  0  0  0
    3.6284   -0.3523   -1.2368 H   0  0  0  0  0  0  0  0  0  0  0  0
   -2.2088   -2.2465   -0.0155 H   0  0  0  0  0  0  0  0  0  0  0  0
  1  6  1  0  0  0  0
  1 15  1  0  0  0  0
  2  7  1  0  0  0  0
  2 18  1  0  0  0  0
  3 11  2  0  0  0  0
  4 11  1  0  0  0  0
  4 16  1  0  0  0  0
  4 17  1  0  0  0  0
  5  6  2  0  0  0  0
  5  8  1  0  0  0  0
  5 11  1  0  0  0  0
  6  7  1  0  0  0  0
  7  9  2  0  0  0  0
  8 10  2  0  0  0  0
  8 12  1  0  0  0  0
  9 10  1  0  0  0  0
  9 13  1  0  0  0  0
 10 14  1  0  0  0  0
M  END
> <DATABASE_ID>
DB04476

> <DATABASE_NAME>
drugbank

> <ORIGINAL_SOURCE>
PUBCHEM

> <ORIGINAL_SOURCE_URL>
https://pubchem.ncbi.nlm.nih.gov/rest/pug/compound/inchikey/QCIDBNKTKNBPKM-UHFFFAOYSA-N/SDF?record_type=3d

> <SMILES>
NC(=O)C1=CC=CC(O)=C1O

> <INCHI_IDENTIFIER>
InChI=1S/C7H7NO3/c8-7(11)4-2-1-3-5(9)6(4)10/h1-3,9-10H,(H2,8,11)

> <INCHI_KEY>
QCIDBNKTKNBPKM-UHFFFAOYSA-N

> <FORMULA>
C7H7NO3

> <MOLECULAR_WEIGHT>
153.1354

> <EXACT_MASS>
153.042593095

> <JCHEM_ACCEPTOR_COUNT>
3

> <JCHEM_AVERAGE_POLARIZABILITY>
14.135277634098443

> <JCHEM_BIOAVAILABILITY>
1

> <JCHEM_DONOR_COUNT>
3

> <JCHEM_FORMAL_CHARGE>
0

> <JCHEM_GHOSE_FILTER>
0

> <JCHEM_IUPAC>
2,3-dihydroxybenzamide

> <ALOGPS_LOGP>
0.42

> <JCHEM_LOGP>
0.8667554669999998

> <ALOGPS_LOGS>
-1.36

> <JCHEM_MDDR_LIKE_RULE>
0

> <JCHEM_NUMBER_OF_RINGS>
1

> <JCHEM_PHYSIOLOGICAL_CHARGE>
0

> <JCHEM_PKA>
11.927945844024205

> <JCHEM_PKA_STRONGEST_ACIDIC>
8.32455798536269

> <JCHEM_PKA_STRONGEST_BASIC>
-1.8588129294971703

> <JCHEM_POLAR_SURFACE_AREA>
83.55000000000001

> <JCHEM_REFRACTIVITY>
39.0982

> <JCHEM_ROTATABLE_BOND_COUNT>
1

> <JCHEM_RULE_OF_FIVE>
1

> <ALOGPS_SOLUBILITY>
6.71e+00 g/l

> <JCHEM_TRADITIONAL_IUPAC>
trencam-3,2-hopo

> <JCHEM_VEBER_RULE>
0

> <DRUGBANK_ID>
DB04476

> <SECONDARY_ACCESSION_NUMBERS>
EXPT01118

> <DRUG_GROUPS>
experimental

> <GENERIC_NAME>
Trencam-3,2-Hopo

$$$$
