11483754
  -OEChem-10061700043D

 48 51  0     1  0  0  0  0  0999 V2000
    3.7044   -1.8917   -0.4988 O   0  0  0  0  0  0  0  0  0  0  0  0
    5.2420    0.5582    1.3619 O   0  0  0  0  0  0  0  0  0  0  0  0
    5.4406    1.0681   -0.8406 N   0  0  0  0  0  0  0  0  0  0  0  0
   -3.2973    0.5087   -0.2810 C   0  0  1  0  0  0  0  0  0  0  0  0
   -1.8402    0.7710    0.0872 C   0  0  1  0  0  0  0  0  0  0  0  0
   -3.7740   -0.8692    0.2308 C   0  0  2  0  0  0  0  0  0  0  0  0
   -0.9615   -0.2970   -0.6375 C   0  0  2  0  0  0  0  0  0  0  0  0
   -2.9881   -1.9286   -0.5466 C   0  0  0  0  0  0  0  0  0  0  0  0
   -1.4654   -1.7433   -0.3650 C   0  0  0  0  0  0  0  0  0  0  0  0
   -4.4042    1.4754    0.1307 C   0  0  0  0  0  0  0  0  0  0  0  0
   -1.3640    2.1646   -0.3231 C   0  0  0  0  0  0  0  0  0  0  0  0
   -5.2454   -0.7205   -0.0615 C   0  0  0  0  0  0  0  0  0  0  0  0
    0.5213   -0.0606   -0.3664 C   0  0  0  0  0  0  0  0  0  0  0  0
   -3.6329   -1.1024    1.7517 C   0  0  0  0  0  0  0  0  0  0  0  0
    0.0560    2.3969    0.1864 C   0  0  0  0  0  0  0  0  0  0  0  0
   -5.5966    0.5764   -0.0647 C   0  0  0  0  0  0  0  0  0  0  0  0
    0.9882    1.2275   -0.0231 C   0  0  0  0  0  0  0  0  0  0  0  0
    1.4660   -1.0882   -0.5354 C   0  0  0  0  0  0  0  0  0  0  0  0
    2.3620    1.4406    0.1874 C   0  0  0  0  0  0  0  0  0  0  0  0
    2.8285   -0.8606   -0.3305 C   0  0  0  0  0  0  0  0  0  0  0  0
    3.2766    0.4025    0.0346 C   0  0  0  0  0  0  0  0  0  0  0  0
    4.6921    0.6621    0.2564 C   0  0  0  0  0  0  0  0  0  0  0  0
    3.9921   -2.6899    0.6470 C   0  0  0  0  0  0  0  0  0  0  0  0
   -3.3285    0.4989   -1.3870 H   0  0  0  0  0  0  0  0  0  0  0  0
   -1.7119    0.6841    1.1737 H   0  0  0  0  0  0  0  0  0  0  0  0
   -1.0768   -0.1382   -1.7213 H   0  0  0  0  0  0  0  0  0  0  0  0
   -3.2268   -1.8700   -1.6168 H   0  0  0  0  0  0  0  0  0  0  0  0
   -3.2743   -2.9375   -0.2248 H   0  0  0  0  0  0  0  0  0  0  0  0
   -1.1738   -2.0502    0.6466 H   0  0  0  0  0  0  0  0  0  0  0  0
   -0.9728   -2.4459   -1.0477 H   0  0  0  0  0  0  0  0  0  0  0  0
   -4.4454    2.3424   -0.5350 H   0  0  0  0  0  0  0  0  0  0  0  0
   -4.3251    1.8136    1.1681 H   0  0  0  0  0  0  0  0  0  0  0  0
   -2.0190    2.9432    0.0835 H   0  0  0  0  0  0  0  0  0  0  0  0
   -1.3892    2.2650   -1.4159 H   0  0  0  0  0  0  0  0  0  0  0  0
   -5.9382   -1.5437   -0.1586 H   0  0  0  0  0  0  0  0  0  0  0  0
   -4.1316   -0.3238    2.3404 H   0  0  0  0  0  0  0  0  0  0  0  0
   -4.0849   -2.0608    2.0355 H   0  0  0  0  0  0  0  0  0  0  0  0
   -2.5918   -1.1299    2.0842 H   0  0  0  0  0  0  0  0  0  0  0  0
    0.0172    2.6049    1.2634 H   0  0  0  0  0  0  0  0  0  0  0  0
    0.4629    3.2886   -0.3056 H   0  0  0  0  0  0  0  0  0  0  0  0
   -6.6081    0.9357   -0.1841 H   0  0  0  0  0  0  0  0  0  0  0  0
    1.1548   -2.0841   -0.8380 H   0  0  0  0  0  0  0  0  0  0  0  0
    2.7124    2.4309    0.4730 H   0  0  0  0  0  0  0  0  0  0  0  0
    4.3783   -2.0786    1.4679 H   0  0  0  0  0  0  0  0  0  0  0  0
    4.7541   -3.4236    0.3702 H   0  0  0  0  0  0  0  0  0  0  0  0
    3.0940   -3.2253    0.9712 H   0  0  0  0  0  0  0  0  0  0  0  0
    5.0317    1.1758   -1.7634 H   0  0  0  0  0  0  0  0  0  0  0  0
    6.4304    1.2718   -0.7503 H   0  0  0  0  0  0  0  0  0  0  0  0
  1 20  1  0  0  0  0
  1 23  1  0  0  0  0
  2 22  2  0  0  0  0
  3 22  1  0  0  0  0
  3 47  1  0  0  0  0
  3 48  1  0  0  0  0
  4  5  1  0  0  0  0
  4  6  1  0  0  0  0
  4 10  1  0  0  0  0
  4 24  1  0  0  0  0
  5  7  1  0  0  0  0
  5 11  1  0  0  0  0
  5 25  1  0  0  0  0
  6  8  1  0  0  0  0
  6 12  1  0  0  0  0
  6 14  1  0  0  0  0
  7  9  1  0  0  0  0
  7 13  1  0  0  0  0
  7 26  1  0  0  0  0
  8  9  1  0  0  0  0
  8 27  1  0  0  0  0
  8 28  1  0  0  0  0
  9 29  1  0  0  0  0
  9 30  1  0  0  0  0
 10 16  1  0  0  0  0
 10 31  1  0  0  0  0
 10 32  1  0  0  0  0
 11 15  1  0  0  0  0
 11 33  1  0  0  0  0
 11 34  1  0  0  0  0
 12 16  2  0  0  0  0
 12 35  1  0  0  0  0
 13 17  1  0  0  0  0
 13 18  2  0  0  0  0
 14 36  1  0  0  0  0
 14 37  1  0  0  0  0
 14 38  1  0  0  0  0
 15 17  1  0  0  0  0
 15 39  1  0  0  0  0
 15 40  1  0  0  0  0
 16 41  1  0  0  0  0
 17 19  2  0  0  0  0
 18 20  1  0  0  0  0
 18 42  1  0  0  0  0
 19 21  1  0  0  0  0
 19 43  1  0  0  0  0
 20 21  2  0  0  0  0
 21 22  1  0  0  0  0
 23 44  1  0  0  0  0
 23 45  1  0  0  0  0
 23 46  1  0  0  0  0
M  END
> <DATABASE_ID>
DB05959

> <DATABASE_NAME>
drugbank

> <ORIGINAL_SOURCE>
PUBCHEM

> <ORIGINAL_SOURCE_URL>
https://pubchem.ncbi.nlm.nih.gov/rest/pug/compound/inchikey/YQJWOUQGXATDAE-ACNBBOPNSA-N/SDF?record_type=3d

> <SMILES>
COC1=C(C=C2CC[C@H]3[C@@H]4CC=C[C@@]4(C)CC[C@@H]3C2=C1)C(N)=O

> <INCHI_IDENTIFIER>
InChI=1S/C20H25NO2/c1-20-8-3-4-17(20)14-6-5-12-10-16(19(21)22)18(23-2)11-15(12)13(14)7-9-20/h3,8,10-11,13-14,17H,4-7,9H2,1-2H3,(H2,21,22)/t13-,14+,17-,20-/m0/s1

> <INCHI_KEY>
YQJWOUQGXATDAE-ACNBBOPNSA-N

> <FORMULA>
C20H25NO2

> <MOLECULAR_WEIGHT>
311.425

> <EXACT_MASS>
311.188529049

> <JCHEM_ACCEPTOR_COUNT>
2

> <JCHEM_ATOM_COUNT>
48

> <JCHEM_AVERAGE_POLARIZABILITY>
36.230955672397165

> <JCHEM_BIOAVAILABILITY>
1

> <JCHEM_DONOR_COUNT>
1

> <JCHEM_FORMAL_CHARGE>
0

> <JCHEM_GHOSE_FILTER>
1

> <JCHEM_IUPAC>
(1S,10S,11S,15R)-4-methoxy-15-methyltetracyclo[8.7.0.0^{2,7}.0^{11,15}]heptadeca-2,4,6,13-tetraene-5-carboxamide

> <ALOGPS_LOGP>
4.12

> <JCHEM_LOGP>
3.6109250890000006

> <ALOGPS_LOGS>
-6.17

> <JCHEM_MDDR_LIKE_RULE>
0

> <JCHEM_NUMBER_OF_RINGS>
4

> <JCHEM_PHYSIOLOGICAL_CHARGE>
0

> <JCHEM_PKA_STRONGEST_ACIDIC>
13.8940954271789

> <JCHEM_PKA_STRONGEST_BASIC>
-0.7962831977468973

> <JCHEM_POLAR_SURFACE_AREA>
52.32000000000001

> <JCHEM_REFRACTIVITY>
93.06649999999999

> <JCHEM_ROTATABLE_BOND_COUNT>
2

> <JCHEM_RULE_OF_FIVE>
1

> <ALOGPS_SOLUBILITY>
2.10e-04 g/l

> <JCHEM_TRADITIONAL_IUPAC>
(1S,10S,11S,15R)-4-methoxy-15-methyltetracyclo[8.7.0.0^{2,7}.0^{11,15}]heptadeca-2,4,6,13-tetraene-5-carboxamide

> <JCHEM_VEBER_RULE>
0

> <DRUGBANK_ID>
DB05959

> <DRUG_GROUPS>
investigational

> <GENERIC_NAME>
ENMD-1198

$$$$
