774
  -OEChem-10051720473D

 17 17  0     0  0  0  0  0  0999 V2000
   -1.1204    1.1144   -0.0890 N   0  0  0  0  0  0  0  0  0  0  0  0
    3.5306   -0.0416   -0.1154 N   0  0  0  0  0  0  0  0  0  0  0  0
   -2.2425   -0.8021   -0.0893 N   0  0  0  0  0  0  0  0  0  0  0  0
    1.2012    0.4470    0.5175 C   0  0  0  0  0  0  0  0  0  0  0  0
   -0.2479    0.1410    0.2335 C   0  0  0  0  0  0  0  0  0  0  0  0
    2.1319   -0.3296   -0.4145 C   0  0  0  0  0  0  0  0  0  0  0  0
   -0.9277   -1.0254    0.2345 C   0  0  0  0  0  0  0  0  0  0  0  0
   -2.3252    0.4962   -0.2774 C   0  0  0  0  0  0  0  0  0  0  0  0
    1.3834    1.5246    0.4147 H   0  0  0  0  0  0  0  0  0  0  0  0
    1.4098    0.1864    1.5631 H   0  0  0  0  0  0  0  0  0  0  0  0
    1.9291   -0.0699   -1.4598 H   0  0  0  0  0  0  0  0  0  0  0  0
    1.9687   -1.4087   -0.3163 H   0  0  0  0  0  0  0  0  0  0  0  0
   -0.9352    2.1052   -0.1776 H   0  0  0  0  0  0  0  0  0  0  0  0
   -0.5656   -2.0205    0.4474 H   0  0  0  0  0  0  0  0  0  0  0  0
   -3.2160    1.0450   -0.5485 H   0  0  0  0  0  0  0  0  0  0  0  0
    3.7265   -0.2756    0.8573 H   0  0  0  0  0  0  0  0  0  0  0  0
    3.6981    0.9604   -0.2001 H   0  0  0  0  0  0  0  0  0  0  0  0
  1  5  1  0  0  0  0
  1  8  1  0  0  0  0
  1 13  1  0  0  0  0
  2  6  1  0  0  0  0
  2 16  1  0  0  0  0
  2 17  1  0  0  0  0
  3  7  1  0  0  0  0
  3  8  2  0  0  0  0
  4  5  1  0  0  0  0
  4  6  1  0  0  0  0
  4  9  1  0  0  0  0
  4 10  1  0  0  0  0
  5  7  2  0  0  0  0
  6 11  1  0  0  0  0
  6 12  1  0  0  0  0
  7 14  1  0  0  0  0
  8 15  1  0  0  0  0
M  END
> <DATABASE_ID>
DB05381

> <DATABASE_NAME>
drugbank

> <ORIGINAL_SOURCE>
PUBCHEM

> <ORIGINAL_SOURCE_URL>
https://pubchem.ncbi.nlm.nih.gov/rest/pug/compound/inchikey/NTYJJOPFIAHURM-UHFFFAOYSA-N/SDF?record_type=3d

> <SMILES>
NCCC1=CNC=N1

> <INCHI_IDENTIFIER>
InChI=1S/C5H9N3/c6-2-1-5-3-7-4-8-5/h3-4H,1-2,6H2,(H,7,8)

> <INCHI_KEY>
NTYJJOPFIAHURM-UHFFFAOYSA-N

> <FORMULA>
C5H9N3

> <MOLECULAR_WEIGHT>
111.1451

> <EXACT_MASS>
111.079647303

> <JCHEM_ACCEPTOR_COUNT>
2

> <JCHEM_AVERAGE_POLARIZABILITY>
12.084101987650204

> <JCHEM_BIOAVAILABILITY>
1

> <JCHEM_DONOR_COUNT>
2

> <JCHEM_FORMAL_CHARGE>
0

> <JCHEM_GHOSE_FILTER>
0

> <JCHEM_IUPAC>
2-(1H-imidazol-4-yl)ethan-1-amine

> <ALOGPS_LOGP>
-0.69

> <JCHEM_LOGP>
-0.7009711443333334

> <ALOGPS_LOGS>
0.18

> <JCHEM_MDDR_LIKE_RULE>
0

> <JCHEM_NUMBER_OF_RINGS>
1

> <JCHEM_PHYSIOLOGICAL_CHARGE>
1

> <JCHEM_PKA_STRONGEST_ACIDIC>
14.456615295256658

> <JCHEM_PKA_STRONGEST_BASIC>
9.576453109401491

> <JCHEM_POLAR_SURFACE_AREA>
54.7

> <JCHEM_REFRACTIVITY>
31.663399999999996

> <JCHEM_ROTATABLE_BOND_COUNT>
2

> <JCHEM_RULE_OF_FIVE>
1

> <ALOGPS_SOLUBILITY>
1.69e+02 g/l

> <JCHEM_TRADITIONAL_IUPAC>
histamine

> <JCHEM_VEBER_RULE>
0

> <DRUGBANK_ID>
DB05381

> <SECONDARY_ACCESSION_NUMBERS>
APRD01015; DB05891; DB11320; DB00667

> <DRUG_GROUPS>
approved; investigational

> <GENERIC_NAME>
Histamine

> <SYNONYMS>
1H-Imidazole-4-ethanamine; 2-(4-imidazolyl)ethylamine; 4-imidazoleethylamine; 5-imidazoleethylamine; beta-aminoethylglyoxaline; beta-aminoethylimidazole

> <PRODUCTS>
Abee Med; ActivOn Ultra Strength Arthritis; Alo Therapeutic Massage; Alo Therapeutic Massage Pain Relieving; Arthritis Relief; Arthrocare Lotion; Australian Dream Back Pain; Australian Dream Carpal Tunnel Pain; Australian Dream Hand and Wrist Pain; Australian Dream Pain Relieving Arthritis; Bakers Best Arthritis Pain Relief; Bakers Best Arthritis Pain Relief with Hemp Seed; CVS Arthritis Pain Relief; Camphomex; Ceplene; Dr. Freds MIRACLE RUB; Glucosamine Cream EXTRA STRENGTH; Histamine DHCl 0.10 Percent; Histamine DHCl 0.10 Percent and Menthol 2 Percent; Histamine Phosphate Injection USP Liq Sc; Histamine Phosphate Injection USP, 1mg/ml; Histamine Positive Skin Test Control; Histatrol; MINTED LEAF Odorless Histamine DHCl Pain Relief and Hemp Extract; MUSCLESHOK Back Pain; MUSCLESHOK Sport; Mancore Muscle Mend Roll-ON Pain Reliever; Midalgan; Minted Leaf Odorless Pain Relief; Pain Relieving Arthritis; PainMD Max; Ponos Natural Pain Relief; Positive Skin Test Control - Histamine; Positive Skin Test Control-histamine; Raging Kakapo Pain Relieve; Rematex; Royal Labs Hemp Recover; Simanix; TerraFreeze Pain Relief

> <SALTS>
Histamine dihydrochloride; Histamine phosphate

$$$$
