9842252
  -OEChem-10051720483D

 42 45  0     0  0  0  0  0  0999 V2000
   -3.7926   -1.9928    0.5826 O   0  0  0  0  0  0  0  0  0  0  0  0
   -1.3460   -0.3811    0.1340 N   0  0  0  0  0  0  0  0  0  0  0  0
    1.2991    3.7850    0.7445 N   0  0  0  0  0  0  0  0  0  0  0  0
   -1.2429    1.4724   -1.0649 N   0  0  0  0  0  0  0  0  0  0  0  0
   -4.9949   -0.5156   -0.6514 N   0  0  0  0  0  0  0  0  0  0  0  0
    0.9480    0.8539    0.0222 C   0  0  0  0  0  0  0  0  0  0  0  0
    1.1049    1.4247    1.4689 C   0  0  0  0  0  0  0  0  0  0  0  0
    1.5291    1.9826   -0.9208 C   0  0  0  0  0  0  0  0  0  0  0  0
    1.7415   -0.4792   -0.1513 C   0  0  0  0  0  0  0  0  0  0  0  0
   -0.5349    0.6469   -0.3068 C   0  0  0  0  0  0  0  0  0  0  0  0
    0.6195    2.8682    1.6477 C   0  0  0  0  0  0  0  0  0  0  0  0
    1.0516    3.4126   -0.6416 C   0  0  0  0  0  0  0  0  0  0  0  0
    1.4523   -1.6418    0.6057 C   0  0  0  0  0  0  0  0  0  0  0  0
   -1.0478   -1.5929    0.8664 C   0  0  0  0  0  0  0  0  0  0  0  0
    0.2949   -1.7313    1.5642 C   0  0  0  0  0  0  0  0  0  0  0  0
    2.7885   -0.5904   -1.0970 C   0  0  0  0  0  0  0  0  0  0  0  0
   -2.6150   -0.1486   -0.3452 C   0  0  0  0  0  0  0  0  0  0  0  0
    2.2303   -2.8104    0.4435 C   0  0  0  0  0  0  0  0  0  0  0  0
   -2.5205    0.9976   -1.0841 C   0  0  0  0  0  0  0  0  0  0  0  0
    3.5440   -1.7571   -1.2520 C   0  0  0  0  0  0  0  0  0  0  0  0
    3.2722   -2.8666   -0.4726 C   0  0  0  0  0  0  0  0  0  0  0  0
   -3.7814   -0.9361   -0.0920 C   0  0  0  0  0  0  0  0  0  0  0  0
    2.1617    1.3710    1.7660 H   0  0  0  0  0  0  0  0  0  0  0  0
    0.5483    0.8458    2.2042 H   0  0  0  0  0  0  0  0  0  0  0  0
    1.3257    1.7460   -1.9739 H   0  0  0  0  0  0  0  0  0  0  0  0
    2.6217    2.0207   -0.8051 H   0  0  0  0  0  0  0  0  0  0  0  0
   -0.4672    2.9305    1.5131 H   0  0  0  0  0  0  0  0  0  0  0  0
    0.8238    3.1805    2.6783 H   0  0  0  0  0  0  0  0  0  0  0  0
    1.6094    4.0987   -1.2897 H   0  0  0  0  0  0  0  0  0  0  0  0
   -0.0044    3.5520   -0.8911 H   0  0  0  0  0  0  0  0  0  0  0  0
   -1.1858   -2.4242    0.1632 H   0  0  0  0  0  0  0  0  0  0  0  0
   -1.7937   -1.6740    1.6642 H   0  0  0  0  0  0  0  0  0  0  0  0
    0.9622    4.7336    0.9057 H   0  0  0  0  0  0  0  0  0  0  0  0
    0.2996   -2.7154    2.0535 H   0  0  0  0  0  0  0  0  0  0  0  0
    0.4133   -1.0380    2.3954 H   0  0  0  0  0  0  0  0  0  0  0  0
    3.0573    0.2278   -1.7576 H   0  0  0  0  0  0  0  0  0  0  0  0
    2.0115   -3.7013    1.0288 H   0  0  0  0  0  0  0  0  0  0  0  0
   -3.2924    1.5197   -1.6307 H   0  0  0  0  0  0  0  0  0  0  0  0
    4.3434   -1.7902   -1.9867 H   0  0  0  0  0  0  0  0  0  0  0  0
    3.8541   -3.7756   -0.5869 H   0  0  0  0  0  0  0  0  0  0  0  0
   -5.0865    0.3206   -1.2179 H   0  0  0  0  0  0  0  0  0  0  0  0
   -5.8428   -1.0522   -0.5000 H   0  0  0  0  0  0  0  0  0  0  0  0
  1 22  2  0  0  0  0
  2 10  1  0  0  0  0
  2 14  1  0  0  0  0
  2 17  1  0  0  0  0
  3 11  1  0  0  0  0
  3 12  1  0  0  0  0
  3 33  1  0  0  0  0
  4 10  2  0  0  0  0
  4 19  1  0  0  0  0
  5 22  1  0  0  0  0
  5 41  1  0  0  0  0
  5 42  1  0  0  0  0
  6  7  1  0  0  0  0
  6  8  1  0  0  0  0
  6  9  1  0  0  0  0
  6 10  1  0  0  0  0
  7 11  1  0  0  0  0
  7 23  1  0  0  0  0
  7 24  1  0  0  0  0
  8 12  1  0  0  0  0
  8 25  1  0  0  0  0
  8 26  1  0  0  0  0
  9 13  1  0  0  0  0
  9 16  2  0  0  0  0
 11 27  1  0  0  0  0
 11 28  1  0  0  0  0
 12 29  1  0  0  0  0
 12 30  1  0  0  0  0
 13 15  1  0  0  0  0
 13 18  2  0  0  0  0
 14 15  1  0  0  0  0
 14 31  1  0  0  0  0
 14 32  1  0  0  0  0
 15 34  1  0  0  0  0
 15 35  1  0  0  0  0
 16 20  1  0  0  0  0
 16 36  1  0  0  0  0
 17 19  2  0  0  0  0
 17 22  1  0  0  0  0
 18 21  1  0  0  0  0
 18 37  1  0  0  0  0
 19 38  1  0  0  0  0
 20 21  2  0  0  0  0
 20 39  1  0  0  0  0
 21 40  1  0  0  0  0
M  END
> <DATABASE_ID>
DB05738

> <DATABASE_NAME>
drugbank

> <ORIGINAL_SOURCE>
PUBCHEM

> <ORIGINAL_SOURCE_URL>
https://pubchem.ncbi.nlm.nih.gov/rest/pug/compound/inchikey/VQWGYPVNVICKFC-UHFFFAOYSA-N/SDF?record_type=3d

> <SMILES>
OC(=N)C1=CN=C2N1CCC1=CC=CC=C1C21CCNCC1

> <INCHI_IDENTIFIER>
InChI=1S/C17H20N4O/c18-15(22)14-11-20-16-17(6-8-19-9-7-17)13-4-2-1-3-12(13)5-10-21(14)16/h1-4,11,19H,5-10H2,(H2,18,22)

> <INCHI_KEY>
VQWGYPVNVICKFC-UHFFFAOYSA-N

> <FORMULA>
C17H20N4O

> <MOLECULAR_WEIGHT>
296.374

> <EXACT_MASS>
296.16371128

> <JCHEM_ACCEPTOR_COUNT>
4

> <JCHEM_ATOM_COUNT>
42

> <JCHEM_AVERAGE_POLARIZABILITY>
32.64238594317996

> <JCHEM_BIOAVAILABILITY>
1

> <JCHEM_DONOR_COUNT>
3

> <JCHEM_FORMAL_CHARGE>
0

> <JCHEM_GHOSE_FILTER>
1

> <JCHEM_IUPAC>
4',7'-diazaspiro[piperidine-4,2'-tricyclo[8.4.0.0^{3,7}]tetradecane]-1'(14'),3',5',10',12'-pentaene-6'-carboximidic acid

> <ALOGPS_LOGP>
0.97

> <JCHEM_LOGP>
0.09607413565763243

> <ALOGPS_LOGS>
-3.19

> <JCHEM_MDDR_LIKE_RULE>
0

> <JCHEM_NUMBER_OF_RINGS>
4

> <JCHEM_PHYSIOLOGICAL_CHARGE>
2

> <JCHEM_PKA_STRONGEST_ACIDIC>
8.624830975552596

> <JCHEM_PKA_STRONGEST_BASIC>
10.051665661847938

> <JCHEM_POLAR_SURFACE_AREA>
73.93

> <JCHEM_REFRACTIVITY>
107.0743

> <JCHEM_ROTATABLE_BOND_COUNT>
1

> <JCHEM_RULE_OF_FIVE>
1

> <ALOGPS_SOLUBILITY>
1.93e-01 g/l

> <JCHEM_TRADITIONAL_IUPAC>
4',7'-diazaspiro[piperidine-4,2'-tricyclo[8.4.0.0^{3,7}]tetradecane]-1'(14'),3',5',10',12'-pentaene-6'-carboximidic acid

> <JCHEM_VEBER_RULE>
0

> <DRUGBANK_ID>
DB05738

> <DRUG_GROUPS>
investigational

> <GENERIC_NAME>
Vapitadine

> <SALTS>
Vapitadine dihydrochloride

$$$$
