104842
  -OEChem-10051720483D

 49 53  0     1  0  0  0  0  0999 V2000
   -5.3561   -0.8354    0.3943 O   0  0  0  0  0  0  0  0  0  0  0  0
   -3.6093    2.1929    0.9764 O   0  0  0  0  0  0  0  0  0  0  0  0
   -2.0119   -3.3181   -0.3572 O   0  0  0  0  0  0  0  0  0  0  0  0
   -6.0003    1.1232    1.2821 O   0  0  0  0  0  0  0  0  0  0  0  0
    7.1940    1.3851   -0.0038 O   0  0  0  0  0  0  0  0  0  0  0  0
   -0.5685   -1.5209   -0.1766 N   0  0  0  0  0  0  0  0  0  0  0  0
    1.6624    1.2921    0.0582 N   0  0  0  0  0  0  0  0  0  0  0  0
   -0.3682   -0.1560   -0.0500 C   0  0  0  0  0  0  0  0  0  0  0  0
   -2.7487    0.1728    0.0094 C   0  0  0  0  0  0  0  0  0  0  0  0
   -3.9100    1.1260    0.0735 C   0  0  2  0  0  0  0  0  0  0  0  0
    0.7193   -2.2403   -0.2594 C   0  0  0  0  0  0  0  0  0  0  0  0
    1.7096   -1.1264   -0.1685 C   0  0  0  0  0  0  0  0  0  0  0  0
    1.0658    0.0966   -0.0461 C   0  0  0  0  0  0  0  0  0  0  0  0
   -2.9705   -1.1471   -0.1270 C   0  0  0  0  0  0  0  0  0  0  0  0
   -1.3918    0.6969    0.0385 C   0  0  0  0  0  0  0  0  0  0  0  0
   -1.8178   -2.1114   -0.2305 C   0  0  0  0  0  0  0  0  0  0  0  0
    3.0840   -1.1440   -0.1880 C   0  0  0  0  0  0  0  0  0  0  0  0
   -4.2324    1.7158   -1.3016 C   0  0  0  0  0  0  0  0  0  0  0  0
   -4.3556   -1.6933   -0.1968 C   0  0  0  0  0  0  0  0  0  0  0  0
   -5.1646    0.4800    0.6497 C   0  0  0  0  0  0  0  0  0  0  0  0
    3.7653    0.0799   -0.0822 C   0  0  0  0  0  0  0  0  0  0  0  0
    3.7904   -2.4532   -0.3195 C   0  0  0  0  0  0  0  0  0  0  0  0
    3.0110    1.2813    0.0398 C   0  0  0  0  0  0  0  0  0  0  0  0
   -5.3821    2.6996   -1.2218 C   0  0  0  0  0  0  0  0  0  0  0  0
    5.1683    0.1277   -0.0956 C   0  0  0  0  0  0  0  0  0  0  0  0
    4.0720   -3.0722    1.0201 C   0  0  0  0  0  0  0  0  0  0  0  0
    3.7074    2.4810    0.1432 C   0  0  0  0  0  0  0  0  0  0  0  0
    5.8342    1.3456    0.0101 C   0  0  0  0  0  0  0  0  0  0  0  0
    5.1038    2.5217    0.1295 C   0  0  0  0  0  0  0  0  0  0  0  0
    0.7600   -2.7722   -1.2146 H   0  0  0  0  0  0  0  0  0  0  0  0
    0.7834   -2.9401    0.5789 H   0  0  0  0  0  0  0  0  0  0  0  0
   -1.2306    1.7656    0.1228 H   0  0  0  0  0  0  0  0  0  0  0  0
   -4.4810    0.9284   -2.0237 H   0  0  0  0  0  0  0  0  0  0  0  0
   -3.3583    2.2533   -1.6912 H   0  0  0  0  0  0  0  0  0  0  0  0
   -4.6458   -1.8851   -1.2351 H   0  0  0  0  0  0  0  0  0  0  0  0
   -4.4191   -2.6400    0.3496 H   0  0  0  0  0  0  0  0  0  0  0  0
    3.1746   -3.1482   -0.9053 H   0  0  0  0  0  0  0  0  0  0  0  0
    4.7066   -2.3697   -0.9128 H   0  0  0  0  0  0  0  0  0  0  0  0
   -6.3361    2.2055   -1.0161 H   0  0  0  0  0  0  0  0  0  0  0  0
   -5.2173    3.4788   -0.4716 H   0  0  0  0  0  0  0  0  0  0  0  0
   -5.4963    3.2031   -2.1885 H   0  0  0  0  0  0  0  0  0  0  0  0
   -3.3505    1.8065    1.8311 H   0  0  0  0  0  0  0  0  0  0  0  0
    5.7812   -0.7652   -0.1723 H   0  0  0  0  0  0  0  0  0  0  0  0
    4.7247   -2.4389    1.6304 H   0  0  0  0  0  0  0  0  0  0  0  0
    4.5707   -4.0390    0.8948 H   0  0  0  0  0  0  0  0  0  0  0  0
    3.1527   -3.2450    1.5899 H   0  0  0  0  0  0  0  0  0  0  0  0
    3.1607    3.4177    0.2378 H   0  0  0  0  0  0  0  0  0  0  0  0
    5.6062    3.4818    0.2130 H   0  0  0  0  0  0  0  0  0  0  0  0
    7.4836    2.3099    0.0792 H   0  0  0  0  0  0  0  0  0  0  0  0
  1 19  1  0  0  0  0
  1 20  1  0  0  0  0
  2 10  1  0  0  0  0
  2 42  1  0  0  0  0
  3 16  2  0  0  0  0
  4 20  2  0  0  0  0
  5 28  1  0  0  0  0
  5 49  1  0  0  0  0
  6  8  1  0  0  0  0
  6 11  1  0  0  0  0
  6 16  1  0  0  0  0
  7 13  2  0  0  0  0
  7 23  1  0  0  0  0
  8 13  1  0  0  0  0
  8 15  2  0  0  0  0
  9 10  1  0  0  0  0
  9 14  2  0  0  0  0
  9 15  1  0  0  0  0
 10 18  1  0  0  0  0
 10 20  1  0  0  0  0
 11 12  1  0  0  0  0
 11 30  1  0  0  0  0
 11 31  1  0  0  0  0
 12 13  1  0  0  0  0
 12 17  2  0  0  0  0
 14 16  1  0  0  0  0
 14 19  1  0  0  0  0
 15 32  1  0  0  0  0
 17 21  1  0  0  0  0
 17 22  1  0  0  0  0
 18 24  1  0  0  0  0
 18 33  1  0  0  0  0
 18 34  1  0  0  0  0
 19 35  1  0  0  0  0
 19 36  1  0  0  0  0
 21 23  2  0  0  0  0
 21 25  1  0  0  0  0
 22 26  1  0  0  0  0
 22 37  1  0  0  0  0
 22 38  1  0  0  0  0
 23 27  1  0  0  0  0
 24 39  1  0  0  0  0
 24 40  1  0  0  0  0
 24 41  1  0  0  0  0
 25 28  2  0  0  0  0
 25 43  1  0  0  0  0
 26 44  1  0  0  0  0
 26 45  1  0  0  0  0
 26 46  1  0  0  0  0
 27 29  2  0  0  0  0
 27 47  1  0  0  0  0
 28 29  1  0  0  0  0
 29 48  1  0  0  0  0
M  END
> <DATABASE_ID>
DB05482

> <DATABASE_NAME>
drugbank

> <ORIGINAL_SOURCE>
PUBCHEM

> <ORIGINAL_SOURCE_URL>
https://pubchem.ncbi.nlm.nih.gov/rest/pug/compound/inchikey/FJHBVJOVLFPMQE-QFIPXVFZSA-N/SDF?record_type=3d

> <SMILES>
CCC1=C2C=C(O)C=CC2=NC2=C1CN1C2=CC2=C(COC(=O)[C@]2(O)CC)C1=O

> <INCHI_IDENTIFIER>
InChI=1S/C22H20N2O5/c1-3-12-13-7-11(25)5-6-17(13)23-19-14(12)9-24-18(19)8-16-15(20(24)26)10-29-21(27)22(16,28)4-2/h5-8,25,28H,3-4,9-10H2,1-2H3/t22-/m0/s1

> <INCHI_KEY>
FJHBVJOVLFPMQE-QFIPXVFZSA-N

> <FORMULA>
C22H20N2O5

> <MOLECULAR_WEIGHT>
392.4046

> <EXACT_MASS>
392.13722176

> <JCHEM_ACCEPTOR_COUNT>
5

> <JCHEM_AVERAGE_POLARIZABILITY>
41.42873410088942

> <JCHEM_BIOAVAILABILITY>
1

> <JCHEM_DONOR_COUNT>
2

> <JCHEM_FORMAL_CHARGE>
0

> <JCHEM_GHOSE_FILTER>
1

> <JCHEM_IUPAC>
(19S)-10,19-diethyl-7,19-dihydroxy-17-oxa-3,13-diazapentacyclo[11.8.0.0²,¹¹.0⁴,⁹.0¹⁵,²⁰]henicosa-1(21),2(11),3,5,7,9,15(20)-heptaene-14,18-dione

> <ALOGPS_LOGP>
2.73

> <JCHEM_LOGP>
1.8746679706666658

> <ALOGPS_LOGS>
-3.13

> <JCHEM_MDDR_LIKE_RULE>
0

> <JCHEM_NUMBER_OF_RINGS>
5

> <JCHEM_PHYSIOLOGICAL_CHARGE>
0

> <JCHEM_PKA>
11.714422630150532

> <JCHEM_PKA_STRONGEST_ACIDIC>
9.675196104856266

> <JCHEM_PKA_STRONGEST_BASIC>
3.9059124952786752

> <JCHEM_POLAR_SURFACE_AREA>
99.96

> <JCHEM_REFRACTIVITY>
106.11560000000001

> <JCHEM_ROTATABLE_BOND_COUNT>
2

> <JCHEM_RULE_OF_FIVE>
1

> <ALOGPS_SOLUBILITY>
2.90e-01 g/l

> <JCHEM_TRADITIONAL_IUPAC>
7-ethyl-10-hydroxycamptothecin

> <JCHEM_VEBER_RULE>
0

> <DRUGBANK_ID>
DB05482

> <SECONDARY_ACCESSION_NUMBERS>
DB12552

> <DRUG_GROUPS>
investigational

> <GENERIC_NAME>
7-ethyl-10-hydroxycamptothecin

$$$$
