9907323
  -OEChem-09181800533D

 59 61  0     0  0  0  0  0  0999 V2000
    6.7757   -1.9473   -0.9522 O   0  0  0  0  0  0  0  0  0  0  0  0
    8.1174    0.4795   -1.1341 O   0  0  0  0  0  0  0  0  0  0  0  0
   -2.2428   -0.3175    0.8766 N   0  0  0  0  0  0  0  0  0  0  0  0
    0.5526    0.4174    0.8081 N   0  0  0  0  0  0  0  0  0  0  0  0
   -1.2523   -1.0084    1.7112 C   0  0  0  0  0  0  0  0  0  0  0  0
   -1.8249    1.0674    0.6265 C   0  0  0  0  0  0  0  0  0  0  0  0
    0.1340   -0.9672    1.0590 C   0  0  0  0  0  0  0  0  0  0  0  0
   -0.4383    1.1098   -0.0250 C   0  0  0  0  0  0  0  0  0  0  0  0
   -3.5643   -0.3564    1.4996 C   0  0  0  0  0  0  0  0  0  0  0  0
    1.8734    0.4553    0.1835 C   0  0  0  0  0  0  0  0  0  0  0  0
   -4.6550   -0.2063    0.4402 C   0  0  0  0  0  0  0  0  0  0  0  0
    2.9763    0.2450    1.2214 C   0  0  0  0  0  0  0  0  0  0  0  0
   -6.0483   -0.2662    1.0715 C   0  0  0  0  0  0  0  0  0  0  0  0
    4.3460    0.3043    0.5932 C   0  0  0  0  0  0  0  0  0  0  0  0
   -7.1349   -0.0822    0.0431 C   0  0  0  0  0  0  0  0  0  0  0  0
    4.9395   -0.8593    0.1037 C   0  0  0  0  0  0  0  0  0  0  0  0
    5.0196    1.5224    0.5021 C   0  0  0  0  0  0  0  0  0  0  0  0
   -7.6065    1.1970   -0.2520 C   0  0  0  0  0  0  0  0  0  0  0  0
   -7.6686   -1.1910   -0.6139 C   0  0  0  0  0  0  0  0  0  0  0  0
    6.2067   -0.8047   -0.4770 C   0  0  0  0  0  0  0  0  0  0  0  0
    6.2867    1.5770   -0.0784 C   0  0  0  0  0  0  0  0  0  0  0  0
    6.8801    0.4136   -0.5680 C   0  0  0  0  0  0  0  0  0  0  0  0
   -8.6119    1.3674   -1.2038 C   0  0  0  0  0  0  0  0  0  0  0  0
   -8.6738   -1.0204   -1.5658 C   0  0  0  0  0  0  0  0  0  0  0  0
   -9.1454    0.2588   -1.8606 C   0  0  0  0  0  0  0  0  0  0  0  0
    6.0213   -3.1506   -0.8205 C   0  0  0  0  0  0  0  0  0  0  0  0
    8.7378    1.7626   -1.1885 C   0  0  0  0  0  0  0  0  0  0  0  0
   -1.5382   -2.0602    1.8354 H   0  0  0  0  0  0  0  0  0  0  0  0
   -1.2050   -0.5608    2.7134 H   0  0  0  0  0  0  0  0  0  0  0  0
   -1.8065    1.6467    1.5599 H   0  0  0  0  0  0  0  0  0  0  0  0
   -2.5235    1.5687   -0.0519 H   0  0  0  0  0  0  0  0  0  0  0  0
    0.1157   -1.5471    0.1260 H   0  0  0  0  0  0  0  0  0  0  0  0
    0.8310   -1.4688    1.7386 H   0  0  0  0  0  0  0  0  0  0  0  0
   -0.1523    2.1616   -0.1477 H   0  0  0  0  0  0  0  0  0  0  0  0
   -0.4859    0.6638   -1.0278 H   0  0  0  0  0  0  0  0  0  0  0  0
   -3.7203   -1.3299    1.9837 H   0  0  0  0  0  0  0  0  0  0  0  0
   -3.6674    0.4011    2.2871 H   0  0  0  0  0  0  0  0  0  0  0  0
    1.9536   -0.2707   -0.6368 H   0  0  0  0  0  0  0  0  0  0  0  0
    2.0379    1.4423   -0.2708 H   0  0  0  0  0  0  0  0  0  0  0  0
   -4.5492    0.7453   -0.0938 H   0  0  0  0  0  0  0  0  0  0  0  0
   -4.5550   -1.0007   -0.3113 H   0  0  0  0  0  0  0  0  0  0  0  0
    2.9054    1.0073    2.0089 H   0  0  0  0  0  0  0  0  0  0  0  0
    2.8712   -0.7186    1.7336 H   0  0  0  0  0  0  0  0  0  0  0  0
   -6.1896   -1.2253    1.5860 H   0  0  0  0  0  0  0  0  0  0  0  0
   -6.1458    0.5060    1.8456 H   0  0  0  0  0  0  0  0  0  0  0  0
    4.3668   -1.7757    0.1996 H   0  0  0  0  0  0  0  0  0  0  0  0
    4.5656    2.4353    0.8788 H   0  0  0  0  0  0  0  0  0  0  0  0
   -7.1972    2.0688    0.2516 H   0  0  0  0  0  0  0  0  0  0  0  0
   -7.3081   -2.1924   -0.3942 H   0  0  0  0  0  0  0  0  0  0  0  0
    6.7499    2.5569   -0.1157 H   0  0  0  0  0  0  0  0  0  0  0  0
   -8.9787    2.3634   -1.4340 H   0  0  0  0  0  0  0  0  0  0  0  0
   -9.0891   -1.8835   -2.0779 H   0  0  0  0  0  0  0  0  0  0  0  0
   -9.9280    0.3915   -2.6020 H   0  0  0  0  0  0  0  0  0  0  0  0
    6.6249   -3.9575   -1.2492 H   0  0  0  0  0  0  0  0  0  0  0  0
    5.0912   -3.1094   -1.3976 H   0  0  0  0  0  0  0  0  0  0  0  0
    5.8498   -3.4069    0.2306 H   0  0  0  0  0  0  0  0  0  0  0  0
    9.7131    1.6289   -1.6681 H   0  0  0  0  0  0  0  0  0  0  0  0
    8.9286    2.1615   -0.1864 H   0  0  0  0  0  0  0  0  0  0  0  0
    8.1692    2.4597   -1.8136 H   0  0  0  0  0  0  0  0  0  0  0  0
  1 20  1  0  0  0  0
  1 26  1  0  0  0  0
  2 22  1  0  0  0  0
  2 27  1  0  0  0  0
  3  5  1  0  0  0  0
  3  6  1  0  0  0  0
  3  9  1  0  0  0  0
  4  7  1  0  0  0  0
  4  8  1  0  0  0  0
  4 10  1  0  0  0  0
  5  7  1  0  0  0  0
  5 28  1  0  0  0  0
  5 29  1  0  0  0  0
  6  8  1  0  0  0  0
  6 30  1  0  0  0  0
  6 31  1  0  0  0  0
  7 32  1  0  0  0  0
  7 33  1  0  0  0  0
  8 34  1  0  0  0  0
  8 35  1  0  0  0  0
  9 11  1  0  0  0  0
  9 36  1  0  0  0  0
  9 37  1  0  0  0  0
 10 12  1  0  0  0  0
 10 38  1  0  0  0  0
 10 39  1  0  0  0  0
 11 13  1  0  0  0  0
 11 40  1  0  0  0  0
 11 41  1  0  0  0  0
 12 14  1  0  0  0  0
 12 42  1  0  0  0  0
 12 43  1  0  0  0  0
 13 15  1  0  0  0  0
 13 44  1  0  0  0  0
 13 45  1  0  0  0  0
 14 16  2  0  0  0  0
 14 17  1  0  0  0  0
 15 18  2  0  0  0  0
 15 19  1  0  0  0  0
 16 20  1  0  0  0  0
 16 46  1  0  0  0  0
 17 21  2  0  0  0  0
 17 47  1  0  0  0  0
 18 23  1  0  0  0  0
 18 48  1  0  0  0  0
 19 24  2  0  0  0  0
 19 49  1  0  0  0  0
 20 22  2  0  0  0  0
 21 22  1  0  0  0  0
 21 50  1  0  0  0  0
 23 25  2  0  0  0  0
 23 51  1  0  0  0  0
 24 25  1  0  0  0  0
 24 52  1  0  0  0  0
 25 53  1  0  0  0  0
 26 54  1  0  0  0  0
 26 55  1  0  0  0  0
 26 56  1  0  0  0  0
 27 57  1  0  0  0  0
 27 58  1  0  0  0  0
 27 59  1  0  0  0  0
M  END
> <DATABASE_ID>
DB06618

> <DATABASE_NAME>
drugbank

> <ORIGINAL_SOURCE>
PUBCHEM

> <ORIGINAL_SOURCE_URL>
https://pubchem.ncbi.nlm.nih.gov/rest/pug/compound/inchikey/UVSWWUWQVAQPJR-UHFFFAOYSA-N/SDF?record_type=3d

> <SMILES>
COC1=C(OC)C=C(CCN2CCN(CCCC3=CC=CC=C3)CC2)C=C1

> <INCHI_IDENTIFIER>
InChI=1S/C23H32N2O2/c1-26-22-11-10-21(19-23(22)27-2)12-14-25-17-15-24(16-18-25)13-6-9-20-7-4-3-5-8-20/h3-5,7-8,10-11,19H,6,9,12-18H2,1-2H3

> <INCHI_KEY>
UVSWWUWQVAQPJR-UHFFFAOYSA-N

> <FORMULA>
C23H32N2O2

> <MOLECULAR_WEIGHT>
368.521

> <EXACT_MASS>
368.246378278

> <JCHEM_ACCEPTOR_COUNT>
4

> <JCHEM_ATOM_COUNT>
59

> <JCHEM_AVERAGE_POLARIZABILITY>
44.47034441222289

> <JCHEM_BIOAVAILABILITY>
1

> <JCHEM_DONOR_COUNT>
0

> <JCHEM_FORMAL_CHARGE>
0

> <JCHEM_GHOSE_FILTER>
1

> <JCHEM_IUPAC>
1-[2-(3,4-dimethoxyphenyl)ethyl]-4-(3-phenylpropyl)piperazine

> <ALOGPS_LOGP>
3.81

> <JCHEM_LOGP>
4.192783822999999

> <ALOGPS_LOGS>
-3.93

> <JCHEM_MDDR_LIKE_RULE>
1

> <JCHEM_NUMBER_OF_RINGS>
3

> <JCHEM_PHYSIOLOGICAL_CHARGE>
1

> <JCHEM_PKA_STRONGEST_BASIC>
8.330490338844173

> <JCHEM_POLAR_SURFACE_AREA>
24.940000000000005

> <JCHEM_REFRACTIVITY>
112.30080000000001

> <JCHEM_ROTATABLE_BOND_COUNT>
9

> <JCHEM_RULE_OF_FIVE>
1

> <ALOGPS_SOLUBILITY>
4.32e-02 g/l

> <JCHEM_TRADITIONAL_IUPAC>
cutamesine

> <JCHEM_VEBER_RULE>
1

> <DRUGBANK_ID>
DB06618

> <DRUG_GROUPS>
investigational

> <GENERIC_NAME>
Cutamesine

> <SALTS>
Cutamesine dihydrochloride

$$$$
