448123
  -OEChem-10051720523D

 54 56  0     1  0  0  0  0  0999 V2000
   -0.7218   -3.0984   -2.3427 O   0  0  0  0  0  0  0  0  0  0  0  0
   -0.3646   -0.4206    2.0795 O   0  0  0  0  0  0  0  0  0  0  0  0
   -2.2254   -1.6924    1.8223 O   0  0  0  0  0  0  0  0  0  0  0  0
    7.0430    3.4298   -0.0954 O   0  0  0  0  0  0  0  0  0  0  0  0
   -7.7117    2.8998   -1.0224 N   0  0  0  0  0  0  0  0  0  0  0  0
   -8.4208    1.2000    0.4534 N   0  0  0  0  0  0  0  0  0  0  0  0
   -0.6246   -1.0750   -0.9990 C   0  0  1  0  0  0  0  0  0  0  0  0
   -1.0169   -2.5707   -1.0461 C   0  0  2  0  0  0  0  0  0  0  0  0
   -1.4906   -0.2826   -0.0264 C   0  0  1  0  0  0  0  0  0  0  0  0
    0.7973   -1.1656   -0.5144 C   0  0  0  0  0  0  0  0  0  0  0  0
   -0.1414   -3.3084   -0.0178 C   0  0  0  0  0  0  0  0  0  0  0  0
    1.0689   -2.4264    0.0293 C   0  0  0  0  0  0  0  0  0  0  0  0
   -2.9451   -0.1414   -0.5048 C   0  0  0  0  0  0  0  0  0  0  0  0
    1.7706   -0.1789   -0.5452 C   0  0  0  0  0  0  0  0  0  0  0  0
   -3.8106    0.7988    0.3434 C   0  0  0  0  0  0  0  0  0  0  0  0
   -1.4267   -0.8826    1.3696 C   0  0  0  0  0  0  0  0  0  0  0  0
    2.3125   -2.7220    0.5634 C   0  0  0  0  0  0  0  0  0  0  0  0
    3.0306   -0.4723   -0.0195 C   0  0  0  0  0  0  0  0  0  0  0  0
   -5.2212    0.9271   -0.2424 C   0  0  0  0  0  0  0  0  0  0  0  0
    3.2993   -1.7347    0.5317 C   0  0  0  0  0  0  0  0  0  0  0  0
    4.0689    0.5359   -0.0395 C   0  0  0  0  0  0  0  0  0  0  0  0
   -6.1066    1.8829    0.5571 C   0  0  0  0  0  0  0  0  0  0  0  0
    5.0449    0.5512    0.9564 C   0  0  0  0  0  0  0  0  0  0  0  0
    4.0918    1.4922   -1.0543 C   0  0  0  0  0  0  0  0  0  0  0  0
   -7.5046    1.9857   -0.0231 C   0  0  0  0  0  0  0  0  0  0  0  0
    6.0447    1.5238    0.9375 C   0  0  0  0  0  0  0  0  0  0  0  0
    5.0918    2.4645   -1.0733 C   0  0  0  0  0  0  0  0  0  0  0  0
    6.0682    2.4803   -0.0774 C   0  0  0  0  0  0  0  0  0  0  0  0
   -0.6476   -0.6336   -2.0025 H   0  0  0  0  0  0  0  0  0  0  0  0
   -2.0794   -2.7624   -0.8780 H   0  0  0  0  0  0  0  0  0  0  0  0
   -1.0903    0.7386    0.0537 H   0  0  0  0  0  0  0  0  0  0  0  0
   -0.6001   -3.3729    0.9705 H   0  0  0  0  0  0  0  0  0  0  0  0
    0.1283   -4.3142   -0.3562 H   0  0  0  0  0  0  0  0  0  0  0  0
   -3.4383   -1.1200   -0.5303 H   0  0  0  0  0  0  0  0  0  0  0  0
   -2.9373    0.2297   -1.5379 H   0  0  0  0  0  0  0  0  0  0  0  0
    1.5092    0.7943   -0.9482 H   0  0  0  0  0  0  0  0  0  0  0  0
   -3.8796    0.4300    1.3726 H   0  0  0  0  0  0  0  0  0  0  0  0
   -3.3409    1.7889    0.3843 H   0  0  0  0  0  0  0  0  0  0  0  0
    2.5215   -3.6969    0.9907 H   0  0  0  0  0  0  0  0  0  0  0  0
   -0.9750   -4.0373   -2.3407 H   0  0  0  0  0  0  0  0  0  0  0  0
   -5.6947   -0.0621   -0.2785 H   0  0  0  0  0  0  0  0  0  0  0  0
   -5.1578    1.2766   -1.2806 H   0  0  0  0  0  0  0  0  0  0  0  0
    4.2778   -2.0012    0.9229 H   0  0  0  0  0  0  0  0  0  0  0  0
   -6.1829    1.5410    1.5962 H   0  0  0  0  0  0  0  0  0  0  0  0
   -5.6590    2.8835    0.5755 H   0  0  0  0  0  0  0  0  0  0  0  0
   -0.3244   -0.8165    2.9760 H   0  0  0  0  0  0  0  0  0  0  0  0
    5.0492   -0.1524    1.7843 H   0  0  0  0  0  0  0  0  0  0  0  0
    3.3711    1.5010   -1.8674 H   0  0  0  0  0  0  0  0  0  0  0  0
    6.7957    1.5302    1.7230 H   0  0  0  0  0  0  0  0  0  0  0  0
    5.1092    3.2034   -1.8699 H   0  0  0  0  0  0  0  0  0  0  0  0
   -8.6242    3.0115   -1.4509 H   0  0  0  0  0  0  0  0  0  0  0  0
   -6.9636    3.4900   -1.3707 H   0  0  0  0  0  0  0  0  0  0  0  0
   -9.3020    1.3854   -0.0381 H   0  0  0  0  0  0  0  0  0  0  0  0
    7.6321    3.2911    0.6660 H   0  0  0  0  0  0  0  0  0  0  0  0
  1  8  1  0  0  0  0
  1 40  1  0  0  0  0
  2 16  1  0  0  0  0
  2 46  1  0  0  0  0
  3 16  2  0  0  0  0
  4 28  1  0  0  0  0
  4 54  1  0  0  0  0
  5 25  1  0  0  0  0
  5 51  1  0  0  0  0
  5 52  1  0  0  0  0
  6 25  2  0  0  0  0
  6 53  1  0  0  0  0
  7  8  1  0  0  0  0
  7  9  1  0  0  0  0
  7 10  1  0  0  0  0
  7 29  1  0  0  0  0
  8 11  1  0  0  0  0
  8 30  1  0  0  0  0
  9 13  1  0  0  0  0
  9 16  1  0  0  0  0
  9 31  1  0  0  0  0
 10 12  2  0  0  0  0
 10 14  1  0  0  0  0
 11 12  1  0  0  0  0
 11 32  1  0  0  0  0
 11 33  1  0  0  0  0
 12 17  1  0  0  0  0
 13 15  1  0  0  0  0
 13 34  1  0  0  0  0
 13 35  1  0  0  0  0
 14 18  2  0  0  0  0
 14 36  1  0  0  0  0
 15 19  1  0  0  0  0
 15 37  1  0  0  0  0
 15 38  1  0  0  0  0
 17 20  2  0  0  0  0
 17 39  1  0  0  0  0
 18 20  1  0  0  0  0
 18 21  1  0  0  0  0
 19 22  1  0  0  0  0
 19 41  1  0  0  0  0
 19 42  1  0  0  0  0
 20 43  1  0  0  0  0
 21 23  2  0  0  0  0
 21 24  1  0  0  0  0
 22 25  1  0  0  0  0
 22 44  1  0  0  0  0
 22 45  1  0  0  0  0
 23 26  1  0  0  0  0
 23 47  1  0  0  0  0
 24 27  2  0  0  0  0
 24 48  1  0  0  0  0
 26 28  2  0  0  0  0
 26 49  1  0  0  0  0
 27 28  1  0  0  0  0
 27 50  1  0  0  0  0
M  END
> <DATABASE_ID>
DB06865

> <DATABASE_NAME>
drugbank

> <ORIGINAL_SOURCE>
PUBCHEM

> <ORIGINAL_SOURCE_URL>
https://pubchem.ncbi.nlm.nih.gov/rest/pug/compound/inchikey/ZSRRBAKATXAISL-LMNJBCLMSA-N/SDF?record_type=3d

> <SMILES>
[H][C@](CCCCC(N)=N)(C(O)=O)[C@@]1([H])C2=C(C[C@]1([H])O)C=CC(=C2)C1=CC=C(O)C=C1

> <INCHI_IDENTIFIER>
InChI=1S/C22H26N2O4/c23-20(24)4-2-1-3-17(22(27)28)21-18-11-14(5-6-15(18)12-19(21)26)13-7-9-16(25)10-8-13/h5-11,17,19,21,25-26H,1-4,12H2,(H3,23,24)(H,27,28)/t17-,19+,21+/m1/s1

> <INCHI_KEY>
ZSRRBAKATXAISL-LMNJBCLMSA-N

> <FORMULA>
C22H26N2O4

> <MOLECULAR_WEIGHT>
382.4528

> <EXACT_MASS>
382.18925733

> <JCHEM_ACCEPTOR_COUNT>
6

> <JCHEM_AVERAGE_POLARIZABILITY>
42.39786055459825

> <JCHEM_BIOAVAILABILITY>
1

> <JCHEM_DONOR_COUNT>
5

> <JCHEM_FORMAL_CHARGE>
0

> <JCHEM_GHOSE_FILTER>
1

> <JCHEM_IUPAC>
(2R)-6-carbamimidoyl-2-[(1S,2S)-2-hydroxy-6-(4-hydroxyphenyl)-2,3-dihydro-1H-inden-1-yl]hexanoic acid

> <ALOGPS_LOGP>
2.12

> <JCHEM_LOGP>
1.0444483245266145

> <ALOGPS_LOGS>
-4.06

> <JCHEM_MDDR_LIKE_RULE>
1

> <JCHEM_NUMBER_OF_RINGS>
3

> <JCHEM_PHYSIOLOGICAL_CHARGE>
0

> <JCHEM_PKA>
9.90309334357346

> <JCHEM_PKA_STRONGEST_ACIDIC>
4.522689613583072

> <JCHEM_PKA_STRONGEST_BASIC>
12.875129553459118

> <JCHEM_POLAR_SURFACE_AREA>
127.63000000000001

> <JCHEM_REFRACTIVITY>
117.524

> <JCHEM_ROTATABLE_BOND_COUNT>
8

> <JCHEM_RULE_OF_FIVE>
1

> <ALOGPS_SOLUBILITY>
3.32e-02 g/l

> <JCHEM_TRADITIONAL_IUPAC>
(2R)-6-carbamimidoyl-2-[(1S,2S)-2-hydroxy-6-(4-hydroxyphenyl)-2,3-dihydro-1H-inden-1-yl]hexanoic acid

> <JCHEM_VEBER_RULE>
0

> <DRUGBANK_ID>
DB06865

> <DRUG_GROUPS>
experimental

> <GENERIC_NAME>
6-CARBAMIMIDOYL-2-[2-HYDROXY-6-(4-HYDROXY-PHENYL)-INDAN-1-YL]-HEXANOIC ACID

$$$$
