9841834
  -OEChem-03111913113D

 58 61  0     1  0  0  0  0  0999 V2000
   -0.0528   -3.5378    0.1309 O   0  0  0  0  0  0  0  0  0  0  0  0
    5.8718    2.1786   -0.7114 O   0  0  0  0  0  0  0  0  0  0  0  0
   -5.0472    0.4848   -0.0726 O   0  0  0  0  0  0  0  0  0  0  0  0
   -4.3641   -0.7197   -0.2799 N   0  0  0  0  0  0  0  0  0  0  0  0
   -8.3695    1.6381   -1.1483 N   0  0  0  0  0  0  0  0  0  0  0  0
    1.0147    0.4115    0.0778 C   0  0  1  0  0  0  0  0  0  0  0  0
    2.0714   -0.7444    0.0154 C   0  0  2  0  0  0  0  0  0  0  0  0
    3.3387   -0.1980   -0.6471 C   0  0  1  0  0  0  0  0  0  0  0  0
   -0.3454   -0.0695    0.7173 C   0  0  2  0  0  0  0  0  0  0  0  0
    3.9494    0.9667    0.1579 C   0  0  2  0  0  0  0  0  0  0  0  0
    1.5975    1.7064    0.7089 C   0  0  0  0  0  0  0  0  0  0  0  0
   -0.8654   -1.2710   -0.1316 C   0  0  1  0  0  0  0  0  0  0  0  0
    2.9591    2.1260    0.1240 C   0  0  0  0  0  0  0  0  0  0  0  0
    1.5282   -1.9626   -0.7362 C   0  0  0  0  0  0  0  0  0  0  0  0
    4.5179   -1.1274   -0.9132 C   0  0  0  0  0  0  0  0  0  0  0  0
   -1.4140    1.0616    0.6325 C   0  0  0  0  0  0  0  0  0  0  0  0
    0.1821   -2.3732   -0.1844 C   0  0  0  0  0  0  0  0  0  0  0  0
    5.2266    1.1408   -0.6440 C   0  0  0  0  0  0  0  0  0  0  0  0
    5.6288   -0.1529   -1.3321 C   0  0  0  0  0  0  0  0  0  0  0  0
   -0.1540   -0.4661    2.2028 C   0  0  0  0  0  0  0  0  0  0  0  0
   -2.2359   -1.7868    0.3085 C   0  0  0  0  0  0  0  0  0  0  0  0
    4.3778    0.6380    1.6000 C   0  0  0  0  0  0  0  0  0  0  0  0
   -2.8229    0.6206    1.0316 C   0  0  0  0  0  0  0  0  0  0  0  0
   -3.2109   -0.6367    0.2983 C   0  0  0  0  0  0  0  0  0  0  0  0
   -6.3120    0.3864   -0.7099 C   0  0  0  0  0  0  0  0  0  0  0  0
   -7.0697    1.6869   -0.4955 C   0  0  0  0  0  0  0  0  0  0  0  0
    0.7877    0.6789   -0.9668 H   0  0  0  0  0  0  0  0  0  0  0  0
    2.3134   -1.0698    1.0327 H   0  0  0  0  0  0  0  0  0  0  0  0
    3.0358    0.1819   -1.6386 H   0  0  0  0  0  0  0  0  0  0  0  0
    1.7028    1.5864    1.7915 H   0  0  0  0  0  0  0  0  0  0  0  0
    0.9023    2.5394    0.5571 H   0  0  0  0  0  0  0  0  0  0  0  0
   -0.9796   -0.9320   -1.1731 H   0  0  0  0  0  0  0  0  0  0  0  0
    2.8179    2.4745   -0.9074 H   0  0  0  0  0  0  0  0  0  0  0  0
    3.3498    2.9866    0.6805 H   0  0  0  0  0  0  0  0  0  0  0  0
    2.2167   -2.8091   -0.6383 H   0  0  0  0  0  0  0  0  0  0  0  0
    1.4042   -1.7529   -1.8048 H   0  0  0  0  0  0  0  0  0  0  0  0
    4.3122   -1.8525   -1.7069 H   0  0  0  0  0  0  0  0  0  0  0  0
    4.8025   -1.6873   -0.0158 H   0  0  0  0  0  0  0  0  0  0  0  0
   -1.4494    1.4445   -0.3963 H   0  0  0  0  0  0  0  0  0  0  0  0
   -1.1286    1.9044    1.2730 H   0  0  0  0  0  0  0  0  0  0  0  0
    5.6250    0.0067   -2.4141 H   0  0  0  0  0  0  0  0  0  0  0  0
    6.6097   -0.4905   -0.9911 H   0  0  0  0  0  0  0  0  0  0  0  0
   -1.0771   -0.8345    2.6589 H   0  0  0  0  0  0  0  0  0  0  0  0
    0.5878   -1.2591    2.3305 H   0  0  0  0  0  0  0  0  0  0  0  0
    0.1673    0.3888    2.8058 H   0  0  0  0  0  0  0  0  0  0  0  0
   -2.2129   -2.2239    1.3118 H   0  0  0  0  0  0  0  0  0  0  0  0
   -2.5902   -2.5673   -0.3750 H   0  0  0  0  0  0  0  0  0  0  0  0
    5.1357   -0.1517    1.6411 H   0  0  0  0  0  0  0  0  0  0  0  0
    4.8270    1.5206    2.0716 H   0  0  0  0  0  0  0  0  0  0  0  0
    3.5423    0.3229    2.2305 H   0  0  0  0  0  0  0  0  0  0  0  0
   -3.4729    1.4839    0.8781 H   0  0  0  0  0  0  0  0  0  0  0  0
   -2.8650    0.3983    2.1037 H   0  0  0  0  0  0  0  0  0  0  0  0
   -6.1641    0.2030   -1.7815 H   0  0  0  0  0  0  0  0  0  0  0  0
   -6.8691   -0.4562   -0.2816 H   0  0  0  0  0  0  0  0  0  0  0  0
   -7.1939    1.8751    0.5771 H   0  0  0  0  0  0  0  0  0  0  0  0
   -6.4875    2.5262   -0.8921 H   0  0  0  0  0  0  0  0  0  0  0  0
   -8.8807    2.4970   -0.9496 H   0  0  0  0  0  0  0  0  0  0  0  0
   -8.9237    0.8784   -0.7553 H   0  0  0  0  0  0  0  0  0  0  0  0
  1 17  2  0  0  0  0
  2 18  2  0  0  0  0
  3  4  1  0  0  0  0
  3 25  1  0  0  0  0
  4 24  2  0  0  0  0
  5 26  1  0  0  0  0
  5 57  1  0  0  0  0
  5 58  1  0  0  0  0
  6  7  1  0  0  0  0
  6  9  1  0  0  0  0
  6 11  1  0  0  0  0
  6 27  1  0  0  0  0
  7  8  1  0  0  0  0
  7 14  1  0  0  0  0
  7 28  1  0  0  0  0
  8 10  1  0  0  0  0
  8 15  1  0  0  0  0
  8 29  1  0  0  0  0
  9 12  1  0  0  0  0
  9 16  1  0  0  0  0
  9 20  1  0  0  0  0
 10 13  1  0  0  0  0
 10 18  1  0  0  0  0
 10 22  1  0  0  0  0
 11 13  1  0  0  0  0
 11 30  1  0  0  0  0
 11 31  1  0  0  0  0
 12 17  1  0  0  0  0
 12 21  1  0  0  0  0
 12 32  1  0  0  0  0
 13 33  1  0  0  0  0
 13 34  1  0  0  0  0
 14 17  1  0  0  0  0
 14 35  1  0  0  0  0
 14 36  1  0  0  0  0
 15 19  1  0  0  0  0
 15 37  1  0  0  0  0
 15 38  1  0  0  0  0
 16 23  1  0  0  0  0
 16 39  1  0  0  0  0
 16 40  1  0  0  0  0
 18 19  1  0  0  0  0
 19 41  1  0  0  0  0
 19 42  1  0  0  0  0
 20 43  1  0  0  0  0
 20 44  1  0  0  0  0
 20 45  1  0  0  0  0
 21 24  1  0  0  0  0
 21 46  1  0  0  0  0
 21 47  1  0  0  0  0
 22 48  1  0  0  0  0
 22 49  1  0  0  0  0
 22 50  1  0  0  0  0
 23 24  1  0  0  0  0
 23 51  1  0  0  0  0
 23 52  1  0  0  0  0
 25 26  1  0  0  0  0
 25 53  1  0  0  0  0
 25 54  1  0  0  0  0
 26 55  1  0  0  0  0
 26 56  1  0  0  0  0
M  END
> <DATABASE_ID>
DB06157

> <DATABASE_NAME>
drugbank

> <ORIGINAL_SOURCE>
PUBCHEM

> <ORIGINAL_SOURCE_URL>
https://pubchem.ncbi.nlm.nih.gov/rest/pug/compound/inchikey/MPYLDWFDPHRTEG-PAAYLBSLSA-N/SDF?record_type=3d

> <SMILES>
C[C@]12CC[C@H]3[C@@H](CC(=O)[C@H]4C\C(CC[C@]34C)=N\OCCN)[C@@H]1CCC2=O

> <INCHI_IDENTIFIER>
InChI=1S/C21H32N2O3/c1-20-7-5-13(23-26-10-9-22)11-17(20)18(24)12-14-15-3-4-19(25)21(15,2)8-6-16(14)20/h14-17H,3-12,22H2,1-2H3/b23-13+/t14-,15-,16-,17+,20+,21-/m0/s1

> <INCHI_KEY>
MPYLDWFDPHRTEG-PAAYLBSLSA-N

> <FORMULA>
C21H32N2O3

> <MOLECULAR_WEIGHT>
360.498

> <EXACT_MASS>
360.241292898

> <JCHEM_ACCEPTOR_COUNT>
5

> <JCHEM_ATOM_COUNT>
58

> <JCHEM_AVERAGE_POLARIZABILITY>
41.77756123752129

> <JCHEM_BIOAVAILABILITY>
1

> <JCHEM_DONOR_COUNT>
1

> <JCHEM_FORMAL_CHARGE>
0

> <JCHEM_GHOSE_FILTER>
1

> <JCHEM_IUPAC>
(3aS,3bR,5aS,7E,9aR,9bS,11aS)-7-[(2-aminoethoxy)imino]-9a,11a-dimethyl-hexadecahydro-1H-cyclopenta[a]phenanthrene-1,5-dione

> <ALOGPS_LOGP>
2.40

> <JCHEM_LOGP>
2.641991495

> <ALOGPS_LOGS>
-4.32

> <JCHEM_MDDR_LIKE_RULE>
0

> <JCHEM_NUMBER_OF_RINGS>
4

> <JCHEM_PHYSIOLOGICAL_CHARGE>
1

> <JCHEM_PKA_STRONGEST_BASIC>
8.838037399983707

> <JCHEM_POLAR_SURFACE_AREA>
81.75

> <JCHEM_REFRACTIVITY>
99.70189999999998

> <JCHEM_ROTATABLE_BOND_COUNT>
3

> <JCHEM_RULE_OF_FIVE>
1

> <ALOGPS_SOLUBILITY>
1.74e-02 g/l

> <JCHEM_TRADITIONAL_IUPAC>
nomifensine maleate

> <JCHEM_VEBER_RULE>
0

> <DRUGBANK_ID>
DB06157

> <DRUG_GROUPS>
investigational

> <GENERIC_NAME>
Istaroxime

> <SYNONYMS>
3-((2-Aminoethoxy)imino)-5alpha-androstan-6,17-dione; Istaroxime

> <SALTS>
Istaroxime hydrochloride

$$$$
