21302490
  -OEChem-12231911313D

 57 61  0     1  0  0  0  0  0999 V2000
   -9.5033    0.5769    1.4598 F   0  0  0  0  0  0  0  0  0  0  0  0
   -4.1572    0.4672   -1.8889 O   0  0  0  0  0  0  0  0  0  0  0  0
    4.1689   -1.0570    0.0335 N   0  0  2  0  0  0  0  0  0  0  0  0
    0.4055   -1.4524   -0.5140 N   0  0  1  0  0  0  0  0  0  0  0  0
    6.3072    0.4159    1.2318 N   0  0  2  0  0  0  0  0  0  0  0  0
    3.2886   -1.4378   -1.0781 C   0  0  2  0  0  0  0  0  0  0  0  0
    2.3851   -0.1891   -1.3412 C   0  0  1  0  0  0  0  0  0  0  0  0
    2.4953   -2.7110   -0.8068 C   0  0  0  0  0  0  0  0  0  0  0  0
    1.0993   -0.1598   -0.4997 C   0  0  0  0  0  0  0  0  0  0  0  0
    3.3151    0.9034   -0.8947 C   0  0  0  0  0  0  0  0  0  0  0  0
    4.3117    0.3392   -0.0939 C   0  0  0  0  0  0  0  0  0  0  0  0
    1.2666   -2.4887    0.0706 C   0  0  0  0  0  0  0  0  0  0  0  0
    5.3874   -1.7465    0.4082 C   0  0  0  0  0  0  0  0  0  0  0  0
    5.3351    1.0797    0.4941 C   0  0  0  0  0  0  0  0  0  0  0  0
    6.0609   -0.9948    1.5678 C   0  0  0  0  0  0  0  0  0  0  0  0
   -0.8533   -1.3609    0.2271 C   0  0  0  0  0  0  0  0  0  0  0  0
    3.2871    2.2606   -1.1311 C   0  0  0  0  0  0  0  0  0  0  0  0
    5.3045    2.4580    0.2410 C   0  0  0  0  0  0  0  0  0  0  0  0
    4.2940    3.0390   -0.5556 C   0  0  0  0  0  0  0  0  0  0  0  0
   -1.9169   -0.6610   -0.6212 C   0  0  0  0  0  0  0  0  0  0  0  0
    7.3195    1.1461    1.9737 C   0  0  0  0  0  0  0  0  0  0  0  0
   -3.2556   -0.5372    0.1118 C   0  0  0  0  0  0  0  0  0  0  0  0
   -4.3544    0.0857   -0.7376 C   0  0  0  0  0  0  0  0  0  0  0  0
   -5.7206    0.2152   -0.1551 C   0  0  0  0  0  0  0  0  0  0  0  0
   -5.9702   -0.2300    1.1432 C   0  0  0  0  0  0  0  0  0  0  0  0
   -6.7489    0.7827   -0.9075 C   0  0  0  0  0  0  0  0  0  0  0  0
   -7.2481   -0.1079    1.6887 C   0  0  0  0  0  0  0  0  0  0  0  0
   -8.0268    0.9047   -0.3620 C   0  0  0  0  0  0  0  0  0  0  0  0
   -8.2764    0.4595    0.9360 C   0  0  0  0  0  0  0  0  0  0  0  0
    3.9233   -1.6064   -1.9614 H   0  0  0  0  0  0  0  0  0  0  0  0
    2.1553   -0.1213   -2.4109 H   0  0  0  0  0  0  0  0  0  0  0  0
    2.1572   -3.1151   -1.7708 H   0  0  0  0  0  0  0  0  0  0  0  0
    3.1318   -3.4812   -0.3568 H   0  0  0  0  0  0  0  0  0  0  0  0
    1.3203    0.1336    0.5373 H   0  0  0  0  0  0  0  0  0  0  0  0
    0.4708    0.6390   -0.9090 H   0  0  0  0  0  0  0  0  0  0  0  0
    1.5689   -2.2280    1.0932 H   0  0  0  0  0  0  0  0  0  0  0  0
    0.7252   -3.4413    0.1263 H   0  0  0  0  0  0  0  0  0  0  0  0
    5.1616   -2.7721    0.7180 H   0  0  0  0  0  0  0  0  0  0  0  0
    6.0694   -1.8002   -0.4502 H   0  0  0  0  0  0  0  0  0  0  0  0
    7.0052   -1.4955    1.8107 H   0  0  0  0  0  0  0  0  0  0  0  0
    5.4256   -1.0400    2.4618 H   0  0  0  0  0  0  0  0  0  0  0  0
   -0.7232   -0.8544    1.1922 H   0  0  0  0  0  0  0  0  0  0  0  0
   -1.2314   -2.3674    0.4494 H   0  0  0  0  0  0  0  0  0  0  0  0
    2.5139    2.7139   -1.7406 H   0  0  0  0  0  0  0  0  0  0  0  0
    6.0641    3.1184    0.6524 H   0  0  0  0  0  0  0  0  0  0  0  0
    4.3037    4.1130   -0.7253 H   0  0  0  0  0  0  0  0  0  0  0  0
   -1.6006    0.3468   -0.9109 H   0  0  0  0  0  0  0  0  0  0  0  0
   -2.0651   -1.2192   -1.5551 H   0  0  0  0  0  0  0  0  0  0  0  0
    7.9036    1.7937    1.3112 H   0  0  0  0  0  0  0  0  0  0  0  0
    6.8615    1.7550    2.7606 H   0  0  0  0  0  0  0  0  0  0  0  0
    8.0278    0.4621    2.4538 H   0  0  0  0  0  0  0  0  0  0  0  0
   -3.1129    0.0811    1.0053 H   0  0  0  0  0  0  0  0  0  0  0  0
   -3.5790   -1.5410    0.4104 H   0  0  0  0  0  0  0  0  0  0  0  0
   -5.2017   -0.6751    1.7666 H   0  0  0  0  0  0  0  0  0  0  0  0
   -6.5795    1.1375   -1.9206 H   0  0  0  0  0  0  0  0  0  0  0  0
   -7.4434   -0.4536    2.6996 H   0  0  0  0  0  0  0  0  0  0  0  0
   -8.8278    1.3465   -0.9473 H   0  0  0  0  0  0  0  0  0  0  0  0
  1 29  1  0  0  0  0
  2 23  2  0  0  0  0
  3  6  1  0  0  0  0
  3 11  1  0  0  0  0
  3 13  1  0  0  0  0
  4  9  1  0  0  0  0
  4 12  1  0  0  0  0
  4 16  1  0  0  0  0
  5 14  1  0  0  0  0
  5 15  1  0  0  0  0
  5 21  1  0  0  0  0
  6  7  1  0  0  0  0
  6  8  1  0  0  0  0
  6 30  1  0  0  0  0
  7  9  1  0  0  0  0
  7 10  1  0  0  0  0
  7 31  1  0  0  0  0
  8 12  1  0  0  0  0
  8 32  1  0  0  0  0
  8 33  1  0  0  0  0
  9 34  1  0  0  0  0
  9 35  1  0  0  0  0
 10 11  2  0  0  0  0
 10 17  1  0  0  0  0
 11 14  1  0  0  0  0
 12 36  1  0  0  0  0
 12 37  1  0  0  0  0
 13 15  1  0  0  0  0
 13 38  1  0  0  0  0
 13 39  1  0  0  0  0
 14 18  2  0  0  0  0
 15 40  1  0  0  0  0
 15 41  1  0  0  0  0
 16 20  1  0  0  0  0
 16 42  1  0  0  0  0
 16 43  1  0  0  0  0
 17 19  2  0  0  0  0
 17 44  1  0  0  0  0
 18 19  1  0  0  0  0
 18 45  1  0  0  0  0
 19 46  1  0  0  0  0
 20 22  1  0  0  0  0
 20 47  1  0  0  0  0
 20 48  1  0  0  0  0
 21 49  1  0  0  0  0
 21 50  1  0  0  0  0
 21 51  1  0  0  0  0
 22 23  1  0  0  0  0
 22 52  1  0  0  0  0
 22 53  1  0  0  0  0
 23 24  1  0  0  0  0
 24 25  2  0  0  0  0
 24 26  1  0  0  0  0
 25 27  1  0  0  0  0
 25 54  1  0  0  0  0
 26 28  2  0  0  0  0
 26 55  1  0  0  0  0
 27 29  2  0  0  0  0
 27 56  1  0  0  0  0
 28 29  1  0  0  0  0
 28 57  1  0  0  0  0
M  END
> <DATABASE_ID>
DB06077

> <DATABASE_NAME>
drugbank

> <ORIGINAL_SOURCE>
PUBCHEM

> <ORIGINAL_SOURCE_URL>
https://pubchem.ncbi.nlm.nih.gov/rest/pug/compound/inchikey/HOIIHACBCFLJET-SFTDATJTSA-N/SDF?record_type=3d

> <SMILES>
[H][C@]12CCN(CCCC(=O)C3=CC=C(F)C=C3)C[C@@]1([H])C1=CC=CC3=C1N2CCN3C

> <INCHI_IDENTIFIER>
InChI=1S/C24H28FN3O/c1-26-14-15-28-21-11-13-27(16-20(21)19-4-2-5-22(26)24(19)28)12-3-6-23(29)17-7-9-18(25)10-8-17/h2,4-5,7-10,20-21H,3,6,11-16H2,1H3/t20-,21-/m0/s1

> <INCHI_KEY>
HOIIHACBCFLJET-SFTDATJTSA-N

> <FORMULA>
C24H28FN3O

> <MOLECULAR_WEIGHT>
393.506

> <EXACT_MASS>
393.221640697

> <JCHEM_ACCEPTOR_COUNT>
4

> <JCHEM_ATOM_COUNT>
57

> <JCHEM_AVERAGE_NEUTRAL_MICROSPECIES_CHARGE>
1.9993109906877498

> <JCHEM_AVERAGE_POLARIZABILITY>
44.267216086786576

> <JCHEM_BIOAVAILABILITY>
1

> <JCHEM_DONOR_COUNT>
0

> <JCHEM_FORMAL_CHARGE>
0

> <JCHEM_GHOSE_FILTER>
1

> <JCHEM_IUPAC>
1-(4-fluorophenyl)-4-[(10R,15S)-4-methyl-1,4,12-triazatetracyclo[7.6.1.0^{5,16}.0^{10,15}]hexadeca-5(16),6,8-trien-12-yl]butan-1-one

> <ALOGPS_LOGP>
3.87

> <JCHEM_LOGP>
3.5850946679999995

> <ALOGPS_LOGS>
-3.69

> <JCHEM_MDDR_LIKE_RULE>
0

> <JCHEM_NEUTRAL_CHARGE>
1

> <JCHEM_NUMBER_OF_RINGS>
5

> <JCHEM_PHYSIOLOGICAL_CHARGE>
1

> <JCHEM_PKA_STRONGEST_ACIDIC>
16.614662723599498

> <JCHEM_PKA_STRONGEST_BASIC>
8.465747281207197

> <JCHEM_POLAR_SURFACE_AREA>
26.790000000000006

> <JCHEM_REFRACTIVITY>
116.42319999999998

> <JCHEM_ROTATABLE_BOND_COUNT>
5

> <JCHEM_RULE_OF_FIVE>
1

> <ALOGPS_SOLUBILITY>
8.05e-02 g/l

> <JCHEM_TRADITIONAL_IUPAC>
1-(4-fluorophenyl)-4-[(10R,15S)-4-methyl-1,4,12-triazatetracyclo[7.6.1.0^{5,16}.0^{10,15}]hexadeca-5(16),6,8-trien-12-yl]butan-1-one

> <JCHEM_VEBER_RULE>
1

> <DRUGBANK_ID>
DB06077

> <DRUG_GROUPS>
approved; investigational

> <GENERIC_NAME>
Lumateperone

> <SYNONYMS>
Lumateperone

> <SALTS>
Lumateperone tosylate

$$$$
