3055171
  -OEChem-10061700063D

 46 49  0     1  0  0  0  0  0999 V2000
   -3.6604   -2.6897   -1.0765 F   0  0  0  0  0  0  0  0  0  0  0  0
   -1.0490   -2.1329   -0.8459 O   0  0  0  0  0  0  0  0  0  0  0  0
   -2.1029    3.3146    0.1623 O   0  0  0  0  0  0  0  0  0  0  0  0
    2.1619   -0.3201   -0.3078 N   0  0  0  0  0  0  0  0  0  0  0  0
   -2.0815    2.4517    2.2868 N   0  0  0  0  0  0  0  0  0  0  0  0
    2.3661   -0.6033    1.0849 C   0  0  0  0  0  0  0  0  0  0  0  0
    2.6121    1.0141   -0.6267 C   0  0  0  0  0  0  0  0  0  0  0  0
    3.8497   -0.4302    1.4712 C   0  0  0  0  0  0  0  0  0  0  0  0
    2.5611   -2.1160    1.3186 C   0  0  0  0  0  0  0  0  0  0  0  0
    2.4608    1.3014   -2.1350 C   0  0  0  0  0  0  0  0  0  0  0  0
    4.1382    1.0435   -0.8521 C   0  0  0  0  0  0  0  0  0  0  0  0
    0.7573   -0.4864   -0.6632 C   0  0  2  0  0  0  0  0  0  0  0  0
    3.7148   -1.7418    2.2725 C   0  0  0  0  0  0  0  0  0  0  0  0
    3.8628    1.9429   -2.0753 C   0  0  0  0  0  0  0  0  0  0  0  0
   -0.1140    0.4640    0.1577 C   0  0  0  0  0  0  0  0  0  0  0  0
    0.2975   -1.9185   -0.4043 C   0  0  0  0  0  0  0  0  0  0  0  0
   -1.5645    0.0964    0.0105 C   0  0  0  0  0  0  0  0  0  0  0  0
   -1.9439   -1.1665   -0.4639 C   0  0  0  0  0  0  0  0  0  0  0  0
   -2.5576    1.0139    0.3784 C   0  0  0  0  0  0  0  0  0  0  0  0
   -3.2960   -1.4891   -0.6047 C   0  0  0  0  0  0  0  0  0  0  0  0
   -3.9072    0.6847    0.2488 C   0  0  0  0  0  0  0  0  0  0  0  0
   -4.2760   -0.5644   -0.2462 C   0  0  0  0  0  0  0  0  0  0  0  0
   -2.2292    2.3316    0.9099 C   0  0  0  0  0  0  0  0  0  0  0  0
    1.7474   -0.1097    1.8387 H   0  0  0  0  0  0  0  0  0  0  0  0
    2.2607    1.8290    0.0204 H   0  0  0  0  0  0  0  0  0  0  0  0
    4.0969    0.4515    2.0688 H   0  0  0  0  0  0  0  0  0  0  0  0
    4.6356   -0.6087    0.7346 H   0  0  0  0  0  0  0  0  0  0  0  0
    2.9075   -2.7024    0.4586 H   0  0  0  0  0  0  0  0  0  0  0  0
    1.7785   -2.6678    1.8450 H   0  0  0  0  0  0  0  0  0  0  0  0
    1.6500    1.9803   -2.4137 H   0  0  0  0  0  0  0  0  0  0  0  0
    2.4407    0.4299   -2.8020 H   0  0  0  0  0  0  0  0  0  0  0  0
    4.6113    0.1083   -1.1775 H   0  0  0  0  0  0  0  0  0  0  0  0
    4.7492    1.5322   -0.0885 H   0  0  0  0  0  0  0  0  0  0  0  0
    0.5812   -0.2970   -1.7300 H   0  0  0  0  0  0  0  0  0  0  0  0
    4.5813   -2.4079    2.2569 H   0  0  0  0  0  0  0  0  0  0  0  0
    3.3988   -1.5920    3.3115 H   0  0  0  0  0  0  0  0  0  0  0  0
    4.5020    1.7761   -2.9459 H   0  0  0  0  0  0  0  0  0  0  0  0
    3.8476    3.0139   -1.8418 H   0  0  0  0  0  0  0  0  0  0  0  0
    0.0324    1.4892   -0.2018 H   0  0  0  0  0  0  0  0  0  0  0  0
    0.0661    0.4555    1.2332 H   0  0  0  0  0  0  0  0  0  0  0  0
    0.9237   -2.6414   -0.9376 H   0  0  0  0  0  0  0  0  0  0  0  0
    0.2649   -2.1795    0.6532 H   0  0  0  0  0  0  0  0  0  0  0  0
   -4.6818    1.3940    0.5298 H   0  0  0  0  0  0  0  0  0  0  0  0
   -5.3265   -0.8192   -0.3506 H   0  0  0  0  0  0  0  0  0  0  0  0
   -2.1874    1.6586    2.9115 H   0  0  0  0  0  0  0  0  0  0  0  0
   -1.8591    3.3456    2.7119 H   0  0  0  0  0  0  0  0  0  0  0  0
  1 20  1  0  0  0  0
  2 16  1  0  0  0  0
  2 18  1  0  0  0  0
  3 23  2  0  0  0  0
  4  6  1  0  0  0  0
  4  7  1  0  0  0  0
  4 12  1  0  0  0  0
  5 23  1  0  0  0  0
  5 45  1  0  0  0  0
  5 46  1  0  0  0  0
  6  8  1  0  0  0  0
  6  9  1  0  0  0  0
  6 24  1  0  0  0  0
  7 10  1  0  0  0  0
  7 11  1  0  0  0  0
  7 25  1  0  0  0  0
  8 13  1  0  0  0  0
  8 26  1  0  0  0  0
  8 27  1  0  0  0  0
  9 13  1  0  0  0  0
  9 28  1  0  0  0  0
  9 29  1  0  0  0  0
 10 14  1  0  0  0  0
 10 30  1  0  0  0  0
 10 31  1  0  0  0  0
 11 14  1  0  0  0  0
 11 32  1  0  0  0  0
 11 33  1  0  0  0  0
 12 15  1  0  0  0  0
 12 16  1  0  0  0  0
 12 34  1  0  0  0  0
 13 35  1  0  0  0  0
 13 36  1  0  0  0  0
 14 37  1  0  0  0  0
 14 38  1  0  0  0  0
 15 17  1  0  0  0  0
 15 39  1  0  0  0  0
 15 40  1  0  0  0  0
 16 41  1  0  0  0  0
 16 42  1  0  0  0  0
 17 18  1  0  0  0  0
 17 19  2  0  0  0  0
 18 20  2  0  0  0  0
 19 21  1  0  0  0  0
 19 23  1  0  0  0  0
 20 22  1  0  0  0  0
 21 22  2  0  0  0  0
 21 43  1  0  0  0  0
 22 44  1  0  0  0  0
M  END
> <DATABASE_ID>
DB06538

> <DATABASE_NAME>
drugbank

> <ORIGINAL_SOURCE>
PUBCHEM

> <ORIGINAL_SOURCE_URL>
https://pubchem.ncbi.nlm.nih.gov/rest/pug/compound/inchikey/MQTUXRKNJYPMCG-CYBMUJFWSA-N/SDF?record_type=3d

> <SMILES>
NC(=O)C1=C2C[C@H](COC2=C(F)C=C1)N(C1CCC1)C1CCC1

> <INCHI_IDENTIFIER>
InChI=1S/C18H23FN2O2/c19-16-8-7-14(18(20)22)15-9-13(10-23-17(15)16)21(11-3-1-4-11)12-5-2-6-12/h7-8,11-13H,1-6,9-10H2,(H2,20,22)/t13-/m1/s1

> <INCHI_KEY>
MQTUXRKNJYPMCG-CYBMUJFWSA-N

> <FORMULA>
C18H23FN2O2

> <MOLECULAR_WEIGHT>
318.392

> <EXACT_MASS>
318.174356152

> <JCHEM_ACCEPTOR_COUNT>
3

> <JCHEM_ATOM_COUNT>
46

> <JCHEM_AVERAGE_POLARIZABILITY>
33.10353022801436

> <JCHEM_BIOAVAILABILITY>
1

> <JCHEM_DONOR_COUNT>
1

> <JCHEM_FORMAL_CHARGE>
0

> <JCHEM_GHOSE_FILTER>
1

> <JCHEM_IUPAC>
(3R)-3-(dicyclobutylamino)-8-fluoro-3,4-dihydro-2H-1-benzopyran-5-carboxamide

> <ALOGPS_LOGP>
3.26

> <JCHEM_LOGP>
2.7474832829999998

> <ALOGPS_LOGS>
-3.42

> <JCHEM_MDDR_LIKE_RULE>
0

> <JCHEM_NUMBER_OF_RINGS>
4

> <JCHEM_PHYSIOLOGICAL_CHARGE>
1

> <JCHEM_PKA_STRONGEST_ACIDIC>
14.23054170425625

> <JCHEM_PKA_STRONGEST_BASIC>
8.79755152861938

> <JCHEM_POLAR_SURFACE_AREA>
55.56000000000001

> <JCHEM_REFRACTIVITY>
86.43930000000002

> <JCHEM_ROTATABLE_BOND_COUNT>
4

> <JCHEM_RULE_OF_FIVE>
1

> <ALOGPS_SOLUBILITY>
1.22e-01 g/l

> <JCHEM_TRADITIONAL_IUPAC>
robalzotan

> <JCHEM_VEBER_RULE>
0

> <DRUGBANK_ID>
DB06538

> <DRUG_GROUPS>
investigational

> <GENERIC_NAME>
Robalzotan

> <SYNONYMS>
(R)-3-(Dicyclobutylamino)-8-fluoro-5-chromancarboxamide; Robalzotan

$$$$
