12000797
  -OEChem-09151814023D

 52 55  0     0  0  0  0  0  0999 V2000
    0.4817   -0.7055    1.5762 O   0  0  0  0  0  0  0  0  0  0  0  0
   -6.8506   -0.1821   -0.9766 O   0  0  0  0  0  0  0  0  0  0  0  0
    1.0423   -0.1812   -0.6131 N   0  0  0  0  0  0  0  0  0  0  0  0
   -1.1442   -0.6360   -0.0797 N   0  0  0  0  0  0  0  0  0  0  0  0
   -4.6709    0.2695   -0.3106 N   0  0  0  0  0  0  0  0  0  0  0  0
    2.4595    0.0005   -0.3873 C   0  0  0  0  0  0  0  0  0  0  0  0
    4.6752    0.5668   -1.4730 C   0  0  0  0  0  0  0  0  0  0  0  0
    4.2027    1.3248    0.8841 C   0  0  0  0  0  0  0  0  0  0  0  0
    4.5880   -1.1192    0.3997 C   0  0  0  0  0  0  0  0  0  0  0  0
    3.1671    0.3755   -1.7084 C   0  0  0  0  0  0  0  0  0  0  0  0
    2.6964    1.1306    0.6390 C   0  0  0  0  0  0  0  0  0  0  0  0
    3.0802   -1.3044    0.1568 C   0  0  0  0  0  0  0  0  0  0  0  0
    4.8879    1.6896   -0.4437 C   0  0  0  0  0  0  0  0  0  0  0  0
    5.2712   -0.7415   -0.9257 C   0  0  0  0  0  0  0  0  0  0  0  0
    4.8008    0.0127    1.4192 C   0  0  0  0  0  0  0  0  0  0  0  0
    0.1567   -0.5242    0.4036 C   0  0  0  0  0  0  0  0  0  0  0  0
   -2.2711   -0.9818    0.7559 C   0  0  0  0  0  0  0  0  0  0  0  0
   -2.8879    0.2690    1.3926 C   0  0  0  0  0  0  0  0  0  0  0  0
   -3.3238   -1.7771   -0.0261 C   0  0  0  0  0  0  0  0  0  0  0  0
   -3.6816    1.1012    0.3845 C   0  0  0  0  0  0  0  0  0  0  0  0
   -4.1161   -0.8994   -0.9951 C   0  0  0  0  0  0  0  0  0  0  0  0
   -6.0382    0.5337   -0.3852 C   0  0  0  0  0  0  0  0  0  0  0  0
   -6.5252    1.7786    0.3127 C   0  0  0  0  0  0  0  0  0  0  0  0
    5.1664    0.8313   -2.4160 H   0  0  0  0  0  0  0  0  0  0  0  0
    4.3590    2.1278    1.6130 H   0  0  0  0  0  0  0  0  0  0  0  0
    5.0184   -2.0504    0.7846 H   0  0  0  0  0  0  0  0  0  0  0  0
    2.7354    1.2961   -2.1230 H   0  0  0  0  0  0  0  0  0  0  0  0
    3.0047   -0.4066   -2.4618 H   0  0  0  0  0  0  0  0  0  0  0  0
    2.2168    0.9235    1.6015 H   0  0  0  0  0  0  0  0  0  0  0  0
    2.2554    2.0684    0.2755 H   0  0  0  0  0  0  0  0  0  0  0  0
    2.9172   -2.1249   -0.5549 H   0  0  0  0  0  0  0  0  0  0  0  0
    2.6192   -1.6231    1.0975 H   0  0  0  0  0  0  0  0  0  0  0  0
    5.9608    1.8490   -0.2798 H   0  0  0  0  0  0  0  0  0  0  0  0
    4.4810    2.6327   -0.8286 H   0  0  0  0  0  0  0  0  0  0  0  0
    5.1401   -1.5478   -1.6578 H   0  0  0  0  0  0  0  0  0  0  0  0
    6.3508   -0.6248   -0.7704 H   0  0  0  0  0  0  0  0  0  0  0  0
    5.8721    0.1426    1.6160 H   0  0  0  0  0  0  0  0  0  0  0  0
    4.3312   -0.2508    2.3750 H   0  0  0  0  0  0  0  0  0  0  0  0
    0.6746   -0.0557   -1.5514 H   0  0  0  0  0  0  0  0  0  0  0  0
   -1.3143   -0.3954   -1.0512 H   0  0  0  0  0  0  0  0  0  0  0  0
   -1.8898   -1.6213    1.5617 H   0  0  0  0  0  0  0  0  0  0  0  0
   -2.1140    0.8930    1.8548 H   0  0  0  0  0  0  0  0  0  0  0  0
   -3.5672   -0.0470    2.1950 H   0  0  0  0  0  0  0  0  0  0  0  0
   -4.0247   -2.2248    0.6905 H   0  0  0  0  0  0  0  0  0  0  0  0
   -2.8545   -2.6015   -0.5757 H   0  0  0  0  0  0  0  0  0  0  0  0
   -4.1465    1.9422    0.9018 H   0  0  0  0  0  0  0  0  0  0  0  0
   -3.0165    1.5216   -0.3791 H   0  0  0  0  0  0  0  0  0  0  0  0
   -3.4754   -0.5316   -1.8045 H   0  0  0  0  0  0  0  0  0  0  0  0
   -4.9111   -1.4924   -1.4584 H   0  0  0  0  0  0  0  0  0  0  0  0
   -6.0380    2.6631   -0.1060 H   0  0  0  0  0  0  0  0  0  0  0  0
   -6.3359    1.7074    1.3871 H   0  0  0  0  0  0  0  0  0  0  0  0
   -7.6044    1.8815    0.1623 H   0  0  0  0  0  0  0  0  0  0  0  0
  1 16  2  0  0  0  0
  2 22  2  0  0  0  0
  3  6  1  0  0  0  0
  3 16  1  0  0  0  0
  3 39  1  0  0  0  0
  4 16  1  0  0  0  0
  4 17  1  0  0  0  0
  4 40  1  0  0  0  0
  5 20  1  0  0  0  0
  5 21  1  0  0  0  0
  5 22  1  0  0  0  0
  6 10  1  0  0  0  0
  6 11  1  0  0  0  0
  6 12  1  0  0  0  0
  7 10  1  0  0  0  0
  7 13  1  0  0  0  0
  7 14  1  0  0  0  0
  7 24  1  0  0  0  0
  8 11  1  0  0  0  0
  8 13  1  0  0  0  0
  8 15  1  0  0  0  0
  8 25  1  0  0  0  0
  9 12  1  0  0  0  0
  9 14  1  0  0  0  0
  9 15  1  0  0  0  0
  9 26  1  0  0  0  0
 10 27  1  0  0  0  0
 10 28  1  0  0  0  0
 11 29  1  0  0  0  0
 11 30  1  0  0  0  0
 12 31  1  0  0  0  0
 12 32  1  0  0  0  0
 13 33  1  0  0  0  0
 13 34  1  0  0  0  0
 14 35  1  0  0  0  0
 14 36  1  0  0  0  0
 15 37  1  0  0  0  0
 15 38  1  0  0  0  0
 17 18  1  0  0  0  0
 17 19  1  0  0  0  0
 17 41  1  0  0  0  0
 18 20  1  0  0  0  0
 18 42  1  0  0  0  0
 18 43  1  0  0  0  0
 19 21  1  0  0  0  0
 19 44  1  0  0  0  0
 19 45  1  0  0  0  0
 20 46  1  0  0  0  0
 20 47  1  0  0  0  0
 21 48  1  0  0  0  0
 21 49  1  0  0  0  0
 22 23  1  0  0  0  0
 23 50  1  0  0  0  0
 23 51  1  0  0  0  0
 23 52  1  0  0  0  0
M  END
> <DATABASE_ID>
DB06345

> <DATABASE_NAME>
drugbank

> <ORIGINAL_SOURCE>
PUBCHEM

> <ORIGINAL_SOURCE_URL>
https://pubchem.ncbi.nlm.nih.gov/rest/pug/compound/inchikey/HUDQLWBKJOMXSZ-UHFFFAOYSA-N/SDF?record_type=3d

> <SMILES>
CC(=O)N1CCC(CC1)NC(=O)NC12CC3CC(CC(C3)C1)C2

> <INCHI_IDENTIFIER>
InChI=1S/C18H29N3O2/c1-12(22)21-4-2-16(3-5-21)19-17(23)20-18-9-13-6-14(10-18)8-15(7-13)11-18/h13-16H,2-11H2,1H3,(H2,19,20,23)

> <INCHI_KEY>
HUDQLWBKJOMXSZ-UHFFFAOYSA-N

> <FORMULA>
C18H29N3O2

> <MOLECULAR_WEIGHT>
319.449

> <EXACT_MASS>
319.225977186

> <JCHEM_ACCEPTOR_COUNT>
2

> <JCHEM_ATOM_COUNT>
52

> <JCHEM_AVERAGE_POLARIZABILITY>
36.238350216936354

> <JCHEM_BIOAVAILABILITY>
1

> <JCHEM_DONOR_COUNT>
2

> <JCHEM_FORMAL_CHARGE>
0

> <JCHEM_GHOSE_FILTER>
1

> <JCHEM_IUPAC>
1-(1-acetylpiperidin-4-yl)-3-(adamantan-1-yl)urea

> <ALOGPS_LOGP>
1.84

> <JCHEM_LOGP>
0.4286251479999995

> <ALOGPS_LOGS>
-3.33

> <JCHEM_MDDR_LIKE_RULE>
0

> <JCHEM_NUMBER_OF_RINGS>
4

> <JCHEM_PHYSIOLOGICAL_CHARGE>
0

> <JCHEM_PKA_STRONGEST_ACIDIC>
15.076107260504699

> <JCHEM_PKA_STRONGEST_BASIC>
0.3341514387405481

> <JCHEM_POLAR_SURFACE_AREA>
61.440000000000005

> <JCHEM_REFRACTIVITY>
88.27509999999998

> <JCHEM_ROTATABLE_BOND_COUNT>
2

> <JCHEM_RULE_OF_FIVE>
1

> <ALOGPS_SOLUBILITY>
1.48e-01 g/l

> <JCHEM_TRADITIONAL_IUPAC>
1-(1-acetylpiperidin-4-yl)-3-(adamantan-1-yl)urea

> <JCHEM_VEBER_RULE>
0

> <DRUGBANK_ID>
DB06345

> <DRUG_GROUPS>
investigational

> <GENERIC_NAME>
AR-9281

> <SYNONYMS>
APAU

$$$$
