6918242
  -OEChem-10051720493D

 51 53  0     1  0  0  0  0  0999 V2000
   -0.0936    0.9641   -1.7690 S   0  0  0  0  0  0  0  0  0  0  0  0
    7.0348   -0.3008    0.8975 S   0  0  0  0  0  0  0  0  0  0  0  0
   -5.2146    1.5500    0.5102 O   0  0  0  0  0  0  0  0  0  0  0  0
   -5.1989   -1.6974    2.1437 O   0  0  0  0  0  0  0  0  0  0  0  0
   -2.6547    3.4182   -0.3868 O   0  5  0  0  0  0  0  0  0  0  0  0
   -1.1780    2.8696    1.2721 O   0  0  0  0  0  0  0  0  0  0  0  0
    6.5654    0.7776    1.7468 O   0  0  0  0  0  0  0  0  0  0  0  0
    7.8679   -1.3565    1.4409 O   0  0  0  0  0  0  0  0  0  0  0  0
   -3.1542    0.4063    0.5750 N   0  0  0  0  0  0  0  0  0  0  0  0
    2.7970   -0.6042    0.5090 N   0  3  0  0  0  0  0  0  0  0  0  0
    5.6784   -1.0271    0.0955 N   0  0  0  0  0  0  0  0  0  0  0  0
    7.8407    0.3928   -0.4498 N   0  0  0  0  0  0  0  0  0  0  0  0
   -3.1022   -0.9929    0.1104 C   0  0  1  0  0  0  0  0  0  0  0  0
   -4.6523   -0.8812   -0.0488 C   0  0  2  0  0  0  0  0  0  0  0  0
   -2.0183   -0.9751   -0.9857 C   0  0  2  0  0  0  0  0  0  0  0  0
   -4.4935    0.5824    0.4193 C   0  0  0  0  0  0  0  0  0  0  0  0
   -1.4547    0.4299   -0.8659 C   0  0  0  0  0  0  0  0  0  0  0  0
   -2.1649    1.1565    0.0067 C   0  0  0  0  0  0  0  0  0  0  0  0
    1.1600   -0.1975   -1.1716 C   0  0  1  0  0  0  0  0  0  0  0  0
   -5.6133   -1.6993    0.7764 C   0  0  1  0  0  0  0  0  0  0  0  0
    3.4467   -0.7371   -0.8452 C   0  0  1  0  0  0  0  0  0  0  0  0
    2.5353    0.0649   -1.7667 C   0  0  0  0  0  0  0  0  0  0  0  0
    1.4040   -0.0616    0.3217 C   0  0  0  0  0  0  0  0  0  0  0  0
   -2.5273   -1.3296   -2.3732 C   0  0  0  0  0  0  0  0  0  0  0  0
    4.8748   -0.2332   -0.7904 C   0  0  0  0  0  0  0  0  0  0  0  0
   -5.7037   -3.1458    0.2986 C   0  0  0  0  0  0  0  0  0  0  0  0
   -1.9810    2.6272    0.3293 C   0  0  0  0  0  0  0  0  0  0  0  0
   -2.8041   -1.6593    0.9328 H   0  0  0  0  0  0  0  0  0  0  0  0
   -4.9701   -0.9037   -1.1013 H   0  0  0  0  0  0  0  0  0  0  0  0
   -1.2480   -1.7037   -0.7046 H   0  0  0  0  0  0  0  0  0  0  0  0
    0.8590   -1.2226   -1.4187 H   0  0  0  0  0  0  0  0  0  0  0  0
    3.4040   -1.8049   -1.0935 H   0  0  0  0  0  0  0  0  0  0  0  0
   -6.6180   -1.2623    0.7350 H   0  0  0  0  0  0  0  0  0  0  0  0
    2.7928    1.1317   -1.7347 H   0  0  0  0  0  0  0  0  0  0  0  0
    2.6145   -0.2726   -2.8055 H   0  0  0  0  0  0  0  0  0  0  0  0
    0.7277   -0.6572    0.9410 H   0  0  0  0  0  0  0  0  0  0  0  0
    1.4338    0.9759    0.6716 H   0  0  0  0  0  0  0  0  0  0  0  0
    2.7675   -1.5213    0.9755 H   0  0  0  0  0  0  0  0  0  0  0  0
    3.3337    0.0179    1.1292 H   0  0  0  0  0  0  0  0  0  0  0  0
   -1.7053   -1.3951   -3.0934 H   0  0  0  0  0  0  0  0  0  0  0  0
   -3.0384   -2.2983   -2.3582 H   0  0  0  0  0  0  0  0  0  0  0  0
   -3.2394   -0.5848   -2.7452 H   0  0  0  0  0  0  0  0  0  0  0  0
    4.8796    0.8168   -0.4749 H   0  0  0  0  0  0  0  0  0  0  0  0
    5.3092   -0.2746   -1.7958 H   0  0  0  0  0  0  0  0  0  0  0  0
   -4.7285   -3.6402    0.3690 H   0  0  0  0  0  0  0  0  0  0  0  0
   -6.3965   -3.7155    0.9267 H   0  0  0  0  0  0  0  0  0  0  0  0
   -6.0406   -3.1989   -0.7411 H   0  0  0  0  0  0  0  0  0  0  0  0
   -5.3032   -0.7926    2.4834 H   0  0  0  0  0  0  0  0  0  0  0  0
    5.8422   -1.9838   -0.2459 H   0  0  0  0  0  0  0  0  0  0  0  0
    7.3461    1.1644   -0.9178 H   0  0  0  0  0  0  0  0  0  0  0  0
    8.8272    0.6419   -0.2955 H   0  0  0  0  0  0  0  0  0  0  0  0
  1 17  1  0  0  0  0
  1 19  1  0  0  0  0
  2  7  2  0  0  0  0
  2  8  2  0  0  0  0
  2 11  1  0  0  0  0
  2 12  1  0  0  0  0
  3 16  2  0  0  0  0
  4 20  1  0  0  0  0
  4 48  1  0  0  0  0
  5 27  1  0  0  0  0
  6 27  2  0  0  0  0
  9 13  1  0  0  0  0
  9 16  1  0  0  0  0
  9 18  1  0  0  0  0
 10 21  1  0  0  0  0
 10 23  1  0  0  0  0
 10 38  1  0  0  0  0
 10 39  1  0  0  0  0
 11 25  1  0  0  0  0
 11 49  1  0  0  0  0
 12 50  1  0  0  0  0
 12 51  1  0  0  0  0
 13 14  1  0  0  0  0
 13 15  1  0  0  0  0
 13 28  1  0  0  0  0
 14 16  1  0  0  0  0
 14 20  1  0  0  0  0
 14 29  1  0  0  0  0
 15 17  1  0  0  0  0
 15 24  1  0  0  0  0
 15 30  1  0  0  0  0
 17 18  2  0  0  0  0
 18 27  1  0  0  0  0
 19 22  1  0  0  0  0
 19 23  1  0  0  0  0
 19 31  1  0  0  0  0
 20 26  1  0  0  0  0
 20 33  1  0  0  0  0
 21 22  1  0  0  0  0
 21 25  1  0  0  0  0
 21 32  1  0  0  0  0
 22 34  1  0  0  0  0
 22 35  1  0  0  0  0
 23 36  1  0  0  0  0
 23 37  1  0  0  0  0
 24 40  1  0  0  0  0
 24 41  1  0  0  0  0
 24 42  1  0  0  0  0
 25 43  1  0  0  0  0
 25 44  1  0  0  0  0
 26 45  1  0  0  0  0
 26 46  1  0  0  0  0
 26 47  1  0  0  0  0
M  CHG  2   5  -1  10   1
M  END
> <DATABASE_ID>
DB06211

> <DATABASE_NAME>
drugbank

> <ORIGINAL_SOURCE>
PUBCHEM

> <ORIGINAL_SOURCE_URL>
https://pubchem.ncbi.nlm.nih.gov/rest/pug/compound/inchikey/AVAACINZEOAHHE-VFZPANTDSA-N/SDF?record_type=3d

> <SMILES>
[H][C@]12[C@@H](C)C(S[C@]3([H])CN[C@H](CNS(N)(=O)=O)C3)=C(N1C(=O)[C@]2([H])[C@@H](C)O)C(O)=O

> <INCHI_IDENTIFIER>
InChI=1S/C15H24N4O6S2/c1-6-11-10(7(2)20)14(21)19(11)12(15(22)23)13(6)26-9-3-8(17-5-9)4-18-27(16,24)25/h6-11,17-18,20H,3-5H2,1-2H3,(H,22,23)(H2,16,24,25)/t6-,7-,8+,9+,10-,11-/m1/s1

> <INCHI_KEY>
AVAACINZEOAHHE-VFZPANTDSA-N

> <FORMULA>
C15H24N4O6S2

> <MOLECULAR_WEIGHT>
420.504

> <EXACT_MASS>
420.1137259

> <JCHEM_ACCEPTOR_COUNT>
8

> <JCHEM_AVERAGE_POLARIZABILITY>
42.368660999833374

> <JCHEM_BIOAVAILABILITY>
1

> <JCHEM_DONOR_COUNT>
5

> <JCHEM_FORMAL_CHARGE>
0

> <JCHEM_GHOSE_FILTER>
0

> <JCHEM_IUPAC>
(4R,5S,6S)-6-[(1R)-1-hydroxyethyl]-4-methyl-7-oxo-3-{[(3S,5S)-5-[(sulfamoylamino)methyl]pyrrolidin-3-yl]sulfanyl}-1-azabicyclo[3.2.0]hept-2-ene-2-carboxylic acid

> <ALOGPS_LOGP>
-1.27

> <JCHEM_LOGP>
-5.563863798594951

> <ALOGPS_LOGS>
-2.13

> <JCHEM_MDDR_LIKE_RULE>
1

> <JCHEM_NUMBER_OF_RINGS>
3

> <JCHEM_PHYSIOLOGICAL_CHARGE>
0

> <JCHEM_PKA>
11.074376003117276

> <JCHEM_PKA_STRONGEST_ACIDIC>
3.535050480248994

> <JCHEM_PKA_STRONGEST_BASIC>
9.514033058755267

> <JCHEM_POLAR_SURFACE_AREA>
162.05999999999997

> <JCHEM_REFRACTIVITY>
99.88020000000002

> <JCHEM_ROTATABLE_BOND_COUNT>
6

> <JCHEM_RULE_OF_FIVE>
1

> <ALOGPS_SOLUBILITY>
3.13e+00 g/l

> <JCHEM_TRADITIONAL_IUPAC>
doripenem

> <JCHEM_VEBER_RULE>
0

> <DRUGBANK_ID>
DB06211

> <DRUG_GROUPS>
approved; investigational

> <GENERIC_NAME>
Doripenem

> <SYNONYMS>
Doripenem

> <PRODUCTS>
Doribax; Doripenem

> <INTERNATIONAL_BRANDS>
Finibax

> <SALTS>
doripenem hydrate

$$$$
