9927346
  -OEChem-10061700053D

 45 46  0     1  0  0  0  0  0999 V2000
   -0.6242   -1.0069    0.8607 O   0  0  0  0  0  0  0  0  0  0  0  0
    1.9558    0.1483   -0.2633 O   0  0  0  0  0  0  0  0  0  0  0  0
   -0.6490   -3.7858    0.4341 O   0  0  0  0  0  0  0  0  0  0  0  0
    3.2855   -1.7233   -0.0622 O   0  0  0  0  0  0  0  0  0  0  0  0
   -2.3437    2.6753    0.3803 O   0  0  0  0  0  0  0  0  0  0  0  0
   -2.3661    0.3805    0.1395 N   0  0  0  0  0  0  0  0  0  0  0  0
    5.2221   -0.3142    1.2246 N   0  0  0  0  0  0  0  0  0  0  0  0
   -4.3807    1.7050    0.1335 N   0  0  0  0  0  0  0  0  0  0  0  0
   -6.4649    0.7043   -0.1178 N   0  0  0  0  0  0  0  0  0  0  0  0
    0.9426   -0.6405   -0.8828 C   0  0  1  0  0  0  0  0  0  0  0  0
    0.4150   -1.6667    0.1111 C   0  0  2  0  0  0  0  0  0  0  0  0
   -0.2611    0.2369   -1.1330 C   0  0  0  0  0  0  0  0  0  0  0  0
   -0.9416    0.2393    0.2262 C   0  0  2  0  0  0  0  0  0  0  0  0
   -0.1978   -2.8860   -0.5651 C   0  0  0  0  0  0  0  0  0  0  0  0
    4.0692    0.4460    0.7393 C   0  0  2  0  0  0  0  0  0  0  0  0
    3.0878   -0.5261    0.1013 C   0  0  0  0  0  0  0  0  0  0  0  0
    4.4626    1.5856   -0.2295 C   0  0  0  0  0  0  0  0  0  0  0  0
   -3.1363   -0.7580   -0.0322 C   0  0  0  0  0  0  0  0  0  0  0  0
   -3.0006    1.6442    0.2257 C   0  0  0  0  0  0  0  0  0  0  0  0
    5.0625    1.0296   -1.5255 C   0  0  0  0  0  0  0  0  0  0  0  0
    5.4219    2.6115    0.3856 C   0  0  0  0  0  0  0  0  0  0  0  0
   -4.4644   -0.7207   -0.1219 C   0  0  0  0  0  0  0  0  0  0  0  0
   -5.0945    0.6219   -0.0288 C   0  0  0  0  0  0  0  0  0  0  0  0
    1.3432   -1.0707   -1.8072 H   0  0  0  0  0  0  0  0  0  0  0  0
    1.1350   -2.0007    0.8621 H   0  0  0  0  0  0  0  0  0  0  0  0
   -0.9023   -0.2194   -1.8967 H   0  0  0  0  0  0  0  0  0  0  0  0
   -0.0126    1.2516   -1.4596 H   0  0  0  0  0  0  0  0  0  0  0  0
   -0.5280    1.0378    0.8536 H   0  0  0  0  0  0  0  0  0  0  0  0
    0.5569   -3.4010   -1.1687 H   0  0  0  0  0  0  0  0  0  0  0  0
   -1.0412   -2.6315   -1.2114 H   0  0  0  0  0  0  0  0  0  0  0  0
    3.5726    0.8760    1.6179 H   0  0  0  0  0  0  0  0  0  0  0  0
    3.5497    2.1305   -0.5045 H   0  0  0  0  0  0  0  0  0  0  0  0
   -2.6425   -1.7154   -0.0950 H   0  0  0  0  0  0  0  0  0  0  0  0
   -1.0225   -4.5581   -0.0237 H   0  0  0  0  0  0  0  0  0  0  0  0
    6.0048    0.5013   -1.3483 H   0  0  0  0  0  0  0  0  0  0  0  0
    4.3754    0.3466   -2.0343 H   0  0  0  0  0  0  0  0  0  0  0  0
    5.2750    1.8469   -2.2243 H   0  0  0  0  0  0  0  0  0  0  0  0
    5.0027    3.0245    1.3090 H   0  0  0  0  0  0  0  0  0  0  0  0
    6.3942    2.1665    0.6211 H   0  0  0  0  0  0  0  0  0  0  0  0
    5.5931    3.4436   -0.3057 H   0  0  0  0  0  0  0  0  0  0  0  0
    4.9113   -1.0294    1.8811 H   0  0  0  0  0  0  0  0  0  0  0  0
    5.6692   -0.8079    0.4536 H   0  0  0  0  0  0  0  0  0  0  0  0
   -5.0735   -1.6047   -0.2554 H   0  0  0  0  0  0  0  0  0  0  0  0
   -7.0462   -0.1178   -0.2437 H   0  0  0  0  0  0  0  0  0  0  0  0
   -6.9373    1.5999   -0.0592 H   0  0  0  0  0  0  0  0  0  0  0  0
  1 11  1  0  0  0  0
  1 13  1  0  0  0  0
  2 10  1  0  0  0  0
  2 16  1  0  0  0  0
  3 14  1  0  0  0  0
  3 34  1  0  0  0  0
  4 16  2  0  0  0  0
  5 19  2  0  0  0  0
  6 13  1  0  0  0  0
  6 18  1  0  0  0  0
  6 19  1  0  0  0  0
  7 15  1  0  0  0  0
  7 41  1  0  0  0  0
  7 42  1  0  0  0  0
  8 19  1  0  0  0  0
  8 23  2  0  0  0  0
  9 23  1  0  0  0  0
  9 44  1  0  0  0  0
  9 45  1  0  0  0  0
 10 11  1  0  0  0  0
 10 12  1  0  0  0  0
 10 24  1  0  0  0  0
 11 14  1  0  0  0  0
 11 25  1  0  0  0  0
 12 13  1  0  0  0  0
 12 26  1  0  0  0  0
 12 27  1  0  0  0  0
 13 28  1  0  0  0  0
 14 29  1  0  0  0  0
 14 30  1  0  0  0  0
 15 16  1  0  0  0  0
 15 17  1  0  0  0  0
 15 31  1  0  0  0  0
 17 20  1  0  0  0  0
 17 21  1  0  0  0  0
 17 32  1  0  0  0  0
 18 22  2  0  0  0  0
 18 33  1  0  0  0  0
 20 35  1  0  0  0  0
 20 36  1  0  0  0  0
 20 37  1  0  0  0  0
 21 38  1  0  0  0  0
 21 39  1  0  0  0  0
 21 40  1  0  0  0  0
 22 23  1  0  0  0  0
 22 43  1  0  0  0  0
M  END
> <DATABASE_ID>
DB06187

> <DATABASE_NAME>
drugbank

> <ORIGINAL_SOURCE>
PUBCHEM

> <ORIGINAL_SOURCE_URL>
https://pubchem.ncbi.nlm.nih.gov/rest/pug/compound/inchikey/VFCYZPOEGWLYRM-QCZKYFFMSA-N/SDF?record_type=3d

> <SMILES>
CC(C)[C@H](N)C(=O)O[C@@H]1C[C@H](O[C@H]1CO)N1C=CC(N)=NC1=O

> <INCHI_IDENTIFIER>
InChI=1S/C14H22N4O5/c1-7(2)12(16)13(20)23-8-5-11(22-9(8)6-19)18-4-3-10(15)17-14(18)21/h3-4,7-9,11-12,19H,5-6,16H2,1-2H3,(H2,15,17,21)/t8-,9+,11+,12+/m1/s1

> <INCHI_KEY>
VFCYZPOEGWLYRM-QCZKYFFMSA-N

> <FORMULA>
C14H22N4O5

> <MOLECULAR_WEIGHT>
326.353

> <EXACT_MASS>
326.159019824

> <JCHEM_ACCEPTOR_COUNT>
7

> <JCHEM_ATOM_COUNT>
45

> <JCHEM_AVERAGE_POLARIZABILITY>
33.437004355136395

> <JCHEM_BIOAVAILABILITY>
1

> <JCHEM_DONOR_COUNT>
3

> <JCHEM_FORMAL_CHARGE>
0

> <JCHEM_GHOSE_FILTER>
0

> <JCHEM_IUPAC>
(2S,3R,5S)-5-(4-amino-2-oxo-1,2-dihydropyrimidin-1-yl)-2-(hydroxymethyl)oxolan-3-yl (2S)-2-amino-3-methylbutanoate

> <ALOGPS_LOGP>
-1.05

> <JCHEM_LOGP>
-0.9236241900000005

> <ALOGPS_LOGS>
-1.72

> <JCHEM_MDDR_LIKE_RULE>
0

> <JCHEM_NUMBER_OF_RINGS>
2

> <JCHEM_PHYSIOLOGICAL_CHARGE>
1

> <JCHEM_PKA>
19.217242117407856

> <JCHEM_PKA_STRONGEST_ACIDIC>
14.588478954310006

> <JCHEM_PKA_STRONGEST_BASIC>
7.477596889673688

> <JCHEM_POLAR_SURFACE_AREA>
140.47

> <JCHEM_REFRACTIVITY>
79.03479999999999

> <JCHEM_ROTATABLE_BOND_COUNT>
6

> <JCHEM_RULE_OF_FIVE>
1

> <ALOGPS_SOLUBILITY>
6.19e+00 g/l

> <JCHEM_TRADITIONAL_IUPAC>
(2S,3R,5S)-5-(4-amino-2-oxopyrimidin-1-yl)-2-(hydroxymethyl)oxolan-3-yl (2S)-2-amino-3-methylbutanoate

> <JCHEM_VEBER_RULE>
0

> <DRUGBANK_ID>
DB06187

> <DRUG_GROUPS>
investigational

> <GENERIC_NAME>
Valtorcitabine

> <SYNONYMS>
Valtorcitabine

> <SALTS>
Valtorcitabine dihydrochloride

$$$$
