REMARK  Name = 6914564
REMARK  7 active torsions:
REMARK  status: ('A' for Active; 'I' for Inactive)
REMARK    1  A    between atoms: N_1  and  C_24
REMARK    2  A    between atoms: C_6  and  S_13
REMARK    3  A    between atoms: S_13  and  C_17
REMARK    4  A    between atoms: C_24  and  C_25
REMARK    5  A    between atoms: C_25  and  C_26
REMARK    6  A    between atoms: C_26  and  N_27
REMARK    7  A    between atoms: N_27  and  C_30
REMARK                            x       y       z     vdW  Elec       q    Type
REMARK                         _______ _______ _______ _____ _____    ______ ____
ROOT
ATOM      1  N   UNL     1      -1.229  -0.893  -0.655  0.00  0.00    -0.241 N 
ATOM      2  N   UNL     1       0.878  -1.118   0.037  0.00  0.00    -0.375 NA
ATOM      3  N   UNL     1      -1.999  -3.183  -0.400  0.00  0.00    -0.227 NA
ATOM      4  N   UNL     1      -0.224  -4.624   0.453  0.00  0.00    -0.227 NA
ATOM      5  C   UNL     1      -1.078  -2.210  -0.326  0.00  0.00    +0.168 C 
ATOM      6  C   UNL     1      -0.033  -0.316  -0.414  0.00  0.00    +0.220 C 
ATOM      7  C   UNL     1       0.235  -2.329   0.101  0.00  0.00    +0.196 C 
ATOM      8  C   UNL     1       0.654  -3.594   0.501  0.00  0.00    +0.155 C 
ATOM      9  C   UNL     1      -1.478  -4.359   0.012  0.00  0.00    +0.253 C 
ATOM     10  N   UNL     1       1.969  -3.806   0.949  0.00  0.00    -0.341 N 
ATOM     11  H   UNL     1       2.255  -4.705   1.229  0.00  0.00    +0.144 HD
ATOM     12  H   UNL     1       2.605  -3.055   0.982  0.00  0.00    +0.144 HD
ENDROOT
BRANCH   6  13
ATOM     13  S   UNL     1       0.224   1.409  -0.708  0.00  0.00    -0.039 S 
BRANCH  13  17
ATOM     14 BR   UNL     1       1.089   2.077   2.523  0.00  0.00    -0.048 Br
ATOM     15  O   UNL     1       5.290   1.129  -1.659  0.00  0.00    -0.435 OA
ATOM     16  O   UNL     1       5.966   1.597   0.606  0.00  0.00    -0.435 OA
ATOM     17  C   UNL     1       1.943   1.488  -0.201  0.00  0.00    +0.042 C 
ATOM     18  C   UNL     1       2.897   1.263  -1.196  0.00  0.00    +0.047 C 
ATOM     19  C   UNL     1       4.227   1.319  -0.832  0.00  0.00    +0.177 C 
ATOM     20  C   UNL     1       4.613   1.587   0.462  0.00  0.00    +0.177 C 
ATOM     21  C   UNL     1       2.337   1.762   1.121  0.00  0.00    +0.044 C 
ATOM     22  C   UNL     1       3.691   1.813   1.463  0.00  0.00    +0.047 C 
ATOM     23  C   UNL     1       6.389   1.305  -0.741  0.00  0.00    +0.429 C 
ENDBRANCH  13  17
ENDBRANCH   6  13
BRANCH   1  24
ATOM     24  C   UNL     1      -2.445  -0.291  -1.156  0.00  0.00    +0.098 C 
BRANCH  24  25
ATOM     25  C   UNL     1      -3.335   0.232  -0.029  0.00  0.00    -0.001 C 
BRANCH  25  26
ATOM     26  C   UNL     1      -4.616   0.851  -0.585  0.00  0.00    -0.080 C 
BRANCH  26  27
ATOM     27  N   UNL     1      -5.443   1.363   0.501  0.00  0.00    +0.385 N 
ATOM     28  H   UNL     1      -4.917   2.068   1.018  0.00  0.00    -0.084 HD
ATOM     29  H   UNL     1      -5.696   0.587   1.113  0.00  0.00    -0.084 HD
BRANCH  27  30
ATOM     30  C   UNL     1      -6.664   1.965  -0.016  0.00  0.00    -0.062 C 
ATOM     31  C   UNL     1      -6.328   3.118  -0.958  0.00  0.00    -0.023 C 
ATOM     32  C   UNL     1      -7.527   2.443   1.148  0.00  0.00    -0.023 C 
ENDBRANCH  27  30
ENDBRANCH  26  27
ENDBRANCH  25  26
ENDBRANCH  24  25
ENDBRANCH   1  24
TORSDOF 7
