REMARK  Name = 9543495
REMARK  6 active torsions:
REMARK  status: ('A' for Active; 'I' for Inactive)
REMARK    1  A    between atoms: C_2  and  N_17
REMARK    2  A    between atoms: C_3  and  C_7
REMARK    3  A    between atoms: C_5  and  C_14
REMARK    4  A    between atoms: C_14  and  O_15
REMARK    5  A    between atoms: N_17  and  S_19
REMARK    6  A    between atoms: S_19  and  C_22
REMARK                            x       y       z     vdW  Elec       q    Type
REMARK                         _______ _______ _______ _____ _____    ______ ____
ROOT
ATOM      1  S   UNL     1       1.942   2.069  -0.449  0.00  0.00    -0.079 S 
ATOM      2  C   UNL     1       0.039   0.774   0.692  0.00  0.00    +0.078 C 
ATOM      3  C   UNL     1       2.268   0.479   0.098  0.00  0.00    +0.031 C 
ATOM      4  C   UNL     1       1.165  -0.099   0.689  0.00  0.00    +0.023 C 
ATOM      5  C   UNL     1       0.323   1.987   0.104  0.00  0.00    +0.119 C 
ENDROOT
BRANCH   3   7
ATOM      6  F   UNL     1       7.361  -1.645  -0.667  0.00  0.00    -0.204 F 
ATOM      7  C   UNL     1       3.587  -0.071  -0.100  0.00  0.00    +0.006 C 
ATOM      8  C   UNL     1       3.880  -0.776  -1.267  0.00  0.00    +0.003 C 
ATOM      9  C   UNL     1       4.568   0.102   0.876  0.00  0.00    +0.003 C 
ATOM     10  C   UNL     1       5.155  -1.308  -1.459  0.00  0.00    +0.030 C 
ATOM     11  C   UNL     1       5.843  -0.430   0.684  0.00  0.00    +0.030 C 
ATOM     12  C   UNL     1       6.137  -1.135  -0.483  0.00  0.00    +0.140 C 
ENDBRANCH   3   7
BRANCH   5  14
ATOM     13  O   UNL     1      -0.208   4.201  -0.632  0.00  0.00    -0.244 OA
ATOM     14  C   UNL     1      -0.525   3.120  -0.088  0.00  0.00    +0.345 C 
BRANCH  14  15
ATOM     15  O   UNL     1      -1.796   2.939   0.393  0.00  0.00    -0.477 OA
ATOM     16  H   UNL     1      -2.032   2.129   0.800  0.00  0.00    +0.295 HD
ENDBRANCH  14  15
ENDBRANCH   5  14
BRANCH   2  17
ATOM     17  N   UNL     1      -1.203   0.408   1.241  0.00  0.00    -0.214 N 
ATOM     18  H   UNL     1      -1.764   1.123   1.620  0.00  0.00    +0.174 HD
BRANCH  17  19
ATOM     19  S   UNL     1      -1.808  -1.188   1.297  0.00  0.00    +0.074 S 
ATOM     20  O   UNL     1      -2.191  -1.515   2.657  0.00  0.00    -0.150 OA
ATOM     21  O   UNL     1      -0.929  -2.068   0.549  0.00  0.00    -0.150 OA
BRANCH  19  22
ATOM     22  C   UNL     1      -3.297  -1.012   0.358  0.00  0.00    +0.125 C 
ATOM     23  C   UNL     1      -3.258  -1.210  -1.011  0.00  0.00    +0.020 C 
ATOM     24  C   UNL     1      -4.470  -0.681   1.011  0.00  0.00    +0.020 C 
ATOM     25  C   UNL     1      -5.625  -0.738  -1.110  0.00  0.00    -0.022 C 
ATOM     26  C   UNL     1      -4.433  -1.071  -1.751  0.00  0.00    -0.003 C 
ATOM     27  C   UNL     1      -5.644  -0.542   0.271  0.00  0.00    -0.003 C 
ATOM     28  C   UNL     1      -6.881  -0.591  -1.901  0.00  0.00    +0.031 C 
ENDBRANCH  19  22
ENDBRANCH  17  19
ENDBRANCH   2  17
TORSDOF 6
