REMARK  Name = 11393519
REMARK  8 active torsions:
REMARK  status: ('A' for Active; 'I' for Inactive)
REMARK    1  A    between atoms: N_1  and  C_15
REMARK    2  A    between atoms: C_2  and  C_9
REMARK    3  A    between atoms: C_3  and  O_7
REMARK    4  A    between atoms: C_9  and  S_10
REMARK    5  A    between atoms: S_10  and  C_11
REMARK    6  A    between atoms: C_11  and  C_12
REMARK    7  A    between atoms: C_12  and  C_13
REMARK    8  A    between atoms: C_15  and  C_20
REMARK                            x       y       z     vdW  Elec       q    Type
REMARK                         _______ _______ _______ _____ _____    ______ ____
ROOT
ATOM      1  N   UNL     1       0.010   0.339   0.235  0.00  0.00    +0.391 N 
ATOM      2  C   UNL     1       2.025   1.115  -0.575  0.00  0.00    +0.015 C 
ATOM      3  C   UNL     1       1.141   2.342  -0.337  0.00  0.00    +0.089 C 
ATOM      4  C   UNL     1       1.443   0.075   0.374  0.00  0.00    -0.073 C 
ATOM      5  C   UNL     1      -0.135   1.798   0.310  0.00  0.00    -0.047 C 
ATOM      6  H   UNL     1      -0.344  -0.019  -0.651  0.00  0.00    -0.079 HD
ENDROOT
BRANCH   3   7
ATOM      7  O   UNL     1       0.858   2.971  -1.578  0.00  0.00    -0.387 OA
ATOM      8  H   UNL     1       1.681   3.306  -1.966  0.00  0.00    +0.210 HD
ENDBRANCH   3   7
BRANCH   2   9
ATOM      9  C   UNL     1       3.502   1.382  -0.325  0.00  0.00    +0.058 C 
BRANCH   9  10
ATOM     10  S   UNL     1       4.466  -0.135  -0.550  0.00  0.00    -0.140 S 
BRANCH  10  11
ATOM     11  C   UNL     1       6.106   0.535  -0.188  0.00  0.00    +0.058 C 
BRANCH  11  12
ATOM     12  C   UNL     1       7.223  -0.494  -0.357  0.00  0.00    +0.012 C 
BRANCH  12  13
ATOM     13  C   UNL     1       7.100  -1.695   0.585  0.00  0.00    +0.001 C 
ATOM     14  C   UNL     1       8.290  -2.632   0.443  0.00  0.00    +0.000 C 
ENDBRANCH  12  13
ENDBRANCH  11  12
ENDBRANCH  10  11
ENDBRANCH   9  10
ENDBRANCH   2   9
BRANCH   1  15
ATOM     15  C   UNL     1      -0.785  -0.354   1.237  0.00  0.00    -0.047 C 
BRANCH  15  20
ATOM     16  N   UNL     1      -4.199   0.961   1.156  0.00  0.00    -0.323 N 
ATOM     17  N   UNL     1      -2.935  -1.852  -0.546  0.00  0.00    -0.247 NA
ATOM     18  N   UNL     1      -5.285  -1.689  -1.156  0.00  0.00    -0.232 NA
ATOM     19  N   UNL     1      -6.704   0.042  -0.306  0.00  0.00    -0.345 N 
ATOM     20  C   UNL     1      -2.230  -0.033   1.028  0.00  0.00    -0.014 C 
ATOM     21  C   UNL     1      -3.127  -0.747   0.217  0.00  0.00    +0.076 C 
ATOM     22  C   UNL     1      -2.901   1.013   1.598  0.00  0.00    +0.053 C 
ATOM     23  C   UNL     1      -4.359  -0.107   0.311  0.00  0.00    +0.163 C 
ATOM     24  C   UNL     1      -5.451  -0.590  -0.389  0.00  0.00    +0.123 C 
ATOM     25  C   UNL     1      -4.054  -2.245  -1.187  0.00  0.00    +0.251 C 
ATOM     26  H   UNL     1      -4.909   1.595   1.409  0.00  0.00    +0.148 HD
ATOM     27  H   UNL     1      -7.469  -0.316  -0.810  0.00  0.00    +0.143 HD
ATOM     28  H   UNL     1      -6.815   0.842   0.257  0.00  0.00    +0.143 HD
ENDBRANCH  15  20
ENDBRANCH   1  15
TORSDOF 8
