REMARK  Name = 9882972
REMARK  3 active torsions:
REMARK  status: ('A' for Active; 'I' for Inactive)
REMARK    1  A    between atoms: N_4  and  C_12
REMARK    2  A    between atoms: C_6  and  O_21
REMARK    3  A    between atoms: C_18  and  C_20
REMARK                            x       y       z     vdW  Elec       q    Type
REMARK                         _______ _______ _______ _____ _____    ______ ____
ROOT
ATOM      1  O   UNL     1      -1.212   0.242  -2.330  0.00  0.00    -0.272 OA
ATOM      2  O   UNL     1      -1.139  -0.991   2.144  0.00  0.00    -0.252 OA
ATOM      3  N   UNL     1      -2.802  -0.820   0.538  0.00  0.00    -0.255 N 
ATOM      4  N   UNL     1      -0.694  -0.498  -0.135  0.00  0.00    -0.191 N 
ATOM      5  C   UNL     1      -2.947  -0.478  -0.846  0.00  0.00    +0.181 C 
ATOM      6  C   UNL     1      -3.986   0.628  -0.815  0.00  0.00    +0.139 C 
ATOM      7  C   UNL     1      -4.920   0.153   0.311  0.00  0.00    +0.053 C 
ATOM      8  C   UNL     1      -3.975  -0.502   1.327  0.00  0.00    +0.098 C 
ATOM      9  C   UNL     1      -1.511  -0.170  -1.217  0.00  0.00    +0.257 C 
ATOM     10  C   UNL     1      -1.479  -0.834   0.978  0.00  0.00    +0.317 C 
ENDROOT
BRANCH   4  12
ATOM     11 CL   UNL     1       3.588   2.261   0.778  0.00  0.00    -0.082 Cl
ATOM     12  C   UNL     1       0.735  -0.418  -0.122  0.00  0.00    +0.059 C 
ATOM     13  C   UNL     1       1.394   0.749   0.276  0.00  0.00    +0.004 C 
ATOM     14  C   UNL     1       1.483  -1.532  -0.516  0.00  0.00    +0.016 C 
ATOM     15  C   UNL     1       2.788   0.802   0.279  0.00  0.00    +0.064 C 
ATOM     16  C   UNL     1       0.580   1.935   0.696  0.00  0.00    +0.033 C 
ATOM     17  C   UNL     1       2.877  -1.479  -0.513  0.00  0.00    +0.012 C 
ATOM     18  C   UNL     1       3.529  -0.312  -0.115  0.00  0.00    +0.079 C 
BRANCH  18  20
ATOM     19  N   UNL     1       6.120  -0.301  -0.136  0.00  0.00    -0.191 NA
ATOM     20  C   UNL     1       4.962  -0.306  -0.127  0.00  0.00    +0.101 C 
ENDBRANCH  18  20
ENDBRANCH   4  12
BRANCH   6  21
ATOM     21  O   UNL     1      -3.391   1.869  -0.456  0.00  0.00    -0.382 OA
ATOM     22  H   UNL     1      -2.803   2.165  -1.169  0.00  0.00    +0.210 HD
ENDBRANCH   6  21
TORSDOF 3
