REMARK  Name = 24856362
REMARK  8 active torsions:
REMARK  status: ('A' for Active; 'I' for Inactive)
REMARK    1  A    between atoms: S_1  and  N_5
REMARK    2  A    between atoms: S_1  and  C_21
REMARK    3  A    between atoms: N_4  and  C_12
REMARK    4  A    between atoms: C_12  and  C_13
REMARK    5  A    between atoms: C_13  and  C_18
REMARK    6  A    between atoms: C_24  and  C_27
REMARK    7  A    between atoms: C_27  and  C_32
REMARK    8  A    between atoms: C_27  and  O_33
REMARK                            x       y       z     vdW  Elec       q    Type
REMARK                         _______ _______ _______ _____ _____    ______ ____
ROOT
ATOM      1  S   UNL     1       0.123  -2.575   0.306  0.00  0.00    +0.063 S 
ATOM      2  O   UNL     1       0.107  -3.572  -0.740  0.00  0.00    -0.153 OA
ATOM      3  O   UNL     1      -0.056  -2.938   1.693  0.00  0.00    -0.153 OA
ENDROOT
BRANCH   1   5
ATOM      4  N   UNL     1      -3.149   0.594   0.012  0.00  0.00    +0.389 N 
ATOM      5  N   UNL     1      -1.004  -1.339  -0.090  0.00  0.00    -0.161 NA
ATOM      6  C   UNL     1      -3.201  -0.543  -0.918  0.00  0.00    -0.059 C 
ATOM      7  C   UNL     1      -1.757   0.995   0.245  0.00  0.00    -0.058 C 
ATOM      8  C   UNL     1      -2.425  -1.755  -0.368  0.00  0.00    +0.059 C 
ATOM      9  C   UNL     1      -0.959  -0.163   0.834  0.00  0.00    +0.073 C 
ATOM     10  C   UNL     1      -2.487  -2.891  -1.388  0.00  0.00    +0.017 C 
ATOM     11  H   UNL     1      -3.557   0.305   0.901  0.00  0.00    -0.080 HD
BRANCH   4  12
ATOM     12  C   UNL     1      -3.928   1.718  -0.506  0.00  0.00    -0.068 C 
BRANCH  12  13
ATOM     13  C   UNL     1      -5.394   1.489  -0.331  0.00  0.00    +0.050 C 
ATOM     14  C   UNL     1      -6.167   1.125  -1.564  0.00  0.00    +0.007 C 
ATOM     15  C   UNL     1      -6.310   2.494  -0.966  0.00  0.00    +0.007 C 
BRANCH  13  18
ATOM     16  O   UNL     1      -5.985  -0.324   1.042  0.00  0.00    -0.275 OA
ATOM     17  N   UNL     1      -6.023   1.789   1.968  0.00  0.00    -0.329 N 
ATOM     18  C   UNL     1      -5.827   0.888   0.949  0.00  0.00    +0.216 C 
ATOM     19  H   UNL     1      -6.313   1.475   2.855  0.00  0.00    +0.145 HD
ATOM     20  H   UNL     1      -5.874   2.750   1.810  0.00  0.00    +0.145 HD
ENDBRANCH  13  18
ENDBRANCH  12  13
ENDBRANCH   4  12
ENDBRANCH   1   5
BRANCH   1  21
ATOM     21  C   UNL     1       1.629  -1.666   0.168  0.00  0.00    +0.122 C 
ATOM     22  C   UNL     1       2.081  -1.254  -1.086  0.00  0.00    +0.020 C 
ATOM     23  C   UNL     1       2.365  -1.358   1.311  0.00  0.00    +0.020 C 
ATOM     24  C   UNL     1       4.008  -0.226  -0.052  0.00  0.00    +0.010 C 
ATOM     25  C   UNL     1       3.271  -0.534  -1.196  0.00  0.00    -0.000 C 
ATOM     26  C   UNL     1       3.555  -0.638   1.202  0.00  0.00    -0.000 C 
BRANCH  24  27
ATOM     27  C   UNL     1       5.280   0.543  -0.170  0.00  0.00    +0.194 C 
ATOM     28  C   UNL     1       6.025   0.307  -1.508  0.00  0.00    +0.043 C 
BRANCH  27  32
ATOM     29  F   UNL     1       4.533   2.339   1.245  0.00  0.00    -0.167 F 
ATOM     30  F   UNL     1       4.202   2.551  -0.896  0.00  0.00    -0.167 F 
ATOM     31  F   UNL     1       6.217   2.735  -0.080  0.00  0.00    -0.167 F 
ATOM     32  C   UNL     1       5.053   2.055   0.029  0.00  0.00    +0.423 C 
ENDBRANCH  27  32
BRANCH  27  33
ATOM     33  O   UNL     1       6.225   0.154   0.855  0.00  0.00    -0.375 OA
ATOM     34  H   UNL     1       5.823   0.277   1.729  0.00  0.00    +0.211 HD
ENDBRANCH  27  33
ENDBRANCH  24  27
ENDBRANCH   1  21
TORSDOF 8
