REMARK  Name = 11659487
REMARK  5 active torsions:
REMARK  status: ('A' for Active; 'I' for Inactive)
REMARK    1  A    between atoms: C_1  and  C_15
REMARK    2  A    between atoms: C_2  and  C_7
REMARK    3  A    between atoms: C_10  and  O_13
REMARK    4  A    between atoms: C_15  and  C_16
REMARK    5  A    between atoms: C_16  and  C_18
REMARK                            x       y       z     vdW  Elec       q    Type
REMARK                         _______ _______ _______ _____ _____    ______ ____
ROOT
ATOM      1  C   UNL     1      -1.403  -2.116  -0.636  0.00  0.00    -0.022 C 
ATOM      2  C   UNL     1       0.877  -1.663   0.023  0.00  0.00    -0.000 C 
ATOM      3  C   UNL     1      -0.264  -1.314  -0.701  0.00  0.00    -0.004 C 
ATOM      4  C   UNL     1      -1.401  -3.268   0.151  0.00  0.00    -0.004 C 
ATOM      5  C   UNL     1       0.879  -2.814   0.810  0.00  0.00    -0.000 C 
ATOM      6  C   UNL     1      -0.260  -3.617   0.874  0.00  0.00    -0.000 C 
ENDROOT
BRANCH   2   7
ATOM      7  C   UNL     1       2.058  -0.830  -0.043  0.00  0.00    +0.003 C 
ATOM      8  C   UNL     1       1.933   0.542  -0.258  0.00  0.00    +0.037 C 
ATOM      9  C   UNL     1       3.322  -1.399   0.110  0.00  0.00    +0.000 C 
ATOM     10  C   UNL     1       3.072   1.345  -0.321  0.00  0.00    +0.139 C 
ATOM     11  C   UNL     1       4.461  -0.597   0.047  0.00  0.00    +0.003 C 
ATOM     12  C   UNL     1       4.336   0.776  -0.168  0.00  0.00    +0.037 C 
BRANCH  10  13
ATOM     13  O   UNL     1       2.950   2.685  -0.531  0.00  0.00    -0.471 OA
ATOM     14  C   UNL     1       1.629   3.202  -0.678  0.00  0.00    +0.252 C 
ENDBRANCH  10  13
ENDBRANCH   2   7
BRANCH   1  15
ATOM     15  C   UNL     1      -2.623  -1.744  -1.409  0.00  0.00    +0.034 C 
BRANCH  15  16
ATOM     16  C   UNL     1      -3.603  -0.838  -0.637  0.00  0.00    +0.064 C 
BRANCH  16  18
ATOM     17  N   UNL     1      -2.391   0.514   0.966  0.00  0.00    -0.396 NA
ATOM     18  C   UNL     1      -2.997   0.485  -0.234  0.00  0.00    +0.110 C 
ATOM     19  C   UNL     1      -3.102   1.552  -1.099  0.00  0.00    +0.023 C 
ATOM     20  C   UNL     1      -2.533   2.756  -0.698  0.00  0.00    -0.015 C 
ATOM     21  C   UNL     1      -1.851   1.700   1.322  0.00  0.00    +0.158 C 
ATOM     22  C   UNL     1      -1.894   2.840   0.534  0.00  0.00    +0.100 C 
ATOM     23  N   UNL     1      -1.195   1.802   2.574  0.00  0.00    -0.336 N 
ATOM     24  H   UNL     1      -1.141   1.018   3.166  0.00  0.00    +0.144 HD
ATOM     25  H   UNL     1      -0.795   2.658   2.852  0.00  0.00    +0.144 HD
ENDBRANCH  16  18
ENDBRANCH  15  16
ENDBRANCH   1  15
TORSDOF 5
