REMARK  Name = 5281614
REMARK  5 active torsions:
REMARK  status: ('A' for Active; 'I' for Inactive)
REMARK    1  A    between atoms: C_3  and  C_12
REMARK    2  A    between atoms: C_6  and  O_22
REMARK    3  A    between atoms: C_10  and  O_24
REMARK    4  A    between atoms: C_15  and  O_18
REMARK    5  A    between atoms: C_17  and  O_20
REMARK                            x       y       z     vdW  Elec       q    Type
REMARK                         _______ _______ _______ _____ _____    ______ ____
ROOT
ATOM      1  O   UNL     1      -0.569  -0.756   0.122  0.00  0.00    -0.450 OA
ATOM      2  O   UNL     1      -2.118   3.003  -0.152  0.00  0.00    -0.283 OA
ATOM      3  C   UNL     1       0.247   0.363   0.118  0.00  0.00    +0.182 A 
ATOM      4  C   UNL     1      -2.518   0.681  -0.047  0.00  0.00    +0.077 A 
ATOM      5  C   UNL     1      -1.926  -0.577   0.046  0.00  0.00    +0.152 A 
ATOM      6  C   UNL     1      -0.196   1.631   0.023  0.00  0.00    +0.208 A 
ATOM      7  C   UNL     1      -1.656   1.873  -0.066  0.00  0.00    +0.235 A 
ATOM      8  C   UNL     1      -3.908   0.803  -0.122  0.00  0.00    +0.009 C 
ATOM      9  C   UNL     1      -2.722  -1.723   0.064  0.00  0.00    +0.074 C 
ATOM     10  C   UNL     1      -4.110  -1.605  -0.011  0.00  0.00    +0.137 C 
ATOM     11  C   UNL     1      -4.701  -0.344  -0.104  0.00  0.00    +0.037 C 
ENDROOT
BRANCH   3  12
ATOM     12  C   UNL     1       1.680   0.030   0.203  0.00  0.00    +0.041 C 
ATOM     13  C   UNL     1       2.414  -0.198  -0.961  0.00  0.00    +0.043 C 
ATOM     14  C   UNL     1       2.304  -0.057   1.448  0.00  0.00    +0.006 C 
ATOM     15  C   UNL     1       3.771  -0.513  -0.881  0.00  0.00    +0.168 C 
ATOM     16  C   UNL     1       3.660  -0.372   1.529  0.00  0.00    +0.040 C 
ATOM     17  C   UNL     1       4.394  -0.600   0.364  0.00  0.00    +0.167 C 
BRANCH  15  18
ATOM     18  O   UNL     1       4.477  -0.735  -2.024  0.00  0.00    -0.503 OA
ATOM     19  H   UNL     1       4.052  -0.674  -2.857  0.00  0.00    +0.292 HD
ENDBRANCH  15  18
BRANCH  17  20
ATOM     20  O   UNL     1       5.718  -0.906   0.456  0.00  0.00    -0.503 OA
ATOM     21  H   UNL     1       6.218  -1.060  -0.321  0.00  0.00    +0.292 HD
ENDBRANCH  17  20
ENDBRANCH   3  12
BRANCH   6  22
ATOM     22  O   UNL     1       0.646   2.721  -0.012  0.00  0.00    -0.501 OA
ATOM     23  H   UNL     1       1.573   2.599   0.042  0.00  0.00    +0.292 HD
ENDBRANCH   6  22
BRANCH  10  24
ATOM     24  O   UNL     1      -4.889  -2.721   0.006  0.00  0.00    -0.505 OA
ATOM     25  H   UNL     1      -4.492  -3.568   0.068  0.00  0.00    +0.292 HD
ENDBRANCH  10  24
TORSDOF 5
