REMARK  Name = 42628075
REMARK  8 active torsions:
REMARK  status: ('A' for Active; 'I' for Inactive)
REMARK    1  A    between atoms: C_1  and  C_5
REMARK    2  A    between atoms: C_1  and  C_13
REMARK    3  A    between atoms: C_1  and  C_21
REMARK    4  A    between atoms: N_4  and  C_7
REMARK    5  A    between atoms: C_18  and  O_19
REMARK    6  A    between atoms: C_21  and  C_22
REMARK    7  A    between atoms: C_23  and  O_31
REMARK    8  A    between atoms: C_25  and  N_30
REMARK                            x       y       z     vdW  Elec       q    Type
REMARK                         _______ _______ _______ _____ _____    ______ ____
ROOT
ATOM      1  C   UNL     1       1.343  -0.661  -0.001  0.00  0.00    +0.064 C 
ENDROOT
BRANCH   1   4
ATOM      2  N   UNL     1       3.840  -0.712  -0.519  0.00  0.00    -0.308 N 
ATOM      3  N   UNL     1       4.824  -0.778   1.471  0.00  0.00    -0.305 N 
ATOM      4  C   UNL     1       2.828  -0.706   0.399  0.00  0.00    +0.042 C 
ATOM      5  C   UNL     1       3.460  -0.747   1.620  0.00  0.00    +0.070 C 
ATOM      6  C   UNL     1       5.020  -0.756   0.172  0.00  0.00    +0.204 C 
ATOM      7  H   UNL     1       3.739  -0.689  -1.498  0.00  0.00    +0.149 HD
ATOM      8  H   UNL     1       5.505  -0.809   2.181  0.00  0.00    +0.150 HD
BRANCH   6   9
ATOM      9  N   UNL     1       6.174  -0.769  -0.530  0.00  0.00    -0.291 NA
ATOM     10  H   UNL     1       6.152  -0.749  -1.514  0.00  0.00    +0.122 HD
ATOM     11  H   UNL     1       7.037  -0.800  -0.058  0.00  0.00    +0.122 HD
ENDBRANCH   6   9
ENDBRANCH   1   4
BRANCH   1  13
ATOM     12  F   UNL     1      -0.498   2.899  -2.760  0.00  0.00    -0.201 F 
ATOM     13  C   UNL     1       0.827   0.729  -0.160  0.00  0.00    -0.014 C 
ATOM     14  C   UNL     1       0.396   1.175  -1.409  0.00  0.00    +0.029 C 
ATOM     15  C   UNL     1       0.776   1.584   0.942  0.00  0.00    -0.001 C 
ATOM     16  C   UNL     1      -0.086   2.476  -1.557  0.00  0.00    +0.174 C 
ATOM     17  C   UNL     1       0.294   2.884   0.794  0.00  0.00    +0.039 C 
ATOM     18  C   UNL     1      -0.137   3.330  -0.456  0.00  0.00    +0.166 C 
BRANCH  18  19
ATOM     19  O   UNL     1      -0.608   4.599  -0.598  0.00  0.00    -0.469 OA
ATOM     20  C   UNL     1      -0.632   5.418   0.570  0.00  0.00    +0.253 C 
ENDBRANCH  18  19
ENDBRANCH   1  13
BRANCH   1  21
ATOM     21  C   UNL     1       0.486  -1.563   0.949  0.00  0.00    +0.040 C 
BRANCH  21  22
ATOM     22  C   UNL     1      -0.946  -1.707   0.482  0.00  0.00    +0.014 C 
ATOM     23  C   UNL     1      -1.313  -2.741  -0.379  0.00  0.00    +0.135 C 
ATOM     24  C   UNL     1      -1.902  -0.791   0.921  0.00  0.00    +0.023 C 
ATOM     25  C   UNL     1      -3.226  -0.909   0.498  0.00  0.00    +0.143 C 
ATOM     26  C   UNL     1      -2.638  -2.860  -0.801  0.00  0.00    +0.038 C 
ATOM     27  C   UNL     1      -3.594  -1.944  -0.362  0.00  0.00    +0.027 C 
BRANCH  25  30
ATOM     28  O   UNL     1      -5.387  -0.106   0.557  0.00  0.00    -0.126 OA
ATOM     29  O   UNL     1      -3.850   0.944   1.720  0.00  0.00    -0.126 OA
ATOM     30  N   UNL     1      -4.201   0.021   0.947  0.00  0.00    +0.058 N 
ENDBRANCH  25  30
BRANCH  23  31
ATOM     31  O   UNL     1      -0.392  -3.644  -0.817  0.00  0.00    -0.472 OA
ATOM     32  C   UNL     1      -0.856  -4.668  -1.694  0.00  0.00    +0.252 C 
ENDBRANCH  23  31
ENDBRANCH  21  22
ENDBRANCH   1  21
TORSDOF 8
