REMARK  Name = 5287785
REMARK  6 active torsions:
REMARK  status: ('A' for Active; 'I' for Inactive)
REMARK    1  A    between atoms: C_1  and  N_12
REMARK    2  A    between atoms: C_2  and  C_10
REMARK    3  A    between atoms: C_4  and  N_23
REMARK    4  A    between atoms: C_13  and  C_15
REMARK    5  A    between atoms: C_15  and  C_18
REMARK    6  A    between atoms: C_15  and  O_19
REMARK                            x       y       z     vdW  Elec       q    Type
REMARK                         _______ _______ _______ _____ _____    ______ ____
ROOT
ATOM      1  C   UNL     1       0.410   0.100  -0.159  0.00  0.00    +0.050 C 
ATOM      2  C   UNL     1      -1.919  -0.456  -0.024  0.00  0.00    +0.095 C 
ATOM      3  C   UNL     1      -0.587  -0.860  -0.108  0.00  0.00    +0.020 C 
ATOM      4  C   UNL     1      -2.235   0.902   0.009  0.00  0.00    +0.147 C 
ATOM      5  C   UNL     1       0.113   1.452  -0.128  0.00  0.00    +0.016 C 
ATOM      6  C   UNL     1      -1.219   1.856  -0.043  0.00  0.00    +0.025 C 
ENDROOT
BRANCH   2  10
ATOM      7  F   UNL     1      -2.497  -2.777  -0.009  0.00  0.00    -0.166 F 
ATOM      8  F   UNL     1      -3.745  -1.445   1.163  0.00  0.00    -0.166 F 
ATOM      9  F   UNL     1      -3.862  -1.411  -1.008  0.00  0.00    -0.166 F 
ATOM     10  C   UNL     1      -2.985  -1.503   0.032  0.00  0.00    +0.420 C 
ENDBRANCH   2  10
BRANCH   1  12
ATOM     11  O   UNL     1       2.915   1.727  -0.295  0.00  0.00    -0.272 OA
ATOM     12  N   UNL     1       1.762  -0.310  -0.243  0.00  0.00    -0.282 N 
ATOM     13  C   UNL     1       2.893   0.498  -0.301  0.00  0.00    +0.251 C 
ATOM     14  H   UNL     1       1.922  -1.282  -0.262  0.00  0.00    +0.155 HD
BRANCH  13  15
ATOM     15  C   UNL     1       4.203  -0.310  -0.387  0.00  0.00    +0.167 C 
ATOM     16  C   UNL     1       4.201  -1.187  -1.645  0.00  0.00    +0.040 C 
BRANCH  15  18
ATOM     17 BR   UNL     1       4.704  -0.094   2.460  0.00  0.00    -0.078 Br
ATOM     18  C   UNL     1       4.472  -1.175   0.847  0.00  0.00    +0.103 C 
ENDBRANCH  15  18
BRANCH  15  19
ATOM     19  O   UNL     1       5.285   0.612  -0.520  0.00  0.00    -0.377 OA
ATOM     20  H   UNL     1       5.318   1.187   0.261  0.00  0.00    +0.211 HD
ENDBRANCH  15  19
ENDBRANCH  13  15
ENDBRANCH   1  12
BRANCH   4  23
ATOM     21  O   UNL     1      -3.826   2.567   0.122  0.00  0.00    -0.126 OA
ATOM     22  O   UNL     1      -4.498   0.478   0.141  0.00  0.00    -0.126 OA
ATOM     23  N   UNL     1      -3.586   1.337   0.095  0.00  0.00    +0.058 N 
ENDBRANCH   4  23
TORSDOF 6
