REMARK  Name = 25138203
REMARK  4 active torsions:
REMARK  status: ('A' for Active; 'I' for Inactive)
REMARK    1  A    between atoms: N_1  and  C_11
REMARK    2  A    between atoms: C_5  and  C_22
REMARK    3  A    between atoms: C_9  and  N_16
REMARK    4  A    between atoms: N_16  and  S_18
REMARK                            x       y       z     vdW  Elec       q    Type
REMARK                         _______ _______ _______ _____ _____    ______ ____
ROOT
ATOM      1  N   UNL     1       0.603  -2.742   0.108  0.00  0.00    -0.301 N 
ATOM      2  N   UNL     1      -1.479  -3.351  -0.873  0.00  0.00    -0.234 NA
ATOM      3  N   UNL     1      -3.324  -1.801  -0.832  0.00  0.00    -0.248 NA
ATOM      4  C   UNL     1      -0.740  -2.432  -0.219  0.00  0.00    +0.112 C 
ATOM      5  C   UNL     1      -2.527  -0.929  -0.179  0.00  0.00    +0.063 C 
ATOM      6  C   UNL     1      -1.215  -1.192   0.157  0.00  0.00    +0.106 C 
ATOM      7  C   UNL     1      -2.744  -2.975  -1.144  0.00  0.00    +0.251 C 
ATOM      8  H   UNL     1       0.763  -3.702   0.260  0.00  0.00    +0.153 HD
ENDROOT
BRANCH   1  11
ATOM      9  C   UNL     1       3.024   0.020  -0.333  0.00  0.00    +0.062 C 
ATOM     10  C   UNL     1       4.030  -0.366   0.553  0.00  0.00    -0.007 C 
ATOM     11  C   UNL     1       1.750  -1.946   0.257  0.00  0.00    +0.050 C 
ATOM     12  C   UNL     1       1.884  -0.770  -0.481  0.00  0.00    +0.030 C 
ATOM     13  C   UNL     1       3.895  -1.542   1.292  0.00  0.00    -0.002 C 
ATOM     14  C   UNL     1       2.756  -2.332   1.143  0.00  0.00    +0.014 C 
ATOM     15  C   UNL     1       5.260   0.463   0.732  0.00  0.00    +0.032 C 
BRANCH   9  16
ATOM     16  N   UNL     1       3.144   1.222  -1.099  0.00  0.00    -0.219 N 
ATOM     17  H   UNL     1       3.794   1.290  -1.835  0.00  0.00    +0.173 HD
BRANCH  16  18
ATOM     18  S   UNL     1       2.120   2.546  -0.697  0.00  0.00    +0.056 S 
ATOM     19  O   UNL     1       2.228   3.542  -1.746  0.00  0.00    -0.154 OA
ATOM     20  O   UNL     1       0.821   2.081  -0.252  0.00  0.00    -0.154 OA
ATOM     21  C   UNL     1       2.983   3.192   0.719  0.00  0.00    +0.200 C 
ENDBRANCH  16  18
ENDBRANCH   9  16
ENDBRANCH   1  11
BRANCH   5  22
ATOM     22  C   UNL     1      -3.147   0.334   0.158  0.00  0.00    +0.014 C 
ATOM     23  C   UNL     1      -2.617   1.525  -0.338  0.00  0.00    +0.001 C 
ATOM     24  C   UNL     1      -4.276   0.362   0.978  0.00  0.00    +0.001 C 
ATOM     25  C   UNL     1      -3.214   2.744  -0.014  0.00  0.00    +0.000 C 
ATOM     26  C   UNL     1      -4.873   1.580   1.302  0.00  0.00    +0.000 C 
ATOM     27  C   UNL     1      -4.343   2.771   0.806  0.00  0.00    +0.000 C 
ENDBRANCH   5  22
TORSDOF 4
