REMARK  Name = 2763788
REMARK  2 active torsions:
REMARK  status: ('A' for Active; 'I' for Inactive)
REMARK    1  A    between atoms: C_3  and  C_8
REMARK    2  A    between atoms: C_4  and  C_12
REMARK                            x       y       z     vdW  Elec       q    Type
REMARK                         _______ _______ _______ _____ _____    ______ ____
ROOT
ATOM      1  S   UNL     1       0.312  -0.795  -0.091  0.00  0.00    -0.065 S 
ATOM      2  N   UNL     1      -0.415   1.670   0.194  0.00  0.00    -0.237 NA
ATOM      3  C   UNL     1       1.541   0.394   0.042  0.00  0.00    +0.065 C 
ATOM      4  C   UNL     1      -0.869   0.443   0.054  0.00  0.00    +0.111 C 
ATOM      5  C   UNL     1       0.966   1.639   0.187  0.00  0.00    +0.107 C 
ENDROOT
BRANCH   3   8
ATOM      6  N   UNL     1       3.368  -1.219  -0.151  0.00  0.00    -0.235 N 
ATOM      7  N   UNL     1       4.708  -1.319  -0.167  0.00  0.00    -0.180 NA
ATOM      8  C   UNL     1       2.916   0.058  -0.001  0.00  0.00    +0.074 C 
ATOM      9  C   UNL     1       4.033   0.848   0.087  0.00  0.00    +0.039 C 
ATOM     10  C   UNL     1       5.109  -0.053  -0.021  0.00  0.00    +0.119 C 
ATOM     11  H   UNL     1       2.769  -1.995  -0.239  0.00  0.00    +0.174 HD
ENDBRANCH   3   8
BRANCH   4  12
ATOM     12  C   UNL     1      -2.263   0.076   0.015  0.00  0.00    +0.024 C 
ATOM     13  C   UNL     1      -3.228   1.036  -0.289  0.00  0.00    +0.002 C 
ATOM     14  C   UNL     1      -2.647  -1.238   0.281  0.00  0.00    +0.002 C 
ATOM     15  C   UNL     1      -4.577   0.682  -0.326  0.00  0.00    +0.000 C 
ATOM     16  C   UNL     1      -3.996  -1.592   0.244  0.00  0.00    +0.000 C 
ATOM     17  C   UNL     1      -4.960  -0.631  -0.059  0.00  0.00    +0.000 C 
ENDBRANCH   4  12
TORSDOF 2
