REMARK  Name = 444797
REMARK  7 active torsions:
REMARK  status: ('A' for Active; 'I' for Inactive)
REMARK    1  A    between atoms: C_1  and  C_3
REMARK    2  A    between atoms: C_1  and  C_6
REMARK    3  A    between atoms: C_1  and  C_13
REMARK    4  A    between atoms: C_3  and  O_4
REMARK    5  A    between atoms: C_6  and  C_7
REMARK    6  A    between atoms: C_13  and  C_15
REMARK    7  A    between atoms: C_15  and  O_16
REMARK                            x       y       z     vdW  Elec       q    Type
REMARK                         _______ _______ _______ _____ _____    ______ ____
ROOT
ATOM      1  C   UNL     1       1.077  -0.518   0.220  0.00  0.00    +0.114 C 
ENDROOT
BRANCH   1   3
ATOM      2  O   UNL     1       0.923  -2.772  -0.652  0.00  0.00    -0.250 OA
ATOM      3  C   UNL     1       0.730  -1.997   0.277  0.00  0.00    +0.314 C 
BRANCH   3   4
ATOM      4  O   UNL     1       0.196  -2.385   1.462  0.00  0.00    -0.480 OA
ATOM      5  H   UNL     1       0.066  -1.757   2.145  0.00  0.00    +0.295 HD
ENDBRANCH   3   4
ENDBRANCH   1   3
BRANCH   1   6
ATOM      6  C   UNL     1       0.225   0.173  -0.862  0.00  0.00    +0.038 C 
BRANCH   6   7
ATOM      7  C   UNL     1      -1.217   0.373  -0.468  0.00  0.00    -0.022 C 
ATOM      8  C   UNL     1      -2.145  -0.615  -0.759  0.00  0.00    -0.004 C 
ATOM      9  C   UNL     1      -1.590   1.541   0.180  0.00  0.00    -0.004 C 
ATOM     10  C   UNL     1      -3.479  -0.430  -0.395  0.00  0.00    -0.000 C 
ATOM     11  C   UNL     1      -2.923   1.725   0.544  0.00  0.00    -0.000 C 
ATOM     12  C   UNL     1      -3.868   0.740   0.257  0.00  0.00    -0.000 C 
ENDBRANCH   6   7
ENDBRANCH   1   6
BRANCH   1  13
ATOM     13  C   UNL     1       2.590  -0.329   0.034  0.00  0.00    +0.121 C 
BRANCH  13  15
ATOM     14  O   UNL     1       2.444   1.963   0.793  0.00  0.00    -0.250 OA
ATOM     15  C   UNL     1       2.995   1.125   0.092  0.00  0.00    +0.314 C 
BRANCH  15  16
ATOM     16  O   UNL     1       4.040   1.406  -0.726  0.00  0.00    -0.480 OA
ATOM     17  H   UNL     1       4.428   0.727  -1.242  0.00  0.00    +0.295 HD
ENDBRANCH  15  16
ENDBRANCH  13  15
ENDBRANCH   1  13
TORSDOF 7
