REMARK  Name = 2376771
REMARK  4 active torsions:
REMARK  status: ('A' for Active; 'I' for Inactive)
REMARK    1  A    between atoms: N_2  and  C_7
REMARK    2  A    between atoms: C_3  and  C_17
REMARK    3  A    between atoms: C_12  and  C_14
REMARK    4  A    between atoms: C_17  and  O_18
REMARK                            x       y       z     vdW  Elec       q    Type
REMARK                         _______ _______ _______ _____ _____    ______ ____
ROOT
ATOM      1  O   UNL     1      -1.548  -2.523  -0.294  0.00  0.00    -0.275 OA
ATOM      2  N   UNL     1      -1.111  -0.303   0.459  0.00  0.00    -0.258 N 
ATOM      3  C   UNL     1      -3.349   0.361   0.736  0.00  0.00    +0.128 C 
ATOM      4  C   UNL     1      -1.920   0.749   1.050  0.00  0.00    +0.110 C 
ATOM      5  C   UNL     1      -3.308  -1.146   0.583  0.00  0.00    +0.098 C 
ATOM      6  C   UNL     1      -1.885  -1.440   0.163  0.00  0.00    +0.230 C 
ENDROOT
BRANCH   2   7
ATOM      7  C   UNL     1       0.300  -0.168   0.290  0.00  0.00    +0.054 C 
ATOM      8  C   UNL     1       0.937   1.029   0.630  0.00  0.00    +0.015 C 
ATOM      9  C   UNL     1       1.053  -1.231  -0.216  0.00  0.00    +0.015 C 
ATOM     10  C   UNL     1       2.316   1.161   0.464  0.00  0.00    +0.004 C 
ATOM     11  C   UNL     1       2.431  -1.098  -0.382  0.00  0.00    +0.004 C 
ATOM     12  C   UNL     1       3.063   0.098  -0.041  0.00  0.00    +0.035 C 
BRANCH  12  14
ATOM     13  O   UNL     1       5.194  -0.696  -0.664  0.00  0.00    -0.291 OA
ATOM     14  C   UNL     1       4.500   0.237  -0.215  0.00  0.00    +0.173 C 
ATOM     15  C   UNL     1       5.196   1.543   0.153  0.00  0.00    +0.077 C 
ENDBRANCH  12  14
ENDBRANCH   2   7
BRANCH   3  17
ATOM     16  O   UNL     1      -2.999   1.273  -1.497  0.00  0.00    -0.250 OA
ATOM     17  C   UNL     1      -3.764   0.982  -0.589  0.00  0.00    +0.315 C 
BRANCH  17  18
ATOM     18  O   UNL     1      -5.105   1.173  -0.629  0.00  0.00    -0.480 OA
ATOM     19  H   UNL     1      -5.636   0.927   0.102  0.00  0.00    +0.295 HD
ENDBRANCH  17  18
ENDBRANCH   3  17
TORSDOF 4
