REMARK  Name = 11171679
REMARK  3 active torsions:
REMARK  status: ('A' for Active; 'I' for Inactive)
REMARK    1  A    between atoms: C_2  and  C_12
REMARK    2  A    between atoms: C_3  and  C_7
REMARK    3  A    between atoms: C_12  and  N_13
REMARK                            x       y       z     vdW  Elec       q    Type
REMARK                         _______ _______ _______ _____ _____    ______ ____
ROOT
ATOM      1  O   UNL     1       0.619  -0.010   0.432  0.00  0.00    -0.460 OA
ATOM      2  C   UNL     1       1.716   0.766   0.376  0.00  0.00    +0.102 C 
ATOM      3  C   UNL     1      -0.409   0.788   0.043  0.00  0.00    +0.146 C 
ATOM      4  C   UNL     1       1.443   2.029  -0.031  0.00  0.00    +0.034 C 
ATOM      5  C   UNL     1       0.046   2.052  -0.253  0.00  0.00    +0.040 C 
ENDROOT
BRANCH   3   7
ATOM      6  N   UNL     1      -4.080   0.339  -0.392  0.00  0.00    -0.242 NA
ATOM      7  C   UNL     1      -1.702   0.163   0.026  0.00  0.00    +0.054 C 
ATOM      8  C   UNL     1      -1.862  -1.172   0.388  0.00  0.00    +0.006 C 
ATOM      9  C   UNL     1      -2.836   0.867  -0.353  0.00  0.00    +0.102 C 
ATOM     10  C   UNL     1      -3.126  -1.750   0.361  0.00  0.00    +0.021 C 
ATOM     11  C   UNL     1      -4.193  -0.959  -0.033  0.00  0.00    +0.099 C 
ENDBRANCH   3   7
BRANCH   2  12
ATOM     12  C   UNL     1       2.997   0.088   0.769  0.00  0.00    -0.011 C 
BRANCH  12  13
ATOM     13  N   UNL     1       3.661  -0.532  -0.377  0.00  0.00    +0.389 N 
ATOM     14  C   UNL     1       4.931  -1.131   0.031  0.00  0.00    -0.100 C 
ATOM     15  C   UNL     1       2.794  -1.539  -0.987  0.00  0.00    -0.100 C 
ATOM     16  H   UNL     1       3.853   0.192  -1.070  0.00  0.00    -0.079 HD
ENDBRANCH  12  13
ENDBRANCH   2  12
TORSDOF 3
