REMARK  Name = 6540289
REMARK  1 active torsions:
REMARK  status: ('A' for Active; 'I' for Inactive)
REMARK    1  A    between atoms: N_3  and  O_18
REMARK                            x       y       z     vdW  Elec       q    Type
REMARK                         _______ _______ _______ _____ _____    ______ ____
ROOT
ATOM      1 CL   UNL     1       5.148   0.901   0.002  0.00  0.00    -0.082 Cl
ATOM      2  O   UNL     1       0.103   2.671  -0.001  0.00  0.00    -0.286 OA
ATOM      3  N   UNL     1      -0.342  -1.433   0.000  0.00  0.00    -0.166 N 
ATOM      4  N   UNL     1      -2.702  -0.896   0.001  0.00  0.00    -0.231 N 
ATOM      5  N   UNL     1      -3.504   0.189   0.001  0.00  0.00    -0.172 NA
ATOM      6  C   UNL     1      -1.382  -0.576   0.000  0.00  0.00    +0.180 A 
ATOM      7  C   UNL     1      -1.303   0.792   0.000  0.00  0.00    +0.091 A 
ATOM      8  C   UNL     1       0.977  -0.884   0.000  0.00  0.00    +0.102 A 
ATOM      9  C   UNL     1       1.165   0.530  -0.001  0.00  0.00    +0.059 A 
ATOM     10  C   UNL     1      -2.642   1.216   0.000  0.00  0.00    +0.085 A 
ATOM     11  C   UNL     1      -0.021   1.455  -0.001  0.00  0.00    +0.201 A 
ATOM     12  C   UNL     1       2.110  -1.709   0.001  0.00  0.00    +0.022 C 
ATOM     13  C   UNL     1       2.452   1.077  -0.001  0.00  0.00    +0.016 C 
ATOM     14  C   UNL     1      -3.317  -2.203   0.003  0.00  0.00    +0.155 C 
ATOM     15  C   UNL     1      -3.158   2.596   0.000  0.00  0.00    +0.054 C 
ATOM     16  C   UNL     1       3.391  -1.152   0.001  0.00  0.00    +0.013 C 
ATOM     17  C   UNL     1       3.561   0.233   0.000  0.00  0.00    +0.058 C 
ENDROOT
BRANCH   3  18
ATOM     18  O   UNL     1      -0.535  -2.807  -0.005  0.00  0.00    -0.424 OA
ATOM     19  H   UNL     1      -1.404  -3.158  -0.005  0.00  0.00    +0.326 HD
ENDBRANCH   3  18
TORSDOF 1
