REMARK  Name = 452307
REMARK  9 active torsions:
REMARK  status: ('A' for Active; 'I' for Inactive)
REMARK    1  A    between atoms: C_1  and  O_2
REMARK    2  A    between atoms: C_1  and  C_4
REMARK    3  A    between atoms: C_1  and  C_16
REMARK    4  A    between atoms: C_4  and  N_5
REMARK    5  A    between atoms: C_4  and  C_9
REMARK    6  A    between atoms: C_9  and  C_10
REMARK    7  A    between atoms: C_16  and  N_17
REMARK    8  A    between atoms: C_16  and  C_21
REMARK    9  A    between atoms: C_21  and  C_22
REMARK                            x       y       z     vdW  Elec       q    Type
REMARK                         _______ _______ _______ _____ _____    ______ ____
ROOT
ATOM      1  C   UNL     1       0.515  -0.730  -0.285  0.00  0.00    +0.072 C 
ENDROOT
BRANCH   1   2
ATOM      2  O   UNL     1       0.598  -1.266  -1.613  0.00  0.00    -0.389 OA
ATOM      3  H   UNL     1       0.030  -0.749  -2.206  0.00  0.00    +0.210 HD
ENDBRANCH   1   2
BRANCH   1   4
ATOM      4  C   UNL     1      -0.979  -0.649   0.130  0.00  0.00    -0.036 C 
BRANCH   4   5
ATOM      5  N   UNL     1      -1.026   0.011   1.449  0.00  0.00    +0.384 N 
ATOM      6  H   UNL     1      -0.442  -0.504   2.108  0.00  0.00    -0.089 HD
ATOM      7  H   UNL     1      -1.988   0.025   1.788  0.00  0.00    -0.089 HD
ATOM      8  H   UNL     1      -0.681   0.967   1.364  0.00  0.00    -0.089 HD
ENDBRANCH   4   5
BRANCH   4   9
ATOM      9  C   UNL     1      -1.876   0.161  -0.835  0.00  0.00    +0.007 C 
BRANCH   9  10
ATOM     10  C   UNL     1      -3.308   0.359  -0.398  0.00  0.00    -0.024 C 
ATOM     11  C   UNL     1      -4.265  -0.573  -0.767  0.00  0.00    -0.004 C 
ATOM     12  C   UNL     1      -3.638   1.469   0.363  0.00  0.00    -0.004 C 
ATOM     13  C   UNL     1      -5.587  -0.390  -0.363  0.00  0.00    -0.000 C 
ATOM     14  C   UNL     1      -4.960   1.651   0.767  0.00  0.00    -0.000 C 
ATOM     15  C   UNL     1      -5.935   0.722   0.404  0.00  0.00    -0.000 C 
ENDBRANCH   9  10
ENDBRANCH   4   9
ENDBRANCH   1   4
BRANCH   1  16
ATOM     16  C   UNL     1       1.433  -1.580   0.627  0.00  0.00    -0.036 C 
BRANCH  16  17
ATOM     17  N   UNL     1       0.908  -2.945   0.750  0.00  0.00    +0.384 N 
ATOM     18  H   UNL     1      -0.055  -2.910   1.084  0.00  0.00    -0.089 HD
ATOM     19  H   UNL     1       1.479  -3.471   1.412  0.00  0.00    -0.089 HD
ATOM     20  H   UNL     1       0.935  -3.403  -0.161  0.00  0.00    -0.089 HD
ENDBRANCH  16  17
BRANCH  16  21
ATOM     21  C   UNL     1       2.892  -1.664   0.119  0.00  0.00    +0.007 C 
BRANCH  21  22
ATOM     22  C   UNL     1       3.578  -0.322   0.027  0.00  0.00    -0.024 C 
ATOM     23  C   UNL     1       3.497   0.402  -1.152  0.00  0.00    -0.004 C 
ATOM     24  C   UNL     1       4.276   0.161   1.122  0.00  0.00    -0.004 C 
ATOM     25  C   UNL     1       4.131   1.641  -1.238  0.00  0.00    -0.000 C 
ATOM     26  C   UNL     1       4.909   1.401   1.036  0.00  0.00    -0.000 C 
ATOM     27  C   UNL     1       4.837   2.141  -0.144  0.00  0.00    -0.000 C 
ENDBRANCH  21  22
ENDBRANCH  16  21
ENDBRANCH   1  16
TORSDOF 9
