REMARK  Name = 24836812
REMARK  6 active torsions:
REMARK  status: ('A' for Active; 'I' for Inactive)
REMARK    1  A    between atoms: N_1  and  C_20
REMARK    2  A    between atoms: N_2  and  C_12
REMARK    3  A    between atoms: C_15  and  O_18
REMARK    4  A    between atoms: C_21  and  O_26
REMARK    5  A    between atoms: C_22  and  O_28
REMARK    6  A    between atoms: C_23  and  O_30
REMARK                            x       y       z     vdW  Elec       q    Type
REMARK                         _______ _______ _______ _____ _____    ______ ____
ROOT
ATOM      1  N   UNL     1       1.203   2.791   0.167  0.00  0.00    -0.247 N 
ATOM      2  N   UNL     1      -3.317   1.594  -0.145  0.00  0.00    -0.247 N 
ATOM      3  N   UNL     1      -1.050   2.162   0.010  0.00  0.00    -0.269 NA
ATOM      4  N   UNL     1      -0.430   4.475   0.152  0.00  0.00    -0.169 NA
ATOM      5  N   UNL     1      -2.744   3.861  -0.008  0.00  0.00    -0.169 NA
ATOM      6  C   UNL     1      -0.158   3.161   0.107  0.00  0.00    +0.157 C 
ATOM      7  C   UNL     1      -2.323   2.587  -0.042  0.00  0.00    +0.157 C 
ATOM      8  C   UNL     1      -1.742   4.751   0.090  0.00  0.00    +0.275 C 
ATOM      9  H   UNL     1       1.818   3.557   0.237  0.00  0.00    +0.165 HD
ATOM     10  H   UNL     1      -4.233   1.954  -0.182  0.00  0.00    +0.165 HD
ENDROOT
BRANCH   2  12
ATOM     11 CL   UNL     1      -0.714  -2.585  -1.551  0.00  0.00    -0.079 Cl
ATOM     12  C   UNL     1      -3.258   0.186  -0.207  0.00  0.00    +0.059 C 
ATOM     13  C   UNL     1      -2.152  -0.442  -0.779  0.00  0.00    +0.030 C 
ATOM     14  C   UNL     1      -4.307  -0.578   0.304  0.00  0.00    +0.018 C 
ATOM     15  C   UNL     1      -3.143  -2.598  -0.328  0.00  0.00    +0.149 C 
ATOM     16  C   UNL     1      -2.094  -1.834  -0.839  0.00  0.00    +0.093 C 
ATOM     17  C   UNL     1      -4.250  -1.970   0.243  0.00  0.00    +0.039 C 
BRANCH  15  18
ATOM     18  O   UNL     1      -3.114  -3.960  -0.373  0.00  0.00    -0.471 OA
ATOM     19  C   UNL     1      -2.529  -4.632   0.740  0.00  0.00    +0.253 C 
ENDBRANCH  15  18
ENDBRANCH   2  12
BRANCH   1  20
ATOM     20  C   UNL     1       1.853   1.543   0.146  0.00  0.00    +0.064 C 
ATOM     21  C   UNL     1       3.140  -0.931   0.104  0.00  0.00    +0.206 C 
ATOM     22  C   UNL     1       1.859  -0.821   0.643  0.00  0.00    +0.177 C 
ATOM     23  C   UNL     1       3.778   0.196  -0.414  0.00  0.00    +0.177 C 
ATOM     24  C   UNL     1       1.215   0.416   0.665  0.00  0.00    +0.055 C 
ATOM     25  C   UNL     1       3.134   1.433  -0.393  0.00  0.00    +0.055 C 
BRANCH  21  26
ATOM     26  O   UNL     1       3.770  -2.141   0.083  0.00  0.00    -0.465 OA
ATOM     27  C   UNL     1       3.567  -2.956  -1.069  0.00  0.00    +0.253 C 
ENDBRANCH  21  26
BRANCH  22  28
ATOM     28  O   UNL     1       1.225  -1.914   1.153  0.00  0.00    -0.468 OA
ATOM     29  C   UNL     1       1.425  -2.193   2.537  0.00  0.00    +0.253 C 
ENDBRANCH  22  28
BRANCH  23  30
ATOM     30  O   UNL     1       5.030   0.102  -0.944  0.00  0.00    -0.468 OA
ATOM     31  C   UNL     1       6.127   0.299  -0.054  0.00  0.00    +0.253 C 
ENDBRANCH  23  30
ENDBRANCH   1  20
TORSDOF 6
