REMARK  Name = 16040289
REMARK  6 active torsions:
REMARK  status: ('A' for Active; 'I' for Inactive)
REMARK    1  A    between atoms: N_2  and  C_20
REMARK    2  A    between atoms: C_3  and  C_6
REMARK    3  A    between atoms: N_11  and  C_13
REMARK    4  A    between atoms: C_13  and  C_15
REMARK    5  A    between atoms: C_23  and  O_26
REMARK    6  A    between atoms: O_26  and  C_27
REMARK                            x       y       z     vdW  Elec       q    Type
REMARK                         _______ _______ _______ _____ _____    ______ ____
ROOT
ATOM      1  O   UNL     1      -1.217  -1.579  -1.818  0.00  0.00    -0.270 OA
ATOM      2  N   UNL     1      -0.804  -1.927   0.470  0.00  0.00    -0.280 N 
ATOM      3  C   UNL     1      -1.600  -1.815  -0.677  0.00  0.00    +0.252 C 
ATOM      4  H   UNL     1      -1.282  -2.121   1.309  0.00  0.00    +0.155 HD
ENDROOT
BRANCH   3   6
ATOM      5  N   UNL     1      -5.200  -1.028   0.035  0.00  0.00    -0.229 NA
ATOM      6  C   UNL     1      -3.061  -1.977  -0.458  0.00  0.00    +0.085 C 
ATOM      7  C   UNL     1      -3.869  -0.909  -0.170  0.00  0.00    +0.133 C 
ATOM      8  C   UNL     1      -3.597  -3.241  -0.551  0.00  0.00    +0.009 C 
ATOM      9  C   UNL     1      -4.963  -3.404  -0.347  0.00  0.00    +0.021 C 
ATOM     10  C   UNL     1      -5.714  -2.275  -0.059  0.00  0.00    +0.100 C 
ATOM     11  N   UNL     1      -3.300   0.386  -0.079  0.00  0.00    -0.314 N 
ATOM     12  H   UNL     1      -2.332   0.488  -0.227  0.00  0.00    +0.149 HD
BRANCH  11  13
ATOM     13  C   UNL     1      -4.074   1.547   0.217  0.00  0.00    +0.115 C 
BRANCH  13  15
ATOM     14  N   UNL     1      -1.599   5.046   0.197  0.00  0.00    -0.242 NA
ATOM     15  C   UNL     1      -3.205   2.775   0.209  0.00  0.00    +0.000 C 
ATOM     16  C   UNL     1      -3.032   3.485  -0.966  0.00  0.00    +0.018 C 
ATOM     17  C   UNL     1      -2.587   3.183   1.379  0.00  0.00    +0.018 C 
ATOM     18  C   UNL     1      -2.223   4.608  -0.920  0.00  0.00    +0.099 C 
ATOM     19  C   UNL     1      -1.798   4.321   1.320  0.00  0.00    +0.099 C 
ENDBRANCH  13  15
ENDBRANCH  11  13
ENDBRANCH   3   6
BRANCH   2  20
ATOM     20  C   UNL     1       0.581  -1.798   0.571  0.00  0.00    +0.051 C 
ATOM     21  C   UNL     1       1.207  -1.943   1.809  0.00  0.00    +0.018 C 
ATOM     22  C   UNL     1       1.340  -1.523  -0.567  0.00  0.00    +0.018 C 
ATOM     23  C   UNL     1       3.352  -1.539   0.772  0.00  0.00    +0.145 C 
ATOM     24  C   UNL     1       2.593  -1.814   1.909  0.00  0.00    +0.039 C 
ATOM     25  C   UNL     1       2.726  -1.394  -0.466  0.00  0.00    +0.039 C 
BRANCH  23  26
ATOM     26  O   UNL     1       4.703  -1.411   0.870  0.00  0.00    -0.453 OA
BRANCH  26  27
ATOM     27  C   UNL     1       5.299  -0.350   0.210  0.00  0.00    +0.145 C 
ATOM     28  C   UNL     1       4.727   0.907   0.301  0.00  0.00    +0.037 C 
ATOM     29  C   UNL     1       6.450  -0.573  -0.524  0.00  0.00    +0.037 C 
ATOM     30  C   UNL     1       5.327   1.976  -0.365  0.00  0.00    +0.003 C 
ATOM     31  C   UNL     1       7.050   0.496  -1.190  0.00  0.00    +0.003 C 
ATOM     32  C   UNL     1       6.488   1.770  -1.110  0.00  0.00    +0.000 C 
ENDBRANCH  26  27
ENDBRANCH  23  26
ENDBRANCH   2  20
TORSDOF 6
