REMARK  Name = 6920596
REMARK  3 active torsions:
REMARK  status: ('A' for Active; 'I' for Inactive)
REMARK    1  A    between atoms: N_2  and  C_7
REMARK    2  A    between atoms: C_4  and  C_15
REMARK    3  A    between atoms: N_14  and  C_18
REMARK                            x       y       z     vdW  Elec       q    Type
REMARK                         _______ _______ _______ _____ _____    ______ ____
ROOT
ATOM      1  O   UNL     1       2.467  -1.749  -2.357  0.00  0.00    -0.275 OA
ATOM      2  N   UNL     1       2.471  -0.751  -0.229  0.00  0.00    -0.281 N 
ATOM      3  C   UNL     1       1.690  -0.836   0.983  0.00  0.00    +0.103 C 
ATOM      4  C   UNL     1       0.384  -1.464   0.530  0.00  0.00    +0.106 C 
ATOM      5  C   UNL     1       0.746  -2.251  -0.729  0.00  0.00    +0.096 C 
ATOM      6  C   UNL     1       1.988  -1.565  -1.248  0.00  0.00    +0.226 C 
ENDROOT
BRANCH   2   7
ATOM      7  C   UNL     1       3.695   0.012  -0.283  0.00  0.00    +0.075 C 
ATOM      8  C   UNL     1       3.404   1.511  -0.163  0.00  0.00    +0.020 C 
ATOM      9  C   UNL     1       4.666  -0.456   0.803  0.00  0.00    +0.020 C 
ATOM     10  C   UNL     1       4.690   2.334  -0.163  0.00  0.00    +0.002 C 
ATOM     11  C   UNL     1       5.950   0.371   0.804  0.00  0.00    +0.002 C 
ATOM     12  C   UNL     1       5.658   1.864   0.919  0.00  0.00    +0.000 C 
ENDBRANCH   2   7
BRANCH   4  15
ATOM     13  O   UNL     1      -0.338   0.699  -0.138  0.00  0.00    -0.275 OA
ATOM     14  N   UNL     1      -1.938  -0.928   0.438  0.00  0.00    -0.284 N 
ATOM     15  C   UNL     1      -0.659  -0.426   0.232  0.00  0.00    +0.228 C 
ATOM     16  H   UNL     1      -1.995  -1.863   0.741  0.00  0.00    +0.155 HD
BRANCH  14  18
ATOM     17 CL   UNL     1      -4.331   3.391  -0.875  0.00  0.00    -0.082 Cl
ATOM     18  C   UNL     1      -3.167  -0.250   0.262  0.00  0.00    +0.047 C 
ATOM     19  C   UNL     1      -4.365  -0.901   0.513  0.00  0.00    -0.008 C 
ATOM     20  C   UNL     1      -3.141   1.069  -0.164  0.00  0.00    +0.026 C 
ATOM     21  C   UNL     1      -5.566  -0.216   0.333  0.00  0.00    -0.002 C 
ATOM     22  C   UNL     1      -4.407  -2.322   0.972  0.00  0.00    +0.032 C 
ATOM     23  C   UNL     1      -4.343   1.754  -0.344  0.00  0.00    +0.059 C 
ATOM     24  C   UNL     1      -5.556   1.111  -0.096  0.00  0.00    +0.011 C 
ENDBRANCH  14  18
ENDBRANCH   4  15
TORSDOF 3
