REMARK  Name = 44585557
REMARK  2 active torsions:
REMARK  status: ('A' for Active; 'I' for Inactive)
REMARK    1  A    between atoms: N_1  and  C_9
REMARK    2  A    between atoms: N_1  and  C_10
REMARK                            x       y       z     vdW  Elec       q    Type
REMARK                         _______ _______ _______ _____ _____    ______ ____
ROOT
ATOM      1  N   UNL     1       0.421   0.631  -0.091  0.00  0.00    -0.312 N 
ATOM      2  H   UNL     1       0.222   1.592  -0.172  0.00  0.00    +0.152 HD
ENDROOT
BRANCH   1   9
ATOM      3  O   UNL     1      -4.199  -0.154   0.114  0.00  0.00    -0.445 OA
ATOM      4  O   UNL     1      -2.935  -2.059  -0.157  0.00  0.00    -0.245 OA
ATOM      5  C   UNL     1      -2.542   1.497  -0.191  0.00  0.00    +0.082 C 
ATOM      6  C   UNL     1      -1.948   0.144  -0.108  0.00  0.00    +0.072 C 
ATOM      7  C   UNL     1      -3.915   1.229   0.377  0.00  0.00    +0.214 C 
ATOM      8  C   UNL     1      -3.037  -0.850  -0.054  0.00  0.00    +0.339 C 
ATOM      9  C   UNL     1      -0.658  -0.191  -0.050  0.00  0.00    +0.064 C 
ENDBRANCH   1   9
BRANCH   1  10
ATOM     10  C   UNL     1       1.783   0.294  -0.032  0.00  0.00    +0.048 C 
ATOM     11  C   UNL     1       2.752   1.295  -0.088  0.00  0.00    +0.015 C 
ATOM     12  C   UNL     1       2.166  -1.042   0.084  0.00  0.00    +0.015 C 
ATOM     13  C   UNL     1       4.105   0.960  -0.030  0.00  0.00    +0.001 C 
ATOM     14  C   UNL     1       3.518  -1.377   0.142  0.00  0.00    +0.001 C 
ATOM     15  C   UNL     1       4.488  -0.377   0.085  0.00  0.00    +0.000 C 
ENDBRANCH   1  10
TORSDOF 2
