REMARK  Name = 448943
REMARK  5 active torsions:
REMARK  status: ('A' for Active; 'I' for Inactive)
REMARK    1  A    between atoms: N_1  and  C_28
REMARK    2  A    between atoms: C_4  and  C_13
REMARK    3  A    between atoms: C_14  and  C_19
REMARK    4  A    between atoms: C_28  and  C_29
REMARK    5  A    between atoms: C_29  and  C_31
REMARK                            x       y       z     vdW  Elec       q    Type
REMARK                         _______ _______ _______ _____ _____    ______ ____
ROOT
ATOM      1  N   UNL     1       1.647   1.355  -0.125  0.00  0.00    -0.286 N 
ATOM      2  C   UNL     1       1.183   1.507   1.155  0.00  0.00    +0.052 C 
ATOM      3  C   UNL     1       0.620   1.338  -1.019  0.00  0.00    +0.066 C 
ATOM      4  C   UNL     1      -0.549   1.484  -0.308  0.00  0.00    +0.021 C 
ATOM      5  C   UNL     1      -0.208   1.592   1.069  0.00  0.00    +0.015 C 
ATOM      6  C   UNL     1       1.870   1.577   2.372  0.00  0.00    +0.015 C 
ATOM      7  C   UNL     1      -0.952   1.755   2.255  0.00  0.00    +0.001 C 
ATOM      8  C   UNL     1       1.112   1.738   3.535  0.00  0.00    +0.001 C 
ATOM      9  C   UNL     1      -0.278   1.826   3.479  0.00  0.00    +0.000 C 
ENDROOT
BRANCH   4  13
ATOM     10  O   UNL     1      -2.032   3.895  -1.220  0.00  0.00    -0.270 OA
ATOM     11  O   UNL     1      -4.905   0.448  -2.122  0.00  0.00    -0.270 OA
ATOM     12  N   UNL     1      -3.731   2.428  -1.815  0.00  0.00    -0.248 N 
ATOM     13  C   UNL     1      -1.852   1.515  -0.897  0.00  0.00    +0.059 C 
ATOM     14  C   UNL     1      -2.702   0.503  -1.151  0.00  0.00    +0.059 C 
ATOM     15  C   UNL     1      -2.510   2.778  -1.320  0.00  0.00    +0.252 C 
ATOM     16  C   UNL     1      -3.930   1.081  -1.753  0.00  0.00    +0.252 C 
ATOM     17  H   UNL     1      -4.388   3.069  -2.172  0.00  0.00    +0.158 HD
BRANCH  14  19
ATOM     18  N   UNL     1      -1.999  -3.026  -1.315  0.00  0.00    -0.312 N 
ATOM     19  C   UNL     1      -2.534  -0.901  -0.939  0.00  0.00    +0.020 C 
ATOM     20  C   UNL     1      -2.863  -1.659   0.222  0.00  0.00    +0.015 C 
ATOM     21  C   UNL     1      -2.004  -1.772  -1.866  0.00  0.00    +0.062 C 
ATOM     22  C   UNL     1      -2.518  -2.987  -0.041  0.00  0.00    +0.048 C 
ATOM     23  C   UNL     1      -3.423  -1.339   1.474  0.00  0.00    +0.001 C 
ATOM     24  C   UNL     1      -2.706  -4.014   0.890  0.00  0.00    +0.015 C 
ATOM     25  C   UNL     1      -3.618  -2.357   2.416  0.00  0.00    +0.000 C 
ATOM     26  C   UNL     1      -3.264  -3.674   2.126  0.00  0.00    +0.001 C 
ATOM     27  H   UNL     1      -1.672  -3.838  -1.766  0.00  0.00    +0.152 HD
ENDBRANCH  14  19
ENDBRANCH   4  13
BRANCH   1  28
ATOM     28  C   UNL     1       3.052   1.227  -0.498  0.00  0.00    +0.093 C 
BRANCH  28  29
ATOM     29  C   UNL     1       3.509  -0.229  -0.512  0.00  0.00    +0.001 C 
BRANCH  29  31
ATOM     30  N   UNL     1       5.509  -1.708  -0.779  0.00  0.00    +0.387 N 
ATOM     31  C   UNL     1       4.979  -0.342  -0.893  0.00  0.00    -0.057 C 
ATOM     32  C   UNL     1       5.876   0.446   0.063  0.00  0.00    -0.023 C 
ATOM     33  C   UNL     1       7.176  -0.347   0.141  0.00  0.00    -0.025 C 
ATOM     34  C   UNL     1       6.965  -1.549  -0.764  0.00  0.00    -0.077 C 
ATOM     35  C   UNL     1       5.079  -2.587  -1.861  0.00  0.00    -0.101 C 
ATOM     36  H   UNL     1       5.156  -2.162   0.063  0.00  0.00    -0.080 HD
ENDBRANCH  29  31
ENDBRANCH  28  29
ENDBRANCH   1  28
TORSDOF 5
