REMARK  Name = 24764436
REMARK  2 active torsions:
REMARK  status: ('A' for Active; 'I' for Inactive)
REMARK    1  A    between atoms: C_3  and  C_12
REMARK    2  A    between atoms: C_4  and  C_8
REMARK                            x       y       z     vdW  Elec       q    Type
REMARK                         _______ _______ _______ _____ _____    ______ ____
ROOT
ATOM      1  O   UNL     1       1.024   1.537  -0.282  0.00  0.00    -0.352 OA
ATOM      2  N   UNL     1      -0.363   1.608  -0.300  0.00  0.00    -0.077 NA
ATOM      3  C   UNL     1      -0.777   0.359  -0.069  0.00  0.00    +0.123 C 
ATOM      4  C   UNL     1       1.404   0.256  -0.042  0.00  0.00    +0.192 C 
ATOM      5  C   UNL     1       0.295  -0.535   0.101  0.00  0.00    +0.064 C 
ENDROOT
BRANCH   4   8
ATOM      6  N   UNL     1       3.803   0.740  -0.125  0.00  0.00    -0.233 N 
ATOM      7  N   UNL     1       5.014   0.168  -0.015  0.00  0.00    -0.180 NA
ATOM      8  C   UNL     1       2.766  -0.132   0.034  0.00  0.00    +0.104 C 
ATOM      9  C   UNL     1       3.338  -1.359   0.264  0.00  0.00    +0.041 C 
ATOM     10  C   UNL     1       4.724  -1.114   0.223  0.00  0.00    +0.119 C 
ATOM     11  H   UNL     1       3.676   1.699  -0.304  0.00  0.00    +0.175 HD
ENDBRANCH   4   8
BRANCH   3  12
ATOM     12  C   UNL     1      -2.177   0.048  -0.016  0.00  0.00    +0.021 C 
ATOM     13  C   UNL     1      -2.626  -1.217  -0.397  0.00  0.00    +0.002 C 
ATOM     14  C   UNL     1      -3.090   1.010   0.416  0.00  0.00    +0.002 C 
ATOM     15  C   UNL     1      -3.987  -1.519  -0.346  0.00  0.00    +0.000 C 
ATOM     16  C   UNL     1      -4.451   0.708   0.467  0.00  0.00    +0.000 C 
ATOM     17  C   UNL     1      -4.899  -0.556   0.086  0.00  0.00    +0.000 C 
ENDBRANCH   3  12
TORSDOF 2
