REMARK  Name = 22489160
REMARK  9 active torsions:
REMARK  status: ('A' for Active; 'I' for Inactive)
REMARK    1  A    between atoms: C_1  and  C_22
REMARK    2  A    between atoms: C_2  and  C_8
REMARK    3  A    between atoms: C_7  and  C_13
REMARK    4  A    between atoms: C_13  and  C_15
REMARK    5  A    between atoms: C_15  and  N_16
REMARK    6  A    between atoms: N_16  and  S_18
REMARK    7  A    between atoms: C_22  and  C_24
REMARK    8  A    between atoms: C_24  and  N_25
REMARK    9  A    between atoms: N_25  and  S_27
REMARK                            x       y       z     vdW  Elec       q    Type
REMARK                         _______ _______ _______ _____ _____    ______ ____
ROOT
ATOM      1  C   UNL     1       3.526   1.411  -0.079  0.00  0.00    -0.021 C 
ATOM      2  C   UNL     1       0.738   1.418  -0.016  0.00  0.00    -0.000 C 
ATOM      3  C   UNL     1       2.855   1.095   1.102  0.00  0.00    -0.004 C 
ATOM      4  C   UNL     1       2.804   1.730  -1.228  0.00  0.00    -0.004 C 
ATOM      5  C   UNL     1       1.460   1.099   1.134  0.00  0.00    -0.000 C 
ATOM      6  C   UNL     1       1.409   1.734  -1.197  0.00  0.00    -0.000 C 
ENDROOT
BRANCH   2   8
ATOM      7  C   UNL     1      -3.498   1.430   0.081  0.00  0.00    -0.021 C 
ATOM      8  C   UNL     1      -0.709   1.423   0.017  0.00  0.00    -0.000 C 
ATOM      9  C   UNL     1      -2.773   1.737   1.233  0.00  0.00    -0.004 C 
ATOM     10  C   UNL     1      -2.828   1.119  -1.102  0.00  0.00    -0.004 C 
ATOM     11  C   UNL     1      -1.378   1.734   1.201  0.00  0.00    -0.000 C 
ATOM     12  C   UNL     1      -1.433   1.116  -1.134  0.00  0.00    -0.000 C 
BRANCH   7  13
ATOM     13  C   UNL     1      -4.988   1.433   0.115  0.00  0.00    +0.040 C 
ATOM     14  C   UNL     1      -5.586   2.499  -0.828  0.00  0.00    +0.006 C 
BRANCH  13  15
ATOM     15  C   UNL     1      -5.624   0.064  -0.227  0.00  0.00    +0.095 C 
BRANCH  15  16
ATOM     16  N   UNL     1      -5.161  -0.959   0.741  0.00  0.00    -0.183 NA
ATOM     17  H   UNL     1      -4.252  -0.654   1.087  0.00  0.00    +0.148 HD
BRANCH  16  18
ATOM     18  S   UNL     1      -4.980  -2.569   0.215  0.00  0.00    +0.043 S 
ATOM     19  O   UNL     1      -4.826  -3.449   1.357  0.00  0.00    -0.157 OA
ATOM     20  O   UNL     1      -4.018  -2.587  -0.870  0.00  0.00    -0.157 OA
ATOM     21  C   UNL     1      -6.584  -2.867  -0.492  0.00  0.00    +0.196 C 
ENDBRANCH  16  18
ENDBRANCH  15  16
ENDBRANCH  13  15
ENDBRANCH   7  13
ENDBRANCH   2   8
BRANCH   1  22
ATOM     22  C   UNL     1       5.046   1.408  -0.114  0.00  0.00    +0.040 C 
ATOM     23  C   UNL     1       5.617   2.468   0.834  0.00  0.00    +0.006 C 
BRANCH  22  24
ATOM     24  C   UNL     1       5.644   0.031   0.215  0.00  0.00    +0.095 C 
BRANCH  24  25
ATOM     25  N   UNL     1       5.157  -0.983  -0.751  0.00  0.00    -0.183 NA
ATOM     26  H   UNL     1       4.260  -0.650  -1.106  0.00  0.00    +0.148 HD
BRANCH  25  27
ATOM     27  S   UNL     1       4.921  -2.583  -0.217  0.00  0.00    +0.043 S 
ATOM     28  O   UNL     1       4.747  -3.464  -1.355  0.00  0.00    -0.157 OA
ATOM     29  O   UNL     1       3.952  -2.564   0.861  0.00  0.00    -0.157 OA
ATOM     30  C   UNL     1       6.510  -2.927   0.503  0.00  0.00    +0.196 C 
ENDBRANCH  25  27
ENDBRANCH  24  25
ENDBRANCH  22  24
ENDBRANCH   1  22
TORSDOF 9
