REMARK  Name = 17758361
REMARK  5 active torsions:
REMARK  status: ('A' for Active; 'I' for Inactive)
REMARK    1  A    between atoms: N_1  and  C_18
REMARK    2  A    between atoms: C_4  and  C_10
REMARK    3  A    between atoms: C_10  and  C_11
REMARK    4  A    between atoms: C_18  and  C_19
REMARK    5  A    between atoms: C_22  and  C_27
REMARK                            x       y       z     vdW  Elec       q    Type
REMARK                         _______ _______ _______ _____ _____    ______ ____
ROOT
ATOM      1  N   UNL     1       0.753   1.529  -0.296  0.00  0.00    -0.314 N 
ATOM      2  N   UNL     1      -0.724   3.291  -0.800  0.00  0.00    -0.229 NA
ATOM      3  C   UNL     1      -0.535   2.036  -0.335  0.00  0.00    +0.129 C 
ATOM      4  C   UNL     1      -2.853   1.709   0.081  0.00  0.00    +0.043 C 
ATOM      5  C   UNL     1      -1.555   1.212   0.113  0.00  0.00    +0.037 C 
ATOM      6  C   UNL     1      -3.088   2.996  -0.391  0.00  0.00    +0.024 C 
ATOM      7  C   UNL     1      -1.999   3.740  -0.816  0.00  0.00    +0.100 C 
ATOM      8  H   UNL     1       1.488   2.103  -0.612  0.00  0.00    +0.149 HD
ENDROOT
BRANCH   4  10
ATOM      9  O   UNL     1      -4.967   1.414   1.038  0.00  0.00    -0.287 OA
ATOM     10  C   UNL     1      -3.962   0.887   0.540  0.00  0.00    +0.196 C 
BRANCH  10  11
ATOM     11  C   UNL     1      -3.949  -0.604   0.438  0.00  0.00    +0.039 C 
ATOM     12  C   UNL     1      -3.830  -1.217  -0.810  0.00  0.00    -0.001 C 
ATOM     13  C   UNL     1      -3.817  -2.608  -0.905  0.00  0.00    -0.022 C 
ATOM     14  C   UNL     1      -4.054  -1.382   1.590  0.00  0.00    +0.003 C 
ATOM     15  C   UNL     1      -3.922  -3.387   0.248  0.00  0.00    -0.004 C 
ATOM     16  C   UNL     1      -4.040  -2.774   1.495  0.00  0.00    -0.000 C 
ATOM     17  C   UNL     1      -3.687  -3.264  -2.238  0.00  0.00    +0.031 C 
ENDBRANCH  10  11
ENDBRANCH   4  10
BRANCH   1  18
ATOM     18  C   UNL     1       1.077   0.203   0.182  0.00  0.00    +0.115 C 
BRANCH  18  19
ATOM     19  C   UNL     1       2.550  -0.032   0.148  0.00  0.00    -0.003 C 
ATOM     20  C   UNL     1       3.332   0.287   1.258  0.00  0.00    -0.003 C 
ATOM     21  C   UNL     1       3.145  -0.569  -0.994  0.00  0.00    -0.003 C 
ATOM     22  C   UNL     1       5.304  -0.468   0.085  0.00  0.00    +0.031 C 
ATOM     23  C   UNL     1       4.709   0.069   1.226  0.00  0.00    +0.002 C 
ATOM     24  C   UNL     1       4.522  -0.787  -1.025  0.00  0.00    +0.002 C 
BRANCH  22  27
ATOM     25  N   UNL     1       7.548  -0.387   1.146  0.00  0.00    -0.343 N 
ATOM     26  N   UNL     1       7.302  -1.200  -1.031  0.00  0.00    -0.285 NA
ATOM     27  C   UNL     1       6.740  -0.695   0.053  0.00  0.00    +0.117 C 
ATOM     28  H   UNL     1       8.518  -0.549   1.103  0.00  0.00    +0.144 HD
ATOM     29  H   UNL     1       7.148  -0.007   1.962  0.00  0.00    +0.144 HD
ATOM     30  H   UNL     1       8.274  -1.355  -1.055  0.00  0.00    +0.188 HD
ENDBRANCH  22  27
ENDBRANCH  18  19
ENDBRANCH   1  18
TORSDOF 5
