REMARK  Name = 5287845
REMARK  0 active torsions:
REMARK  status: ('A' for Active; 'I' for Inactive)
REMARK                            x       y       z     vdW  Elec       q    Type
REMARK                         _______ _______ _______ _____ _____    ______ ____
ROOT
ATOM      1 BR   UNL     1       3.631  -3.593   0.000  0.00  0.00    -0.049 Br
ATOM      2  O   UNL     1      -0.359  -1.812   0.001  0.00  0.00    -0.285 OA
ATOM      3  O   UNL     1       0.389   3.402   0.000  0.00  0.00    -0.270 OA
ATOM      4  N   UNL     1      -1.787   1.379   0.000  0.00  0.00    -0.310 N 
ATOM      5  N   UNL     1       2.493   2.327   0.000  0.00  0.00    -0.280 N 
ATOM      6  C   UNL     1       0.642   0.981   0.000  0.00  0.00    +0.071 C 
ATOM      7  C   UNL     1      -0.643   0.621   0.000  0.00  0.00    +0.092 C 
ATOM      8  C   UNL     1       1.825   0.127   0.000  0.00  0.00    +0.020 C 
ATOM      9  C   UNL     1       2.921   0.995   0.000  0.00  0.00    +0.051 C 
ATOM     10  C   UNL     1      -2.536  -0.792  -0.001  0.00  0.00    +0.054 C 
ATOM     11  C   UNL     1      -2.908   0.559  -0.001  0.00  0.00    +0.051 C 
ATOM     12  C   UNL     1      -1.063  -0.824   0.000  0.00  0.00    +0.210 C 
ATOM     13  C   UNL     1       1.097   2.412   0.000  0.00  0.00    +0.251 C 
ATOM     14  C   UNL     1       2.010  -1.243   0.000  0.00  0.00    +0.008 C 
ATOM     15  C   UNL     1       4.224   0.540   0.000  0.00  0.00    +0.015 C 
ATOM     16  C   UNL     1      -3.447  -1.827  -0.001  0.00  0.00    +0.004 C 
ATOM     17  C   UNL     1      -4.242   0.909   0.000  0.00  0.00    +0.015 C 
ATOM     18  C   UNL     1       3.323  -1.726   0.000  0.00  0.00    +0.035 C 
ATOM     19  C   UNL     1       4.419  -0.843   0.000  0.00  0.00    +0.008 C 
ATOM     20  C   UNL     1      -4.797  -1.474   0.000  0.00  0.00    +0.000 C 
ATOM     21  C   UNL     1      -5.191  -0.121   0.001  0.00  0.00    +0.001 C 
ATOM     22  H   UNL     1      -1.810   2.363   0.000  0.00  0.00    +0.152 HD
ATOM     23  H   UNL     1       3.097   3.105   0.000  0.00  0.00    +0.155 HD
ENDROOT
TORSDOF 0
