REMARK  Name = 44141864
REMARK  5 active torsions:
REMARK  status: ('A' for Active; 'I' for Inactive)
REMARK    1  A    between atoms: C_2  and  C_11
REMARK    2  A    between atoms: C_7  and  C_18
REMARK    3  A    between atoms: C_8  and  O_14
REMARK    4  A    between atoms: C_10  and  O_16
REMARK    5  A    between atoms: C_18  and  C_23
REMARK                            x       y       z     vdW  Elec       q    Type
REMARK                         _______ _______ _______ _____ _____    ______ ____
ROOT
ATOM      1  O   UNL     1      -3.006  -0.449   0.422  0.00  0.00    -0.471 OA
ATOM      2  C   UNL     1      -2.829  -1.852   0.707  0.00  0.00    +0.117 C 
ATOM      3  C   UNL     1      -1.531  -2.228   1.373  0.00  0.00    +0.032 C 
ATOM      4  C   UNL     1      -1.911   0.368   0.466  0.00  0.00    +0.246 C 
ATOM      5  C   UNL     1      -0.512  -1.375   1.506  0.00  0.00    +0.002 C 
ATOM      6  C   UNL     1      -0.675  -0.029   0.982  0.00  0.00    +0.021 C 
ATOM      7  C   UNL     1       0.387   0.882   1.005  0.00  0.00    -0.015 C 
ATOM      8  C   UNL     1      -2.087   1.668  -0.016  0.00  0.00    +0.194 C 
ATOM      9  C   UNL     1       0.212   2.177   0.516  0.00  0.00    +0.036 C 
ATOM     10  C   UNL     1      -1.024   2.570   0.006  0.00  0.00    +0.172 C 
ENDROOT
BRANCH   2  11
ATOM     11  C   UNL     1      -3.100  -2.620  -0.560  0.00  0.00    +0.057 C 
ATOM     12  C   UNL     1      -4.516  -2.801  -1.020  0.00  0.00    +0.008 C 
ATOM     13  C   UNL     1      -3.750  -3.970  -0.474  0.00  0.00    +0.008 C 
ENDBRANCH   2  11
BRANCH   8  14
ATOM     14  O   UNL     1      -3.295   2.059  -0.512  0.00  0.00    -0.469 OA
ATOM     15  C   UNL     1      -3.515   1.863  -1.907  0.00  0.00    +0.252 C 
ENDBRANCH   8  14
BRANCH  10  16
ATOM     16  O   UNL     1      -1.181   3.838  -0.464  0.00  0.00    -0.469 OA
ATOM     17  C   UNL     1      -0.044   4.697  -0.405  0.00  0.00    +0.253 C 
ENDBRANCH  10  16
BRANCH   7  18
ATOM     18  C   UNL     1       1.737   0.520   1.541  0.00  0.00    +0.058 C 
BRANCH  18  23
ATOM     19  N   UNL     1       4.806  -0.959  -0.154  0.00  0.00    -0.323 NA
ATOM     20  N   UNL     1       3.053  -0.702  -1.787  0.00  0.00    -0.170 NA
ATOM     21  N   UNL     1       4.441  -0.319   2.101  0.00  0.00    -0.332 N 
ATOM     22  N   UNL     1       5.143  -1.581  -2.391  0.00  0.00    -0.293 N 
ATOM     23  C   UNL     1       2.674  -0.051   0.499  0.00  0.00    +0.047 C 
ATOM     24  C   UNL     1       3.966  -0.450   0.772  0.00  0.00    +0.188 C 
ATOM     25  C   UNL     1       2.267  -0.201  -0.811  0.00  0.00    +0.112 C 
ATOM     26  C   UNL     1       4.291  -1.055  -1.395  0.00  0.00    +0.143 C 
ATOM     27  H   UNL     1       5.359  -0.596   2.325  0.00  0.00    +0.145 HD
ATOM     28  H   UNL     1       3.854   0.048   2.800  0.00  0.00    +0.145 HD
ATOM     29  H   UNL     1       6.059  -1.856  -2.160  0.00  0.00    +0.155 HD
ATOM     30  H   UNL     1       4.819  -1.673  -3.316  0.00  0.00    +0.155 HD
ENDBRANCH  18  23
ENDBRANCH   7  18
TORSDOF 5
