REMARK  Name = 25210493
REMARK  4 active torsions:
REMARK  status: ('A' for Active; 'I' for Inactive)
REMARK    1  A    between atoms: N_1  and  S_7
REMARK    2  A    between atoms: N_2  and  S_20
REMARK    3  A    between atoms: S_7  and  C_12
REMARK    4  A    between atoms: S_20  and  C_25
REMARK                            x       y       z     vdW  Elec       q    Type
REMARK                         _______ _______ _______ _____ _____    ______ ____
ROOT
ATOM      1  N   UNL     1       0.247   1.411   0.249  0.00  0.00    -0.153 NA
ATOM      2  N   UNL     1      -1.501  -0.833  -0.032  0.00  0.00    -0.152 NA
ATOM      3  C   UNL     1       0.004   0.802  -1.092  0.00  0.00    +0.115 C 
ATOM      4  C   UNL     1       0.133   0.397   1.339  0.00  0.00    +0.115 C 
ATOM      5  C   UNL     1      -1.387   0.180  -1.122  0.00  0.00    +0.115 C 
ATOM      6  C   UNL     1      -1.258  -0.225   1.309  0.00  0.00    +0.115 C 
ENDROOT
BRANCH   1   7
ATOM      7  S   UNL     1       1.608   2.446   0.350  0.00  0.00    +0.063 S 
ATOM      8  O   UNL     1       1.813   2.823   1.732  0.00  0.00    -0.153 OA
ATOM      9  O   UNL     1       1.515   3.446  -0.691  0.00  0.00    -0.153 OA
BRANCH   7  12
ATOM     10  O   UNL     1       5.171  -0.996   1.552  0.00  0.00    -0.468 OA
ATOM     11  O   UNL     1       5.867  -1.359  -1.222  0.00  0.00    -0.468 OA
ATOM     12  C   UNL     1       2.888   1.315  -0.096  0.00  0.00    +0.125 C 
ATOM     13  C   UNL     1       3.538   0.574   0.891  0.00  0.00    +0.060 C 
ATOM     14  C   UNL     1       3.251   1.167  -1.436  0.00  0.00    +0.023 C 
ATOM     15  C   UNL     1       4.555  -0.313   0.536  0.00  0.00    +0.174 C 
ATOM     16  C   UNL     1       4.900  -0.480  -0.808  0.00  0.00    +0.172 C 
ATOM     17  C   UNL     1       4.259   0.271  -1.793  0.00  0.00    +0.041 C 
ATOM     18  C   UNL     1       6.398  -1.595   1.125  0.00  0.00    +0.253 C 
ATOM     19  C   UNL     1       6.203  -2.303  -0.202  0.00  0.00    +0.253 C 
ENDBRANCH   7  12
ENDBRANCH   1   7
BRANCH   2  20
ATOM     20  S   UNL     1      -2.863  -1.869  -0.133  0.00  0.00    +0.068 S 
ATOM     21  O   UNL     1      -2.931  -2.676   1.067  0.00  0.00    -0.153 OA
ATOM     22  O   UNL     1      -2.893  -2.477  -1.445  0.00  0.00    -0.153 OA
BRANCH  20  25
ATOM     23  F   UNL     1      -4.158  -0.463  -2.421  0.00  0.00    -0.203 F 
ATOM     24  F   UNL     1      -4.223  -0.839   2.313  0.00  0.00    -0.203 F 
ATOM     25  C   UNL     1      -4.162  -0.676  -0.056  0.00  0.00    +0.177 C 
ATOM     26  C   UNL     1      -4.659  -0.110  -1.229  0.00  0.00    +0.161 C 
ATOM     27  C   UNL     1      -4.692  -0.301   1.179  0.00  0.00    +0.161 C 
ATOM     28  C   UNL     1      -5.686   0.832  -1.169  0.00  0.00    +0.031 C 
ATOM     29  C   UNL     1      -5.719   0.641   1.240  0.00  0.00    +0.031 C 
ATOM     30  C   UNL     1      -6.216   1.208   0.066  0.00  0.00    +0.005 C 
ENDBRANCH  20  25
ENDBRANCH   2  20
TORSDOF 4
