REMARK  Name = 446620
REMARK  8 active torsions:
REMARK  status: ('A' for Active; 'I' for Inactive)
REMARK    1  A    between atoms: N_2  and  CA_16
REMARK    2  A    between atoms: C_3  and  C_5
REMARK    3  A    between atoms: C_5  and  C_7
REMARK    4  A    between atoms: CA_16  and  C_18
REMARK    5  A    between atoms: CA_16  and  CB_21
REMARK    6  A    between atoms: C_18  and  O_19
REMARK    7  A    between atoms: CB_21  and  CG_23
REMARK    8  A    between atoms: CG_23  and  OD1_24
REMARK                            x       y       z     vdW  Elec       q    Type
REMARK                         _______ _______ _______ _____ _____    ______ ____
ROOT
ATOM      1  O   UNL     1       0.705  -1.493   1.647  0.00  0.00    -0.275 OA
ATOM      2  N   UNL     1       1.555  -0.276  -0.139  0.00  0.00    -0.296 N 
ATOM      3  C   ACE A   0       0.695  -1.185   0.456  0.00  0.00    +0.227 C 
ATOM      4  H   UNL     1       1.463  -0.099  -1.103  0.00  0.00    +0.150 HD
ENDROOT
BRANCH   3   5
ATOM      5  C   UNL     1      -0.331  -1.769  -0.509  0.00  0.00    +0.113 C 
BRANCH   5   7
ATOM      6  N   UNL     1      -3.679  -1.448   0.912  0.00  0.00    -0.312 N 
ATOM      7  C   UNL     1      -1.695  -1.398  -0.083  0.00  0.00    +0.003 C 
ATOM      8  C   UNL     1      -2.419  -0.237  -0.476  0.00  0.00    +0.011 C 
ATOM      9  C   UNL     1      -3.660  -0.293   0.163  0.00  0.00    +0.048 C 
ATOM     10  C   UNL     1      -2.496  -2.122   0.770  0.00  0.00    +0.058 C 
ATOM     11  C   UNL     1      -2.137   0.859  -1.315  0.00  0.00    +0.001 C 
ATOM     12  C   UNL     1      -4.637   0.696   0.003  0.00  0.00    +0.015 C 
ATOM     13  C   UNL     1      -3.105   1.856  -1.485  0.00  0.00    +0.000 C 
ATOM     14  C   UNL     1      -4.335   1.774  -0.835  0.00  0.00    +0.001 C 
ATOM     15  H   UNL     1      -4.433  -1.745   1.470  0.00  0.00    +0.152 HD
ENDBRANCH   5   7
ENDBRANCH   3   5
BRANCH   2  16
ATOM     16  CA  UNL     1       2.581   0.422   0.600  0.00  0.00    +0.182 C 
BRANCH  16  18
ATOM     17  OXT UNL     1       2.681   2.399   2.001  0.00  0.00    -0.248 OA
ATOM     18  C   UNL     1       2.031   1.681   1.250  0.00  0.00    +0.332 C 
BRANCH  18  19
ATOM     19  O   UNL     1       0.742   1.937   0.923  0.00  0.00    -0.479 OA
ATOM     20  H   UNL     1       0.282   1.361   0.344  0.00  0.00    +0.295 HD
ENDBRANCH  18  19
ENDBRANCH  16  18
BRANCH  16  21
ATOM     21  CB  UNL     1       3.769   0.769  -0.301  0.00  0.00    +0.140 C 
BRANCH  21  23
ATOM     22  OD2 UNL     1       4.429  -1.573  -0.466  0.00  0.00    -0.250 OA
ATOM     23  CG  UNL     1       4.390  -0.450  -0.950  0.00  0.00    +0.316 C 
BRANCH  23  24
ATOM     24  OD1 UNL     1       4.916  -0.149  -2.166  0.00  0.00    -0.480 OA
ATOM     25  HD1 UNL     1       4.862   0.726  -2.497  0.00  0.00    +0.295 HD
ENDBRANCH  23  24
ENDBRANCH  21  23
ENDBRANCH  16  21
ENDBRANCH   2  16
TORSDOF 8
