REMARK  Name = 5282230
REMARK  7 active torsions:
REMARK  status: ('A' for Active; 'I' for Inactive)
REMARK    1  A    between atoms: N_2  and  C_5
REMARK    2  A    between atoms: C_3  and  C_16
REMARK    3  A    between atoms: C_6  and  C_12
REMARK    4  A    between atoms: C_12  and  O_13
REMARK    5  A    between atoms: C_15  and  C_17
REMARK    6  A    between atoms: C_18  and  O_23
REMARK    7  A    between atoms: C_20  and  O_25
REMARK                            x       y       z     vdW  Elec       q    Type
REMARK                         _______ _______ _______ _____ _____    ______ ____
ROOT
ATOM      1  O   UNL     1       1.515   2.430  -0.119  0.00  0.00    -0.270 OA
ATOM      2  N   UNL     1       2.272   0.212   0.013  0.00  0.00    -0.280 N 
ATOM      3  C   UNL     1       1.322   1.223  -0.036  0.00  0.00    +0.250 C 
ATOM      4  H   UNL     1       1.928  -0.708   0.078  0.00  0.00    +0.155 HD
ENDROOT
BRANCH   2   5
ATOM      5  C   UNL     1       3.681   0.355  -0.020  0.00  0.00    +0.057 C 
ATOM      6  C   UNL     1       4.500  -0.761   0.038  0.00  0.00    +0.089 C 
ATOM      7  C   UNL     1       4.210   1.633  -0.111  0.00  0.00    +0.015 C 
ATOM      8  C   UNL     1       5.885  -0.595   0.004  0.00  0.00    +0.008 C 
ATOM      9  C   UNL     1       5.595   1.799  -0.145  0.00  0.00    +0.001 C 
ATOM     10  C   UNL     1       6.432   0.684  -0.088  0.00  0.00    +0.000 C 
BRANCH   6  12
ATOM     11  O   UNL     1       2.896  -2.416   0.679  0.00  0.00    -0.245 OA
ATOM     12  C   UNL     1       3.961  -2.111   0.136  0.00  0.00    +0.339 C 
BRANCH  12  13
ATOM     13  O   UNL     1       4.771  -3.035  -0.448  0.00  0.00    -0.477 OA
ATOM     14  H   UNL     1       5.573  -2.767  -0.851  0.00  0.00    +0.295 HD
ENDBRANCH  12  13
ENDBRANCH   6  12
ENDBRANCH   2   5
BRANCH   3  16
ATOM     15  C   UNL     1      -1.141   1.474   0.002  0.00  0.00    +0.005 C 
ATOM     16  C   UNL     1      -0.062   0.660   0.023  0.00  0.00    +0.058 C 
BRANCH  15  17
ATOM     17  C   UNL     1      -2.526   1.033   0.065  0.00  0.00    +0.003 C 
ATOM     18  C   UNL     1      -4.183  -0.705  -0.202  0.00  0.00    +0.172 C 
ATOM     19  C   UNL     1      -2.855  -0.283  -0.262  0.00  0.00    +0.040 C 
ATOM     20  C   UNL     1      -5.182   0.188   0.184  0.00  0.00    +0.172 C 
ATOM     21  C   UNL     1      -3.526   1.926   0.451  0.00  0.00    +0.003 C 
ATOM     22  C   UNL     1      -4.853   1.504   0.511  0.00  0.00    +0.040 C 
BRANCH  18  23
ATOM     23  O   UNL     1      -4.491  -1.993  -0.523  0.00  0.00    -0.468 OA
ATOM     24  C   UNL     1      -4.475  -2.947   0.536  0.00  0.00    +0.253 C 
ENDBRANCH  18  23
BRANCH  20  25
ATOM     25  O   UNL     1      -6.482  -0.213   0.247  0.00  0.00    -0.468 OA
ATOM     26  C   UNL     1      -7.265  -0.062  -0.936  0.00  0.00    +0.253 C 
ENDBRANCH  20  25
ENDBRANCH  15  17
ENDBRANCH   3  16
TORSDOF 7
