REMARK  Name = 93114
REMARK  2 active torsions:
REMARK  status: ('A' for Active; 'I' for Inactive)
REMARK    1  A    between atoms: C_5  and  C_13
REMARK    2  A    between atoms: C_6  and  C_19
REMARK                            x       y       z     vdW  Elec       q    Type
REMARK                         _______ _______ _______ _____ _____    ______ ____
ROOT
ATOM      1  N   UNL     1       2.380   0.963  -0.293  0.00  0.00    -0.337 NA
ATOM      2  N   UNL     1       2.379  -1.397   0.194  0.00  0.00    -0.317 NA
ATOM      3  N   UNL     1       0.342  -2.574   0.440  0.00  0.00    -0.335 N 
ATOM      4  N   UNL     1       4.393  -0.219  -0.052  0.00  0.00    -0.283 N 
ATOM      5  C   UNL     1       0.294  -0.216  -0.046  0.00  0.00    +0.138 C 
ATOM      6  C   UNL     1       1.031   0.927  -0.283  0.00  0.00    +0.112 C 
ATOM      7  C   UNL     1       1.030  -1.360   0.188  0.00  0.00    +0.178 C 
ATOM      8  C   UNL     1       2.981  -0.218  -0.050  0.00  0.00    +0.196 C 
ATOM      9  H   UNL     1       0.849  -3.401   0.609  0.00  0.00    +0.144 HD
ATOM     10  H   UNL     1      -0.642  -2.590   0.445  0.00  0.00    +0.144 HD
ATOM     11  H   UNL     1       4.885   0.616  -0.225  0.00  0.00    +0.156 HD
ATOM     12  H   UNL     1       4.885  -1.054   0.119  0.00  0.00    +0.156 HD
ENDROOT
BRANCH   5  13
ATOM     13  C   UNL     1      -1.153  -0.204  -0.046  0.00  0.00    -0.008 C 
ATOM     14  C   UNL     1      -1.853  -0.442  -1.229  0.00  0.00    -0.003 C 
ATOM     15  C   UNL     1      -1.848   0.044   1.137  0.00  0.00    -0.003 C 
ATOM     16  C   UNL     1      -3.247  -0.433  -1.228  0.00  0.00    -0.000 C 
ATOM     17  C   UNL     1      -3.243   0.053   1.138  0.00  0.00    -0.000 C 
ATOM     18  C   UNL     1      -3.942  -0.185  -0.044  0.00  0.00    -0.000 C 
ENDBRANCH   5  13
BRANCH   6  19
ATOM     19  C   UNL     1       0.357   2.235  -0.552  0.00  0.00    +0.056 C 
ATOM     20  C   UNL     1       0.099   3.025   0.727  0.00  0.00    +0.008 C 
ENDBRANCH   6  19
TORSDOF 2
