REMARK  Name = 9867609
REMARK  12 active torsions:
REMARK  status: ('A' for Active; 'I' for Inactive)
REMARK    1  A    between atoms: C_2  and  C_22
REMARK    2  A    between atoms: C_3  and  N_8
REMARK    3  A    between atoms: C_5  and  C_21
REMARK    4  A    between atoms: N_8  and  C_10
REMARK    5  A    between atoms: C_10  and  C_13
REMARK    6  A    between atoms: C_13  and  C_15
REMARK    7  A    between atoms: C_22  and  C_25
REMARK    8  A    between atoms: N_24  and  C_27
REMARK    9  A    between atoms: C_27  and  C_28
REMARK   10  A    between atoms: C_28  and  O_29
REMARK   11  A    between atoms: O_29  and  N_30
REMARK   12  A    between atoms: N_30  and  C_33
REMARK                            x       y       z     vdW  Elec       q    Type
REMARK                         _______ _______ _______ _____ _____    ______ ____
ROOT
ATOM      1  F   UNL     1      -0.011   2.434  -0.776  0.00  0.00    -0.203 F 
ATOM      2  C   UNL     1      -1.351   1.331   0.837  0.00  0.00    +0.025 C 
ATOM      3  C   UNL     1       0.965   0.713   0.530  0.00  0.00    +0.072 C 
ATOM      4  C   UNL     1      -0.131   1.505   0.184  0.00  0.00    +0.150 C 
ATOM      5  C   UNL     1      -1.476   0.364   1.835  0.00  0.00    +0.067 C 
ATOM      6  C   UNL     1       0.840  -0.253   1.528  0.00  0.00    +0.017 C 
ATOM      7  C   UNL     1      -0.380  -0.427   2.181  0.00  0.00    +0.011 C 
ENDROOT
BRANCH   3   8
ATOM      8  N   UNL     1       2.200   0.888  -0.129  0.00  0.00    -0.326 N 
ATOM      9  H   UNL     1       2.266   1.576  -0.830  0.00  0.00    +0.147 HD
BRANCH   8  10
ATOM     10  C   UNL     1       3.360   0.111   0.178  0.00  0.00    +0.161 C 
BRANCH  10  13
ATOM     11  F   UNL     1       4.737   1.859  -0.569  0.00  0.00    -0.196 F 
ATOM     12  F   UNL     1       4.125   0.373  -2.026  0.00  0.00    -0.196 F 
ATOM     13  C   UNL     1       4.522   0.519  -0.727  0.00  0.00    +0.316 C 
BRANCH  13  15
ATOM     14  N   UNL     1       6.593   0.210   0.516  0.00  0.00    -0.243 NA
ATOM     15  C   UNL     1       5.756  -0.292  -0.419  0.00  0.00    +0.121 C 
ATOM     16  C   UNL     1       5.970  -1.485  -1.091  0.00  0.00    +0.020 C 
ATOM     17  C   UNL     1       7.117  -2.209  -0.784  0.00  0.00    +0.003 C 
ATOM     18  C   UNL     1       7.698  -0.522   0.789  0.00  0.00    +0.099 C 
ATOM     19  C   UNL     1       8.002  -1.725   0.173  0.00  0.00    +0.021 C 
ENDBRANCH  13  15
ENDBRANCH  10  13
ENDBRANCH   8  10
ENDBRANCH   3   8
BRANCH   5  21
ATOM     20  N   UNL     1      -3.723   0.007   3.077  0.00  0.00    -0.191 NA
ATOM     21  C   UNL     1      -2.717   0.167   2.521  0.00  0.00    +0.100 C 
ENDBRANCH   5  21
BRANCH   2  22
ATOM     22  C   UNL     1      -2.514   2.201   0.440  0.00  0.00    +0.114 C 
BRANCH  22  25
ATOM     23  O   UNL     1      -2.910   0.844  -1.526  0.00  0.00    -0.275 OA
ATOM     24  N   UNL     1      -4.675   2.043  -0.609  0.00  0.00    -0.302 N 
ATOM     25  C   UNL     1      -3.355   1.609  -0.674  0.00  0.00    +0.227 C 
ATOM     26  H   UNL     1      -4.933   2.658   0.115  0.00  0.00    +0.150 HD
BRANCH  24  27
ATOM     27  C   UNL     1      -5.678   1.632  -1.554  0.00  0.00    +0.125 C 
BRANCH  27  28
ATOM     28  C   UNL     1      -6.389   0.370  -1.099  0.00  0.00    +0.197 C 
BRANCH  28  29
ATOM     29  O   UNL     1      -5.449  -0.689  -0.994  0.00  0.00    -0.232 OA
BRANCH  29  30
ATOM     30  N   UNL     1      -6.133  -1.839  -0.573  0.00  0.00    -0.096 NA
BRANCH  30  33
ATOM     31  N   UNL     1      -3.951  -2.815  -0.715  0.00  0.00    -0.368 N 
ATOM     32  N   UNL     1      -5.738  -4.082  -0.063  0.00  0.00    -0.368 N 
ATOM     33  C   UNL     1      -5.304  -2.842  -0.463  0.00  0.00    +0.217 C 
ATOM     34  H   UNL     1      -3.523  -1.979  -1.010  0.00  0.00    +0.159 HD
ATOM     35  H   UNL     1      -3.413  -3.631  -0.602  0.00  0.00    +0.159 HD
ATOM     36  H   UNL     1      -6.689  -4.227   0.147  0.00  0.00    +0.159 HD
ATOM     37  H   UNL     1      -5.099  -4.827   0.014  0.00  0.00    +0.159 HD
ENDBRANCH  30  33
ENDBRANCH  29  30
ENDBRANCH  28  29
ENDBRANCH  27  28
ENDBRANCH  24  27
ENDBRANCH  22  25
ENDBRANCH   2  22
TORSDOF 12
