REMARK  Name = 6323250
REMARK  8 active torsions:
REMARK  status: ('A' for Active; 'I' for Inactive)
REMARK    1  A    between atoms: N_2  and  C_23
REMARK    2  A    between atoms: N_3  and  C_5
REMARK    3  A    between atoms: N_3  and  C_12
REMARK    4  A    between atoms: C_12  and  C_15
REMARK    5  A    between atoms: C_15  and  C_17
REMARK    6  A    between atoms: C_23  and  C_26
REMARK    7  A    between atoms: N_25  and  C_28
REMARK    8  A    between atoms: C_28  and  C_31
REMARK                            x       y       z     vdW  Elec       q    Type
REMARK                         _______ _______ _______ _____ _____    ______ ____
ROOT
ATOM      1  O   UNL     1       0.695  -2.192   0.751  0.00  0.00    -0.271 OA
ATOM      2  N   UNL     1      -0.677  -1.208  -0.860  0.00  0.00    -0.250 N 
ATOM      3  N   UNL     1       1.476   0.318  -1.571  0.00  0.00    -0.313 N 
ATOM      4  C   UNL     1       1.641  -0.553  -0.585  0.00  0.00    +0.207 C 
ATOM      5  C   UNL     1      -0.790  -0.275  -1.888  0.00  0.00    +0.046 C 
ATOM      6  C   UNL     1       0.533  -1.389  -0.165  0.00  0.00    +0.263 C 
ATOM      7  C   UNL     1       0.278   0.463  -2.220  0.00  0.00    +0.070 C 
ATOM      8  C   UNL     1      -2.096  -0.105  -2.609  0.00  0.00    +0.049 C 
ATOM      9  H   UNL     1       2.237   0.878  -1.845  0.00  0.00    +0.148 HD
ENDROOT
BRANCH   4  10
ATOM     10  N   UNL     1       2.780  -0.728   0.072  0.00  0.00    -0.271 NA
ATOM     11  H   UNL     1       2.821  -1.397   0.794  0.00  0.00    +0.125 HD
BRANCH  10  12
ATOM     12  C   UNL     1       3.972   0.048  -0.250  0.00  0.00    +0.140 C 
BRANCH  12  15
ATOM     13  F   UNL     1       5.261  -1.715   0.593  0.00  0.00    -0.201 F 
ATOM     14  F   UNL     1       4.670  -0.152   1.975  0.00  0.00    -0.201 F 
ATOM     15  C   UNL     1       5.094  -0.364   0.695  0.00  0.00    +0.298 C 
BRANCH  15  17
ATOM     16  N   UNL     1       7.194  -0.161  -0.494  0.00  0.00    -0.325 N 
ATOM     17  C   UNL     1       6.363   0.391   0.385  0.00  0.00    +0.155 C 
ATOM     18  C   UNL     1       6.641   1.595   0.988  0.00  0.00    -0.001 C 
ATOM     19  C   UNL     1       8.346   0.432  -0.835  0.00  0.00    +0.058 C 
ATOM     20  C   UNL     1       7.832   2.233   0.653  0.00  0.00    -0.001 C 
ATOM     21  C   UNL     1       8.696   1.650  -0.268  0.00  0.00    +0.015 C 
ATOM     22  H   UNL     1       6.957  -1.024  -0.903  0.00  0.00    +0.147 HD
ENDBRANCH  15  17
ENDBRANCH  12  15
ENDBRANCH  10  12
ENDBRANCH   4  10
BRANCH   2  23
ATOM     23  C   UNL     1      -1.833  -2.019  -0.484  0.00  0.00    +0.183 C 
BRANCH  23  26
ATOM     24  O   UNL     1      -2.107  -0.591   1.446  0.00  0.00    -0.273 OA
ATOM     25  N   UNL     1      -3.977  -1.607   0.510  0.00  0.00    -0.298 N 
ATOM     26  C   UNL     1      -2.625  -1.306   0.591  0.00  0.00    +0.243 C 
ATOM     27  H   UNL     1      -4.283  -2.193  -0.219  0.00  0.00    +0.150 HD
BRANCH  25  28
ATOM     28  C   UNL     1      -4.959  -1.102   1.444  0.00  0.00    +0.138 C 
BRANCH  28  31
ATOM     29  F   UNL     1      -7.276  -1.028  -0.156  0.00  0.00    -0.203 F 
ATOM     30  N   UNL     1      -4.953   1.316   1.356  0.00  0.00    -0.244 NA
ATOM     31  C   UNL     1      -5.574   0.183   0.971  0.00  0.00    +0.106 C 
ATOM     32  C   UNL     1      -6.712   0.137   0.189  0.00  0.00    +0.151 C 
ATOM     33  C   UNL     1      -7.254   1.347  -0.230  0.00  0.00    +0.008 C 
ATOM     34  C   UNL     1      -6.647   2.541   0.143  0.00  0.00    +0.019 C 
ATOM     35  C   UNL     1      -5.509   2.472   0.930  0.00  0.00    +0.098 C 
ATOM     36  C   UNL     1      -8.481   1.367  -1.077  0.00  0.00    +0.033 C 
ENDBRANCH  28  31
ENDBRANCH  25  28
ENDBRANCH  23  26
ENDBRANCH   2  23
TORSDOF 8
