REMARK  Name = 4290313
REMARK  7 active torsions:
REMARK  status: ('A' for Active; 'I' for Inactive)
REMARK    1  A    between atoms: S_1  and  C_4
REMARK    2  A    between atoms: S_1  and  C_8
REMARK    3  A    between atoms: C_4  and  C_5
REMARK    4  A    between atoms: C_5  and  C_6
REMARK    5  A    between atoms: C_8  and  C_9
REMARK    6  A    between atoms: C_9  and  C_11
REMARK    7  A    between atoms: C_11  and  O_12
REMARK                            x       y       z     vdW  Elec       q    Type
REMARK                         _______ _______ _______ _____ _____    ______ ____
ROOT
ATOM      1  S   UNL     1      -0.361  -0.605  -0.013  0.00  0.00    -0.009 S 
ATOM      2  O   UNL     1      -0.391  -1.319   1.253  0.00  0.00    -0.173 OA
ATOM      3  O   UNL     1      -0.411  -1.331  -1.271  0.00  0.00    -0.173 OA
ENDROOT
BRANCH   1   4
ATOM      4  C   UNL     1      -1.665   0.583  -0.007  0.00  0.00    +0.151 C 
BRANCH   4   5
ATOM      5  C   UNL     1      -3.029  -0.090   0.007  0.00  0.00    +0.025 C 
BRANCH   5   6
ATOM      6  C   UNL     1      -4.157   0.940  -0.009  0.00  0.00    +0.002 C 
ATOM      7  C   UNL     1      -5.522   0.273   0.045  0.00  0.00    +0.000 C 
ENDBRANCH   5   6
ENDBRANCH   4   5
ENDBRANCH   1   4
BRANCH   1   8
ATOM      8  C   UNL     1       1.108   0.396  -0.029  0.00  0.00    +0.162 C 
BRANCH   8   9
ATOM      9  C   UNL     1       2.377  -0.441  -0.036  0.00  0.00    +0.135 C 
BRANCH   9  11
ATOM     10  O   UNL     1       3.692   1.613  -0.011  0.00  0.00    -0.250 OA
ATOM     11  C   UNL     1       3.634   0.393  -0.001  0.00  0.00    +0.316 C 
BRANCH  11  12
ATOM     12  O   UNL     1       4.726  -0.412   0.073  0.00  0.00    -0.480 OA
ATOM     13  H   UNL     1       4.622  -1.343   0.077  0.00  0.00    +0.295 HD
ENDBRANCH  11  12
ENDBRANCH   9  11
ENDBRANCH   8   9
ENDBRANCH   1   8
TORSDOF 7
