REMARK  Name = 23586146
REMARK  5 active torsions:
REMARK  status: ('A' for Active; 'I' for Inactive)
REMARK    1  A    between atoms: N_1  and  C_12
REMARK    2  A    between atoms: C_8  and  N_18
REMARK    3  A    between atoms: N_18  and  C_20
REMARK    4  A    between atoms: C_23  and  S_26
REMARK    5  A    between atoms: S_26  and  N_29
REMARK                            x       y       z     vdW  Elec       q    Type
REMARK                         _______ _______ _______ _____ _____    ______ ____
ROOT
ATOM      1  N   UNL     1      -2.761   1.025  -0.684  0.00  0.00    -0.309 N 
ATOM      2  N   UNL     1      -3.090  -1.159  -0.058  0.00  0.00    -0.321 NA
ATOM      3  N   UNL     1      -1.197  -2.635   0.039  0.00  0.00    -0.106 N 
ATOM      4  N   UNL     1      -0.944  -3.936   0.343  0.00  0.00    -0.139 NA
ATOM      5  N   UNL     1      -3.167  -3.498   0.569  0.00  0.00    -0.145 NA
ATOM      6  C   UNL     1      -2.275  -0.202  -0.435  0.00  0.00    +0.196 C 
ATOM      7  C   UNL     1      -0.795  -0.413  -0.608  0.00  0.00    +0.081 C 
ATOM      8  C   UNL     1      -0.305  -1.637  -0.361  0.00  0.00    +0.140 C 
ATOM      9  C   UNL     1      -2.564  -2.390   0.185  0.00  0.00    +0.176 C 
ATOM     10  C   UNL     1      -2.153  -4.396   0.650  0.00  0.00    +0.230 C 
ATOM     11  H   UNL     1      -2.139   1.727  -0.981  0.00  0.00    +0.149 HD
ENDROOT
BRANCH   1  12
ATOM     12  C   UNL     1      -4.165   1.360  -0.533  0.00  0.00    +0.071 C 
ATOM     13  C   UNL     1      -4.500   1.569   0.947  0.00  0.00    +0.020 C 
ATOM     14  C   UNL     1      -4.501   2.601  -1.366  0.00  0.00    +0.020 C 
ATOM     15  C   UNL     1      -3.896   2.854   1.515  0.00  0.00    +0.002 C 
ATOM     16  C   UNL     1      -3.898   3.882  -0.790  0.00  0.00    +0.002 C 
ATOM     17  C   UNL     1      -4.272   4.071   0.677  0.00  0.00    +0.000 C 
ENDBRANCH   1  12
BRANCH   8  18
ATOM     18  N   UNL     1       1.013  -1.974  -0.476  0.00  0.00    -0.299 N 
ATOM     19  H   UNL     1       1.197  -2.909  -0.722  0.00  0.00    +0.153 HD
BRANCH  18  20
ATOM     20  C   UNL     1       2.136  -1.160  -0.290  0.00  0.00    +0.049 C 
ATOM     21  C   UNL     1       3.308  -1.414  -1.004  0.00  0.00    +0.016 C 
ATOM     22  C   UNL     1       2.085  -0.095   0.609  0.00  0.00    +0.016 C 
ATOM     23  C   UNL     1       4.375   0.463   0.081  0.00  0.00    +0.122 C 
ATOM     24  C   UNL     1       4.427  -0.602  -0.819  0.00  0.00    +0.021 C 
ATOM     25  C   UNL     1       3.204   0.716   0.794  0.00  0.00    +0.021 C 
BRANCH  23  26
ATOM     26  S   UNL     1       5.776   1.478   0.312  0.00  0.00    +0.057 S 
ATOM     27  O   UNL     1       5.687   2.091   1.630  0.00  0.00    -0.153 OA
ATOM     28  O   UNL     1       6.964   0.719  -0.054  0.00  0.00    -0.153 OA
BRANCH  26  29
ATOM     29  N   UNL     1       5.507   2.680  -0.873  0.00  0.00    -0.203 NA
ATOM     30  H   UNL     1       6.268   3.357  -0.850  0.00  0.00    +0.144 HD
ATOM     31  H   UNL     1       4.624   3.154  -0.682  0.00  0.00    +0.144 HD
ENDBRANCH  26  29
ENDBRANCH  23  26
ENDBRANCH  18  20
ENDBRANCH   8  18
TORSDOF 5
