REMARK  Name = 15295578
REMARK  5 active torsions:
REMARK  status: ('A' for Active; 'I' for Inactive)
REMARK    1  A    between atoms: C_3  and  N_7
REMARK    2  A    between atoms: C_4  and  N_17
REMARK    3  A    between atoms: N_7  and  C_9
REMARK    4  A    between atoms: C_9  and  C_11
REMARK    5  A    between atoms: N_17  and  C_20
REMARK                            x       y       z     vdW  Elec       q    Type
REMARK                         _______ _______ _______ _____ _____    ______ ____
ROOT
ATOM      1  O   UNL     1       0.432   3.970  -1.090  0.00  0.00    -0.282 OA
ATOM      2  O   UNL     1      -2.300   2.653  -0.747  0.00  0.00    -0.282 OA
ATOM      3  C   UNL     1       0.678   1.837   0.221  0.00  0.00    +0.104 C 
ATOM      4  C   UNL     1      -0.536   1.251   0.374  0.00  0.00    +0.108 C 
ATOM      5  C   UNL     1       0.113   2.952  -0.535  0.00  0.00    +0.250 C 
ATOM      6  C   UNL     1      -1.209   2.314  -0.369  0.00  0.00    +0.250 C 
ENDROOT
BRANCH   3   7
ATOM      7  N   UNL     1       1.931   1.643   0.538  0.00  0.00    -0.327 N 
ATOM      8  H   UNL     1       2.593   2.327   0.285  0.00  0.00    +0.147 HD
BRANCH   7   9
ATOM      9  C   UNL     1       2.388   0.458   1.251  0.00  0.00    +0.092 C 
ATOM     10  C   UNL     1       3.677   0.824   2.002  0.00  0.00    +0.026 C 
BRANCH   9  11
ATOM     11  C   UNL     1       2.536  -0.702   0.326  0.00  0.00    -0.005 C 
ATOM     12  C   UNL     1       2.911  -0.492  -1.001  0.00  0.00    -0.003 C 
ATOM     13  C   UNL     1       2.298  -1.997   0.787  0.00  0.00    -0.003 C 
ATOM     14  C   UNL     1       3.049  -1.577  -1.867  0.00  0.00    -0.000 C 
ATOM     15  C   UNL     1       2.436  -3.082  -0.079  0.00  0.00    -0.000 C 
ATOM     16  C   UNL     1       2.812  -2.872  -1.406  0.00  0.00    -0.000 C 
ENDBRANCH   9  11
ENDBRANCH   7   9
ENDBRANCH   3   7
BRANCH   4  17
ATOM     17  N   UNL     1      -1.077   0.194   0.917  0.00  0.00    -0.309 N 
ATOM     18  H   UNL     1      -0.622  -0.151   1.719  0.00  0.00    +0.152 HD
BRANCH  17  20
ATOM     19  N   UNL     1      -4.495  -1.939  -0.288  0.00  0.00    -0.242 NA
ATOM     20  C   UNL     1      -2.233  -0.528   0.509  0.00  0.00    +0.052 C 
ATOM     21  C   UNL     1      -3.002  -1.181   1.456  0.00  0.00    +0.035 C 
ATOM     22  C   UNL     1      -2.577  -0.570  -0.831  0.00  0.00    +0.035 C 
ATOM     23  C   UNL     1      -4.118  -1.869   1.009  0.00  0.00    +0.100 C 
ATOM     24  C   UNL     1      -3.712  -1.286  -1.176  0.00  0.00    +0.100 C 
ENDBRANCH  17  20
ENDBRANCH   4  17
TORSDOF 5
