REMARK  Name = 5287837
REMARK  0 active torsions:
REMARK  status: ('A' for Active; 'I' for Inactive)
REMARK                            x       y       z     vdW  Elec       q    Type
REMARK                         _______ _______ _______ _____ _____    ______ ____
ROOT
ATOM      1  O   UNL     1      -0.688  -0.372  -0.412  0.00  0.00    -0.479 OA
ATOM      2  C   UNL     1      -1.401   0.769   0.089  0.00  0.00    +0.166 C 
ATOM      3  C   UNL     1      -0.737   2.074  -0.346  0.00  0.00    +0.048 C 
ATOM      4  C   UNL     1       0.662   2.146   0.254  0.00  0.00    +0.033 C 
ATOM      5  C   UNL     1       1.376   0.837   0.079  0.00  0.00    +0.012 C 
ATOM      6  C   UNL     1       0.670  -0.334  -0.228  0.00  0.00    +0.134 C 
ATOM      7  C   UNL     1       2.765   0.771   0.250  0.00  0.00    -0.006 C 
ATOM      8  C   UNL     1       1.350  -1.542  -0.402  0.00  0.00    +0.036 C 
ATOM      9  C   UNL     1       3.441  -0.440   0.089  0.00  0.00    -0.022 C 
ATOM     10  C   UNL     1       2.734  -1.594  -0.240  0.00  0.00    -0.001 C 
ATOM     11  C   UNL     1       4.921  -0.497   0.267  0.00  0.00    +0.031 C 
ATOM     12  C   UNL     1      -2.826   0.682  -0.446  0.00  0.00    +0.047 C 
ENDROOT
TORSDOF 0
REMARK  Name = 5287837
REMARK  0 active torsions:
REMARK  status: ('A' for Active; 'I' for Inactive)
REMARK                            x       y       z     vdW  Elec       q    Type
REMARK                         _______ _______ _______ _____ _____    ______ ____
ROOT
ATOM      1  P   UNL     1      -3.651  -0.836   0.065  0.00  0.00    +0.000 P 
ENDROOT
TORSDOF 0
REMARK  Name = 5287837
REMARK  0 active torsions:
REMARK  status: ('A' for Active; 'I' for Inactive)
REMARK                            x       y       z     vdW  Elec       q    Type
REMARK                         _______ _______ _______ _____ _____    ______ ____
ROOT
ATOM      1  O   UNL     1      -3.596  -0.849   1.588  0.00  0.00    +0.000 OA
ENDROOT
TORSDOF 0
REMARK  Name = 5287837
REMARK  0 active torsions:
REMARK  status: ('A' for Active; 'I' for Inactive)
REMARK                            x       y       z     vdW  Elec       q    Type
REMARK                         _______ _______ _______ _____ _____    ______ ____
ROOT
ATOM      1  O   UNL     1      -5.019  -0.815  -0.606  0.00  0.00    -0.253 OA
ATOM      2  H   UNL     1      -5.010  -0.836   0.304  0.00  0.00    +0.253 HD
ENDROOT
TORSDOF 0
