46937056
  -OEChem-10051720573D

 55 58  0     1  0  0  0  0  0999 V2000
    0.6288    2.3180   -2.1817 Cl  0  0  0  0  0  0  0  0  0  0  0  0
   -0.8660   -1.5021   -3.2618 Cl  0  0  0  0  0  0  0  0  0  0  0  0
   -4.8472   -1.2507    1.5107 S   0  0  0  0  0  0  0  0  0  0  0  0
    1.8883    1.4727    2.3608 O   0  0  0  0  0  0  0  0  0  0  0  0
   -1.3625    4.2379   -0.5424 O   0  0  0  0  0  0  0  0  0  0  0  0
    1.1701    2.5791    0.3562 N   0  0  2  0  0  0  0  0  0  0  0  0
    3.5541    1.6430   -0.8585 N   0  0  0  0  0  0  0  0  0  0  0  0
    3.5249    0.0191    0.8227 N   0  0  0  0  0  0  0  0  0  0  0  0
   -1.9189    2.4920    0.8846 N   0  0  0  0  0  0  0  0  0  0  0  0
    2.9282   -3.8589    0.3098 N   0  0  0  0  0  0  0  0  0  0  0  0
    2.3021    2.1627    1.1915 C   0  0  2  0  0  0  0  0  0  0  0  0
    1.5945    3.1586   -0.9236 C   0  0  1  0  0  0  0  0  0  0  0  0
    0.2666    3.4795    1.0722 C   0  0  0  0  0  0  0  0  0  0  0  0
    3.1707    1.2458    0.3186 C   0  0  0  0  0  0  0  0  0  0  0  0
    3.0868    2.9853   -1.2207 C   0  0  0  0  0  0  0  0  0  0  0  0
   -1.0793    3.4728    0.3770 C   0  0  0  0  0  0  0  0  0  0  0  0
    4.3400   -0.8983    0.0906 C   0  0  0  0  0  0  0  0  0  0  0  0
   -3.2522    2.2510    0.3809 C   0  0  0  0  0  0  0  0  0  0  0  0
    3.4877   -1.7767   -0.8242 C   0  0  0  0  0  0  0  0  0  0  0  0
   -3.6762    0.8236    0.5735 C   0  0  0  0  0  0  0  0  0  0  0  0
   -3.2020   -0.2701   -0.2261 C   0  0  0  0  0  0  0  0  0  0  0  0
   -3.7702   -1.4801    0.1838 C   0  0  0  0  0  0  0  0  0  0  0  0
    2.5006   -2.6342   -0.0705 C   0  0  0  0  0  0  0  0  0  0  0  0
   -4.5669    0.4302    1.5437 C   0  0  0  0  0  0  0  0  0  0  0  0
   -2.2912   -0.2913   -1.3100 C   0  0  0  0  0  0  0  0  0  0  0  0
   -3.4547   -2.6957   -0.4547 C   0  0  0  0  0  0  0  0  0  0  0  0
    1.2332   -2.1391    0.1915 C   0  0  0  0  0  0  0  0  0  0  0  0
   -1.9760   -1.4954   -1.9454 C   0  0  0  0  0  0  0  0  0  0  0  0
   -2.5529   -2.6837   -1.5206 C   0  0  0  0  0  0  0  0  0  0  0  0
    0.3480   -2.9534    0.8890 C   0  0  0  0  0  0  0  0  0  0  0  0
    2.0401   -4.6220    0.9856 C   0  0  0  0  0  0  0  0  0  0  0  0
    0.7513   -4.2199    1.2973 C   0  0  0  0  0  0  0  0  0  0  0  0
    2.9102    3.0182    1.5096 H   0  0  0  0  0  0  0  0  0  0  0  0
    1.3578    4.2247   -1.0164 H   0  0  0  0  0  0  0  0  0  0  0  0
    0.6480    4.5067    1.1226 H   0  0  0  0  0  0  0  0  0  0  0  0
    0.1116    3.1612    2.1103 H   0  0  0  0  0  0  0  0  0  0  0  0
    3.6776    3.7293   -0.6708 H   0  0  0  0  0  0  0  0  0  0  0  0
    3.2918    3.1551   -2.2840 H   0  0  0  0  0  0  0  0  0  0  0  0
    3.2051   -0.2637    1.7446 H   0  0  0  0  0  0  0  0  0  0  0  0
    4.8780   -1.5325    0.8057 H   0  0  0  0  0  0  0  0  0  0  0  0
    5.1096   -0.3796   -0.4929 H   0  0  0  0  0  0  0  0  0  0  0  0
   -3.2992    2.5251   -0.6792 H   0  0  0  0  0  0  0  0  0  0  0  0
   -3.9231    2.9319    0.9174 H   0  0  0  0  0  0  0  0  0  0  0  0
    1.2170    0.8255    2.0848 H   0  0  0  0  0  0  0  0  0  0  0  0
   -1.6056    1.9370    1.6761 H   0  0  0  0  0  0  0  0  0  0  0  0
    4.1506   -2.4351   -1.3997 H   0  0  0  0  0  0  0  0  0  0  0  0
    2.9538   -1.1653   -1.5628 H   0  0  0  0  0  0  0  0  0  0  0  0
   -5.0687    1.0498    2.2741 H   0  0  0  0  0  0  0  0  0  0  0  0
   -1.8426    0.6373   -1.6511 H   0  0  0  0  0  0  0  0  0  0  0  0
   -3.9006   -3.6308   -0.1281 H   0  0  0  0  0  0  0  0  0  0  0  0
    0.9261   -1.1495   -0.1297 H   0  0  0  0  0  0  0  0  0  0  0  0
   -2.3103   -3.6238   -2.0105 H   0  0  0  0  0  0  0  0  0  0  0  0
   -0.6507   -2.5988    1.1226 H   0  0  0  0  0  0  0  0  0  0  0  0
    2.4035   -5.6005    1.2818 H   0  0  0  0  0  0  0  0  0  0  0  0
    0.0785   -4.8706    1.8439 H   0  0  0  0  0  0  0  0  0  0  0  0
  1 12  1  0  0  0  0
  2 28  1  0  0  0  0
  3 22  1  0  0  0  0
  3 24  1  0  0  0  0
  4 11  1  0  0  0  0
  4 44  1  0  0  0  0
  5 16  2  0  0  0  0
  6 11  1  0  0  0  0
  6 12  1  0  0  0  0
  6 13  1  0  0  0  0
  7 14  2  0  0  0  0
  7 15  1  0  0  0  0
  8 14  1  0  0  0  0
  8 17  1  0  0  0  0
  8 39  1  0  0  0  0
  9 16  1  0  0  0  0
  9 18  1  0  0  0  0
  9 45  1  0  0  0  0
 10 23  1  0  0  0  0
 10 31  2  0  0  0  0
 11 14  1  0  0  0  0
 11 33  1  0  0  0  0
 12 15  1  0  0  0  0
 12 34  1  0  0  0  0
 13 16  1  0  0  0  0
 13 35  1  0  0  0  0
 13 36  1  0  0  0  0
 15 37  1  0  0  0  0
 15 38  1  0  0  0  0
 17 19  1  0  0  0  0
 17 40  1  0  0  0  0
 17 41  1  0  0  0  0
 18 20  1  0  0  0  0
 18 42  1  0  0  0  0
 18 43  1  0  0  0  0
 19 23  1  0  0  0  0
 19 46  1  0  0  0  0
 19 47  1  0  0  0  0
 20 21  1  0  0  0  0
 20 24  2  0  0  0  0
 21 22  2  0  0  0  0
 21 25  1  0  0  0  0
 22 26  1  0  0  0  0
 23 27  2  0  0  0  0
 24 48  1  0  0  0  0
 25 28  2  0  0  0  0
 25 49  1  0  0  0  0
 26 29  2  0  0  0  0
 26 50  1  0  0  0  0
 27 30  1  0  0  0  0
 27 51  1  0  0  0  0
 28 29  1  0  0  0  0
 29 52  1  0  0  0  0
 30 32  2  0  0  0  0
 30 53  1  0  0  0  0
 31 32  1  0  0  0  0
 31 54  1  0  0  0  0
 32 55  1  0  0  0  0
M  END
> <DATABASE_ID>
DB07165

> <DATABASE_NAME>
drugbank

> <ORIGINAL_SOURCE>
PUBCHEM

> <ORIGINAL_SOURCE_URL>
https://pubchem.ncbi.nlm.nih.gov/rest/pug/compound/inchikey/SOBGXPPOYFFGTK-UGKGYDQZSA-N/SDF?record_type=3d

> <SMILES>
[H][C@@]1(Cl)CN=C(NCCC2=NC=CC=C2)[C@]([H])(O)N1CC(=O)NCC1=CSC2=CC=C(Cl)C=C12

> <INCHI_IDENTIFIER>
InChI=1S/C22H23Cl2N5O2S/c23-15-4-5-18-17(9-15)14(13-32-18)10-27-20(30)12-29-19(24)11-28-21(22(29)31)26-8-6-16-3-1-2-7-25-16/h1-5,7,9,13,19,22,31H,6,8,10-12H2,(H,26,28)(H,27,30)/t19-,22-/m0/s1

> <INCHI_KEY>
SOBGXPPOYFFGTK-UGKGYDQZSA-N

> <FORMULA>
C22H23Cl2N5O2S

> <MOLECULAR_WEIGHT>
492.421

> <EXACT_MASS>
491.094951109

> <JCHEM_ACCEPTOR_COUNT>
6

> <JCHEM_AVERAGE_POLARIZABILITY>
49.74735929581561

> <JCHEM_BIOAVAILABILITY>
1

> <JCHEM_DONOR_COUNT>
3

> <JCHEM_FORMAL_CHARGE>
0

> <JCHEM_GHOSE_FILTER>
0

> <JCHEM_IUPAC>
N-[(5-chloro-1-benzothiophen-3-yl)methyl]-2-[(2R,6S)-2-chloro-6-hydroxy-5-{[2-(pyridin-2-yl)ethyl]amino}-1,2,3,6-tetrahydropyrazin-1-yl]acetamide

> <ALOGPS_LOGP>
3.09

> <JCHEM_LOGP>
2.726137930666667

> <ALOGPS_LOGS>
-4.92

> <JCHEM_MDDR_LIKE_RULE>
1

> <JCHEM_NUMBER_OF_RINGS>
4

> <JCHEM_PHYSIOLOGICAL_CHARGE>
0

> <JCHEM_PKA>
13.704949784987527

> <JCHEM_PKA_STRONGEST_ACIDIC>
12.178258965169457

> <JCHEM_PKA_STRONGEST_BASIC>
6.171410395430654

> <JCHEM_POLAR_SURFACE_AREA>
89.85

> <JCHEM_REFRACTIVITY>
125.73619999999998

> <JCHEM_ROTATABLE_BOND_COUNT>
7

> <JCHEM_RULE_OF_FIVE>
1

> <ALOGPS_SOLUBILITY>
5.89e-03 g/l

> <JCHEM_TRADITIONAL_IUPAC>
N-[(5-chloro-1-benzothiophen-3-yl)methyl]-2-[(2S,6R)-6-chloro-2-hydroxy-3-{[2-(pyridin-2-yl)ethyl]amino}-5,6-dihydro-2H-pyrazin-1-yl]acetamide

> <JCHEM_VEBER_RULE>
0

> <DRUGBANK_ID>
DB07165

> <DRUG_GROUPS>
experimental

> <GENERIC_NAME>
N-(5-CHLORO-BENZO[B]THIOPHEN-3-YLMETHYL)-2-[6-CHLORO-OXO-3-(2-PYRIDIN-2-YL-ETHYLAMINO)-2H-PYRAZIN-1-YL]-ACETAMIDE

$$$$
