REMARK  Name = 10204
REMARK  1 active torsions:
REMARK  status: ('A' for Active; 'I' for Inactive)
REMARK    1  A    between atoms: C_9  and  O_21
REMARK                            x       y       z     vdW  Elec       q    Type
REMARK                         _______ _______ _______ _____ _____    ______ ____
ROOT
ATOM      1  O   UNL     1      -5.500   0.195   1.101  0.00  0.00    -0.291 OA
ATOM      2  C   UNL     1       2.079   0.643   0.233  0.00  0.00    +0.002 C 
ATOM      3  C   UNL     1       2.818  -0.642  -0.188  0.00  0.00    +0.025 C 
ATOM      4  C   UNL     1       0.677   0.747  -0.380  0.00  0.00    +0.001 C 
ATOM      5  C   UNL     1      -0.171  -0.478   0.086  0.00  0.00    +0.003 C 
ATOM      6  C   UNL     1      -1.651  -0.442  -0.458  0.00  0.00    +0.016 C 
ATOM      7  C   UNL     1       2.014  -1.838   0.341  0.00  0.00    +0.002 C 
ATOM      8  C   UNL     1       0.563  -1.822  -0.175  0.00  0.00    +0.000 C 
ATOM      9  C   UNL     1       4.195  -0.397   0.464  0.00  0.00    +0.110 C 
ATOM     10  C   UNL     1       3.088   1.750  -0.055  0.00  0.00    +0.003 C 
ATOM     11  C   UNL     1      -0.017   2.053   0.028  0.00  0.00    +0.004 C 
ATOM     12  C   UNL     1       4.457   1.107   0.243  0.00  0.00    +0.029 C 
ATOM     13  C   UNL     1      -2.263   0.939  -0.188  0.00  0.00    -0.042 C 
ATOM     14  C   UNL     1      -1.421   2.137  -0.557  0.00  0.00    +0.022 C 
ATOM     15  C   UNL     1       3.026  -0.786  -1.718  0.00  0.00    +0.002 C 
ATOM     16  C   UNL     1      -2.470  -1.541   0.281  0.00  0.00    +0.012 C 
ATOM     17  C   UNL     1      -1.714  -0.708  -1.979  0.00  0.00    +0.004 C 
ATOM     18  C   UNL     1      -3.975  -1.379   0.138  0.00  0.00    +0.069 C 
ATOM     19  C   UNL     1      -3.489   1.129   0.327  0.00  0.00    +0.029 C 
ATOM     20  C   UNL     1      -4.400  -0.007   0.591  0.00  0.00    +0.173 C 
ENDROOT
BRANCH   9  21
ATOM     21  O   UNL     1       4.154  -0.660   1.864  0.00  0.00    -0.384 OA
ATOM     22  H   UNL     1       3.990  -1.604   2.011  0.00  0.00    +0.210 HD
ENDBRANCH   9  21
TORSDOF 1
