46937079
  -OEChem-12201918453D

 21 22  0     0  0  0  0  0  0999 V2000
   -2.6116   -1.4414   -0.0569 S   0  0  0  0  0  0  0  0  0  0  0  0
   -0.2867    1.5672    0.0503 O   0  0  0  0  0  0  0  0  0  0  0  0
   -2.5666    1.1486    0.0423 N   0  0  0  0  0  0  0  0  0  0  0  0
    1.9748   -0.4570    1.1779 N   0  0  0  0  0  0  0  0  0  0  0  0
   -4.7412    0.1643    0.0135 N   0  0  0  0  0  0  0  0  0  0  0  0
   -1.0730   -0.6861   -0.0336 C   0  0  0  0  0  0  0  0  0  0  0  0
    0.1065   -1.3069   -0.0625 C   0  0  0  0  0  0  0  0  0  0  0  0
    1.4291   -0.6536   -0.0431 C   0  0  0  0  0  0  0  0  0  0  0  0
   -1.2313    0.7899    0.0236 C   0  0  0  0  0  0  0  0  0  0  0  0
    2.0350   -0.2823   -1.2325 C   0  0  0  0  0  0  0  0  0  0  0  0
   -3.3788    0.1370    0.0068 C   0  0  0  0  0  0  0  0  0  0  0  0
    3.2815    0.3300   -1.1643 C   0  0  0  0  0  0  0  0  0  0  0  0
    3.8754    0.5493    0.0737 C   0  0  0  0  0  0  0  0  0  0  0  0
    3.1870    0.1410    1.2047 C   0  0  0  0  0  0  0  0  0  0  0  0
    0.1536   -2.3935   -0.0911 H   0  0  0  0  0  0  0  0  0  0  0  0
    1.5651   -0.4569   -2.1950 H   0  0  0  0  0  0  0  0  0  0  0  0
    3.7891    0.6359   -2.0741 H   0  0  0  0  0  0  0  0  0  0  0  0
    4.8464    1.0250    0.1508 H   0  0  0  0  0  0  0  0  0  0  0  0
    3.6067    0.2894    2.1942 H   0  0  0  0  0  0  0  0  0  0  0  0
   -5.2509    1.0403    0.0492 H   0  0  0  0  0  0  0  0  0  0  0  0
   -5.2860   -0.6907   -0.0170 H   0  0  0  0  0  0  0  0  0  0  0  0
  1  6  1  0  0  0  0
  1 11  1  0  0  0  0
  2  9  2  0  0  0  0
  3  9  1  0  0  0  0
  3 11  2  0  0  0  0
  4  8  1  0  0  0  0
  4 14  2  0  0  0  0
  5 11  1  0  0  0  0
  5 20  1  0  0  0  0
  5 21  1  0  0  0  0
  6  7  2  0  0  0  0
  6  9  1  0  0  0  0
  7  8  1  0  0  0  0
  7 15  1  0  0  0  0
  8 10  2  0  0  0  0
 10 12  1  0  0  0  0
 10 16  1  0  0  0  0
 12 13  2  0  0  0  0
 12 17  1  0  0  0  0
 13 14  1  0  0  0  0
 13 18  1  0  0  0  0
 14 19  1  0  0  0  0
M  END
> <DATABASE_ID>
DB07529

> <DATABASE_NAME>
drugbank

> <ORIGINAL_SOURCE>
PUBCHEM

> <ORIGINAL_SOURCE_URL>
https://pubchem.ncbi.nlm.nih.gov/rest/pug/compound/inchikey/LHGOQMPIWSCKBA-FNORWQNLSA-N/SDF?record_type=3d

> <SMILES>
N=C1NC(=O)\C(S1)=C/C1=CC=CC=N1

> <INCHI_IDENTIFIER>
InChI=1S/C9H7N3OS/c10-9-12-8(13)7(14-9)5-6-3-1-2-4-11-6/h1-5H,(H2,10,12,13)/b7-5+

> <INCHI_KEY>
LHGOQMPIWSCKBA-FNORWQNLSA-N

> <FORMULA>
C9H7N3OS

> <MOLECULAR_WEIGHT>
205.236

> <EXACT_MASS>
205.030982551

> <JCHEM_ACCEPTOR_COUNT>
3

> <JCHEM_ATOM_COUNT>
21

> <JCHEM_AVERAGE_NEUTRAL_MICROSPECIES_CHARGE>
0.0012936550160039858

> <JCHEM_AVERAGE_POLARIZABILITY>
19.98746910309338

> <JCHEM_BIOAVAILABILITY>
1

> <JCHEM_DONOR_COUNT>
2

> <JCHEM_FORMAL_CHARGE>
0

> <JCHEM_GHOSE_FILTER>
1

> <JCHEM_IUPAC>
(5E)-2-imino-5-[(pyridin-2-yl)methylidene]-1,3-thiazolidin-4-one

> <ALOGPS_LOGP>
0.89

> <JCHEM_LOGP>
0.8786091693333333

> <ALOGPS_LOGS>
-2.65

> <JCHEM_MDDR_LIKE_RULE>
0

> <JCHEM_NEUTRAL_CHARGE>
0

> <JCHEM_NUMBER_OF_RINGS>
2

> <JCHEM_PHYSIOLOGICAL_CHARGE>
0

> <JCHEM_PKA_STRONGEST_ACIDIC>
10.851347337128614

> <JCHEM_PKA_STRONGEST_BASIC>
4.157343661965636

> <JCHEM_POLAR_SURFACE_AREA>
65.84

> <JCHEM_REFRACTIVITY>
66.089

> <JCHEM_ROTATABLE_BOND_COUNT>
1

> <JCHEM_RULE_OF_FIVE>
1

> <ALOGPS_SOLUBILITY>
4.58e-01 g/l

> <JCHEM_TRADITIONAL_IUPAC>
(5S)-2-{[(1S)-1-(2-fluorophenyl)ethyl]amino}-5-methyl-5-(trifluoromethyl)-1,3-thiazol-4-one

> <JCHEM_VEBER_RULE>
0

> <DRUGBANK_ID>
DB07529

> <DRUG_GROUPS>
experimental

> <GENERIC_NAME>
(5E)-2-Amino-5-(2-pyridinylmethylene)-1,3-thiazol-4(5H)-one

$$$$
