REMARK  Name = 16129580
REMARK  7 active torsions:
REMARK  status: ('A' for Active; 'I' for Inactive)
REMARK    1  A    between atoms: S_1  and  C_4
REMARK    2  A    between atoms: S_1  and  C_12
REMARK    3  A    between atoms: C_9  and  O_10
REMARK    4  A    between atoms: C_12  and  C_15
REMARK    5  A    between atoms: C_12  and  C_16
REMARK    6  A    between atoms: C_16  and  C_18
REMARK    7  A    between atoms: C_18  and  O_19
REMARK                            x       y       z     vdW  Elec       q    Type
REMARK                         _______ _______ _______ _____ _____    ______ ____
ROOT
ATOM      1  S   UNL     1      -0.750  -1.430   0.371  0.00  0.00    +0.013 S 
ATOM      2  O   UNL     1      -0.915  -2.636  -0.414  0.00  0.00    -0.168 OA
ATOM      3  O   UNL     1      -1.016  -1.430   1.795  0.00  0.00    -0.168 OA
ENDROOT
BRANCH   1   4
ATOM      4  C   UNL     1       0.899  -0.858   0.114  0.00  0.00    +0.106 C 
ATOM      5  C   UNL     1       1.499  -0.062   1.078  0.00  0.00    +0.021 C 
ATOM      6  C   UNL     1       1.568  -1.212  -1.046  0.00  0.00    +0.021 C 
ATOM      7  C   UNL     1       2.802   0.391   0.875  0.00  0.00    +0.038 C 
ATOM      8  C   UNL     1       2.872  -0.760  -1.248  0.00  0.00    +0.038 C 
ATOM      9  C   UNL     1       3.489   0.042  -0.288  0.00  0.00    +0.139 C 
BRANCH   9  10
ATOM     10  O   UNL     1       4.761   0.483  -0.485  0.00  0.00    -0.471 OA
ATOM     11  C   UNL     1       5.332   1.298   0.538  0.00  0.00    +0.252 C 
ENDBRANCH   9  10
ENDBRANCH   1   4
BRANCH   1  12
ATOM     12  C   UNL     1      -1.754  -0.152  -0.354  0.00  0.00    +0.211 C 
BRANCH  12  15
ATOM     13  F   UNL     1      -3.596  -0.697   1.028  0.00  0.00    -0.196 F 
ATOM     14  F   UNL     1      -3.419  -1.754  -0.865  0.00  0.00    -0.196 F 
ATOM     15  C   UNL     1      -3.221  -0.554  -0.266  0.00  0.00    +0.341 C 
ENDBRANCH  12  15
BRANCH  12  16
ATOM     16  C   UNL     1      -1.454   1.187   0.328  0.00  0.00    +0.139 C 
BRANCH  16  18
ATOM     17  O   UNL     1      -2.548   2.424  -1.461  0.00  0.00    -0.250 OA
ATOM     18  C   UNL     1      -2.185   2.355  -0.295  0.00  0.00    +0.316 C 
BRANCH  18  19
ATOM     19  O   UNL     1      -2.364   3.366   0.595  0.00  0.00    -0.480 OA
ATOM     20  H   UNL     1      -2.069   3.269   1.479  0.00  0.00    +0.295 HD
ENDBRANCH  18  19
ENDBRANCH  16  18
ENDBRANCH  12  16
ENDBRANCH   1  12
TORSDOF 7
