REMARK  Name = 11708451
REMARK  3 active torsions:
REMARK  status: ('A' for Active; 'I' for Inactive)
REMARK    1  A    between atoms: C_3  and  C_9
REMARK    2  A    between atoms: C_10  and  C_13
REMARK    3  A    between atoms: N_12  and  O_15
REMARK                            x       y       z     vdW  Elec       q    Type
REMARK                         _______ _______ _______ _____ _____    ______ ____
ROOT
ATOM      1 CL   UNL     1      -0.728  -2.603   0.009  0.00  0.00    -0.082 Cl
ATOM      2 CL   UNL     1      -5.130   0.439  -0.512  0.00  0.00    -0.082 Cl
ATOM      3  C   UNL     1      -0.712   0.112   0.339  0.00  0.00    +0.011 C 
ATOM      4  C   UNL     1      -1.453  -1.034   0.052  0.00  0.00    +0.058 C 
ATOM      5  C   UNL     1      -1.337   1.359   0.363  0.00  0.00    +0.002 C 
ATOM      6  C   UNL     1      -2.819  -0.934  -0.211  0.00  0.00    +0.023 C 
ATOM      7  C   UNL     1      -2.703   1.459   0.100  0.00  0.00    +0.011 C 
ATOM      8  C   UNL     1      -3.445   0.313  -0.186  0.00  0.00    +0.059 C 
ENDROOT
BRANCH   3   9
ATOM      9  C   UNL     1       0.718   0.063   0.621  0.00  0.00    +0.006 C 
ATOM     10  C   UNL     1       1.696   0.190  -0.300  0.00  0.00    +0.060 C 
BRANCH  10  13
ATOM     11  O   UNL     1       3.482  -0.043   1.267  0.00  0.00    -0.268 OA
ATOM     12  N   UNL     1       3.966   0.295  -0.968  0.00  0.00    -0.193 N 
ATOM     13  C   UNL     1       3.128   0.133   0.106  0.00  0.00    +0.268 C 
ATOM     14  H   UNL     1       3.626   0.434  -1.881  0.00  0.00    +0.183 HD
BRANCH  12  15
ATOM     15  O   UNL     1       5.337   0.251  -0.680  0.00  0.00    -0.295 OA
ATOM     16  H   UNL     1       5.843   0.375  -1.498  0.00  0.00    +0.241 HD
ENDBRANCH  12  15
ENDBRANCH  10  13
ENDBRANCH   3   9
TORSDOF 3
