REMARK  Name = 4369434
REMARK  5 active torsions:
REMARK  status: ('A' for Active; 'I' for Inactive)
REMARK    1  A    between atoms: N_2  and  C_25
REMARK    2  A    between atoms: C_5  and  C_13
REMARK    3  A    between atoms: C_7  and  C_19
REMARK    4  A    between atoms: C_25  and  C_26
REMARK    5  A    between atoms: C_26  and  O_28
REMARK                            x       y       z     vdW  Elec       q    Type
REMARK                         _______ _______ _______ _____ _____    ______ ____
ROOT
ATOM      1  N   UNL     1       1.425   2.327  -0.040  0.00  0.00    -0.301 N 
ATOM      2  N   UNL     1      -2.755   0.246   0.089  0.00  0.00    -0.319 N 
ATOM      3  N   UNL     1      -0.478   3.808  -0.037  0.00  0.00    -0.233 NA
ATOM      4  N   UNL     1      -2.604   2.624   0.033  0.00  0.00    -0.233 NA
ATOM      5  C   UNL     1       0.400   0.352   0.026  0.00  0.00    +0.005 C 
ATOM      6  C   UNL     1      -0.590   1.368   0.022  0.00  0.00    +0.131 C 
ATOM      7  C   UNL     1       1.631   0.971  -0.013  0.00  0.00    +0.046 C 
ATOM      8  C   UNL     1       0.080   2.585  -0.019  0.00  0.00    +0.117 C 
ATOM      9  C   UNL     1      -1.982   1.422   0.048  0.00  0.00    +0.113 C 
ATOM     10  C   UNL     1      -1.824   3.727  -0.008  0.00  0.00    +0.252 C 
ATOM     11  H   UNL     1       2.134   3.009  -0.069  0.00  0.00    +0.153 HD
ATOM     12  H   UNL     1      -2.290  -0.621   0.099  0.00  0.00    +0.148 HD
ENDROOT
BRANCH   5  13
ATOM     13  C   UNL     1       0.244  -1.077   0.061  0.00  0.00    -0.002 C 
ATOM     14  C   UNL     1       0.146  -1.796  -1.129  0.00  0.00    -0.000 C 
ATOM     15  C   UNL     1       0.192  -1.741   1.286  0.00  0.00    -0.000 C 
ATOM     16  C   UNL     1      -0.005  -3.183  -1.095  0.00  0.00    -0.000 C 
ATOM     17  C   UNL     1       0.041  -3.127   1.320  0.00  0.00    -0.000 C 
ATOM     18  C   UNL     1      -0.057  -3.848   0.130  0.00  0.00    -0.000 C 
ENDBRANCH   5  13
BRANCH   7  19
ATOM     19  C   UNL     1       2.969   0.421  -0.027  0.00  0.00    +0.013 C 
ATOM     20  C   UNL     1       3.586   0.131  -1.241  0.00  0.00    +0.001 C 
ATOM     21  C   UNL     1       3.634   0.185   1.173  0.00  0.00    +0.001 C 
ATOM     22  C   UNL     1       4.876  -0.399  -1.255  0.00  0.00    +0.000 C 
ATOM     23  C   UNL     1       4.925  -0.345   1.159  0.00  0.00    +0.000 C 
ATOM     24  C   UNL     1       5.546  -0.637  -0.055  0.00  0.00    +0.000 C 
ENDBRANCH   7  19
BRANCH   2  25
ATOM     25  C   UNL     1      -4.187   0.254   0.118  0.00  0.00    +0.118 C 
BRANCH  25  26
ATOM     26  C   UNL     1      -4.712  -1.177   0.193  0.00  0.00    +0.130 C 
ATOM     27  C   UNL     1      -6.234  -1.204   0.223  0.00  0.00    +0.034 C 
BRANCH  26  28
ATOM     28  O   UNL     1      -4.266  -1.887  -0.962  0.00  0.00    -0.383 OA
ATOM     29  H   UNL     1      -3.297  -1.877  -0.993  0.00  0.00    +0.210 HD
ENDBRANCH  26  28
ENDBRANCH  25  26
ENDBRANCH   2  25
TORSDOF 5
