REMARK  Name = 68463
REMARK  2 active torsions:
REMARK  status: ('A' for Active; 'I' for Inactive)
REMARK    1  A    between atoms: C_3  and  O_11
REMARK    2  A    between atoms: C_7  and  O_13
REMARK                            x       y       z     vdW  Elec       q    Type
REMARK                         _______ _______ _______ _____ _____    ______ ____
ROOT
ATOM      1  C   UNL     1       0.370   0.502   0.000  0.00  0.00    +0.034 C 
ATOM      2  C   UNL     1      -0.071  -0.843   0.000  0.00  0.00    +0.006 C 
ATOM      3  C   UNL     1       1.748   0.773   0.000  0.00  0.00    +0.134 C 
ATOM      4  C   UNL     1      -1.450  -1.113   0.000  0.00  0.00    +0.037 C 
ATOM      5  C   UNL     1      -0.580   1.537  -0.001  0.00  0.00    +0.006 C 
ATOM      6  C   UNL     1       0.878  -1.877   0.000  0.00  0.00    +0.000 C 
ATOM      7  C   UNL     1      -2.379  -0.073   0.000  0.00  0.00    +0.134 C 
ATOM      8  C   UNL     1      -1.946   1.249  -0.001  0.00  0.00    +0.037 C 
ATOM      9  C   UNL     1       2.678  -0.267   0.000  0.00  0.00    +0.037 C 
ATOM     10  C   UNL     1       2.244  -1.590   0.000  0.00  0.00    +0.003 C 
ENDROOT
BRANCH   3  11
ATOM     11  O   UNL     1       2.221   2.054   0.001  0.00  0.00    -0.506 OA
ATOM     12  H   UNL     1       1.621   2.775   0.001  0.00  0.00    +0.292 HD
ENDBRANCH   3  11
BRANCH   7  13
ATOM     13  O   UNL     1      -3.712  -0.352   0.001  0.00  0.00    -0.506 OA
ATOM     14  H   UNL     1      -4.004  -1.242   0.001  0.00  0.00    +0.292 HD
ENDBRANCH   7  13
TORSDOF 2
