REMARK  Name = 46937107
REMARK  5 active torsions:
REMARK  status: ('A' for Active; 'I' for Inactive)
REMARK    1  A    between atoms: S_1  and  C_5
REMARK    2  A    between atoms: S_1  and  N_11
REMARK    3  A    between atoms: N_11  and  C_13
REMARK    4  A    between atoms: C_13  and  C_15
REMARK    5  A    between atoms: C_15  and  N_17
REMARK                            x       y       z     vdW  Elec       q    Type
REMARK                         _______ _______ _______ _____ _____    ______ ____
ROOT
ATOM      1  S   UNL     1       0.089   1.813  -0.361  0.00  0.00    +0.061 S 
ATOM      2  O   UNL     1       0.430   1.881  -1.776  0.00  0.00    -0.153 OA
ATOM      3  O   UNL     1      -0.259   3.037   0.348  0.00  0.00    -0.153 OA
ENDROOT
BRANCH   1   5
ATOM      4  F   UNL     1      -4.341  -1.985   0.331  0.00  0.00    -0.204 F 
ATOM      5  C   UNL     1      -1.228   0.685  -0.155  0.00  0.00    +0.122 C 
ATOM      6  C   UNL     1      -2.079   0.798   0.944  0.00  0.00    +0.022 C 
ATOM      7  C   UNL     1      -1.429  -0.331  -1.091  0.00  0.00    +0.022 C 
ATOM      8  C   UNL     1      -3.131  -0.103   1.108  0.00  0.00    +0.031 C 
ATOM      9  C   UNL     1      -2.481  -1.232  -0.926  0.00  0.00    +0.031 C 
ATOM     10  C   UNL     1      -3.332  -1.118   0.173  0.00  0.00    +0.140 C 
ENDBRANCH   1   5
BRANCH   1  11
ATOM     11  N   UNL     1       1.366   1.043   0.474  0.00  0.00    -0.170 NA
ATOM     12  H   UNL     1       1.072   0.956   1.447  0.00  0.00    +0.149 HD
BRANCH  11  13
ATOM     13  C   UNL     1       1.823  -0.288   0.047  0.00  0.00    +0.180 C 
BRANCH  13  15
ATOM     14  O   UNL     1       3.964   0.444   0.895  0.00  0.00    -0.269 OA
ATOM     15  C   UNL     1       3.287  -0.433   0.372  0.00  0.00    +0.288 C 
BRANCH  15  17
ATOM     16  O   UNL     1       3.309  -2.539  -0.455  0.00  0.00    -0.071 OA
ATOM     17  N   UNL     1       4.014  -1.672   0.072  0.00  0.00    -0.027 NA
ENDBRANCH  15  17
ENDBRANCH  13  15
ENDBRANCH  11  13
ENDBRANCH   1  11
TORSDOF 5
