REMARK  Name = 46937109
REMARK  13 active torsions:
REMARK  status: ('A' for Active; 'I' for Inactive)
REMARK    1  A    between atoms: C_2  and  O_7
REMARK    2  A    between atoms: C_3  and  O_9
REMARK    3  A    between atoms: C_4  and  O_11
REMARK    4  A    between atoms: C_5  and  C_22
REMARK    5  A    between atoms: C_6  and  O_13
REMARK    6  A    between atoms: O_13  and  C_14
REMARK    7  A    between atoms: C_14  and  C_15
REMARK    8  A    between atoms: C_15  and  C_16
REMARK    9  A    between atoms: C_16  and  C_17
REMARK   10  A    between atoms: C_17  and  C_18
REMARK   11  A    between atoms: C_18  and  C_19
REMARK   12  A    between atoms: C_19  and  C_20
REMARK   13  A    between atoms: C_22  and  O_23
REMARK                            x       y       z     vdW  Elec       q    Type
REMARK                         _______ _______ _______ _____ _____    ______ ____
ROOT
ATOM      1  O   UNL     1      -2.517   0.522  -1.118  0.00  0.00    -0.326 OA
ATOM      2  C   UNL     1      -3.805  -1.113   0.887  0.00  0.00    +0.172 C 
ATOM      3  C   UNL     1      -4.173   0.355   0.650  0.00  0.00    +0.169 C 
ATOM      4  C   UNL     1      -3.193  -1.717  -0.381  0.00  0.00    +0.196 C 
ATOM      5  C   UNL     1      -2.976   1.131   0.093  0.00  0.00    +0.176 C 
ATOM      6  C   UNL     1      -2.083  -0.833  -0.963  0.00  0.00    +0.266 C 
ENDROOT
BRANCH   2   7
ATOM      7  O   UNL     1      -2.866  -1.196   1.958  0.00  0.00    -0.379 OA
ATOM      8  H   UNL     1      -3.255  -0.813   2.760  0.00  0.00    +0.211 HD
ENDBRANCH   2   7
BRANCH   3   9
ATOM      9  O   UNL     1      -4.619   0.949   1.864  0.00  0.00    -0.379 OA
ATOM     10  H   UNL     1      -5.377   0.450   2.209  0.00  0.00    +0.211 HD
ENDBRANCH   3   9
BRANCH   4  11
ATOM     11  O   UNL     1      -4.208  -1.862  -1.372  0.00  0.00    -0.378 OA
ATOM     12  H   UNL     1      -4.922  -2.419  -1.024  0.00  0.00    +0.211 HD
ENDBRANCH   4  11
BRANCH   6  13
ATOM     13  O   UNL     1      -0.912  -0.930  -0.158  0.00  0.00    -0.329 OA
BRANCH  13  14
ATOM     14  C   UNL     1       0.247  -0.520  -0.871  0.00  0.00    +0.145 C 
BRANCH  14  15
ATOM     15  C   UNL     1       1.461  -0.668   0.036  0.00  0.00    +0.032 C 
BRANCH  15  16
ATOM     16  C   UNL     1       2.745  -0.228  -0.665  0.00  0.00    +0.003 C 
BRANCH  16  17
ATOM     17  C   UNL     1       3.964  -0.419   0.241  0.00  0.00    +0.000 C 
BRANCH  17  18
ATOM     18  C   UNL     1       5.278   0.029  -0.405  0.00  0.00    +0.000 C 
BRANCH  18  19
ATOM     19  C   UNL     1       6.486  -0.093   0.527  0.00  0.00    +0.000 C 
BRANCH  19  20
ATOM     20  C   UNL     1       7.756   0.434  -0.142  0.00  0.00    +0.000 C 
ATOM     21  C   UNL     1       8.954   0.351   0.791  0.00  0.00    +0.000 C 
ENDBRANCH  19  20
ENDBRANCH  18  19
ENDBRANCH  17  18
ENDBRANCH  16  17
ENDBRANCH  15  16
ENDBRANCH  14  15
ENDBRANCH  13  14
ENDBRANCH   6  13
BRANCH   5  22
ATOM     22  C   UNL     1      -3.345   2.575  -0.237  0.00  0.00    +0.169 C 
BRANCH  22  23
ATOM     23  O   UNL     1      -2.193   3.231  -0.735  0.00  0.00    -0.379 OA
ATOM     24  H   UNL     1      -2.413   4.151  -0.949  0.00  0.00    +0.211 HD
ENDBRANCH  22  23
ENDBRANCH   5  22
TORSDOF 13
