REMARK  Name = 5287955
REMARK  7 active torsions:
REMARK  status: ('A' for Active; 'I' for Inactive)
REMARK    1  A    between atoms: C_2  and  N_19
REMARK    2  A    between atoms: C_9  and  O_25
REMARK    3  A    between atoms: C_13  and  O_27
REMARK    4  A    between atoms: C_14  and  O_29
REMARK    5  A    between atoms: C_17  and  O_31
REMARK    6  A    between atoms: C_20  and  C_22
REMARK    7  A    between atoms: C_22  and  S_23
REMARK                            x       y       z     vdW  Elec       q    Type
REMARK                         _______ _______ _______ _____ _____    ______ ____
ROOT
ATOM      1  O   UNL     1      -4.610  -0.622  -1.722  0.00  0.00    -0.283 OA
ATOM      2  C   UNL     1      -0.698  -2.039   0.589  0.00  0.00    +0.095 C 
ATOM      3  C   UNL     1      -0.142  -2.044   2.032  0.00  0.00    +0.029 C 
ATOM      4  C   UNL     1       0.353  -0.714   2.615  0.00  0.00    +0.029 C 
ATOM      5  C   UNL     1      -1.607  -0.865   0.215  0.00  0.00    -0.001 C 
ATOM      6  C   UNL     1       1.090   0.145   1.622  0.00  0.00    -0.016 C 
ATOM      7  C   UNL     1       0.395   0.729   0.543  0.00  0.00    +0.033 C 
ATOM      8  C   UNL     1      -1.072   0.494   0.394  0.00  0.00    +0.000 C 
ATOM      9  C   UNL     1       1.098   1.499  -0.398  0.00  0.00    +0.175 C 
ATOM     10  C   UNL     1       2.470   0.352   1.748  0.00  0.00    +0.036 C 
ATOM     11  C   UNL     1      -2.801  -1.162  -0.330  0.00  0.00    +0.043 C 
ATOM     12  C   UNL     1      -1.818   1.606   0.536  0.00  0.00    +0.003 C 
ATOM     13  C   UNL     1       2.471   1.698  -0.258  0.00  0.00    +0.206 C 
ATOM     14  C   UNL     1       3.155   1.128   0.813  0.00  0.00    +0.175 C 
ATOM     15  C   UNL     1      -3.878  -0.262  -0.802  0.00  0.00    +0.229 C 
ATOM     16  C   UNL     1      -3.249   1.750   0.538  0.00  0.00    +0.040 C 
ATOM     17  C   UNL     1      -4.168   0.992  -0.068  0.00  0.00    +0.177 C 
ENDROOT
BRANCH   2  19
ATOM     18  O   UNL     1       0.628  -4.461  -0.278  0.00  0.00    -0.274 OA
ATOM     19  N   UNL     1       0.357  -2.157  -0.399  0.00  0.00    -0.301 N 
ATOM     20  C   UNL     1       0.931  -3.365  -0.748  0.00  0.00    +0.233 C 
ATOM     21  H   UNL     1       0.680  -1.339  -0.842  0.00  0.00    +0.150 HD
BRANCH  20  22
ATOM     22  C   UNL     1       2.019  -3.219  -1.785  0.00  0.00    +0.138 C 
BRANCH  22  23
ATOM     23  S   UNL     1       3.605  -2.998  -0.945  0.00  0.00    -0.159 S 
ATOM     24  H   UNL     1       4.593  -2.865  -1.870  0.00  0.00    +0.103 HD
ENDBRANCH  22  23
ENDBRANCH  20  22
ENDBRANCH   2  19
BRANCH   9  25
ATOM     25  O   UNL     1       0.460   2.043  -1.476  0.00  0.00    -0.468 OA
ATOM     26  C   UNL     1       0.406   1.251  -2.659  0.00  0.00    +0.253 C 
ENDBRANCH   9  25
BRANCH  13  27
ATOM     27  O   UNL     1       3.149   2.447  -1.175  0.00  0.00    -0.465 OA
ATOM     28  C   UNL     1       3.256   3.845  -0.918  0.00  0.00    +0.253 C 
ENDBRANCH  13  27
BRANCH  14  29
ATOM     29  O   UNL     1       4.497   1.315   0.956  0.00  0.00    -0.468 OA
ATOM     30  C   UNL     1       5.354   0.362   0.330  0.00  0.00    +0.253 C 
ENDBRANCH  14  29
BRANCH  17  31
ATOM     31  O   UNL     1      -5.492   1.401  -0.043  0.00  0.00    -0.468 OA
ATOM     32  C   UNL     1      -6.159   0.853   1.074  0.00  0.00    +0.253 C 
ENDBRANCH  17  31
TORSDOF 7
