REMARK  Name = 16741228
REMARK  8 active torsions:
REMARK  status: ('A' for Active; 'I' for Inactive)
REMARK    1  A    between atoms: C_3  and  C_22
REMARK    2  A    between atoms: C_10  and  C_14
REMARK    3  A    between atoms: C_11  and  O_20
REMARK    4  A    between atoms: C_22  and  C_25
REMARK    5  A    between atoms: N_24  and  CA_27
REMARK    6  A    between atoms: CA_27  and  C_28
REMARK    7  A    between atoms: CA_27  and  C_30
REMARK    8  A    between atoms: C_30  and  O_31
REMARK                            x       y       z     vdW  Elec       q    Type
REMARK                         _______ _______ _______ _____ _____    ______ ____
ROOT
ATOM      1  O   UNL     1      -2.829   2.581   1.228  0.00  0.00    -0.267 OA
ATOM      2  N   UNL     1      -1.216   1.036   0.865  0.00  0.00    -0.279 N 
ATOM      3  C   UNL     1       1.012   1.058   1.168  0.00  0.00    +0.001 A 
ATOM      4  C   UNL     1       0.600  -0.293   1.087  0.00  0.00    +0.017 A 
ATOM      5  C   UNL     1      -0.107   1.842   1.037  0.00  0.00    +0.041 A 
ATOM      6  C   UNL     1      -0.790  -0.297   0.903  0.00  0.00    +0.066 A 
ATOM      7  C   UNL     1       1.295  -1.518   1.158  0.00  0.00    +0.038 C 
ATOM      8  C   UNL     1      -1.494  -1.510   0.777  0.00  0.00    +0.021 C 
ATOM      9  C   UNL     1      -0.161   3.323   1.065  0.00  0.00    +0.050 C 
ATOM     10  C   UNL     1      -2.540   1.504   0.718  0.00  0.00    +0.264 C 
ATOM     11  C   UNL     1       0.592  -2.719   1.039  0.00  0.00    +0.139 C 
ATOM     12  C   UNL     1      -0.783  -2.712   0.850  0.00  0.00    +0.038 C 
ENDROOT
BRANCH  10  14
ATOM     13 CL   UNL     1      -6.856  -1.368  -2.275  0.00  0.00    -0.082 Cl
ATOM     14  C   UNL     1      -3.604   0.796  -0.020  0.00  0.00    +0.057 C 
ATOM     15  C   UNL     1      -3.445   0.519  -1.378  0.00  0.00    +0.006 C 
ATOM     16  C   UNL     1      -4.769   0.405   0.640  0.00  0.00    +0.006 C 
ATOM     17  C   UNL     1      -4.451  -0.150  -2.075  0.00  0.00    +0.012 C 
ATOM     18  C   UNL     1      -5.775  -0.265  -0.057  0.00  0.00    +0.012 C 
ATOM     19  C   UNL     1      -5.616  -0.542  -1.415  0.00  0.00    +0.058 C 
ENDBRANCH  10  14
BRANCH  11  20
ATOM     20  O   UNL     1       1.262  -3.903   1.108  0.00  0.00    -0.471 OA
ATOM     21  C   UNL     1       2.674  -3.839   1.303  0.00  0.00    +0.252 C 
ENDBRANCH  11  20
BRANCH   3  22
ATOM     22  C   UNL     1       2.397   1.538   1.363  0.00  0.00    +0.112 C 
BRANCH  22  25
ATOM     23  O   UNL     1       3.100   2.817  -0.571  0.00  0.00    -0.275 OA
ATOM     24  N   UNL     1       3.871   0.640  -0.330  0.00  0.00    -0.303 N 
ATOM     25  C   UNL     1       3.143   1.758   0.051  0.00  0.00    +0.227 C 
ATOM     26  H   UNL     1       3.837  -0.161   0.243  0.00  0.00    +0.149 HD
BRANCH  24  27
ATOM     27  CA  UNL     1       4.677   0.596  -1.528  0.00  0.00    +0.101 C 
BRANCH  27  28
ATOM     28  C   UNL     1       5.882  -0.336  -1.349  0.00  0.00    +0.022 C 
ATOM     29  C   UNL     1       6.773   0.072  -0.182  0.00  0.00    +0.002 C 
ENDBRANCH  27  28
BRANCH  27  30
ATOM     30  C   UNL     1       3.815   0.145  -2.709  0.00  0.00    +0.157 C 
BRANCH  30  31
ATOM     31  O   UNL     1       3.343  -1.176  -2.472  0.00  0.00    -0.380 OA
ATOM     32  H   UNL     1       2.797  -1.463  -3.220  0.00  0.00    +0.211 HD
ENDBRANCH  30  31
ENDBRANCH  27  30
ENDBRANCH  24  27
ENDBRANCH  22  25
ENDBRANCH   3  22
TORSDOF 8
