REMARK  Name = 5287834
REMARK  3 active torsions:
REMARK  status: ('A' for Active; 'I' for Inactive)
REMARK    1  A    between atoms: C_1  and  O_19
REMARK    2  A    between atoms: C_2  and  O_21
REMARK    3  A    between atoms: C_4  and  O_23
REMARK                            x       y       z     vdW  Elec       q    Type
REMARK                         _______ _______ _______ _____ _____    ______ ____
ROOT
ATOM      1  C   UNL     1       3.585   0.802   0.285  0.00  0.00    +0.168 C 
ATOM      2  C   UNL     1       2.647   1.609  -0.600  0.00  0.00    +0.144 C 
ATOM      3  C   UNL     1       0.788  -0.093  -0.034  0.00  0.00    -0.021 C 
ATOM      4  C   UNL     1       3.312  -0.685   0.088  0.00  0.00    +0.162 C 
ATOM      5  C   UNL     1       1.188   1.361  -0.215  0.00  0.00    +0.058 C 
ATOM      6  C   UNL     1       1.839  -1.048   0.084  0.00  0.00    +0.003 C 
ATOM      7  C   UNL     1      -0.618  -0.495   0.011  0.00  0.00    -0.004 C 
ATOM      8  C   UNL     1      -0.838  -1.905   0.055  0.00  0.00    -0.000 C 
ATOM      9  C   UNL     1       1.530  -2.403   0.172  0.00  0.00    -0.002 C 
ATOM     10  C   UNL     1      -1.833   0.351   0.012  0.00  0.00    -0.000 C 
ATOM     11  C   UNL     1       0.213  -2.822   0.138  0.00  0.00    -0.000 C 
ATOM     12  C   UNL     1      -3.120  -0.261  -0.046  0.00  0.00    -0.000 C 
ATOM     13  C   UNL     1      -2.121  -2.449   0.016  0.00  0.00    -0.000 C 
ATOM     14  C   UNL     1      -3.242  -1.644  -0.054  0.00  0.00    -0.000 C 
ATOM     15  C   UNL     1      -1.877   1.771   0.094  0.00  0.00    -0.000 C 
ATOM     16  C   UNL     1      -4.307   0.492  -0.081  0.00  0.00    -0.000 C 
ATOM     17  C   UNL     1      -3.063   2.518   0.066  0.00  0.00    -0.000 C 
ATOM     18  C   UNL     1      -4.282   1.878  -0.033  0.00  0.00    -0.000 C 
ENDROOT
BRANCH   1  19
ATOM     19  O   UNL     1       3.388   1.128   1.660  0.00  0.00    -0.379 OA
ATOM     20  H   UNL     1       3.559   2.073   1.797  0.00  0.00    +0.211 HD
ENDBRANCH   1  19
BRANCH   2  21
ATOM     21  O   UNL     1       2.950   2.994  -0.456  0.00  0.00    -0.382 OA
ATOM     22  H   UNL     1       3.875   3.149  -0.701  0.00  0.00    +0.210 HD
ENDBRANCH   2  21
BRANCH   4  23
ATOM     23  O   UNL     1       3.860  -1.101  -1.163  0.00  0.00    -0.377 OA
ATOM     24  H   UNL     1       4.805  -0.882  -1.191  0.00  0.00    +0.211 HD
ENDBRANCH   4  23
TORSDOF 3
