REMARK  Name = 16122633
REMARK  3 active torsions:
REMARK  status: ('A' for Active; 'I' for Inactive)
REMARK    1  A    between atoms: C_1  and  C_19
REMARK    2  A    between atoms: C_6  and  C_11
REMARK    3  A    between atoms: C_19  and  C_27
REMARK                            x       y       z     vdW  Elec       q    Type
REMARK                         _______ _______ _______ _____ _____    ______ ____
ROOT
ATOM      1  C   UNL     1       0.924   0.565  -0.121  0.00  0.00    -0.019 C 
ATOM      2  C   UNL     1       0.191   0.432   1.059  0.00  0.00    -0.004 C 
ATOM      3  C   UNL     1       0.338   0.247  -1.346  0.00  0.00    -0.004 C 
ATOM      4  C   UNL     1      -1.129  -0.019   1.012  0.00  0.00    +0.001 C 
ATOM      5  C   UNL     1      -0.981  -0.204  -1.392  0.00  0.00    +0.001 C 
ATOM      6  C   UNL     1      -1.715  -0.337  -0.213  0.00  0.00    +0.015 C 
ENDROOT
BRANCH   6  11
ATOM      7  N   UNL     1      -3.329  -2.029  -0.778  0.00  0.00    -0.247 NA
ATOM      8  N   UNL     1      -4.305   1.164   0.763  0.00  0.00    -0.271 NA
ATOM      9  N   UNL     1      -5.726  -1.800  -0.392  0.00  0.00    -0.232 NA
ATOM     10  N   UNL     1      -6.361   0.314   0.627  0.00  0.00    -0.307 N 
ATOM     11  C   UNL     1      -3.083  -0.805  -0.260  0.00  0.00    +0.077 C 
ATOM     12  C   UNL     1      -4.159  -0.070   0.195  0.00  0.00    +0.150 C 
ATOM     13  C   UNL     1      -5.449  -0.577   0.121  0.00  0.00    +0.123 C 
ATOM     14  C   UNL     1      -4.617  -2.446  -0.811  0.00  0.00    +0.251 C 
ATOM     15  C   UNL     1      -5.641   1.349   1.004  0.00  0.00    +0.163 C 
ATOM     16  H   UNL     1      -3.583   1.803   0.963  0.00  0.00    +0.125 HD
ATOM     17  H   UNL     1      -7.337   0.204   0.693  0.00  0.00    +0.149 HD
ENDBRANCH   6  11
BRANCH   1  19
ATOM     18  N   UNL     1       2.373   4.075  -0.337  0.00  0.00    +0.384 N 
ATOM     19  C   UNL     1       2.390   1.067  -0.070  0.00  0.00    +0.034 C 
ATOM     20  C   UNL     1       2.566   2.091   1.106  0.00  0.00    -0.015 C 
ATOM     21  C   UNL     1       2.859   1.858  -1.342  0.00  0.00    -0.015 C 
ATOM     22  C   UNL     1       1.855   3.425   0.862  0.00  0.00    -0.081 C 
ATOM     23  C   UNL     1       2.195   3.231  -1.513  0.00  0.00    -0.081 C 
ATOM     24  H   UNL     1       3.368   4.263  -0.210  0.00  0.00    -0.085 HD
ATOM     25  H   UNL     1       1.859   4.944  -0.482  0.00  0.00    -0.085 HD
BRANCH  19  27
ATOM     26 CL   UNL     1       5.984  -3.782   0.519  0.00  0.00    -0.082 Cl
ATOM     27  C   UNL     1       3.310  -0.176   0.082  0.00  0.00    -0.019 C 
ATOM     28  C   UNL     1       3.796  -0.826  -1.052  0.00  0.00    -0.003 C 
ATOM     29  C   UNL     1       3.651  -0.642   1.352  0.00  0.00    -0.003 C 
ATOM     30  C   UNL     1       4.622  -1.941  -0.917  0.00  0.00    +0.011 C 
ATOM     31  C   UNL     1       4.477  -1.757   1.488  0.00  0.00    +0.011 C 
ATOM     32  C   UNL     1       4.963  -2.407   0.353  0.00  0.00    +0.058 C 
ENDBRANCH  19  27
ENDBRANCH   1  19
TORSDOF 3
