REMARK  Name = 9911502
REMARK  6 active torsions:
REMARK  status: ('A' for Active; 'I' for Inactive)
REMARK    1  A    between atoms: N_2  and  C_20
REMARK    2  A    between atoms: C_3  and  N_7
REMARK    3  A    between atoms: N_7  and  S_9
REMARK    4  A    between atoms: S_9  and  C_12
REMARK    5  A    between atoms: C_13  and  C_16
REMARK    6  A    between atoms: C_20  and  C_25
REMARK                            x       y       z     vdW  Elec       q    Type
REMARK                         _______ _______ _______ _____ _____    ______ ____
ROOT
ATOM      1  O   UNL     1      -1.946  -2.050  -0.396  0.00  0.00    -0.273 OA
ATOM      2  N   UNL     1      -1.662  -0.468   1.321  0.00  0.00    -0.272 N 
ATOM      3  C   UNL     1       0.222  -1.650   0.626  0.00  0.00    +0.153 C 
ATOM      4  C   UNL     1       0.655  -0.391   1.369  0.00  0.00    +0.048 C 
ATOM      5  C   UNL     1      -0.581   0.000   2.156  0.00  0.00    +0.096 C 
ATOM      6  C   UNL     1      -1.256  -1.442   0.409  0.00  0.00    +0.242 C 
ENDROOT
BRANCH   3   7
ATOM      7  N   UNL     1       0.895  -1.755  -0.673  0.00  0.00    -0.172 NA
ATOM      8  H   UNL     1       0.223  -2.150  -1.332  0.00  0.00    +0.149 HD
BRANCH   7   9
ATOM      9  S   UNL     1       2.327  -2.708  -0.771  0.00  0.00    +0.062 S 
ATOM     10  O   UNL     1       2.611  -2.955  -2.174  0.00  0.00    -0.153 OA
ATOM     11  O   UNL     1       2.164  -3.830   0.137  0.00  0.00    -0.153 OA
BRANCH   9  12
ATOM     12  C   UNL     1       3.576  -1.689  -0.133  0.00  0.00    +0.141 C 
ATOM     13  C   UNL     1       3.796  -0.529  -0.764  0.00  0.00    +0.028 C 
BRANCH  13  16
ATOM     14 CL   UNL     1       6.924   3.938  -0.454  0.00  0.00    -0.075 Cl
ATOM     15  S   UNL     1       4.920   1.884  -1.219  0.00  0.00    -0.075 S 
ATOM     16  C   UNL     1       4.780   0.427  -0.351  0.00  0.00    +0.032 C 
ATOM     17  C   UNL     1       5.660   0.328   0.687  0.00  0.00    +0.008 C 
ATOM     18  C   UNL     1       6.484   1.487   0.781  0.00  0.00    +0.018 C 
ATOM     19  C   UNL     1       6.187   2.413  -0.195  0.00  0.00    +0.087 C 
ENDBRANCH  13  16
ENDBRANCH   9  12
ENDBRANCH   7   9
ENDBRANCH   3   7
BRANCH   2  20
ATOM     20  C   UNL     1      -3.026  -0.034   1.533  0.00  0.00    +0.152 C 
ATOM     21  C   UNL     1      -3.242   0.524   2.920  0.00  0.00    +0.031 C 
BRANCH  20  25
ATOM     22  O   UNL     1      -6.798   0.852  -1.704  0.00  0.00    -0.350 OA
ATOM     23  O   UNL     1      -2.311   1.766   0.165  0.00  0.00    -0.273 OA
ATOM     24  N   UNL     1      -4.528   1.111  -0.056  0.00  0.00    -0.273 N 
ATOM     25  C   UNL     1      -3.248   1.031   0.488  0.00  0.00    +0.244 C 
ATOM     26  C   UNL     1      -5.693   0.343   0.395  0.00  0.00    +0.126 C 
ATOM     27  C   UNL     1      -4.827   2.113  -1.078  0.00  0.00    +0.126 C 
ATOM     28  C   UNL     1      -6.458  -0.205  -0.804  0.00  0.00    +0.164 C 
ATOM     29  C   UNL     1      -5.624   1.488  -2.215  0.00  0.00    +0.164 C 
ENDBRANCH  20  25
ENDBRANCH   2  20
TORSDOF 6
