REMARK  Name = 854023
REMARK  1 active torsions:
REMARK  status: ('A' for Active; 'I' for Inactive)
REMARK    1  A    between atoms: C_4  and  C_12
REMARK                            x       y       z     vdW  Elec       q    Type
REMARK                         _______ _______ _______ _____ _____    ______ ____
ROOT
ATOM      1  N   UNL     1       2.169  -1.287   0.376  0.00  0.00    +0.387 N 
ATOM      2  C   UNL     1       1.814  -0.543  -0.850  0.00  0.00    -0.058 C 
ATOM      3  C   UNL     1       2.778  -0.155   1.093  0.00  0.00    -0.062 C 
ATOM      4  C   UNL     1       0.947   0.600  -0.273  0.00  0.00    +0.002 C 
ATOM      5  C   UNL     1       1.592   0.814   1.115  0.00  0.00    -0.019 C 
ATOM      6  C   UNL     1       3.188   0.007  -1.257  0.00  0.00    -0.023 C 
ATOM      7  C   UNL     1       3.841   0.311   0.095  0.00  0.00    -0.023 C 
ATOM      8  H   UNL     1       2.834  -2.040   0.197  0.00  0.00    -0.084 HD
ATOM      9  H   UNL     1       1.412  -1.778   0.851  0.00  0.00    -0.084 HD
ENDROOT
BRANCH   4  12
ATOM     10 CL   UNL     1      -4.884  -0.519   0.145  0.00  0.00    -0.061 Cl
ATOM     11  N   UNL     1      -2.380  -1.185   0.053  0.00  0.00    -0.233 NA
ATOM     12  C   UNL     1      -0.547   0.368  -0.170  0.00  0.00    -0.005 C 
ATOM     13  C   UNL     1      -1.436   1.434  -0.200  0.00  0.00    -0.000 C 
ATOM     14  C   UNL     1      -1.060  -0.909  -0.043  0.00  0.00    +0.095 C 
ATOM     15  C   UNL     1      -2.802   1.190  -0.103  0.00  0.00    +0.030 C 
ATOM     16  C   UNL     1      -3.219  -0.125   0.020  0.00  0.00    +0.138 C 
ENDBRANCH   4  12
TORSDOF 1
