REMARK  Name = 444406
REMARK  9 active torsions:
REMARK  status: ('A' for Active; 'I' for Inactive)
REMARK    1  A    between atoms: C_1  and  C_2
REMARK    2  A    between atoms: C_1  and  C_14
REMARK    3  A    between atoms: C_1  and  C_28
REMARK    4  A    between atoms: C_5  and  C_10
REMARK    5  A    between atoms: C_14  and  C_15
REMARK    6  A    between atoms: C_15  and  C_16
REMARK    7  A    between atoms: C_21  and  C_24
REMARK    8  A    between atoms: C_28  and  C_30
REMARK    9  A    between atoms: C_30  and  O_31
REMARK                            x       y       z     vdW  Elec       q    Type
REMARK                         _______ _______ _______ _____ _____    ______ ____
ROOT
ATOM      1  C   UNL     1      -1.397  -1.422   0.050  0.00  0.00    +0.034 C 
ENDROOT
BRANCH   1   2
ATOM      2  C   UNL     1      -2.050  -0.152  -0.478  0.00  0.00    -0.022 C 
ATOM      3  C   UNL     1      -2.049   0.978   0.313  0.00  0.00    -0.002 C 
ATOM      4  C   UNL     1      -2.626  -0.171  -1.733  0.00  0.00    -0.004 C 
ATOM      5  C   UNL     1      -2.648   2.141  -0.172  0.00  0.00    +0.030 C 
ATOM      6  C   UNL     1      -3.225   0.992  -2.217  0.00  0.00    -0.000 C 
ATOM      7  C   UNL     1      -3.236   2.148  -1.436  0.00  0.00    +0.003 C 
BRANCH   5  10
ATOM      8  N   UNL     1      -3.251   4.523   0.186  0.00  0.00    -0.343 N 
ATOM      9  N   UNL     1      -2.099   3.339   1.838  0.00  0.00    -0.285 NA
ATOM     10  C   UNL     1      -2.660   3.346   0.642  0.00  0.00    +0.117 C 
ATOM     11  H   UNL     1      -3.248   5.328   0.753  0.00  0.00    +0.144 HD
ATOM     12  H   UNL     1      -3.672   4.550  -0.704  0.00  0.00    +0.144 HD
ATOM     13  H   UNL     1      -2.106   4.154   2.390  0.00  0.00    +0.188 HD
ENDBRANCH   5  10
ENDBRANCH   1   2
BRANCH   1  14
ATOM     14  C   UNL     1       0.115  -1.237   0.337  0.00  0.00    +0.010 C 
BRANCH  14  15
ATOM     15  C   UNL     1       0.951  -0.774  -0.868  0.00  0.00    +0.027 C 
BRANCH  15  16
ATOM     16  C   UNL     1       2.407  -0.533  -0.557  0.00  0.00    -0.022 C 
ATOM     17  C   UNL     1       2.815   0.726  -0.145  0.00  0.00    -0.004 C 
ATOM     18  C   UNL     1       3.312  -1.575  -0.687  0.00  0.00    -0.004 C 
ATOM     19  C   UNL     1       4.161   0.949   0.144  0.00  0.00    +0.002 C 
ATOM     20  C   UNL     1       4.658  -1.352  -0.398  0.00  0.00    +0.002 C 
ATOM     21  C   UNL     1       5.083  -0.090   0.018  0.00  0.00    +0.031 C 
BRANCH  21  24
ATOM     22  N   UNL     1       6.943   1.392   0.732  0.00  0.00    -0.343 N 
ATOM     23  N   UNL     1       7.358  -0.843   0.192  0.00  0.00    -0.285 NA
ATOM     24  C   UNL     1       6.487   0.142   0.317  0.00  0.00    +0.117 C 
ATOM     25  H   UNL     1       7.898   1.528   0.929  0.00  0.00    +0.144 HD
ATOM     26  H   UNL     1       6.309   2.140   0.828  0.00  0.00    +0.144 HD
ATOM     27  H   UNL     1       8.309  -0.688   0.394  0.00  0.00    +0.188 HD
ENDBRANCH  21  24
ENDBRANCH  15  16
ENDBRANCH  14  15
ENDBRANCH   1  14
BRANCH   1  28
ATOM     28  C   UNL     1      -2.144  -1.903   1.313  0.00  0.00    +0.114 C 
BRANCH  28  30
ATOM     29  O   UNL     1      -4.545  -1.659   1.636  0.00  0.00    -0.250 OA
ATOM     30  C   UNL     1      -3.609  -2.197   1.061  0.00  0.00    +0.317 C 
BRANCH  30  31
ATOM     31  O   UNL     1      -3.709  -3.179   0.117  0.00  0.00    -0.444 OA
ATOM     32  C   UNL     1      -5.041  -3.591  -0.204  0.00  0.00    +0.256 C 
ENDBRANCH  30  31
ENDBRANCH  28  30
ENDBRANCH   1  28
TORSDOF 9
