REMARK  Name = 9824562
REMARK  9 active torsions:
REMARK  status: ('A' for Active; 'I' for Inactive)
REMARK    1  A    between atoms: C_1  and  C_5
REMARK    2  A    between atoms: C_1  and  O_20
REMARK    3  A    between atoms: C_1  and  C_22
REMARK    4  A    between atoms: N_4  and  C_7
REMARK    5  A    between atoms: C_9  and  C_16
REMARK    6  A    between atoms: C_11  and  N_19
REMARK    7  A    between atoms: C_22  and  O_23
REMARK    8  A    between atoms: O_23  and  C_24
REMARK    9  A    between atoms: C_27  and  N_31
REMARK                            x       y       z     vdW  Elec       q    Type
REMARK                         _______ _______ _______ _____ _____    ______ ____
ROOT
ATOM      1  C   UNL     1      -0.615  -3.832  -0.187  0.00  0.00    +0.197 C 
ATOM      2  C   UNL     1      -0.338  -4.186  -1.650  0.00  0.00    +0.043 C 
ENDROOT
BRANCH   1   5
ATOM      3  O   UNL     1       1.166  -3.615   1.425  0.00  0.00    -0.272 OA
ATOM      4  N   UNL     1       0.937  -1.945  -0.199  0.00  0.00    -0.282 N 
ATOM      5  C   UNL     1       0.600  -3.128   0.449  0.00  0.00    +0.254 C 
ATOM      6  H   UNL     1       0.377  -1.697  -0.970  0.00  0.00    +0.155 HD
BRANCH   4   7
ATOM      7  C   UNL     1       1.990  -1.054   0.118  0.00  0.00    +0.050 C 
ATOM      8  C   UNL     1       2.185   0.097  -0.644  0.00  0.00    +0.020 C 
ATOM      9  C   UNL     1       3.223   0.974  -0.331  0.00  0.00    +0.095 C 
ATOM     10  C   UNL     1       2.834  -1.329   1.195  0.00  0.00    +0.016 C 
ATOM     11  C   UNL     1       4.067   0.700   0.746  0.00  0.00    +0.147 C 
ATOM     12  C   UNL     1       3.872  -0.452   1.509  0.00  0.00    +0.025 C 
BRANCH   9  16
ATOM     13  F   UNL     1       2.493   2.309  -2.177  0.00  0.00    -0.166 F 
ATOM     14  F   UNL     1       3.299   3.361  -0.460  0.00  0.00    -0.166 F 
ATOM     15  F   UNL     1       4.628   2.244  -1.769  0.00  0.00    -0.166 F 
ATOM     16  C   UNL     1       3.405   2.199  -1.167  0.00  0.00    +0.420 C 
ENDBRANCH   9  16
BRANCH  11  19
ATOM     17  O   UNL     1       6.256   1.401   0.561  0.00  0.00    -0.126 OA
ATOM     18  O   UNL     1       4.912   2.511   1.897  0.00  0.00    -0.126 OA
ATOM     19  N   UNL     1       5.131   1.581   1.085  0.00  0.00    +0.058 N 
ENDBRANCH  11  19
ENDBRANCH   4   7
ENDBRANCH   1   5
BRANCH   1  20
ATOM     20  O   UNL     1      -0.825  -5.052   0.524  0.00  0.00    -0.375 OA
ATOM     21  H   UNL     1      -1.003  -4.856   1.458  0.00  0.00    +0.211 HD
ENDBRANCH   1  20
BRANCH   1  22
ATOM     22  C   UNL     1      -1.902  -3.008  -0.065  0.00  0.00    +0.241 C 
BRANCH  22  23
ATOM     23  O   UNL     1      -1.967  -2.010  -1.080  0.00  0.00    -0.472 OA
BRANCH  23  24
ATOM     24  C   UNL     1      -2.715  -0.897  -0.801  0.00  0.00    +0.139 C 
ATOM     25  C   UNL     1      -3.817  -0.992   0.050  0.00  0.00    +0.038 C 
ATOM     26  C   UNL     1      -2.376   0.331  -1.368  0.00  0.00    +0.038 C 
ATOM     27  C   UNL     1      -4.240   1.369  -0.235  0.00  0.00    +0.051 C 
ATOM     28  C   UNL     1      -4.579   0.141   0.332  0.00  0.00    +0.018 C 
ATOM     29  C   UNL     1      -3.138   1.464  -1.086  0.00  0.00    +0.018 C 
BRANCH  27  31
ATOM     30  O   UNL     1      -6.675   1.703   1.505  0.00  0.00    -0.275 OA
ATOM     31  N   UNL     1      -5.004   2.502   0.046  0.00  0.00    -0.284 N 
ATOM     32  C   UNL     1      -6.135   2.601   0.867  0.00  0.00    +0.227 C 
ATOM     33  C   UNL     1      -6.673   4.009   0.910  0.00  0.00    +0.095 C 
ATOM     34  H   UNL     1      -4.711   3.337  -0.386  0.00  0.00    +0.155 HD
ENDBRANCH  27  31
ENDBRANCH  23  24
ENDBRANCH  22  23
ENDBRANCH   1  22
TORSDOF 9
