REMARK  Name = 4395717
REMARK  17 active torsions:
REMARK  status: ('A' for Active; 'I' for Inactive)
REMARK    1  A    between atoms: C_1  and  P_2
REMARK    2  A    between atoms: C_1  and  P_8
REMARK    3  A    between atoms: C_1  and  O_14
REMARK    4  A    between atoms: C_1  and  C_16
REMARK    5  A    between atoms: P_2  and  O_4
REMARK    6  A    between atoms: P_2  and  O_6
REMARK    7  A    between atoms: P_8  and  O_10
REMARK    8  A    between atoms: P_8  and  O_12
REMARK    9  A    between atoms: C_16  and  C_17
REMARK   10  A    between atoms: C_17  and  C_18
REMARK   11  A    between atoms: C_18  and  C_19
REMARK   12  A    between atoms: C_19  and  C_20
REMARK   13  A    between atoms: C_20  and  C_21
REMARK   14  A    between atoms: C_21  and  C_22
REMARK   15  A    between atoms: C_22  and  C_23
REMARK   16  A    between atoms: C_23  and  C_24
REMARK   17  A    between atoms: C_24  and  C_25
REMARK                            x       y       z     vdW  Elec       q    Type
REMARK                         _______ _______ _______ _____ _____    ______ ____
ROOT
ATOM      1  C   UNL     1       3.703  -0.110  -0.302  0.00  0.00    +0.275 C 
ENDROOT
BRANCH   1   2
ATOM      2  P   UNL     1       5.038  -1.293   0.150  0.00  0.00    +0.372 P 
ATOM      3  O   UNL     1       4.954  -2.630  -0.524  0.00  0.00    -0.255 OA
BRANCH   2   4
ATOM      4  O   UNL     1       6.400  -0.471  -0.133  0.00  0.00    -0.322 OA
ATOM      5  H   UNL     1       7.165  -1.028   0.082  0.00  0.00    +0.220 HD
ENDBRANCH   2   4
BRANCH   2   6
ATOM      6  O   UNL     1       4.954  -1.329   1.764  0.00  0.00    -0.322 OA
ATOM      7  H   UNL     1       5.628  -1.935   2.110  0.00  0.00    +0.220 HD
ENDBRANCH   2   6
ENDBRANCH   1   2
BRANCH   1   8
ATOM      8  P   UNL     1       3.801   1.656   0.151  0.00  0.00    +0.372 P 
ATOM      9  O   UNL     1       2.771   2.546  -0.479  0.00  0.00    -0.255 OA
BRANCH   8  10
ATOM     10  O   UNL     1       3.792   1.625   1.767  0.00  0.00    -0.322 OA
ATOM     11  H   UNL     1       3.842   2.532   2.108  0.00  0.00    +0.220 HD
ENDBRANCH   8  10
BRANCH   8  12
ATOM     12  O   UNL     1       5.329   2.055  -0.197  0.00  0.00    -0.322 OA
ATOM     13  H   UNL     1       5.475   2.990   0.015  0.00  0.00    +0.220 HD
ENDBRANCH   8  12
ENDBRANCH   1   8
BRANCH   1  14
ATOM     14  O   UNL     1       3.787  -0.087  -1.728  0.00  0.00    -0.367 OA
ATOM     15  H   UNL     1       4.631   0.309  -1.995  0.00  0.00    +0.212 HD
ENDBRANCH   1  14
BRANCH   1  16
ATOM     16  C   UNL     1       2.349  -0.744   0.090  0.00  0.00    +0.051 C 
BRANCH  16  17
ATOM     17  C   UNL     1       1.107  -0.012  -0.426  0.00  0.00    +0.004 C 
BRANCH  17  18
ATOM     18  C   UNL     1      -0.208  -0.660   0.025  0.00  0.00    +0.000 C 
BRANCH  18  19
ATOM     19  C   UNL     1      -1.488   0.051  -0.427  0.00  0.00    +0.000 C 
BRANCH  19  20
ATOM     20  C   UNL     1      -2.766  -0.606   0.098  0.00  0.00    +0.000 C 
BRANCH  20  21
ATOM     21  C   UNL     1      -4.045   0.101  -0.364  0.00  0.00    +0.000 C 
BRANCH  21  22
ATOM     22  C   UNL     1      -5.354  -0.459   0.202  0.00  0.00    +0.000 C 
BRANCH  22  23
ATOM     23  C   UNL     1      -6.592   0.323  -0.243  0.00  0.00    +0.000 C 
BRANCH  23  24
ATOM     24  C   UNL     1      -7.900  -0.234   0.330  0.00  0.00    +0.000 C 
BRANCH  24  25
ATOM     25  C   UNL     1      -9.180   0.453  -0.151  0.00  0.00    +0.000 C 
ATOM     26  C   UNL     1     -10.451  -0.176   0.398  0.00  0.00    +0.000 C 
ENDBRANCH  24  25
ENDBRANCH  23  24
ENDBRANCH  22  23
ENDBRANCH  21  22
ENDBRANCH  20  21
ENDBRANCH  19  20
ENDBRANCH  18  19
ENDBRANCH  17  18
ENDBRANCH  16  17
ENDBRANCH   1  16
TORSDOF 17
