REMARK  Name = 11987868
REMARK  4 active torsions:
REMARK  status: ('A' for Active; 'I' for Inactive)
REMARK    1  A    between atoms: C_4  and  C_10
REMARK    2  A    between atoms: C_5  and  C_20
REMARK    3  A    between atoms: C_11  and  N_16
REMARK    4  A    between atoms: C_19  and  C_31
REMARK                            x       y       z     vdW  Elec       q    Type
REMARK                         _______ _______ _______ _____ _____    ______ ____
ROOT
ATOM      1  N   UNL     1       2.769   3.527  -0.030  0.00  0.00    -0.240 NA
ATOM      2  N   UNL     1       5.145   3.122  -0.008  0.00  0.00    -0.234 NA
ATOM      3  N   UNL     1       5.988   0.913   0.013  0.00  0.00    -0.346 N 
ATOM      4  C   UNL     1       3.607   1.270  -0.008  0.00  0.00    +0.123 C 
ATOM      5  C   UNL     1       2.580   2.192  -0.022  0.00  0.00    +0.108 C 
ATOM      6  C   UNL     1       4.881   1.798  -0.001  0.00  0.00    +0.109 C 
ATOM      7  C   UNL     1       4.058   3.917  -0.022  0.00  0.00    +0.252 C 
ATOM      8  H   UNL     1       6.905   1.271   0.018  0.00  0.00    +0.143 HD
ATOM      9  H   UNL     1       5.840  -0.061   0.019  0.00  0.00    +0.143 HD
ENDROOT
BRANCH   4  10
ATOM     10  C   UNL     1       3.359  -0.158  -0.001  0.00  0.00    -0.009 C 
ATOM     11  C   UNL     1       2.886  -2.904   0.013  0.00  0.00    +0.048 C 
ATOM     12  C   UNL     1       3.251  -0.850  -1.205  0.00  0.00    -0.002 C 
ATOM     13  C   UNL     1       3.232  -0.835   1.210  0.00  0.00    -0.002 C 
ATOM     14  C   UNL     1       3.014  -2.225  -1.198  0.00  0.00    +0.014 C 
ATOM     15  C   UNL     1       2.995  -2.209   1.217  0.00  0.00    +0.014 C 
BRANCH  11  16
ATOM     16  N   UNL     1       2.647  -4.295   0.021  0.00  0.00    -0.304 N 
ATOM     17  C   UNL     1       1.916  -4.920  -1.062  0.00  0.00    +0.112 C 
ATOM     18  C   UNL     1       3.142  -5.117   1.107  0.00  0.00    +0.112 C 
ENDBRANCH  11  16
ENDBRANCH   4  10
BRANCH   5  20
ATOM     19  C   UNL     1       0.036   1.499  -0.038  0.00  0.00    -0.057 C 
ATOM     20  C   UNL     1       1.200   1.816  -0.030  0.00  0.00    -0.044 C 
BRANCH  19  31
ATOM     21  O   UNL     1      -8.111  -0.490   0.220  0.00  0.00    -0.350 OA
ATOM     22  N   UNL     1      -5.377   0.111  -0.029  0.00  0.00    -0.288 N 
ATOM     23  N   UNL     1      -3.621   1.628   0.575  0.00  0.00    -0.229 NA
ATOM     24  C   UNL     1      -6.376   1.188  -0.022  0.00  0.00    +0.124 C 
ATOM     25  C   UNL     1      -5.806  -1.144   0.600  0.00  0.00    +0.124 C 
ATOM     26  C   UNL     1      -7.711   0.656  -0.532  0.00  0.00    +0.164 C 
ATOM     27  C   UNL     1      -7.171  -1.551   0.057  0.00  0.00    +0.164 C 
ATOM     28  C   UNL     1      -4.024   0.465  -0.025  0.00  0.00    +0.132 C 
ATOM     29  C   UNL     1      -3.106  -0.394  -0.647  0.00  0.00    +0.035 C 
ATOM     30  C   UNL     1      -1.758  -0.055  -0.654  0.00  0.00    +0.013 C 
ATOM     31  C   UNL     1      -1.340   1.124  -0.047  0.00  0.00    +0.061 C 
ATOM     32  C   UNL     1      -2.302   1.924   0.548  0.00  0.00    +0.108 C 
ENDBRANCH  19  31
ENDBRANCH   5  20
TORSDOF 4
