REMARK  Name = 30281577
REMARK  5 active torsions:
REMARK  status: ('A' for Active; 'I' for Inactive)
REMARK    1  A    between atoms: C_5  and  C_10
REMARK    2  A    between atoms: C_6  and  C_16
REMARK    3  A    between atoms: C_7  and  N_22
REMARK    4  A    between atoms: N_22  and  C_25
REMARK    5  A    between atoms: C_25  and  C_28
REMARK                            x       y       z     vdW  Elec       q    Type
REMARK                         _______ _______ _______ _____ _____    ______ ____
ROOT
ATOM      1  O   UNL     1      -1.532   2.199   0.058  0.00  0.00    -0.440 OA
ATOM      2  N   UNL     1       2.410   2.976  -0.372  0.00  0.00    -0.235 NA
ATOM      3  N   UNL     1       0.166   3.873  -0.066  0.00  0.00    -0.214 NA
ATOM      4  C   UNL     1       0.583   1.471  -0.226  0.00  0.00    +0.153 C 
ATOM      5  C   UNL     1      -0.275   0.345  -0.176  0.00  0.00    +0.028 C 
ATOM      6  C   UNL     1      -1.546   0.841  -0.003  0.00  0.00    +0.144 C 
ATOM      7  C   UNL     1       1.948   1.704  -0.376  0.00  0.00    +0.099 C 
ATOM      8  C   UNL     1      -0.232   2.588  -0.078  0.00  0.00    +0.214 C 
ATOM      9  C   UNL     1       1.503   3.967  -0.220  0.00  0.00    +0.254 C 
ENDROOT
BRANCH   5  10
ATOM     10  C   UNL     1       0.018  -1.056  -0.274  0.00  0.00    -0.000 C 
ATOM     11  C   UNL     1       0.301  -1.792   0.876  0.00  0.00    -0.000 C 
ATOM     12  C   UNL     1       0.018  -1.682  -1.521  0.00  0.00    -0.000 C 
ATOM     13  C   UNL     1       0.584  -3.154   0.780  0.00  0.00    -0.000 C 
ATOM     14  C   UNL     1       0.302  -3.045  -1.617  0.00  0.00    -0.000 C 
ATOM     15  C   UNL     1       0.585  -3.781  -0.466  0.00  0.00    -0.000 C 
ENDBRANCH   5  10
BRANCH   6  16
ATOM     16  C   UNL     1      -2.852   0.250   0.125  0.00  0.00    +0.034 C 
ATOM     17  C   UNL     1      -3.363  -0.539  -0.905  0.00  0.00    +0.003 C 
ATOM     18  C   UNL     1      -3.606   0.467   1.278  0.00  0.00    +0.003 C 
ATOM     19  C   UNL     1      -4.628  -1.113  -0.782  0.00  0.00    +0.000 C 
ATOM     20  C   UNL     1      -4.871  -0.107   1.401  0.00  0.00    +0.000 C 
ATOM     21  C   UNL     1      -5.383  -0.897   0.371  0.00  0.00    +0.000 C 
ENDBRANCH   6  16
BRANCH   7  22
ATOM     22  N   UNL     1       2.842   0.580  -0.533  0.00  0.00    -0.376 NA
ATOM     23  H   UNL     1       3.056   0.173  -1.403  0.00  0.00    +0.126 HD
ATOM     24  H   UNL     1       2.055   0.095  -0.871  0.00  0.00    +0.126 HD
BRANCH  22  25
ATOM     25  C   UNL     1       3.408   0.101   0.764  0.00  0.00    +0.186 C 
BRANCH  25  28
ATOM     26  O   UNL     1       4.337  -1.873   1.688  0.00  0.00    -0.244 OA
ATOM     27  O   UNL     1       4.960  -1.209  -0.408  0.00  0.00    -0.244 OA
ATOM     28  C   UNL     1       4.322  -1.114   0.680  0.00  0.00    +0.383 C 
ENDBRANCH  25  28
ENDBRANCH  22  25
ENDBRANCH   7  22
TORSDOF 5
