REMARK  Name = 11987874
REMARK  7 active torsions:
REMARK  status: ('A' for Active; 'I' for Inactive)
REMARK    1  A    between atoms: N_2  and  C_26
REMARK    2  A    between atoms: C_3  and  N_13
REMARK    3  A    between atoms: C_14  and  C_19
REMARK    4  A    between atoms: C_26  and  C_29
REMARK    5  A    between atoms: N_28  and  C_31
REMARK    6  A    between atoms: C_31  and  C_32
REMARK    7  A    between atoms: C_32  and  O_33
REMARK                            x       y       z     vdW  Elec       q    Type
REMARK                         _______ _______ _______ _____ _____    ______ ____
ROOT
ATOM      1  O   UNL     1       0.419  -1.571   0.965  0.00  0.00    -0.273 OA
ATOM      2  N   UNL     1       2.293  -0.191   0.863  0.00  0.00    -0.249 N 
ATOM      3  C   UNL     1       0.133   0.593  -0.045  0.00  0.00    +0.154 C 
ATOM      4  C   UNL     1       0.483   1.983   0.452  0.00  0.00    +0.057 C 
ATOM      5  C   UNL     1       1.966   2.190   0.365  0.00  0.00    -0.006 C 
ATOM      6  C   UNL     1       2.836   1.110   0.598  0.00  0.00    +0.050 C 
ATOM      7  C   UNL     1       0.932  -0.486   0.678  0.00  0.00    +0.248 C 
ATOM      8  C   UNL     1       2.478   3.475   0.135  0.00  0.00    -0.003 C 
ATOM      9  C   UNL     1       4.220   1.351   0.590  0.00  0.00    +0.015 C 
ATOM     10  C   UNL     1       3.853   3.693   0.118  0.00  0.00    -0.000 C 
ATOM     11  C   UNL     1       4.722   2.632   0.346  0.00  0.00    +0.001 C 
ENDROOT
BRANCH   3  13
ATOM     12  O   UNL     1      -1.892   1.101  -1.940  0.00  0.00    -0.269 OA
ATOM     13  N   UNL     1      -1.270   0.323   0.131  0.00  0.00    -0.294 N 
ATOM     14  C   UNL     1      -2.214   0.604  -0.859  0.00  0.00    +0.260 C 
ATOM     15  H   UNL     1      -1.575  -0.074   0.978  0.00  0.00    +0.150 HD
BRANCH  14  19
ATOM     16 CL   UNL     1      -9.234  -1.283   0.850  0.00  0.00    -0.075 Cl
ATOM     17  S   UNL     1      -7.367  -0.096  -1.165  0.00  0.00    -0.061 S 
ATOM     18  N   UNL     1      -4.623   0.462  -1.426  0.00  0.00    -0.304 N 
ATOM     19  C   UNL     1      -3.603   0.241  -0.543  0.00  0.00    +0.103 C 
ATOM     20  C   UNL     1      -4.050  -0.337   0.611  0.00  0.00    +0.021 C 
ATOM     21  C   UNL     1      -5.415  -0.462   0.390  0.00  0.00    +0.022 C 
ATOM     22  C   UNL     1      -5.745   0.014  -0.817  0.00  0.00    +0.080 C 
ATOM     23  C   UNL     1      -6.474  -0.964   1.143  0.00  0.00    +0.020 C 
ATOM     24  C   UNL     1      -7.643  -0.827   0.400  0.00  0.00    +0.088 C 
ATOM     25  H   UNL     1      -4.555   0.865  -2.322  0.00  0.00    +0.153 HD
ENDBRANCH  14  19
ENDBRANCH   3  13
BRANCH   2  26
ATOM     26  C   UNL     1       3.184  -1.241   1.352  0.00  0.00    +0.183 C 
BRANCH  26  29
ATOM     27  O   UNL     1       3.484  -1.909  -0.951  0.00  0.00    -0.273 OA
ATOM     28  N   UNL     1       5.168  -2.352   0.589  0.00  0.00    -0.301 N 
ATOM     29  C   UNL     1       3.940  -1.846   0.188  0.00  0.00    +0.243 C 
ATOM     30  H   UNL     1       5.434  -2.245   1.530  0.00  0.00    +0.150 HD
BRANCH  28  31
ATOM     31  C   UNL     1       6.077  -3.030  -0.308  0.00  0.00    +0.121 C 
BRANCH  31  32
ATOM     32  C   UNL     1       7.038  -2.058  -0.967  0.00  0.00    +0.158 C 
BRANCH  32  33
ATOM     33  O   UNL     1       6.303  -1.119  -1.742  0.00  0.00    -0.380 OA
ATOM     34  H   UNL     1       6.917  -0.497  -2.164  0.00  0.00    +0.211 HD
ENDBRANCH  32  33
ENDBRANCH  31  32
ENDBRANCH  28  31
ENDBRANCH  26  29
ENDBRANCH   2  26
TORSDOF 7
