REMARK  Name = 46937111
REMARK  7 active torsions:
REMARK  status: ('A' for Active; 'I' for Inactive)
REMARK    1  A    between atoms: C_2  and  N_8
REMARK    2  A    between atoms: C_3  and  O_18
REMARK    3  A    between atoms: C_4  and  O_12
REMARK    4  A    between atoms: C_6  and  C_15
REMARK    5  A    between atoms: C_15  and  O_16
REMARK    6  A    between atoms: O_18  and  C_19
REMARK    7  A    between atoms: C_19  and  C_20
REMARK                            x       y       z     vdW  Elec       q    Type
REMARK                         _______ _______ _______ _____ _____    ______ ____
ROOT
ATOM      1  O   UNL     1       1.058  -1.128   0.172  0.00  0.00    -0.445 OA
ATOM      2  C   UNL     1       0.048   1.113   0.036  0.00  0.00    +0.174 C 
ATOM      3  C   UNL     1      -0.064  -0.378  -0.309  0.00  0.00    +0.309 C 
ATOM      4  C   UNL     1       1.353   1.695  -0.524  0.00  0.00    +0.160 C 
ATOM      5  C   UNL     1       2.486   0.725  -0.400  0.00  0.00    +0.048 C 
ATOM      6  C   UNL     1       2.285  -0.555  -0.059  0.00  0.00    +0.214 C 
ENDROOT
BRANCH   2   8
ATOM      7  O   UNL     1      -1.183   3.483   1.175  0.00  0.00    -0.275 OA
ATOM      8  N   UNL     1      -1.088   1.848  -0.478  0.00  0.00    -0.298 N 
ATOM      9  C   UNL     1      -1.604   2.972   0.141  0.00  0.00    +0.223 C 
ATOM     10  C   UNL     1      -2.767   3.553  -0.616  0.00  0.00    +0.095 C 
ATOM     11  H   UNL     1      -1.514   1.532  -1.308  0.00  0.00    +0.150 HD
ENDBRANCH   2   8
BRANCH   4  12
ATOM     12  O   UNL     1       1.696   2.875   0.199  0.00  0.00    -0.378 OA
ATOM     13  H   UNL     1       0.973   3.517   0.131  0.00  0.00    +0.211 HD
ENDBRANCH   4  12
BRANCH   6  15
ATOM     14  O   UNL     1       4.610  -1.048  -0.070  0.00  0.00    -0.242 OA
ATOM     15  C   UNL     1       3.460  -1.415   0.092  0.00  0.00    +0.372 C 
BRANCH  15  16
ATOM     16  O   UNL     1       3.070  -2.661   0.435  0.00  0.00    -0.475 OA
ATOM     17  H   UNL     1       2.159  -2.855   0.539  0.00  0.00    +0.296 HD
ENDBRANCH  15  16
ENDBRANCH   6  15
BRANCH   3  18
ATOM     18  O   UNL     1      -1.255  -0.886   0.293  0.00  0.00    -0.319 OA
BRANCH  18  19
ATOM     19  C   UNL     1      -1.673  -2.090  -0.330  0.00  0.00    +0.146 C 
BRANCH  19  20
ATOM     20  C   UNL     1      -2.960  -2.598   0.327  0.00  0.00    +0.030 C 
ATOM     21  C   UNL     1      -3.381  -3.932  -0.286  0.00  0.00    +0.003 C 
ATOM     22  C   UNL     1      -4.091  -1.575   0.202  0.00  0.00    +0.003 C 
ENDBRANCH  19  20
ENDBRANCH  18  19
ENDBRANCH   3  18
TORSDOF 7
