REMARK  Name = 9819610
REMARK  4 active torsions:
REMARK  status: ('A' for Active; 'I' for Inactive)
REMARK    1  A    between atoms: C_1  and  C_11
REMARK    2  A    between atoms: C_2  and  N_17
REMARK    3  A    between atoms: C_3  and  S_20
REMARK    4  A    between atoms: S_20  and  C_24
REMARK                            x       y       z     vdW  Elec       q    Type
REMARK                         _______ _______ _______ _____ _____    ______ ____
ROOT
ATOM      1  C   UNL     1       0.285  -1.470  -0.203  0.00  0.00    +0.067 C 
ATOM      2  C   UNL     1       0.063  -2.503   0.707  0.00  0.00    +0.046 C 
ATOM      3  C   UNL     1      -2.094  -1.290  -0.580  0.00  0.00    +0.032 C 
ATOM      4  C   UNL     1      -0.793  -0.863  -0.847  0.00  0.00    +0.012 C 
ATOM      5  C   UNL     1      -1.238  -2.931   0.973  0.00  0.00    +0.015 C 
ATOM      6  C   UNL     1      -2.316  -2.324   0.330  0.00  0.00    +0.008 C 
ENDROOT
BRANCH   1  11
ATOM      7  S   UNL     1       3.572   1.917   1.404  0.00  0.00    -0.060 S 
ATOM      8  O   UNL     1       2.252  -1.518  -1.444  0.00  0.00    -0.270 OA
ATOM      9  N   UNL     1       2.110   0.036   0.308  0.00  0.00    -0.251 N 
ATOM     10  N   UNL     1       4.298   0.464  -0.607  0.00  0.00    -0.388 NA
ATOM     11  C   UNL     1       1.633  -1.001  -0.502  0.00  0.00    +0.253 C 
ATOM     12  C   UNL     1       3.358   0.703   0.239  0.00  0.00    +0.213 C 
ATOM     13  C   UNL     1       5.332   1.334  -0.325  0.00  0.00    +0.101 C 
ATOM     14  C   UNL     1       5.124   2.197   0.731  0.00  0.00    +0.120 C 
ATOM     15  C   UNL     1       6.550   1.270  -1.158  0.00  0.00    +0.063 C 
ATOM     16  H   UNL     1       1.500   0.342   1.018  0.00  0.00    +0.158 HD
ENDBRANCH   1  11
BRANCH   2  17
ATOM     17  N   UNL     1       1.141  -3.131   1.369  0.00  0.00    -0.357 N 
ATOM     18  H   UNL     1       2.065  -2.840   1.191  0.00  0.00    +0.142 HD
ATOM     19  H   UNL     1       0.969  -3.859   2.009  0.00  0.00    +0.142 HD
ENDBRANCH   2  17
BRANCH   3  20
ATOM     20  S   UNL     1      -3.473  -0.517  -1.402  0.00  0.00    -0.051 S 
BRANCH  20  24
ATOM     21  N   UNL     1      -4.772   1.649  -0.386  0.00  0.00    -0.246 N 
ATOM     22  N   UNL     1      -3.123   0.944   0.868  0.00  0.00    -0.124 NA
ATOM     23  N   UNL     1      -3.701   2.037   1.482  0.00  0.00    -0.128 NA
ATOM     24  C   UNL     1      -3.787   0.762  -0.218  0.00  0.00    +0.189 C 
ATOM     25  C   UNL     1      -5.732   1.789  -1.454  0.00  0.00    +0.121 C 
ATOM     26  C   UNL     1      -4.687   2.445   0.716  0.00  0.00    +0.193 C 
ENDBRANCH  20  24
ENDBRANCH   3  20
TORSDOF 4
