REMARK  Name = 444394
REMARK  9 active torsions:
REMARK  status: ('A' for Active; 'I' for Inactive)
REMARK    1  A    between atoms: C_1  and  C_7
REMARK    2  A    between atoms: C_6  and  C_23
REMARK    3  A    between atoms: C_8  and  C_13
REMARK    4  A    between atoms: C_9  and  O_19
REMARK    5  A    between atoms: N_22  and  C_25
REMARK    6  A    between atoms: C_25  and  C_26
REMARK    7  A    between atoms: C_26  and  C_27
REMARK    8  A    between atoms: C_27  and  C_29
REMARK    9  A    between atoms: C_29  and  O_30
REMARK                            x       y       z     vdW  Elec       q    Type
REMARK                         _______ _______ _______ _____ _____    ______ ____
ROOT
ATOM      1  C   UNL     1       0.190  -0.904   0.457  0.00  0.00    -0.020 C 
ATOM      2  C   UNL     1      -0.550  -1.332   1.555  0.00  0.00    -0.004 C 
ATOM      3  C   UNL     1      -0.420  -0.732  -0.782  0.00  0.00    -0.004 C 
ATOM      4  C   UNL     1      -1.913  -1.590   1.413  0.00  0.00    +0.004 C 
ATOM      5  C   UNL     1      -1.783  -0.990  -0.924  0.00  0.00    +0.004 C 
ATOM      6  C   UNL     1      -2.530  -1.419   0.173  0.00  0.00    +0.053 C 
ENDROOT
BRANCH   1   7
ATOM      7  C   UNL     1       1.677  -0.621   0.613  0.00  0.00    +0.049 C 
ATOM      8  C   UNL     1       4.345   0.154  -0.450  0.00  0.00    +0.025 C 
ATOM      9  C   UNL     1       2.028   0.853   0.325  0.00  0.00    +0.115 C 
ATOM     10  C   UNL     1       3.535   1.106   0.442  0.00  0.00    +0.034 C 
ATOM     11  C   UNL     1       2.507  -1.575  -0.264  0.00  0.00    +0.007 C 
ATOM     12  C   UNL     1       4.006  -1.311  -0.129  0.00  0.00    +0.005 C 
BRANCH   8  13
ATOM     13  C   UNL     1       5.836   0.421  -0.354  0.00  0.00    -0.022 C 
ATOM     14  C   UNL     1       6.392   0.829   0.857  0.00  0.00    -0.004 C 
ATOM     15  C   UNL     1       6.644   0.259  -1.478  0.00  0.00    -0.004 C 
ATOM     16  C   UNL     1       7.762   1.076   0.945  0.00  0.00    -0.000 C 
ATOM     17  C   UNL     1       8.014   0.505  -1.390  0.00  0.00    -0.000 C 
ATOM     18  C   UNL     1       8.573   0.914  -0.179  0.00  0.00    -0.000 C 
ENDBRANCH   8  13
BRANCH   9  19
ATOM     19  O   UNL     1       1.358   1.684   1.274  0.00  0.00    -0.384 OA
ATOM     20  H   UNL     1       0.401   1.537   1.214  0.00  0.00    +0.210 HD
ENDBRANCH   9  19
ENDBRANCH   1   7
BRANCH   6  23
ATOM     21  O   UNL     1      -4.524  -2.492   0.783  0.00  0.00    -0.270 OA
ATOM     22  N   UNL     1      -4.628  -0.995  -0.985  0.00  0.00    -0.301 N 
ATOM     23  C   UNL     1      -3.951  -1.690   0.024  0.00  0.00    +0.246 C 
ATOM     24  H   UNL     1      -4.112  -0.375  -1.550  0.00  0.00    +0.150 HD
BRANCH  22  25
ATOM     25  C   UNL     1      -6.043  -1.138  -1.242  0.00  0.00    +0.090 C 
BRANCH  25  26
ATOM     26  C   UNL     1      -6.893  -0.149  -0.445  0.00  0.00    +0.033 C 
BRANCH  26  27
ATOM     27  C   UNL     1      -6.608   1.320  -0.766  0.00  0.00    +0.111 C 
BRANCH  27  29
ATOM     28  O   UNL     1      -8.393   1.964   0.762  0.00  0.00    -0.250 OA
ATOM     29  C   UNL     1      -7.490   2.281   0.002  0.00  0.00    +0.314 C 
BRANCH  29  30
ATOM     30  O   UNL     1      -7.141   3.573  -0.236  0.00  0.00    -0.480 OA
ATOM     31  H   UNL     1      -6.441   3.768  -0.827  0.00  0.00    +0.295 HD
ENDBRANCH  29  30
ENDBRANCH  27  29
ENDBRANCH  26  27
ENDBRANCH  25  26
ENDBRANCH  22  25
ENDBRANCH   6  23
TORSDOF 9
