REMARK  Name = 54727972
REMARK  5 active torsions:
REMARK  status: ('A' for Active; 'I' for Inactive)
REMARK    1  A    between atoms: C_1  and  C_7
REMARK    2  A    between atoms: C_2  and  N_14
REMARK    3  A    between atoms: C_15  and  C_17
REMARK    4  A    between atoms: C_17  and  C_23
REMARK    5  A    between atoms: C_18  and  O_20
REMARK                            x       y       z     vdW  Elec       q    Type
REMARK                         _______ _______ _______ _____ _____    ______ ____
ROOT
ATOM      1  C   UNL     1      -2.357  -0.099   0.116  0.00  0.00    +0.000 C 
ATOM      2  C   UNL     1       0.423  -0.286   0.256  0.00  0.00    +0.051 C 
ATOM      3  C   UNL     1      -1.564   0.582  -0.808  0.00  0.00    +0.001 C 
ATOM      4  C   UNL     1      -1.759  -0.874   1.110  0.00  0.00    +0.001 C 
ATOM      5  C   UNL     1      -0.175   0.489  -0.738  0.00  0.00    +0.015 C 
ATOM      6  C   UNL     1      -0.369  -0.967   1.180  0.00  0.00    +0.015 C 
ENDROOT
BRANCH   1   7
ATOM      7  C   UNL     1      -3.798  -0.001   0.042  0.00  0.00    +0.000 C 
ATOM      8  C   UNL     1      -4.521  -0.915  -0.725  0.00  0.00    +0.000 C 
ATOM      9  C   UNL     1      -4.465   1.007   0.738  0.00  0.00    +0.000 C 
ATOM     10  C   UNL     1      -5.911  -0.820  -0.797  0.00  0.00    +0.000 C 
ATOM     11  C   UNL     1      -5.855   1.101   0.667  0.00  0.00    +0.000 C 
ATOM     12  C   UNL     1      -6.578   0.187  -0.100  0.00  0.00    +0.000 C 
ENDBRANCH   1   7
BRANCH   2  14
ATOM     13  O   UNL     1       2.537   0.992  -1.440  0.00  0.00    -0.269 OA
ATOM     14  N   UNL     1       1.835  -0.381   0.327  0.00  0.00    -0.280 N 
ATOM     15  C   UNL     1       2.765   0.243  -0.496  0.00  0.00    +0.262 C 
ATOM     16  H   UNL     1       2.198  -0.953   1.040  0.00  0.00    +0.155 HD
BRANCH  15  17
ATOM     17  C   UNL     1       4.183  -0.095  -0.116  0.00  0.00    +0.151 C 
ATOM     18  C   UNL     1       5.020   0.906   0.226  0.00  0.00    +0.126 C 
ATOM     19  C   UNL     1       6.465   0.739   0.610  0.00  0.00    +0.072 C 
BRANCH  18  20
ATOM     20  O   UNL     1       4.580   2.220   0.270  0.00  0.00    -0.509 OA
ATOM     21  H   UNL     1       3.693   2.424   0.046  0.00  0.00    +0.292 HD
ENDBRANCH  18  20
BRANCH  17  23
ATOM     22  N   UNL     1       4.939  -2.570  -0.174  0.00  0.00    -0.191 NA
ATOM     23  C   UNL     1       4.606  -1.459  -0.146  0.00  0.00    +0.108 C 
ENDBRANCH  17  23
ENDBRANCH  15  17
ENDBRANCH   2  14
TORSDOF 5
