REMARK  Name = 23270857
REMARK  1 active torsions:
REMARK  status: ('A' for Active; 'I' for Inactive)
REMARK    1  A    between atoms: C_4  and  O_13
REMARK                            x       y       z     vdW  Elec       q    Type
REMARK                         _______ _______ _______ _____ _____    ______ ____
ROOT
ATOM      1  O   UNL     1      -3.150  -1.193  -0.216  0.00  0.00    -0.283 OA
ATOM      2  O   UNL     1      -2.971   1.439   0.310  0.00  0.00    -0.283 OA
ATOM      3  N   UNL     1       1.812   0.987  -0.051  0.00  0.00    -0.303 N 
ATOM      4  C   UNL     1       1.751  -1.364  -0.260  0.00  0.00    +0.154 C 
ATOM      5  C   UNL     1       2.659  -0.137  -0.448  0.00  0.00    +0.125 C 
ATOM      6  C   UNL     1       0.361  -0.792  -0.175  0.00  0.00    +0.023 C 
ATOM      7  C   UNL     1       0.475   0.645   0.003  0.00  0.00    +0.050 C 
ATOM      8  C   UNL     1      -0.794  -1.454  -0.267  0.00  0.00    +0.045 C 
ATOM      9  C   UNL     1      -0.603   1.423   0.166  0.00  0.00    +0.060 C 
ATOM     10  C   UNL     1       2.363   2.324  -0.040  0.00  0.00    +0.112 C 
ATOM     11  C   UNL     1      -2.044  -0.681  -0.129  0.00  0.00    +0.234 C 
ATOM     12  C   UNL     1      -1.944   0.800   0.136  0.00  0.00    +0.235 C 
ENDROOT
BRANCH   4  13
ATOM     13  O   UNL     1       2.086  -1.996   0.971  0.00  0.00    -0.378 OA
ATOM     14  H   UNL     1       2.981  -2.364   0.913  0.00  0.00    +0.211 HD
ENDBRANCH   4  13
TORSDOF 1
