REMARK  Name = 4369432
REMARK  5 active torsions:
REMARK  status: ('A' for Active; 'I' for Inactive)
REMARK    1  A    between atoms: C_5  and  C_10
REMARK    2  A    between atoms: C_7  and  C_16
REMARK    3  A    between atoms: N_22  and  C_24
REMARK    4  A    between atoms: C_24  and  C_25
REMARK    5  A    between atoms: C_25  and  O_26
REMARK                            x       y       z     vdW  Elec       q    Type
REMARK                         _______ _______ _______ _____ _____    ______ ____
ROOT
ATOM      1  O   UNL     1      -1.068   2.273   0.065  0.00  0.00    -0.440 OA
ATOM      2  N   UNL     1       2.942   2.194  -0.426  0.00  0.00    -0.233 NA
ATOM      3  N   UNL     1       0.942   3.549  -0.115  0.00  0.00    -0.214 NA
ATOM      4  C   UNL     1       0.842   1.110  -0.226  0.00  0.00    +0.155 C 
ATOM      5  C   UNL     1      -0.233   0.193  -0.141  0.00  0.00    +0.028 C 
ATOM      6  C   UNL     1       2.223   1.048  -0.397  0.00  0.00    +0.118 C 
ATOM      7  C   UNL     1      -1.369   0.949   0.035  0.00  0.00    +0.144 C 
ATOM      8  C   UNL     1       0.282   2.377  -0.094  0.00  0.00    +0.214 C 
ATOM      9  C   UNL     1       2.266   3.357  -0.285  0.00  0.00    +0.254 C 
ATOM     10  N   UNL     1       2.882  -0.186  -0.539  0.00  0.00    -0.292 N 
ATOM     11  C   UNL     1       3.077  -0.771  -1.853  0.00  0.00    +0.113 C 
ENDROOT
BRANCH   5  12
ATOM     12  C   UNL     1      -0.242  -1.241  -0.213  0.00  0.00    -0.000 C 
ATOM     13  C   UNL     1      -0.100  -2.000   0.950  0.00  0.00    -0.000 C 
ATOM     14  C   UNL     1      -0.392  -1.877  -1.445  0.00  0.00    -0.000 C 
ATOM     15  C   UNL     1      -0.109  -3.393   0.880  0.00  0.00    -0.000 C 
ATOM     16  C   UNL     1      -0.401  -3.270  -1.515  0.00  0.00    -0.000 C 
ATOM     17  C   UNL     1      -0.259  -4.028  -0.353  0.00  0.00    -0.000 C 
ENDBRANCH   5  12
BRANCH   7  18
ATOM     18  C   UNL     1      -2.767   0.648   0.189  0.00  0.00    +0.034 C 
ATOM     19  C   UNL     1      -3.305   0.441   1.462  0.00  0.00    +0.003 C 
ATOM     20  C   UNL     1      -3.595   0.563  -0.934  0.00  0.00    +0.003 C 
ATOM     21  C   UNL     1      -4.661   0.150   1.611  0.00  0.00    +0.000 C 
ATOM     22  C   UNL     1      -4.951   0.273  -0.784  0.00  0.00    +0.000 C 
ATOM     23  C   UNL     1      -5.484   0.066   0.488  0.00  0.00    +0.000 C 
ENDBRANCH   7  18
BRANCH  10  24
ATOM     24  C   UNL     1       3.391  -0.889   0.624  0.00  0.00    +0.124 C 
BRANCH  24  25
ATOM     25  C   UNL     1       4.808  -0.434   0.928  0.00  0.00    +0.159 C 
BRANCH  25  26
ATOM     26  O   UNL     1       5.281  -1.103   2.090  0.00  0.00    -0.380 OA
ATOM     27  H   UNL     1       6.186  -0.812   2.284  0.00  0.00    +0.211 HD
ENDBRANCH  25  26
ENDBRANCH  24  25
ENDBRANCH  10  24
TORSDOF 5
