REMARK  Name = 4369593
REMARK  11 active torsions:
REMARK  status: ('A' for Active; 'I' for Inactive)
REMARK    1  A    between atoms: C_1  and  N_3
REMARK    2  A    between atoms: C_1  and  C_18
REMARK    3  A    between atoms: C_4  and  O_6
REMARK    4  A    between atoms: O_6  and  C_9
REMARK    5  A    between atoms: C_10  and  C_15
REMARK    6  A    between atoms: C_15  and  O_16
REMARK    7  A    between atoms: C_18  and  N_20
REMARK    8  A    between atoms: C_21  and  O_23
REMARK    9  A    between atoms: O_23  and  C_26
REMARK   10  A    between atoms: C_27  and  C_32
REMARK   11  A    between atoms: C_32  and  O_33
REMARK                            x       y       z     vdW  Elec       q    Type
REMARK                         _______ _______ _______ _____ _____    ______ ____
ROOT
ATOM      1  C   UNL     1      -0.314   4.358  -0.337  0.00  0.00    +0.114 C 
ENDROOT
BRANCH   1   3
ATOM      2  O   UNL     1      -0.415   1.636  -1.346  0.00  0.00    -0.226 OA
ATOM      3  N   UNL     1      -1.428   3.449  -0.311  0.00  0.00    -0.269 N 
ATOM      4  C   UNL     1      -1.388   2.163  -0.817  0.00  0.00    +0.402 C 
ATOM      5  H   UNL     1      -2.270   3.762   0.092  0.00  0.00    +0.153 HD
BRANCH   4   6
ATOM      6  O   UNL     1      -2.599   1.556  -0.643  0.00  0.00    -0.433 OA
BRANCH   6   9
ATOM      7  O   UNL     1      -3.234  -0.709   1.057  0.00  0.00    -0.322 OA
ATOM      8  O   UNL     1      -5.001  -0.078  -0.412  0.00  0.00    -0.322 OA
ATOM      9  C   UNL     1      -2.699   0.216  -1.123  0.00  0.00    +0.229 C 
ATOM     10  C   UNL     1      -4.564  -0.959   0.616  0.00  0.00    +0.280 C 
ATOM     11  C   UNL     1      -2.277  -0.722  -0.002  0.00  0.00    +0.191 C 
ATOM     12  C   UNL     1      -4.135  -0.060  -1.546  0.00  0.00    +0.191 C 
ATOM     13  C   UNL     1      -5.475  -0.714   1.817  0.00  0.00    +0.074 C 
BRANCH  10  15
ATOM     14  O   UNL     1      -5.581  -2.811  -0.577  0.00  0.00    -0.245 OA
ATOM     15  C   UNL     1      -4.752  -2.404   0.222  0.00  0.00    +0.366 C 
BRANCH  15  16
ATOM     16  O   UNL     1      -3.873  -3.198   0.881  0.00  0.00    -0.477 OA
ATOM     17  H   UNL     1      -3.261  -2.821   1.483  0.00  0.00    +0.295 HD
ENDBRANCH  15  16
ENDBRANCH  10  15
ENDBRANCH   6   9
ENDBRANCH   4   6
ENDBRANCH   1   3
BRANCH   1  18
ATOM     18  C   UNL     1       0.549   4.237   0.907  0.00  0.00    +0.114 C 
BRANCH  18  20
ATOM     19  O   UNL     1       3.083   3.264  -0.124  0.00  0.00    -0.226 OA
ATOM     20  N   UNL     1       1.115   2.915   1.052  0.00  0.00    -0.269 N 
ATOM     21  C   UNL     1       2.333   2.542   0.524  0.00  0.00    +0.402 C 
ATOM     22  H   UNL     1       0.601   2.243   1.556  0.00  0.00    +0.153 HD
BRANCH  21  23
ATOM     23  O   UNL     1       2.591   1.234   0.830  0.00  0.00    -0.433 OA
BRANCH  23  26
ATOM     24  O   UNL     1       3.459  -1.497   1.291  0.00  0.00    -0.322 OA
ATOM     25  O   UNL     1       2.790  -1.062  -0.954  0.00  0.00    -0.322 OA
ATOM     26  C   UNL     1       3.826   0.709   0.344  0.00  0.00    +0.229 C 
ATOM     27  C   UNL     1       3.272  -2.020  -0.019  0.00  0.00    +0.280 C 
ATOM     28  C   UNL     1       4.309  -0.350   1.324  0.00  0.00    +0.191 C 
ATOM     29  C   UNL     1       3.606   0.106  -1.036  0.00  0.00    +0.191 C 
ATOM     30  C   UNL     1       2.197  -3.099   0.092  0.00  0.00    +0.074 C 
BRANCH  27  32
ATOM     31  O   UNL     1       4.818  -2.841  -1.700  0.00  0.00    -0.245 OA
ATOM     32  C   UNL     1       4.519  -2.705  -0.523  0.00  0.00    +0.366 C 
BRANCH  32  33
ATOM     33  O   UNL     1       5.269  -3.156   0.512  0.00  0.00    -0.477 OA
ATOM     34  H   UNL     1       4.982  -3.019   1.393  0.00  0.00    +0.295 HD
ENDBRANCH  32  33
ENDBRANCH  27  32
ENDBRANCH  23  26
ENDBRANCH  21  23
ENDBRANCH  18  20
ENDBRANCH   1  18
TORSDOF 11
