REMARK  Name = 4788
REMARK  8 active torsions:
REMARK  status: ('A' for Active; 'I' for Inactive)
REMARK    1  A    between atoms: C_2  and  C_3
REMARK    2  A    between atoms: C_2  and  C_15
REMARK    3  A    between atoms: C_4  and  O_9
REMARK    4  A    between atoms: C_5  and  O_11
REMARK    5  A    between atoms: C_8  and  O_13
REMARK    6  A    between atoms: C_15  and  C_16
REMARK    7  A    between atoms: C_16  and  C_17
REMARK    8  A    between atoms: C_22  and  O_23
REMARK                            x       y       z     vdW  Elec       q    Type
REMARK                         _______ _______ _______ _____ _____    ______ ____
ROOT
ATOM      1  O   UNL     1      -1.005   1.472   1.951  0.00  0.00    -0.291 OA
ATOM      2  C   UNL     1      -0.978   0.795   0.905  0.00  0.00    +0.179 C 
ENDROOT
BRANCH   2   3
ATOM      3  C   UNL     1      -2.213   0.297   0.310  0.00  0.00    +0.102 C 
ATOM      4  C   UNL     1      -2.711  -0.952   0.681  0.00  0.00    +0.142 C 
ATOM      5  C   UNL     1      -2.897   1.069  -0.629  0.00  0.00    +0.142 C 
ATOM      6  C   UNL     1      -3.892  -1.429   0.113  0.00  0.00    +0.073 C 
ATOM      7  C   UNL     1      -4.078   0.593  -1.197  0.00  0.00    +0.073 C 
ATOM      8  C   UNL     1      -4.576  -0.656  -0.826  0.00  0.00    +0.140 C 
BRANCH   4   9
ATOM      9  O   UNL     1      -2.059  -1.723   1.597  0.00  0.00    -0.505 OA
ATOM     10  H   UNL     1      -1.264  -1.416   1.987  0.00  0.00    +0.292 HD
ENDBRANCH   4   9
BRANCH   5  11
ATOM     11  O   UNL     1      -2.428   2.292  -1.005  0.00  0.00    -0.505 OA
ATOM     12  H   UNL     1      -1.636   2.626  -0.632  0.00  0.00    +0.292 HD
ENDBRANCH   5  11
BRANCH   8  13
ATOM     13  O   UNL     1      -5.728  -1.122  -1.381  0.00  0.00    -0.505 OA
ATOM     14  H   UNL     1      -6.062  -1.961  -1.132  0.00  0.00    +0.292 HD
ENDBRANCH   8  13
ENDBRANCH   2   3
BRANCH   2  15
ATOM     15  C   UNL     1       0.372   0.486   0.236  0.00  0.00    +0.074 C 
BRANCH  15  16
ATOM     16  C   UNL     1       1.537   0.424   1.226  0.00  0.00    +0.034 C 
BRANCH  16  17
ATOM     17  C   UNL     1       2.842   0.128   0.533  0.00  0.00    -0.022 C 
ATOM     18  C   UNL     1       3.243  -1.189   0.369  0.00  0.00    -0.001 C 
ATOM     19  C   UNL     1       3.622   1.178   0.070  0.00  0.00    -0.001 C 
ATOM     20  C   UNL     1       4.451  -1.464  -0.272  0.00  0.00    +0.036 C 
ATOM     21  C   UNL     1       4.830   0.904  -0.572  0.00  0.00    +0.036 C 
ATOM     22  C   UNL     1       5.245  -0.417  -0.742  0.00  0.00    +0.134 C 
BRANCH  22  23
ATOM     23  O   UNL     1       6.422  -0.685  -1.369  0.00  0.00    -0.506 OA
ATOM     24  H   UNL     1       6.701  -1.572  -1.484  0.00  0.00    +0.292 HD
ENDBRANCH  22  23
ENDBRANCH  16  17
ENDBRANCH  15  16
ENDBRANCH   2  15
TORSDOF 8
