REMARK  Name = 5327130
REMARK  4 active torsions:
REMARK  status: ('A' for Active; 'I' for Inactive)
REMARK    1  A    between atoms: N_2  and  C_5
REMARK    2  A    between atoms: N_2  and  C_20
REMARK    3  A    between atoms: C_7  and  C_14
REMARK    4  A    between atoms: C_20  and  C_22
REMARK                            x       y       z     vdW  Elec       q    Type
REMARK                         _______ _______ _______ _____ _____    ______ ____
ROOT
ATOM      1  N   UNL     1      -0.146   2.120   0.085  0.00  0.00    -0.179 N 
ATOM      2  N   UNL     1      -0.987   3.269   0.230  0.00  0.00    -0.254 N 
ATOM      3  N   UNL     1       2.201   1.726  -0.086  0.00  0.00    -0.385 NA
ATOM      4  C   UNL     1      -0.525   0.709  -0.011  0.00  0.00    +0.122 C 
ATOM      5  C   UNL     1       1.158   2.580   0.047  0.00  0.00    +0.205 C 
ATOM      6  C   UNL     1       1.837   0.413  -0.174  0.00  0.00    +0.136 C 
ATOM      7  C   UNL     1       0.554  -0.142  -0.146  0.00  0.00    +0.064 C 
ATOM      8  C   UNL     1       1.134   4.023   0.169  0.00  0.00    +0.067 C 
ATOM      9  C   UNL     1      -0.212   4.418   0.281  0.00  0.00    +0.080 C 
ATOM     10  H   UNL     1      -1.969   3.247   0.286  0.00  0.00    +0.171 HD
ENDROOT
BRANCH   6  12
ATOM     11 BR   UNL     1       5.521  -2.574   2.218  0.00  0.00    -0.049 Br
ATOM     12  C   UNL     1       2.973  -0.475  -0.315  0.00  0.00    +0.030 C 
ATOM     13  C   UNL     1       3.589  -1.002   0.819  0.00  0.00    +0.009 C 
ATOM     14  C   UNL     1       3.448  -0.800  -1.584  0.00  0.00    +0.003 C 
ATOM     15  C   UNL     1       4.683  -1.857   0.683  0.00  0.00    +0.035 C 
ATOM     16  C   UNL     1       4.542  -1.655  -1.720  0.00  0.00    +0.001 C 
ATOM     17  C   UNL     1       5.159  -2.183  -0.587  0.00  0.00    +0.007 C 
ENDBRANCH   6  12
BRANCH   4  18
ATOM     18  N   UNL     1      -1.853   0.295   0.032  0.00  0.00    -0.316 N 
ATOM     19  H   UNL     1      -2.552   0.982   0.131  0.00  0.00    +0.148 HD
BRANCH  18  20
ATOM     20  C   UNL     1      -2.260  -1.083  -0.060  0.00  0.00    +0.115 C 
BRANCH  20  22
ATOM     21  N   UNL     1      -6.533  -1.400   0.059  0.00  0.00    -0.242 NA
ATOM     22  C   UNL     1      -3.759  -1.195  -0.018  0.00  0.00    +0.000 C 
ATOM     23  C   UNL     1      -4.482  -1.153  -1.198  0.00  0.00    +0.018 C 
ATOM     24  C   UNL     1      -4.402  -1.337   1.199  0.00  0.00    +0.018 C 
ATOM     25  C   UNL     1      -5.860  -1.260  -1.106  0.00  0.00    +0.099 C 
ATOM     26  C   UNL     1      -5.784  -1.435   1.184  0.00  0.00    +0.099 C 
ENDBRANCH  20  22
ENDBRANCH  18  20
ENDBRANCH   4  18
TORSDOF 4
