REMARK  Name = 24752833
REMARK  4 active torsions:
REMARK  status: ('A' for Active; 'I' for Inactive)
REMARK    1  A    between atoms: C_1  and  N_8
REMARK    2  A    between atoms: C_2  and  N_23
REMARK    3  A    between atoms: C_9  and  C_14
REMARK    4  A    between atoms: C_24  and  C_28
REMARK                            x       y       z     vdW  Elec       q    Type
REMARK                         _______ _______ _______ _____ _____    ______ ____
ROOT
ATOM      1  C   UNL     1      -0.676   3.536   0.615  0.00  0.00    +0.090 C 
ATOM      2  C   UNL     1       0.511   3.529  -0.365  0.00  0.00    +0.090 C 
ATOM      3  C   UNL     1      -1.504   4.818   0.479  0.00  0.00    +0.021 C 
ATOM      4  C   UNL     1       1.355   4.801  -0.238  0.00  0.00    +0.021 C 
ATOM      5  C   UNL     1      -0.646   6.072   0.613  0.00  0.00    +0.002 C 
ATOM      6  C   UNL     1       0.510   6.063  -0.381  0.00  0.00    +0.002 C 
ENDROOT
BRANCH   1   8
ATOM      7  O   UNL     1      -0.402   0.969   1.872  0.00  0.00    -0.267 OA
ATOM      8  N   UNL     1      -1.524   2.381   0.415  0.00  0.00    -0.298 N 
ATOM      9  C   UNL     1      -1.309   1.180   1.072  0.00  0.00    +0.282 C 
ATOM     10  H   UNL     1      -2.282   2.451  -0.210  0.00  0.00    +0.150 HD
BRANCH   9  14
ATOM     11  S   UNL     1      -2.093  -1.461   1.487  0.00  0.00    -0.074 S 
ATOM     12  N   UNL     1      -4.920  -3.600  -0.493  0.00  0.00    +0.387 N 
ATOM     13  N   UNL     1      -3.239   0.220  -0.124  0.00  0.00    -0.399 NA
ATOM     14  C   UNL     1      -2.253   0.082   0.739  0.00  0.00    +0.210 C 
ATOM     15  C   UNL     1      -3.919  -0.975  -0.199  0.00  0.00    +0.093 C 
ATOM     16  C   UNL     1      -3.436  -1.993   0.594  0.00  0.00    +0.082 C 
ATOM     17  C   UNL     1      -5.085  -1.176  -1.100  0.00  0.00    +0.032 C 
ATOM     18  C   UNL     1      -4.041  -3.355   0.676  0.00  0.00    -0.059 C 
ATOM     19  C   UNL     1      -5.847  -2.470  -0.729  0.00  0.00    -0.070 C 
ATOM     20  C   UNL     1      -5.661  -4.848  -0.317  0.00  0.00    -0.101 C 
ATOM     21  H   UNL     1      -4.326  -3.682  -1.319  0.00  0.00    -0.080 HD
ENDBRANCH   9  14
ENDBRANCH   1   8
BRANCH   2  23
ATOM     22  O   UNL     1       1.061   1.458  -2.276  0.00  0.00    -0.269 OA
ATOM     23  N   UNL     1       1.345   2.365  -0.162  0.00  0.00    -0.300 N 
ATOM     24  C   UNL     1       1.550   1.417  -1.150  0.00  0.00    +0.259 C 
ATOM     25  H   UNL     1       1.784   2.243   0.711  0.00  0.00    +0.150 HD
BRANCH  24  28
ATOM     26 CL   UNL     1       6.112  -4.085   1.777  0.00  0.00    -0.082 Cl
ATOM     27  N   UNL     1       2.720  -0.761  -1.625  0.00  0.00    -0.309 N 
ATOM     28  C   UNL     1       2.413   0.267  -0.775  0.00  0.00    +0.102 C 
ATOM     29  C   UNL     1       3.034   0.023   0.428  0.00  0.00    +0.020 C 
ATOM     30  C   UNL     1       3.534  -1.673  -0.992  0.00  0.00    +0.048 C 
ATOM     31  C   UNL     1       3.748  -1.202   0.306  0.00  0.00    +0.016 C 
ATOM     32  C   UNL     1       4.091  -2.867  -1.463  0.00  0.00    +0.015 C 
ATOM     33  C   UNL     1       4.557  -1.958   1.177  0.00  0.00    +0.013 C 
ATOM     34  C   UNL     1       5.122  -3.154   0.719  0.00  0.00    +0.058 C 
ATOM     35  C   UNL     1       4.891  -3.600  -0.581  0.00  0.00    +0.013 C 
ATOM     36  H   UNL     1       2.405  -0.837  -2.554  0.00  0.00    +0.152 HD
ENDBRANCH  24  28
ENDBRANCH   2  23
TORSDOF 4
