REMARK  Name = 24178121
REMARK  2 active torsions:
REMARK  status: ('A' for Active; 'I' for Inactive)
REMARK    1  A    between atoms: N_2  and  C_15
REMARK    2  A    between atoms: C_4  and  O_21
REMARK                            x       y       z     vdW  Elec       q    Type
REMARK                         _______ _______ _______ _____ _____    ______ ____
ROOT
ATOM      1  O   UNL     1       2.839   2.254   0.800  0.00  0.00    -0.288 OA
ATOM      2  N   UNL     1      -1.461   0.807   0.053  0.00  0.00    -0.264 N 
ATOM      3  N   UNL     1       0.333  -0.839  -0.097  0.00  0.00    -0.392 NA
ATOM      4  C   UNL     1       0.757   1.578  -0.207  0.00  0.00    +0.204 C 
ATOM      5  C   UNL     1      -0.072   2.650   0.491  0.00  0.00    +0.065 C 
ATOM      6  C   UNL     1      -1.519   2.271   0.148  0.00  0.00    +0.101 C 
ATOM      7  C   UNL     1      -0.148   0.363  -0.075  0.00  0.00    +0.195 C 
ATOM      8  C   UNL     1       2.147   1.364   0.325  0.00  0.00    +0.207 C 
ATOM      9  C   UNL     1       2.655  -0.010   0.151  0.00  0.00    +0.063 C 
ATOM     10  C   UNL     1       1.728  -1.033  -0.107  0.00  0.00    +0.117 C 
ATOM     11  C   UNL     1       4.027  -0.268   0.215  0.00  0.00    +0.005 C 
ATOM     12  C   UNL     1       2.215  -2.330  -0.310  0.00  0.00    +0.085 C 
ATOM     13  C   UNL     1       4.489  -1.566   0.008  0.00  0.00    -0.004 C 
ATOM     14  C   UNL     1       3.586  -2.595  -0.257  0.00  0.00    -0.019 C 
ENDROOT
BRANCH   2  15
ATOM     15  C   UNL     1      -2.596   0.035   0.064  0.00  0.00    +0.053 C 
ATOM     16  C   UNL     1      -2.548  -1.270   0.556  0.00  0.00    +0.015 C 
ATOM     17  C   UNL     1      -3.798   0.554  -0.417  0.00  0.00    +0.015 C 
ATOM     18  C   UNL     1      -3.701  -2.055   0.566  0.00  0.00    +0.001 C 
ATOM     19  C   UNL     1      -4.951  -0.230  -0.406  0.00  0.00    +0.001 C 
ATOM     20  C   UNL     1      -4.903  -1.535   0.085  0.00  0.00    +0.000 C 
ENDBRANCH   2  15
BRANCH   4  21
ATOM     21  O   UNL     1       0.922   1.856  -1.588  0.00  0.00    -0.372 OA
ATOM     22  H   UNL     1       0.053   2.005  -1.994  0.00  0.00    +0.211 HD
ENDBRANCH   4  21
TORSDOF 2
