REMARK  Name = 46937075
REMARK  8 active torsions:
REMARK  status: ('A' for Active; 'I' for Inactive)
REMARK    1  A    between atoms: C_1  and  C_4
REMARK    2  A    between atoms: C_1  and  N_8
REMARK    3  A    between atoms: C_1  and  C_17
REMARK    4  A    between atoms: C_9  and  C_11
REMARK    5  A    between atoms: C_17  and  C_18
REMARK    6  A    between atoms: C_18  and  C_19
REMARK    7  A    between atoms: C_19  and  N_20
REMARK    8  A    between atoms: N_20  and  C_22
REMARK                            x       y       z     vdW  Elec       q    Type
REMARK                         _______ _______ _______ _____ _____    ______ ____
ROOT
ATOM      1  C   UNL     1      -0.339   1.233  -0.190  0.00  0.00    +0.149 C 
ENDROOT
BRANCH   1   4
ATOM      2  O   UNL     1       0.316   2.624   1.692  0.00  0.00    -0.274 OA
ATOM      3  N   UNL     1      -0.709   3.621  -0.105  0.00  0.00    -0.327 N 
ATOM      4  C   UNL     1      -0.212   2.536   0.587  0.00  0.00    +0.237 C 
ATOM      5  H   UNL     1      -0.680   4.518   0.300  0.00  0.00    +0.145 HD
ATOM      6  H   UNL     1      -1.092   3.499  -1.004  0.00  0.00    +0.145 HD
ENDBRANCH   1   4
BRANCH   1   8
ATOM      7  O   UNL     1       2.175   1.357  -1.571  0.00  0.00    -0.270 OA
ATOM      8  N   UNL     1       0.838   0.453   0.095  0.00  0.00    -0.295 N 
ATOM      9  C   UNL     1       2.014   0.582  -0.631  0.00  0.00    +0.246 C 
ATOM     10  H   UNL     1       0.807  -0.197   0.833  0.00  0.00    +0.150 HD
BRANCH   9  11
ATOM     11  C   UNL     1       3.129  -0.314  -0.230  0.00  0.00    +0.053 C 
ATOM     12  C   UNL     1       4.451   0.073  -0.454  0.00  0.00    +0.005 C 
ATOM     13  C   UNL     1       2.855  -1.542   0.371  0.00  0.00    +0.005 C 
ATOM     14  C   UNL     1       5.497  -0.768  -0.076  0.00  0.00    +0.000 C 
ATOM     15  C   UNL     1       3.901  -2.383   0.750  0.00  0.00    +0.000 C 
ATOM     16  C   UNL     1       5.223  -1.996   0.526  0.00  0.00    +0.000 C 
ENDBRANCH   9  11
ENDBRANCH   1   8
BRANCH   1  17
ATOM     17  C   UNL     1      -1.628   0.501   0.198  0.00  0.00    +0.031 C 
BRANCH  17  18
ATOM     18  C   UNL     1      -2.023  -0.566  -0.832  0.00  0.00    +0.026 C 
BRANCH  18  19
ATOM     19  C   UNL     1      -3.274  -1.335  -0.421  0.00  0.00    +0.114 C 
BRANCH  19  20
ATOM     20  N   UNL     1      -4.404  -0.413  -0.293  0.00  0.00    -0.226 NA
BRANCH  20  22
ATOM     21  N   UNL     1      -6.744  -0.310   0.256  0.00  0.00    -0.389 N 
ATOM     22  C   UNL     1      -5.534  -0.930   0.052  0.00  0.00    +0.095 C 
ATOM     23  C   UNL     1      -5.534  -2.427   0.277  0.00  0.00    +0.068 C 
ATOM     24  H   UNL     1      -6.826   0.663   0.130  0.00  0.00    +0.157 HD
ATOM     25  H   UNL     1      -7.529  -0.839   0.529  0.00  0.00    +0.157 HD
ENDBRANCH  20  22
ENDBRANCH  19  20
ENDBRANCH  18  19
ENDBRANCH  17  18
ENDBRANCH   1  17
TORSDOF 8
