REMARK  Name = 1202104
REMARK  5 active torsions:
REMARK  status: ('A' for Active; 'I' for Inactive)
REMARK    1  A    between atoms: C_1  and  N_9
REMARK    2  A    between atoms: C_4  and  S_21
REMARK    3  A    between atoms: C_16  and  N_18
REMARK    4  A    between atoms: S_21  and  C_22
REMARK    5  A    between atoms: C_25  and  N_28
REMARK                            x       y       z     vdW  Elec       q    Type
REMARK                         _______ _______ _______ _____ _____    ______ ____
ROOT
ATOM      1  C   UNL     1      -0.442   0.762   0.220  0.00  0.00    +0.061 C 
ATOM      2  C   UNL     1       0.442   0.187   1.136  0.00  0.00    +0.016 C 
ATOM      3  C   UNL     1       0.002   1.786  -0.620  0.00  0.00    +0.016 C 
ATOM      4  C   UNL     1       2.201   1.655   0.371  0.00  0.00    +0.030 C 
ATOM      5  C   UNL     1       1.761   0.632   1.212  0.00  0.00    +0.008 C 
ATOM      6  C   UNL     1       1.322   2.232  -0.545  0.00  0.00    +0.008 C 
ENDROOT
BRANCH   1   9
ATOM      7  O   UNL     1      -2.965   2.280  -0.521  0.00  0.00    -0.269 OA
ATOM      8  O   UNL     1      -1.603  -1.992   0.753  0.00  0.00    -0.269 OA
ATOM      9  N   UNL     1      -1.799   0.307   0.144  0.00  0.00    -0.201 N 
ATOM     10  C   UNL     1      -4.059   0.244  -0.176  0.00  0.00    +0.060 C 
ATOM     11  C   UNL     1      -3.659  -1.013   0.231  0.00  0.00    +0.059 C 
ATOM     12  C   UNL     1      -2.877   1.101  -0.229  0.00  0.00    +0.259 C 
ATOM     13  C   UNL     1      -2.213  -0.988   0.433  0.00  0.00    +0.259 C 
ATOM     14  C   UNL     1      -5.380   0.537  -0.452  0.00  0.00    +0.019 C 
ATOM     15  C   UNL     1      -4.558  -2.051   0.381  0.00  0.00    +0.006 C 
ATOM     16  C   UNL     1      -6.308  -0.497  -0.307  0.00  0.00    +0.042 C 
ATOM     17  C   UNL     1      -5.901  -1.780   0.106  0.00  0.00    +0.014 C 
BRANCH  16  18
ATOM     18  N   UNL     1      -7.673  -0.254  -0.577  0.00  0.00    -0.357 N 
ATOM     19  H   UNL     1      -7.966   0.641  -0.866  0.00  0.00    +0.142 HD
ATOM     20  H   UNL     1      -8.332  -0.979  -0.476  0.00  0.00    +0.142 HD
ENDBRANCH  16  18
ENDBRANCH   1   9
BRANCH   4  21
ATOM     21  S   UNL     1       3.886   2.228   0.470  0.00  0.00    -0.087 S 
BRANCH  21  22
ATOM     22  C   UNL     1       4.787   0.732   0.090  0.00  0.00    +0.030 C 
ATOM     23  C   UNL     1       4.591   0.098  -1.133  0.00  0.00    +0.008 C 
ATOM     24  C   UNL     1       5.680   0.206   1.020  0.00  0.00    +0.008 C 
ATOM     25  C   UNL     1       6.189  -1.600  -0.501  0.00  0.00    +0.042 C 
ATOM     26  C   UNL     1       5.293  -1.070  -1.430  0.00  0.00    +0.015 C 
ATOM     27  C   UNL     1       6.383  -0.961   0.724  0.00  0.00    +0.015 C 
BRANCH  25  28
ATOM     28  N   UNL     1       6.899  -2.782  -0.800  0.00  0.00    -0.357 N 
ATOM     29  H   UNL     1       6.762  -3.232  -1.665  0.00  0.00    +0.142 HD
ATOM     30  H   UNL     1       7.530  -3.156  -0.144  0.00  0.00    +0.142 HD
ENDBRANCH  25  28
ENDBRANCH  21  22
ENDBRANCH   4  21
TORSDOF 5
