REMARK  Name = 16750123
REMARK  4 active torsions:
REMARK  status: ('A' for Active; 'I' for Inactive)
REMARK    1  A    between atoms: C_5  and  O_14
REMARK    2  A    between atoms: C_8  and  C_13
REMARK    3  A    between atoms: O_14  and  C_15
REMARK    4  A    between atoms: C_15  and  C_17
REMARK                            x       y       z     vdW  Elec       q    Type
REMARK                         _______ _______ _______ _____ _____    ______ ____
ROOT
ATOM      1  O   UNL     1      -2.704   1.871  -0.028  0.00  0.00    -0.421 OA
ATOM      2  O   UNL     1      -4.632   3.096  -0.149  0.00  0.00    -0.244 OA
ATOM      3  C   UNL     1      -2.831  -0.568  -0.014  0.00  0.00    +0.038 C 
ATOM      4  C   UNL     1      -2.080   0.608   0.019  0.00  0.00    +0.152 C 
ATOM      5  C   UNL     1      -0.017  -0.617   0.150  0.00  0.00    +0.142 C 
ATOM      6  C   UNL     1      -0.686   0.601   0.100  0.00  0.00    +0.074 C 
ATOM      7  C   UNL     1      -2.139  -1.784   0.037  0.00  0.00    +0.006 C 
ATOM      8  C   UNL     1      -4.287  -0.455  -0.101  0.00  0.00    +0.052 C 
ATOM      9  C   UNL     1      -0.742  -1.808   0.119  0.00  0.00    +0.037 C 
ATOM     10  C   UNL     1      -4.865   0.752  -0.144  0.00  0.00    +0.086 C 
ATOM     11  C   UNL     1      -4.083   2.001  -0.108  0.00  0.00    +0.346 C 
ENDROOT
BRANCH   8  13
ATOM     12  O   UNL     1      -4.832  -2.752  -0.116  0.00  0.00    -0.283 OA
ATOM     13  C   UNL     1      -5.215  -1.592  -0.146  0.00  0.00    +0.234 C 
ENDBRANCH   8  13
BRANCH   5  14
ATOM     14  O   UNL     1       1.341  -0.648   0.228  0.00  0.00    -0.471 OA
BRANCH  14  15
ATOM     15  C   UNL     1       2.019   0.607   0.256  0.00  0.00    +0.232 C 
BRANCH  15  17
ATOM     16 CL   UNL     1       6.511  -0.120  -2.276  0.00  0.00    -0.082 Cl
ATOM     17  C   UNL     1       3.499   0.364   0.311  0.00  0.00    +0.022 C 
ATOM     18  C   UNL     1       4.231   0.250  -0.871  0.00  0.00    +0.011 C 
ATOM     19  C   UNL     1       4.141   0.248   1.544  0.00  0.00    -0.001 C 
ATOM     20  C   UNL     1       5.606   0.021  -0.820  0.00  0.00    +0.057 C 
ATOM     21  C   UNL     1       5.516   0.019   1.595  0.00  0.00    +0.001 C 
ATOM     22  C   UNL     1       6.249  -0.094   0.413  0.00  0.00    +0.011 C 
ENDBRANCH  15  17
ENDBRANCH  14  15
ENDBRANCH   5  14
TORSDOF 4
