REMARK  Name = 10114365
REMARK  11 active torsions:
REMARK  status: ('A' for Active; 'I' for Inactive)
REMARK    1  A    between atoms: C_3  and  N_9
REMARK    2  A    between atoms: C_4  and  C_21
REMARK    3  A    between atoms: N_9  and  C_11
REMARK    4  A    between atoms: C_11  and  C_14
REMARK    5  A    between atoms: C_14  and  C_15
REMARK    6  A    between atoms: C_21  and  C_24
REMARK    7  A    between atoms: N_23  and  C_26
REMARK    8  A    between atoms: C_26  and  C_27
REMARK    9  A    between atoms: C_27  and  O_28
REMARK   10  A    between atoms: O_28  and  N_29
REMARK   11  A    between atoms: N_29  and  C_32
REMARK                            x       y       z     vdW  Elec       q    Type
REMARK                         _______ _______ _______ _____ _____    ______ ____
ROOT
ATOM      1 CL   UNL     1       3.043  -0.106   2.820  0.00  0.00    -0.082 Cl
ATOM      2  F   UNL     1       0.154  -2.445  -0.665  0.00  0.00    -0.203 F 
ATOM      3  C   UNL     1      -0.850  -0.722   0.616  0.00  0.00    +0.072 C 
ATOM      4  C   UNL     1       1.462  -1.330   0.968  0.00  0.00    +0.026 C 
ATOM      5  C   UNL     1       0.254  -1.511   0.293  0.00  0.00    +0.150 C 
ATOM      6  C   UNL     1      -0.746   0.249   1.612  0.00  0.00    +0.017 C 
ATOM      7  C   UNL     1       1.565  -0.360   1.964  0.00  0.00    +0.056 C 
ATOM      8  C   UNL     1       0.461   0.430   2.287  0.00  0.00    +0.012 C 
ENDROOT
BRANCH   3   9
ATOM      9  N   UNL     1      -2.072  -0.903  -0.064  0.00  0.00    -0.326 N 
ATOM     10  H   UNL     1      -2.123  -1.594  -0.764  0.00  0.00    +0.147 HD
BRANCH   9  11
ATOM     11  C   UNL     1      -3.240  -0.128   0.219  0.00  0.00    +0.159 C 
BRANCH  11  14
ATOM     12  F   UNL     1      -4.598  -1.884  -0.547  0.00  0.00    -0.198 F 
ATOM     13  F   UNL     1      -3.963  -0.402  -1.998  0.00  0.00    -0.198 F 
ATOM     14  C   UNL     1      -4.383  -0.545  -0.706  0.00  0.00    +0.300 C 
BRANCH  14  15
ATOM     15  C   UNL     1      -5.626   0.264  -0.424  0.00  0.00    +0.039 C 
ATOM     16  C   UNL     1      -5.847   1.463  -1.102  0.00  0.00    +0.001 C 
ATOM     17  C   UNL     1      -6.554  -0.188   0.515  0.00  0.00    +0.001 C 
ATOM     18  C   UNL     1      -6.996   2.211  -0.841  0.00  0.00    -0.000 C 
ATOM     19  C   UNL     1      -7.703   0.560   0.775  0.00  0.00    -0.000 C 
ATOM     20  C   UNL     1      -7.923   1.759   0.098  0.00  0.00    -0.000 C 
ENDBRANCH  14  15
ENDBRANCH  11  14
ENDBRANCH   9  11
ENDBRANCH   3   9
BRANCH   4  21
ATOM     21  C   UNL     1       2.632  -2.200   0.593  0.00  0.00    +0.114 C 
BRANCH  21  24
ATOM     22  O   UNL     1       3.059  -0.847  -1.370  0.00  0.00    -0.275 OA
ATOM     23  N   UNL     1       4.810  -2.041  -0.421  0.00  0.00    -0.302 N 
ATOM     24  C   UNL     1       3.491  -1.609  -0.509  0.00  0.00    +0.227 C 
ATOM     25  H   UNL     1       5.058  -2.654   0.308  0.00  0.00    +0.150 HD
BRANCH  23  26
ATOM     26  C   UNL     1       5.828  -1.630  -1.351  0.00  0.00    +0.125 C 
BRANCH  26  27
ATOM     27  C   UNL     1       6.529  -0.366  -0.887  0.00  0.00    +0.197 C 
BRANCH  27  28
ATOM     28  O   UNL     1       5.586   0.691  -0.801  0.00  0.00    -0.232 OA
BRANCH  28  29
ATOM     29  N   UNL     1       6.262   1.843  -0.371  0.00  0.00    -0.096 NA
BRANCH  29  32
ATOM     30  N   UNL     1       4.081   2.815  -0.552  0.00  0.00    -0.368 N 
ATOM     31  N   UNL     1       5.855   4.088   0.126  0.00  0.00    -0.368 N 
ATOM     32  C   UNL     1       5.429   2.846  -0.278  0.00  0.00    +0.217 C 
ATOM     33  H   UNL     1       3.658   1.978  -0.851  0.00  0.00    +0.159 HD
ATOM     34  H   UNL     1       3.539   3.631  -0.449  0.00  0.00    +0.159 HD
ATOM     35  H   UNL     1       6.802   4.234   0.351  0.00  0.00    +0.159 HD
ATOM     36  H   UNL     1       5.213   4.831   0.191  0.00  0.00    +0.159 HD
ENDBRANCH  29  32
ENDBRANCH  28  29
ENDBRANCH  27  28
ENDBRANCH  26  27
ENDBRANCH  23  26
ENDBRANCH  21  24
ENDBRANCH   4  21
TORSDOF 11
