10258
  -OEChem-10051721123D

 21 22  0     0  0  0  0  0  0999 V2000
   -2.9905   -0.1512    0.0098 S   0  0  0  0  0  0  0  0  0  0  0  0
   -1.4351   -0.6819    0.0068 O   0  0  0  0  0  0  0  0  0  0  0  0
   -3.8482   -1.5266   -0.1672 O   0  0  0  0  0  0  0  0  0  0  0  0
   -3.2026    0.6482   -1.1826 O   0  0  0  0  0  0  0  0  0  0  0  0
   -3.2892    0.3793    1.3271 O   0  0  0  0  0  0  0  0  0  0  0  0
    0.9191    1.9237    0.0022 N   0  0  0  0  0  0  0  0  0  0  0  0
    1.0194   -0.3050    0.0019 C   0  0  0  0  0  0  0  0  0  0  0  0
    1.7915    0.8587    0.0005 C   0  0  0  0  0  0  0  0  0  0  0  0
   -0.3450    0.0992    0.0047 C   0  0  0  0  0  0  0  0  0  0  0  0
   -0.3742    1.4748    0.0049 C   0  0  0  0  0  0  0  0  0  0  0  0
    1.6736   -1.5530    0.0005 C   0  0  0  0  0  0  0  0  0  0  0  0
    3.1908    0.8367   -0.0025 C   0  0  0  0  0  0  0  0  0  0  0  0
    3.0728   -1.5903   -0.0023 C   0  0  0  0  0  0  0  0  0  0  0  0
    3.8176   -0.4126   -0.0038 C   0  0  0  0  0  0  0  0  0  0  0  0
    1.1946    2.8961    0.0025 H   0  0  0  0  0  0  0  0  0  0  0  0
   -1.1874    2.1867    0.0103 H   0  0  0  0  0  0  0  0  0  0  0  0
    1.1057   -2.4790    0.0016 H   0  0  0  0  0  0  0  0  0  0  0  0
    3.7716    1.7530   -0.0036 H   0  0  0  0  0  0  0  0  0  0  0  0
    3.5828   -2.5500   -0.0033 H   0  0  0  0  0  0  0  0  0  0  0  0
    4.9034   -0.4650   -0.0060 H   0  0  0  0  0  0  0  0  0  0  0  0
   -4.8273   -1.4132   -0.1894 H   0  0  0  0  0  0  0  0  0  0  0  0
  1  2  1  0  0  0  0
  1  3  1  0  0  0  0
  1  4  2  0  0  0  0
  1  5  2  0  0  0  0
  2  9  1  0  0  0  0
  3 21  1  0  0  0  0
  6  8  1  0  0  0  0
  6 10  1  0  0  0  0
  6 15  1  0  0  0  0
  7  8  1  0  0  0  0
  7  9  1  0  0  0  0
  7 11  2  0  0  0  0
  8 12  2  0  0  0  0
  9 10  2  0  0  0  0
 10 16  1  0  0  0  0
 11 13  1  0  0  0  0
 11 17  1  0  0  0  0
 12 14  1  0  0  0  0
 12 18  1  0  0  0  0
 13 14  2  0  0  0  0
 13 19  1  0  0  0  0
 14 20  1  0  0  0  0
M  END
> <DATABASE_ID>
DB07992

> <DATABASE_NAME>
drugbank

> <ORIGINAL_SOURCE>
PUBCHEM

> <ORIGINAL_SOURCE_URL>
https://pubchem.ncbi.nlm.nih.gov/rest/pug/compound/inchikey/BXFFHSIDQOFMLE-UHFFFAOYSA-N/SDF?record_type=3d

> <SMILES>
OS(=O)(=O)OC1=CNC2=CC=CC=C12

> <INCHI_IDENTIFIER>
InChI=1S/C8H7NO4S/c10-14(11,12)13-8-5-9-7-4-2-1-3-6(7)8/h1-5,9H,(H,10,11,12)

> <INCHI_KEY>
BXFFHSIDQOFMLE-UHFFFAOYSA-N

> <FORMULA>
C8H7NO4S

> <MOLECULAR_WEIGHT>
213.21

> <EXACT_MASS>
213.009578407

> <JCHEM_ACCEPTOR_COUNT>
3

> <JCHEM_AVERAGE_POLARIZABILITY>
19.367740668707313

> <JCHEM_BIOAVAILABILITY>
1

> <JCHEM_DONOR_COUNT>
2

> <JCHEM_FORMAL_CHARGE>
0

> <JCHEM_GHOSE_FILTER>
1

> <JCHEM_IUPAC>
1H-indol-3-yloxidanesulfonic acid

> <ALOGPS_LOGP>
-0.48

> <JCHEM_LOGP>
1.2931291409999999

> <ALOGPS_LOGS>
-2.43

> <JCHEM_MDDR_LIKE_RULE>
0

> <JCHEM_NUMBER_OF_RINGS>
2

> <JCHEM_PHYSIOLOGICAL_CHARGE>
-1

> <JCHEM_PKA>
14.813693057567004

> <JCHEM_PKA_STRONGEST_ACIDIC>
-1.8154557521719683

> <JCHEM_POLAR_SURFACE_AREA>
79.39

> <JCHEM_REFRACTIVITY>
49.117200000000004

> <JCHEM_ROTATABLE_BOND_COUNT>
2

> <JCHEM_RULE_OF_FIVE>
1

> <ALOGPS_SOLUBILITY>
7.87e-01 g/l

> <JCHEM_TRADITIONAL_IUPAC>
3-sulfooxy-1H-indole

> <JCHEM_VEBER_RULE>
0

> <DRUGBANK_ID>
DB07992

> <DRUG_GROUPS>
experimental

> <GENERIC_NAME>
3-SULFOOXY-1H-INDOLE

$$$$
