REMARK  Name = 639097
REMARK  3 active torsions:
REMARK  status: ('A' for Active; 'I' for Inactive)
REMARK    1  A    between atoms: N_1  and  C_7
REMARK    2  A    between atoms: C_3  and  N_13
REMARK    3  A    between atoms: C_4  and  C_17
REMARK                            x       y       z     vdW  Elec       q    Type
REMARK                         _______ _______ _______ _____ _____    ______ ____
ROOT
ATOM      1  N   UNL     1      -0.537  -0.444   0.081  0.00  0.00    -0.176 N 
ATOM      2  N   UNL     1      -1.018  -1.686   0.307  0.00  0.00    -0.170 NA
ATOM      3  C   UNL     1      -1.528   0.488  -0.094  0.00  0.00    +0.129 C 
ATOM      4  C   UNL     1      -2.719  -0.187   0.026  0.00  0.00    +0.118 C 
ATOM      5  C   UNL     1      -2.343  -1.521   0.272  0.00  0.00    +0.131 C 
ENDROOT
BRANCH   1   7
ATOM      6 CL   UNL     1       5.283   0.473  -0.070  0.00  0.00    -0.082 Cl
ATOM      7  C   UNL     1       0.829  -0.229   0.046  0.00  0.00    +0.075 C 
ATOM      8  C   UNL     1       1.351   1.004   0.435  0.00  0.00    +0.018 C 
ATOM      9  C   UNL     1       1.684  -1.246  -0.380  0.00  0.00    +0.018 C 
ATOM     10  C   UNL     1       2.728   1.222   0.399  0.00  0.00    +0.013 C 
ATOM     11  C   UNL     1       3.062  -1.028  -0.416  0.00  0.00    +0.013 C 
ATOM     12  C   UNL     1       3.583   0.205  -0.027  0.00  0.00    +0.058 C 
ENDBRANCH   1   7
BRANCH   3  13
ATOM     13  N   UNL     1      -1.243   1.788  -0.333  0.00  0.00    -0.344 N 
ATOM     14  H   UNL     1      -0.306   2.085  -0.384  0.00  0.00    +0.144 HD
ATOM     15  H   UNL     1      -1.973   2.437  -0.455  0.00  0.00    +0.144 HD
ENDBRANCH   3  13
BRANCH   4  17
ATOM     16  N   UNL     1      -5.104   0.805  -0.166  0.00  0.00    -0.191 NA
ATOM     17  C   UNL     1      -4.027   0.357  -0.080  0.00  0.00    +0.105 C 
ENDBRANCH   4  17
TORSDOF 3
