REMARK  Name = 10221335
REMARK  5 active torsions:
REMARK  status: ('A' for Active; 'I' for Inactive)
REMARK    1  A    between atoms: N_2  and  C_13
REMARK    2  A    between atoms: C_3  and  C_5
REMARK    3  A    between atoms: C_10  and  C_12
REMARK    4  A    between atoms: C_13  and  C_14
REMARK    5  A    between atoms: C_14  and  C_16
REMARK                            x       y       z     vdW  Elec       q    Type
REMARK                         _______ _______ _______ _____ _____    ______ ____
ROOT
ATOM      1  O   UNL     1      -0.943  -2.943   0.820  0.00  0.00    -0.270 OA
ATOM      2  N   UNL     1       0.271  -1.625  -0.652  0.00  0.00    -0.300 N 
ATOM      3  C   UNL     1      -0.867  -1.929   0.104  0.00  0.00    +0.246 C 
ATOM      4  H   UNL     1       0.263  -0.806  -1.197  0.00  0.00    +0.150 HD
ENDROOT
BRANCH   3   5
ATOM      5  C   UNL     1      -1.991  -1.011   0.003  0.00  0.00    +0.053 C 
ATOM      6  C   UNL     1      -3.289  -1.471   0.226  0.00  0.00    +0.005 C 
ATOM      7  C   UNL     1      -1.771   0.328  -0.318  0.00  0.00    +0.005 C 
ATOM      8  C   UNL     1      -4.367  -0.591   0.128  0.00  0.00    +0.010 C 
ATOM      9  C   UNL     1      -2.849   1.208  -0.415  0.00  0.00    +0.010 C 
ATOM     10  C   UNL     1      -4.147   0.748  -0.192  0.00  0.00    +0.068 C 
BRANCH  10  12
ATOM     11  N   UNL     1      -6.148   2.384  -0.372  0.00  0.00    -0.191 NA
ATOM     12  C   UNL     1      -5.251   1.651  -0.291  0.00  0.00    +0.100 C 
ENDBRANCH  10  12
ENDBRANCH   3   5
BRANCH   2  13
ATOM     13  C   UNL     1       1.457  -2.450  -0.676  0.00  0.00    +0.097 C 
BRANCH  13  14
ATOM     14  C   UNL     1       2.466  -2.057   0.400  0.00  0.00    +0.080 C 
BRANCH  14  16
ATOM     15  N   UNL     1       2.200   0.284   0.955  0.00  0.00    -0.396 NA
ATOM     16  C   UNL     1       2.926  -0.625   0.281  0.00  0.00    +0.111 C 
ATOM     17  C   UNL     1       4.032  -0.346  -0.491  0.00  0.00    +0.020 C 
ATOM     18  C   UNL     1       4.430   0.983  -0.580  0.00  0.00    -0.033 C 
ATOM     19  C   UNL     1       3.713   1.964   0.098  0.00  0.00    +0.096 C 
ATOM     20  C   UNL     1       2.616   1.566   0.845  0.00  0.00    +0.157 C 
ATOM     21  C   UNL     1       5.618   1.358  -1.398  0.00  0.00    +0.027 C 
ATOM     22  N   UNL     1       1.895   2.576   1.528  0.00  0.00    -0.336 N 
ATOM     23  H   UNL     1       1.109   2.339   2.070  0.00  0.00    +0.144 HD
ATOM     24  H   UNL     1       2.181   3.516   1.460  0.00  0.00    +0.144 HD
ENDBRANCH  14  16
ENDBRANCH  13  14
ENDBRANCH   2  13
TORSDOF 5
