REMARK  Name = 16122553
REMARK  10 active torsions:
REMARK  status: ('A' for Active; 'I' for Inactive)
REMARK    1  A    between atoms: C_1  and  C_20
REMARK    2  A    between atoms: C_3  and  C_8
REMARK    3  A    between atoms: C_20  and  C_21
REMARK    4  A    between atoms: C_21  and  P_22
REMARK    5  A    between atoms: C_21  and  P_28
REMARK    6  A    between atoms: C_21  and  O_34
REMARK    7  A    between atoms: P_22  and  O_24
REMARK    8  A    between atoms: P_22  and  O_26
REMARK    9  A    between atoms: P_28  and  O_30
REMARK   10  A    between atoms: P_28  and  O_32
REMARK                            x       y       z     vdW  Elec       q    Type
REMARK                         _______ _______ _______ _____ _____    ______ ____
ROOT
ATOM      1  C   UNL     1       2.009  -1.530   0.501  0.00  0.00    -0.019 C 
ATOM      2  C   UNL     1       0.635  -1.404   0.708  0.00  0.00    -0.004 C 
ATOM      3  C   UNL     1      -0.257  -2.147  -0.064  0.00  0.00    +0.003 C 
ATOM      4  C   UNL     1       2.490  -2.400  -0.478  0.00  0.00    -0.004 C 
ATOM      5  C   UNL     1       0.223  -3.017  -1.043  0.00  0.00    +0.000 C 
ATOM      6  C   UNL     1       1.597  -3.143  -1.250  0.00  0.00    -0.000 C 
ENDROOT
BRANCH   3   8
ATOM      7  O   UNL     1      -1.719   0.378  -0.362  0.00  0.00    -0.453 OA
ATOM      8  C   UNL     1      -1.677  -2.017   0.150  0.00  0.00    +0.035 C 
ATOM      9  C   UNL     1      -2.321  -0.791  -0.007  0.00  0.00    +0.145 A 
ATOM     10  C   UNL     1      -3.686  -0.596   0.183  0.00  0.00    +0.037 A 
ATOM     11  C   UNL     1      -3.925   0.785  -0.076  0.00  0.00    +0.037 A 
ATOM     12  C   UNL     1      -2.689   1.333  -0.405  0.00  0.00    +0.145 A 
ATOM     13  C   UNL     1      -2.480  -3.099   0.520  0.00  0.00    +0.003 C 
ATOM     14  C   UNL     1      -4.473  -1.701   0.555  0.00  0.00    +0.003 C 
ATOM     15  C   UNL     1      -3.854  -2.947   0.720  0.00  0.00    +0.000 C 
ATOM     16  C   UNL     1      -5.051   1.630  -0.069  0.00  0.00    +0.003 C 
ATOM     17  C   UNL     1      -2.490   2.674  -0.729  0.00  0.00    +0.037 C 
ATOM     18  C   UNL     1      -4.881   2.983  -0.391  0.00  0.00    +0.000 C 
ATOM     19  C   UNL     1      -3.623   3.494  -0.716  0.00  0.00    +0.003 C 
ENDBRANCH   3   8
BRANCH   1  20
ATOM     20  C   UNL     1       2.964  -0.737   1.327  0.00  0.00    +0.077 C 
BRANCH  20  21
ATOM     21  C   UNL     1       3.377   0.667   0.794  0.00  0.00    +0.279 C 
BRANCH  21  22
ATOM     22  P   UNL     1       1.986   1.849   0.731  0.00  0.00    +0.372 P 
ATOM     23  O   UNL     1       1.038   1.791   1.891  0.00  0.00    -0.255 OA
BRANCH  22  24
ATOM     24  O   UNL     1       1.324   1.565  -0.717  0.00  0.00    -0.322 OA
ATOM     25  H   UNL     1       0.564   2.154  -0.845  0.00  0.00    +0.220 HD
ENDBRANCH  22  24
BRANCH  22  26
ATOM     26  O   UNL     1       2.707   3.281   0.527  0.00  0.00    -0.322 OA
ATOM     27  H   UNL     1       2.034   3.978   0.482  0.00  0.00    +0.220 HD
ENDBRANCH  22  26
ENDBRANCH  21  22
BRANCH  21  28
ATOM     28  P   UNL     1       4.475   0.413  -0.672  0.00  0.00    +0.372 P 
ATOM     29  O   UNL     1       5.455  -0.714  -0.532  0.00  0.00    -0.255 OA
BRANCH  28  30
ATOM     30  O   UNL     1       3.423   0.264  -1.890  0.00  0.00    -0.322 OA
ATOM     31  H   UNL     1       3.906   0.125  -2.719  0.00  0.00    +0.220 HD
ENDBRANCH  28  30
BRANCH  28  32
ATOM     32  O   UNL     1       5.135   1.866  -0.924  0.00  0.00    -0.322 OA
ATOM     33  H   UNL     1       5.734   1.822  -1.686  0.00  0.00    +0.220 HD
ENDBRANCH  28  32
ENDBRANCH  21  28
BRANCH  21  34
ATOM     34  O   UNL     1       4.289   1.270   1.714  0.00  0.00    -0.366 OA
ATOM     35  H   UNL     1       4.548   2.145   1.385  0.00  0.00    +0.212 HD
ENDBRANCH  21  34
ENDBRANCH  20  21
ENDBRANCH   1  20
TORSDOF 10
