REMARK  Name = 14163672
REMARK  4 active torsions:
REMARK  status: ('A' for Active; 'I' for Inactive)
REMARK    1  A    between atoms: C_2  and  C_10
REMARK    2  A    between atoms: C_4  and  C_7
REMARK    3  A    between atoms: C_7  and  O_8
REMARK    4  A    between atoms: C_10  and  C_12
REMARK                            x       y       z     vdW  Elec       q    Type
REMARK                         _______ _______ _______ _____ _____    ______ ____
ROOT
ATOM      1  O   UNL     1      -1.353   0.164  -0.587  0.00  0.00    -0.451 OA
ATOM      2  C   UNL     1      -0.579  -0.922  -0.709  0.00  0.00    +0.128 C 
ATOM      3  C   UNL     1      -1.106  -2.027  -0.152  0.00  0.00    +0.037 C 
ATOM      4  C   UNL     1      -2.450  -0.264   0.091  0.00  0.00    +0.220 C 
ATOM      5  C   UNL     1      -2.347  -1.604   0.382  0.00  0.00    +0.047 C 
ENDROOT
BRANCH   4   7
ATOM      6  O   UNL     1      -3.468   1.901   0.060  0.00  0.00    -0.242 OA
ATOM      7  C   UNL     1      -3.471   0.687   0.373  0.00  0.00    +0.373 C 
BRANCH   7   8
ATOM      8  O   UNL     1      -4.539   0.163   1.059  0.00  0.00    -0.475 OA
ATOM      9  H   UNL     1      -4.545  -0.744   1.295  0.00  0.00    +0.296 HD
ENDBRANCH   7   8
ENDBRANCH   4   7
BRANCH   2  10
ATOM     10  C   UNL     1       0.725  -0.686  -1.443  0.00  0.00    +0.092 C 
BRANCH  10  12
ATOM     11 CL   UNL     1       1.147   2.320  -0.905  0.00  0.00    -0.083 Cl
ATOM     12  C   UNL     1       1.849  -0.288  -0.541  0.00  0.00    -0.004 C 
ATOM     13  C   UNL     1       2.111   1.050  -0.244  0.00  0.00    +0.054 C 
ATOM     14  C   UNL     1       2.646  -1.293   0.008  0.00  0.00    -0.003 C 
ATOM     15  C   UNL     1       3.168   1.383   0.602  0.00  0.00    +0.011 C 
ATOM     16  C   UNL     1       3.703  -0.960   0.855  0.00  0.00    -0.000 C 
ATOM     17  C   UNL     1       3.965   0.378   1.151  0.00  0.00    +0.001 C 
ENDBRANCH  10  12
ENDBRANCH   2  10
TORSDOF 4
