REMARK  Name = 23586145
REMARK  7 active torsions:
REMARK  status: ('A' for Active; 'I' for Inactive)
REMARK    1  A    between atoms: C_5  and  O_24
REMARK    2  A    between atoms: C_7  and  N_10
REMARK    3  A    between atoms: N_10  and  C_12
REMARK    4  A    between atoms: C_15  and  S_18
REMARK    5  A    between atoms: S_18  and  N_21
REMARK    6  A    between atoms: O_24  and  C_25
REMARK    7  A    between atoms: C_25  and  C_26
REMARK                            x       y       z     vdW  Elec       q    Type
REMARK                         _______ _______ _______ _____ _____    ______ ____
ROOT
ATOM      1  N   UNL     1       2.448  -2.020   0.115  0.00  0.00    -0.299 NA
ATOM      2  N   UNL     1       0.288  -3.077   0.061  0.00  0.00    -0.106 N 
ATOM      3  N   UNL     1      -0.239  -4.309   0.286  0.00  0.00    -0.139 NA
ATOM      4  N   UNL     1       2.013  -4.354   0.623  0.00  0.00    -0.145 NA
ATOM      5  C   UNL     1       1.821  -0.945  -0.239  0.00  0.00    +0.291 C 
ATOM      6  C   UNL     1       0.372  -0.783  -0.488  0.00  0.00    +0.105 C 
ATOM      7  C   UNL     1      -0.365  -1.896  -0.323  0.00  0.00    +0.142 C 
ATOM      8  C   UNL     1       1.671  -3.130   0.274  0.00  0.00    +0.178 C 
ATOM      9  C   UNL     1       0.832  -5.023   0.616  0.00  0.00    +0.230 C 
ENDROOT
BRANCH   7  10
ATOM     10  N   UNL     1      -1.717  -1.952  -0.504  0.00  0.00    -0.299 N 
ATOM     11  H   UNL     1      -2.074  -2.819  -0.804  0.00  0.00    +0.153 HD
BRANCH  10  12
ATOM     12  C   UNL     1      -2.661  -0.935  -0.320  0.00  0.00    +0.049 C 
ATOM     13  C   UNL     1      -3.831  -0.906  -1.089  0.00  0.00    +0.016 C 
ATOM     14  C   UNL     1      -2.446   0.066   0.636  0.00  0.00    +0.016 C 
ATOM     15  C   UNL     1      -4.549   1.101   0.049  0.00  0.00    +0.122 C 
ATOM     16  C   UNL     1      -4.771   0.108  -0.905  0.00  0.00    +0.021 C 
ATOM     17  C   UNL     1      -3.386   1.080   0.820  0.00  0.00    +0.021 C 
BRANCH  15  18
ATOM     18  S   UNL     1      -5.726   2.370   0.279  0.00  0.00    +0.057 S 
ATOM     19  O   UNL     1      -7.022   1.881  -0.169  0.00  0.00    -0.153 OA
ATOM     20  O   UNL     1      -5.579   2.898   1.628  0.00  0.00    -0.153 OA
BRANCH  18  21
ATOM     21  N   UNL     1      -5.163   3.540  -0.832  0.00  0.00    -0.203 NA
ATOM     22  H   UNL     1      -5.773   4.357  -0.802  0.00  0.00    +0.144 HD
ATOM     23  H   UNL     1      -5.168   3.146  -1.772  0.00  0.00    +0.144 HD
ENDBRANCH  18  21
ENDBRANCH  15  18
ENDBRANCH  10  12
ENDBRANCH   7  10
BRANCH   5  24
ATOM     24  O   UNL     1       2.493   0.188  -0.419  0.00  0.00    -0.451 OA
BRANCH  24  25
ATOM     25  C   UNL     1       3.888   0.104  -0.197  0.00  0.00    +0.208 C 
BRANCH  25  26
ATOM     26  C   UNL     1       4.501   1.482  -0.441  0.00  0.00    +0.044 C 
ATOM     27  C   UNL     1       3.886   2.523   0.505  0.00  0.00    +0.004 C 
ATOM     28  C   UNL     1       6.026   1.433  -0.282  0.00  0.00    +0.004 C 
ATOM     29  C   UNL     1       4.520   3.900   0.316  0.00  0.00    +0.000 C 
ATOM     30  C   UNL     1       6.657   2.812  -0.469  0.00  0.00    +0.000 C 
ATOM     31  C   UNL     1       6.037   3.845   0.466  0.00  0.00    +0.000 C 
ENDBRANCH  25  26
ENDBRANCH  24  25
ENDBRANCH   5  24
TORSDOF 7
