REMARK  Name = 445651
REMARK  13 active torsions:
REMARK  status: ('A' for Active; 'I' for Inactive)
REMARK    1  A    between atoms: N_1  and  C_3
REMARK    2  A    between atoms: N_1  and  C_11
REMARK    3  A    between atoms: N_1  and  C_21
REMARK    4  A    between atoms: C_3  and  C_4
REMARK    5  A    between atoms: C_4  and  C_5
REMARK    6  A    between atoms: C_5  and  C_6
REMARK    7  A    between atoms: C_6  and  C_8
REMARK    8  A    between atoms: C_8  and  O_9
REMARK    9  A    between atoms: C_11  and  C_12
REMARK   10  A    between atoms: C_17  and  N_20
REMARK   11  A    between atoms: C_21  and  P_22
REMARK   12  A    between atoms: P_22  and  O_24
REMARK   13  A    between atoms: P_22  and  O_26
REMARK                            x       y       z     vdW  Elec       q    Type
REMARK                         _______ _______ _______ _____ _____    ______ ____
ROOT
ATOM      1  N   UNL     1      -1.294   1.345  -0.865  0.00  0.00    +0.398 N 
ATOM      2  H   UNL     1      -1.222   0.690  -0.086  0.00  0.00    -0.078 HD
ENDROOT
BRANCH   1   3
ATOM      3  C   UNL     1      -1.340   0.602  -2.118  0.00  0.00    -0.076 C 
BRANCH   3   4
ATOM      4  C   UNL     1      -2.179  -0.671  -1.998  0.00  0.00    -0.022 C 
BRANCH   4   5
ATOM      5  C   UNL     1      -1.668  -1.626  -0.912  0.00  0.00    +0.009 C 
BRANCH   5   6
ATOM      6  C   UNL     1      -2.507  -2.897  -0.813  0.00  0.00    +0.109 C 
BRANCH   6   8
ATOM      7  O   UNL     1      -1.133  -3.537   1.069  0.00  0.00    -0.250 OA
ATOM      8  C   UNL     1      -2.047  -3.806   0.300  0.00  0.00    +0.314 C 
BRANCH   8   9
ATOM      9  O   UNL     1      -2.762  -4.957   0.362  0.00  0.00    -0.480 OA
ATOM     10  H   UNL     1      -3.452  -5.114  -0.251  0.00  0.00    +0.295 HD
ENDBRANCH   8   9
ENDBRANCH   6   8
ENDBRANCH   5   6
ENDBRANCH   4   5
ENDBRANCH   3   4
ENDBRANCH   1   3
BRANCH   1  11
ATOM     11  C   UNL     1      -0.113   2.217  -0.854  0.00  0.00    -0.049 C 
BRANCH  11  12
ATOM     12  C   UNL     1       1.139   1.460  -0.498  0.00  0.00    -0.043 C 
ATOM     13  C   UNL     1       1.131   0.560   0.568  0.00  0.00    -0.005 C 
ATOM     14  C   UNL     1       2.307   1.658  -1.235  0.00  0.00    -0.005 C 
ATOM     15  C   UNL     1       2.290  -0.142   0.896  0.00  0.00    +0.024 C 
ATOM     16  C   UNL     1       3.466   0.956  -0.906  0.00  0.00    +0.024 C 
ATOM     17  C   UNL     1       3.458   0.056   0.159  0.00  0.00    +0.143 C 
BRANCH  17  20
ATOM     18  O   UNL     1       4.609  -1.466   1.454  0.00  0.00    -0.126 OA
ATOM     19  O   UNL     1       5.677  -0.468  -0.183  0.00  0.00    -0.126 OA
ATOM     20  N   UNL     1       4.638  -0.660   0.493  0.00  0.00    +0.058 N 
ENDBRANCH  17  20
ENDBRANCH  11  12
ENDBRANCH   1  11
BRANCH   1  21
ATOM     21  C   UNL     1      -2.526   2.117  -0.679  0.00  0.00    +0.042 C 
BRANCH  21  22
ATOM     22  P   UNL     1      -2.639   2.327   1.091  0.00  0.00    +0.316 P 
ATOM     23  O   UNL     1      -1.505   3.049   1.754  0.00  0.00    -0.260 OA
BRANCH  22  24
ATOM     24  O   UNL     1      -4.077   3.050   1.265  0.00  0.00    -0.325 OA
ATOM     25  H   UNL     1      -4.244   3.215   2.206  0.00  0.00    +0.220 HD
ENDBRANCH  22  24
BRANCH  22  26
ATOM     26  O   UNL     1      -2.923   0.835   1.648  0.00  0.00    -0.325 OA
ATOM     27  H   UNL     1      -2.999   0.860   2.615  0.00  0.00    +0.220 HD
ENDBRANCH  22  26
ENDBRANCH  21  22
ENDBRANCH   1  21
TORSDOF 13
