REMARK  Name = 1708
REMARK  7 active torsions:
REMARK  status: ('A' for Active; 'I' for Inactive)
REMARK    1  A    between atoms: C_1  and  N_13
REMARK    2  A    between atoms: C_2  and  N_8
REMARK    3  A    between atoms: C_4  and  C_22
REMARK    4  A    between atoms: C_14  and  C_16
REMARK    5  A    between atoms: C_16  and  C_17
REMARK    6  A    between atoms: C_16  and  C_19
REMARK    7  A    between atoms: C_22  and  O_23
REMARK                            x       y       z     vdW  Elec       q    Type
REMARK                         _______ _______ _______ _____ _____    ______ ____
ROOT
ATOM      1  C   UNL     1      -0.284   0.027   0.003  0.00  0.00    +0.064 C 
ATOM      2  C   UNL     1      -0.892  -1.219  -0.006  0.00  0.00    +0.064 C 
ATOM      3  C   UNL     1      -1.035   1.193   0.008  0.00  0.00    +0.022 C 
ATOM      4  C   UNL     1      -2.428   1.110   0.003  0.00  0.00    +0.077 C 
ATOM      5  C   UNL     1      -2.284  -1.302  -0.010  0.00  0.00    +0.016 C 
ATOM      6  C   UNL     1      -3.052  -0.137  -0.006  0.00  0.00    +0.008 C 
ENDROOT
BRANCH   2   8
ATOM      7  O   UNL     1      -1.781  -4.095  -0.028  0.00  0.00    -0.275 OA
ATOM      8  N   UNL     1      -0.144  -2.400  -0.010  0.00  0.00    -0.283 N 
ATOM      9  C   UNL     1      -0.614  -3.718  -0.019  0.00  0.00    +0.227 C 
ATOM     10  C   UNL     1       0.519  -4.714  -0.021  0.00  0.00    +0.095 C 
ATOM     11  H   UNL     1       0.835  -2.291  -0.007  0.00  0.00    +0.155 HD
ENDBRANCH   2   8
BRANCH   1  13
ATOM     12  O   UNL     1       1.470   2.457   0.038  0.00  0.00    -0.275 OA
ATOM     13  N   UNL     1       1.127   0.137   0.008  0.00  0.00    -0.283 N 
ATOM     14  C   UNL     1       1.888   1.303   0.017  0.00  0.00    +0.226 C 
ATOM     15  H   UNL     1       1.629  -0.710   0.005  0.00  0.00    +0.155 HD
BRANCH  14  16
ATOM     16  C   UNL     1       3.392   0.992   0.019  0.00  0.00    +0.077 C 
BRANCH  16  17
ATOM     17  C   UNL     1       3.790   0.283  -1.292  0.00  0.00    +0.009 C 
ATOM     18  C   UNL     1       3.559   1.103  -2.555  0.00  0.00    +0.001 C 
ENDBRANCH  16  17
BRANCH  16  19
ATOM     19  C   UNL     1       3.820   0.188   1.260  0.00  0.00    +0.009 C 
ATOM     20  C   UNL     1       3.528   0.929   2.560  0.00  0.00    +0.001 C 
ENDBRANCH  16  19
ENDBRANCH  14  16
ENDBRANCH   1  13
BRANCH   4  22
ATOM     21  O   UNL     1      -2.783   3.476   0.017  0.00  0.00    -0.245 OA
ATOM     22  C   UNL     1      -3.229   2.324   0.009  0.00  0.00    +0.338 C 
BRANCH  22  23
ATOM     23  O   UNL     1      -4.565   2.065   0.004  0.00  0.00    -0.477 OA
ATOM     24  H   UNL     1      -4.871   1.179  -0.002  0.00  0.00    +0.295 HD
ENDBRANCH  22  23
ENDBRANCH   4  22
TORSDOF 7
