REMARK  Name = 6102821
REMARK  5 active torsions:
REMARK  status: ('A' for Active; 'I' for Inactive)
REMARK    1  A    between atoms: N_2  and  S_20
REMARK    2  A    between atoms: C_5  and  C_13
REMARK    3  A    between atoms: C_10  and  O_31
REMARK    4  A    between atoms: C_17  and  O_18
REMARK    5  A    between atoms: S_20  and  C_25
REMARK                            x       y       z     vdW  Elec       q    Type
REMARK                         _______ _______ _______ _____ _____    ______ ____
ROOT
ATOM      1  O   UNL     1      -0.254  -0.175   1.189  0.00  0.00    -0.413 OA
ATOM      2  N   UNL     1      -2.448   0.149   2.277  0.00  0.00    -0.158 N 
ATOM      3  N   UNL     1      -1.635  -1.961   1.394  0.00  0.00    -0.350 NA
ATOM      4  C   UNL     1       0.373  -1.257   0.640  0.00  0.00    +0.175 C 
ATOM      5  C   UNL     1       1.631  -1.297   0.052  0.00  0.00    +0.024 C 
ATOM      6  C   UNL     1      -0.474  -2.348   0.768  0.00  0.00    +0.173 C 
ATOM      7  C   UNL     1      -1.446  -0.678   1.615  0.00  0.00    +0.364 C 
ATOM      8  C   UNL     1       2.034  -2.546  -0.433  0.00  0.00    +0.093 C 
ATOM      9  C   UNL     1      -0.056  -3.593   0.276  0.00  0.00    +0.068 C 
ATOM     10  C   UNL     1       1.209  -3.672  -0.324  0.00  0.00    +0.123 C 
ATOM     11  H   UNL     1      -2.976  -0.178   3.040  0.00  0.00    +0.179 HD
ENDROOT
BRANCH   5  13
ATOM     12  N   UNL     1       4.150   1.305   0.933  0.00  0.00    -0.210 NA
ATOM     13  C   UNL     1       2.454  -0.119  -0.045  0.00  0.00    +0.019 C 
ATOM     14  C   UNL     1       2.379   0.724  -1.150  0.00  0.00    +0.006 C 
ATOM     15  C   UNL     1       3.350   0.216   0.961  0.00  0.00    +0.102 C 
ATOM     16  C   UNL     1       3.187   1.855  -1.215  0.00  0.00    +0.058 C 
ATOM     17  C   UNL     1       4.048   2.098  -0.157  0.00  0.00    +0.225 C 
BRANCH  17  18
ATOM     18  O   UNL     1       4.855   3.204  -0.198  0.00  0.00    -0.456 OA
ATOM     19  C   UNL     1       5.720   3.408   0.913  0.00  0.00    +0.254 C 
ENDBRANCH  17  18
ENDBRANCH   5  13
BRANCH   2  20
ATOM     20  S   UNL     1      -2.650   1.738   1.639  0.00  0.00    +0.078 S 
ATOM     21  O   UNL     1      -1.416   2.483   1.805  0.00  0.00    -0.150 OA
ATOM     22  O   UNL     1      -3.911   2.294   2.091  0.00  0.00    -0.150 OA
BRANCH  20  25
ATOM     23 CL   UNL     1      -5.277   0.281   0.442  0.00  0.00    -0.081 Cl
ATOM     24 CL   UNL     1      -0.621   1.958  -3.354  0.00  0.00    -0.082 Cl
ATOM     25  C   UNL     1      -2.834   1.387  -0.086  0.00  0.00    +0.137 C 
ATOM     26  C   UNL     1      -3.969   0.761  -0.578  0.00  0.00    +0.077 C 
ATOM     27  C   UNL     1      -1.797   1.761  -0.928  0.00  0.00    +0.032 C 
ATOM     28  C   UNL     1      -1.899   1.502  -2.295  0.00  0.00    +0.059 C 
ATOM     29  C   UNL     1      -4.070   0.502  -1.945  0.00  0.00    +0.014 C 
ATOM     30  C   UNL     1      -3.035   0.873  -2.804  0.00  0.00    +0.012 C 
ENDBRANCH  20  25
ENDBRANCH   2  20
BRANCH  10  31
ATOM     31  O   UNL     1       1.642  -4.871  -0.810  0.00  0.00    -0.475 OA
ATOM     32  C   UNL     1       0.760  -5.982  -0.672  0.00  0.00    +0.252 C 
ENDBRANCH  10  31
TORSDOF 5
