REMARK  Name = 54727980
REMARK  5 active torsions:
REMARK  status: ('A' for Active; 'I' for Inactive)
REMARK    1  A    between atoms: C_2  and  C_9
REMARK    2  A    between atoms: C_3  and  N_16
REMARK    3  A    between atoms: C_17  and  C_19
REMARK    4  A    between atoms: C_19  and  C_25
REMARK    5  A    between atoms: C_20  and  O_22
REMARK                            x       y       z     vdW  Elec       q    Type
REMARK                         _______ _______ _______ _____ _____    ______ ____
ROOT
ATOM      1 CL   UNL     1      -2.444   1.878  -2.002  0.00  0.00    -0.082 Cl
ATOM      2  C   UNL     1      -2.077   0.145   0.085  0.00  0.00    +0.011 C 
ATOM      3  C   UNL     1       0.701   0.308  -0.114  0.00  0.00    +0.051 C 
ATOM      4  C   UNL     1      -1.494   0.954  -0.890  0.00  0.00    +0.059 C 
ATOM      5  C   UNL     1      -1.271  -0.582   0.961  0.00  0.00    +0.002 C 
ATOM      6  C   UNL     1      -0.105   1.035  -0.990  0.00  0.00    +0.026 C 
ATOM      7  C   UNL     1       0.118  -0.501   0.861  0.00  0.00    +0.015 C 
ENDROOT
BRANCH   2   9
ATOM      8 CL   UNL     1      -3.490  -2.074  -1.525  0.00  0.00    -0.082 Cl
ATOM      9  C   UNL     1      -3.516   0.031   0.224  0.00  0.00    +0.011 C 
ATOM     10  C   UNL     1      -4.247  -0.939  -0.462  0.00  0.00    +0.058 C 
ATOM     11  C   UNL     1      -4.169   0.926   1.072  0.00  0.00    +0.001 C 
ATOM     12  C   UNL     1      -5.630  -1.015  -0.299  0.00  0.00    +0.011 C 
ATOM     13  C   UNL     1      -5.553   0.850   1.235  0.00  0.00    +0.000 C 
ATOM     14  C   UNL     1      -6.283  -0.121   0.549  0.00  0.00    +0.001 C 
ENDBRANCH   2   9
BRANCH   3  16
ATOM     15  O   UNL     1       2.838  -1.063   1.477  0.00  0.00    -0.269 OA
ATOM     16  N   UNL     1       2.112   0.390  -0.215  0.00  0.00    -0.280 N 
ATOM     17  C   UNL     1       3.053  -0.278   0.559  0.00  0.00    +0.262 C 
ATOM     18  H   UNL     1       2.465   0.988  -0.912  0.00  0.00    +0.155 HD
BRANCH  17  19
ATOM     19  C   UNL     1       4.466   0.060   0.161  0.00  0.00    +0.151 C 
ATOM     20  C   UNL     1       5.283  -0.935  -0.242  0.00  0.00    +0.126 C 
ATOM     21  C   UNL     1       6.721  -0.768  -0.654  0.00  0.00    +0.072 C 
BRANCH  20  22
ATOM     22  O   UNL     1       4.826  -2.241  -0.330  0.00  0.00    -0.509 OA
ATOM     23  H   UNL     1       3.942  -2.445  -0.094  0.00  0.00    +0.292 HD
ENDBRANCH  20  22
BRANCH  19  25
ATOM     24  N   UNL     1       5.253   2.522   0.302  0.00  0.00    -0.191 NA
ATOM     25  C   UNL     1       4.906   1.417   0.236  0.00  0.00    +0.108 C 
ENDBRANCH  19  25
ENDBRANCH  17  19
ENDBRANCH   3  16
TORSDOF 5
