REMARK  Name = 447219
REMARK  7 active torsions:
REMARK  status: ('A' for Active; 'I' for Inactive)
REMARK    1  A    between atoms: N_2  and  C_11
REMARK    2  A    between atoms: N_3  and  C_24
REMARK    3  A    between atoms: C_11  and  C_14
REMARK    4  A    between atoms: N_13  and  C_16
REMARK    5  A    between atoms: C_16  and  C_19
REMARK    6  A    between atoms: C_24  and  C_27
REMARK    7  A    between atoms: C_27  and  C_29
REMARK                            x       y       z     vdW  Elec       q    Type
REMARK                         _______ _______ _______ _____ _____    ______ ____
ROOT
ATOM      1  O   UNL     1      -0.383   2.103   0.971  0.00  0.00    -0.267 OA
ATOM      2  N   UNL     1       0.992   1.287  -0.742  0.00  0.00    -0.246 N 
ATOM      3  N   UNL     1      -2.551   0.736   0.145  0.00  0.00    -0.310 N 
ATOM      4  N   UNL     1      -1.264  -0.141  -1.607  0.00  0.00    -0.224 NA
ATOM      5  C   UNL     1       1.050   0.466  -1.859  0.00  0.00    +0.052 C 
ATOM      6  C   UNL     1      -1.375   0.614  -0.553  0.00  0.00    +0.183 C 
ATOM      7  C   UNL     1      -0.197   1.417  -0.026  0.00  0.00    +0.284 C 
ATOM      8  C   UNL     1      -0.053  -0.197  -2.235  0.00  0.00    +0.111 C 
ATOM      9  C   UNL     1       2.335   0.332  -2.624  0.00  0.00    +0.049 C 
ATOM     10  H   UNL     1      -2.576   1.322   0.935  0.00  0.00    +0.149 HD
ENDROOT
BRANCH   2  11
ATOM     11  C   UNL     1       2.180   2.018  -0.315  0.00  0.00    +0.183 C 
BRANCH  11  14
ATOM     12  O   UNL     1       2.450   0.391   1.450  0.00  0.00    -0.273 OA
ATOM     13  N   UNL     1       4.331   1.438   0.576  0.00  0.00    -0.298 N 
ATOM     14  C   UNL     1       2.972   1.174   0.660  0.00  0.00    +0.243 C 
ATOM     15  H   UNL     1       4.640   2.087  -0.097  0.00  0.00    +0.150 HD
BRANCH  13  16
ATOM     16  C   UNL     1       5.316   0.810   1.427  0.00  0.00    +0.138 C 
BRANCH  16  19
ATOM     17  F   UNL     1       7.599   0.824  -0.236  0.00  0.00    -0.203 F 
ATOM     18  N   UNL     1       5.227  -1.585   1.093  0.00  0.00    -0.244 NA
ATOM     19  C   UNL     1       5.877  -0.439   0.809  0.00  0.00    +0.106 C 
ATOM     20  C   UNL     1       6.998  -0.347   0.007  0.00  0.00    +0.155 C 
ATOM     21  C   UNL     1       7.490  -1.524  -0.547  0.00  0.00    +0.033 C 
ATOM     22  C   UNL     1       5.734  -2.708   0.536  0.00  0.00    +0.099 C 
ATOM     23  C   UNL     1       6.852  -2.731  -0.282  0.00  0.00    +0.023 C 
ENDBRANCH  16  19
ENDBRANCH  13  16
ENDBRANCH  11  14
ENDBRANCH   2  11
BRANCH   3  24
ATOM     24  C   UNL     1      -3.739   0.040  -0.237  0.00  0.00    +0.162 C 
BRANCH  24  27
ATOM     25  F   UNL     1      -5.048   1.703   0.778  0.00  0.00    -0.196 F 
ATOM     26  F   UNL     1      -4.448   0.014   2.001  0.00  0.00    -0.196 F 
ATOM     27  C   UNL     1      -4.868   0.349   0.745  0.00  0.00    +0.316 C 
BRANCH  27  29
ATOM     28  N   UNL     1      -6.959   0.279  -0.473  0.00  0.00    -0.243 NA
ATOM     29  C   UNL     1      -6.133  -0.379   0.358  0.00  0.00    +0.121 C 
ATOM     30  C   UNL     1      -6.353  -1.639   0.869  0.00  0.00    +0.020 C 
ATOM     31  C   UNL     1      -7.527  -2.282   0.493  0.00  0.00    +0.003 C 
ATOM     32  C   UNL     1      -8.090  -0.378  -0.816  0.00  0.00    +0.099 C 
ATOM     33  C   UNL     1      -8.418  -1.647  -0.365  0.00  0.00    +0.021 C 
ENDBRANCH  27  29
ENDBRANCH  24  27
ENDBRANCH   3  24
TORSDOF 7
