REMARK  Name = 834826
REMARK  5 active torsions:
REMARK  status: ('A' for Active; 'I' for Inactive)
REMARK    1  A    between atoms: C_1  and  C_8
REMARK    2  A    between atoms: C_2  and  O_16
REMARK    3  A    between atoms: C_10  and  C_13
REMARK    4  A    between atoms: C_13  and  O_14
REMARK    5  A    between atoms: O_16  and  C_20
REMARK                            x       y       z     vdW  Elec       q    Type
REMARK                         _______ _______ _______ _____ _____    ______ ____
ROOT
ATOM      1  C   UNL     1      -1.044   1.208  -0.037  0.00  0.00    +0.069 C 
ATOM      2  C   UNL     1      -1.623  -0.014  -0.378  0.00  0.00    +0.150 C 
ATOM      3  C   UNL     1      -1.847   2.267   0.386  0.00  0.00    +0.006 C 
ATOM      4  C   UNL     1      -3.006  -0.177  -0.297  0.00  0.00    +0.037 C 
ATOM      5  C   UNL     1      -3.230   2.104   0.468  0.00  0.00    +0.000 C 
ATOM      6  C   UNL     1      -3.810   0.882   0.126  0.00  0.00    +0.003 C 
ENDROOT
BRANCH   1   8
ATOM      7  O   UNL     1       1.125   0.281   0.099  0.00  0.00    -0.447 OA
ATOM      8  C   UNL     1       0.386   1.397  -0.114  0.00  0.00    +0.149 C 
ATOM      9  C   UNL     1       1.186   2.481  -0.362  0.00  0.00    +0.041 C 
ATOM     10  C   UNL     1       2.426   0.659  -0.014  0.00  0.00    +0.220 C 
ATOM     11  C   UNL     1       2.516   2.002  -0.296  0.00  0.00    +0.047 C 
BRANCH  10  13
ATOM     12  O   UNL     1       3.236  -1.549   0.426  0.00  0.00    -0.242 OA
ATOM     13  C   UNL     1       3.426  -0.337   0.168  0.00  0.00    +0.373 C 
BRANCH  13  14
ATOM     14  O   UNL     1       4.708   0.138   0.034  0.00  0.00    -0.475 OA
ATOM     15  H   UNL     1       4.855   1.043  -0.158  0.00  0.00    +0.296 HD
ENDBRANCH  13  14
ENDBRANCH  10  13
ENDBRANCH   1   8
BRANCH   2  16
ATOM     16  O   UNL     1      -0.862  -1.066  -0.796  0.00  0.00    -0.404 OA
BRANCH  16  20
ATOM     17  F   UNL     1      -1.147  -2.012   1.266  0.00  0.00    -0.133 F 
ATOM     18  F   UNL     1       0.300  -2.877  -0.123  0.00  0.00    -0.133 F 
ATOM     19  F   UNL     1      -1.836  -3.116  -0.520  0.00  0.00    -0.133 F 
ATOM     20  C   UNL     1      -0.904  -2.268  -0.037  0.00  0.00    +0.575 C 
ENDBRANCH  16  20
ENDBRANCH   2  16
TORSDOF 5
