REMARK  Name = 10174090
REMARK  8 active torsions:
REMARK  status: ('A' for Active; 'I' for Inactive)
REMARK    1  A    between atoms: C_1  and  C_5
REMARK    2  A    between atoms: C_1  and  O_20
REMARK    3  A    between atoms: C_1  and  C_22
REMARK    4  A    between atoms: N_4  and  C_7
REMARK    5  A    between atoms: C_9  and  C_16
REMARK    6  A    between atoms: C_11  and  N_19
REMARK    7  A    between atoms: C_22  and  O_23
REMARK    8  A    between atoms: O_23  and  C_29
REMARK                            x       y       z     vdW  Elec       q    Type
REMARK                         _______ _______ _______ _____ _____    ______ ____
ROOT
ATOM      1  C   UNL     1       1.266   2.896  -0.713  0.00  0.00    +0.197 C 
ATOM      2  C   UNL     1       0.870   3.518  -2.054  0.00  0.00    +0.043 C 
ENDROOT
BRANCH   1   5
ATOM      3  O   UNL     1      -0.180   3.009   1.213  0.00  0.00    -0.272 OA
ATOM      4  N   UNL     1      -0.792   1.591  -0.547  0.00  0.00    -0.282 N 
ATOM      5  C   UNL     1       0.018   2.514   0.106  0.00  0.00    +0.254 C 
ATOM      6  H   UNL     1      -0.486   1.295  -1.434  0.00  0.00    +0.155 HD
BRANCH   4   7
ATOM      7  C   UNL     1      -2.007   1.029  -0.085  0.00  0.00    +0.050 C 
ATOM      8  C   UNL     1      -2.678   0.119  -0.884  0.00  0.00    +0.020 C 
ATOM      9  C   UNL     1      -3.876  -0.434  -0.430  0.00  0.00    +0.095 C 
ATOM     10  C   UNL     1      -2.497   1.402   1.155  0.00  0.00    +0.016 C 
ATOM     11  C   UNL     1      -4.384  -0.069   0.817  0.00  0.00    +0.147 C 
ATOM     12  C   UNL     1      -3.694   0.849   1.609  0.00  0.00    +0.025 C 
BRANCH   9  16
ATOM     13  F   UNL     1      -3.953  -1.655  -2.486  0.00  0.00    -0.166 F 
ATOM     14  F   UNL     1      -4.750  -2.641  -0.727  0.00  0.00    -0.166 F 
ATOM     15  F   UNL     1      -5.844  -0.998  -1.639  0.00  0.00    -0.166 F 
ATOM     16  C   UNL     1      -4.590  -1.415  -1.304  0.00  0.00    +0.420 C 
ENDBRANCH   9  16
BRANCH  11  19
ATOM     17  O   UNL     1      -6.024  -0.264   2.426  0.00  0.00    -0.126 OA
ATOM     18  O   UNL     1      -6.220  -1.444   0.585  0.00  0.00    -0.126 OA
ATOM     19  N   UNL     1      -5.603  -0.620   1.300  0.00  0.00    +0.058 N 
ENDBRANCH  11  19
ENDBRANCH   4   7
ENDBRANCH   1   5
BRANCH   1  20
ATOM     20  O   UNL     1       1.982   3.883   0.030  0.00  0.00    -0.375 OA
ATOM     21  H   UNL     1       2.245   3.514   0.888  0.00  0.00    +0.211 HD
ENDBRANCH   1  20
BRANCH   1  22
ATOM     22  C   UNL     1       2.216   1.711  -0.926  0.00  0.00    +0.241 C 
BRANCH  22  23
ATOM     23  O   UNL     1       2.647   1.173   0.320  0.00  0.00    -0.468 OA
BRANCH  23  29
ATOM     24  F   UNL     1       1.508  -1.332   0.348  0.00  0.00    -0.198 F 
ATOM     25  F   UNL     1       5.386   1.396   0.183  0.00  0.00    -0.198 F 
ATOM     26  F   UNL     1       6.949  -0.839   0.077  0.00  0.00    -0.199 F 
ATOM     27  F   UNL     1       3.078  -3.562   0.242  0.00  0.00    -0.199 F 
ATOM     28  F   UNL     1       5.798  -3.319   0.106  0.00  0.00    -0.199 F 
ATOM     29  C   UNL     1       3.433   0.053   0.267  0.00  0.00    +0.198 A 
ATOM     30  C   UNL     1       2.841  -1.206   0.282  0.00  0.00    +0.206 A 
ATOM     31  C   UNL     1       4.816   0.183   0.198  0.00  0.00    +0.206 A 
ATOM     32  C   UNL     1       5.616  -0.958   0.144  0.00  0.00    +0.200 A 
ATOM     33  C   UNL     1       3.641  -2.347   0.228  0.00  0.00    +0.200 A 
ATOM     34  C   UNL     1       5.029  -2.223   0.159  0.00  0.00    +0.199 A 
ENDBRANCH  23  29
ENDBRANCH  22  23
ENDBRANCH   1  22
TORSDOF 8
