REMARK  Name = 11229234
REMARK  3 active torsions:
REMARK  status: ('A' for Active; 'I' for Inactive)
REMARK    1  A    between atoms: C_2  and  C_12
REMARK    2  A    between atoms: C_3  and  C_7
REMARK    3  A    between atoms: C_12  and  N_13
REMARK                            x       y       z     vdW  Elec       q    Type
REMARK                         _______ _______ _______ _____ _____    ______ ____
ROOT
ATOM      1  O   UNL     1       0.807   0.179   0.309  0.00  0.00    -0.460 OA
ATOM      2  C   UNL     1       1.970  -0.524   0.313  0.00  0.00    +0.102 C 
ATOM      3  C   UNL     1      -0.180  -0.715   0.049  0.00  0.00    +0.146 C 
ATOM      4  C   UNL     1       1.732  -1.855   0.060  0.00  0.00    +0.034 C 
ATOM      5  C   UNL     1       0.333  -1.978  -0.113  0.00  0.00    +0.040 C 
ENDROOT
BRANCH   3   7
ATOM      6  N   UNL     1      -2.952   1.768   0.177  0.00  0.00    -0.242 NA
ATOM      7  C   UNL     1      -1.510  -0.164   0.000  0.00  0.00    +0.054 C 
ATOM      8  C   UNL     1      -2.612  -0.972  -0.257  0.00  0.00    +0.006 C 
ATOM      9  C   UNL     1      -1.731   1.188   0.208  0.00  0.00    +0.102 C 
ATOM     10  C   UNL     1      -3.884  -0.411  -0.297  0.00  0.00    +0.021 C 
ATOM     11  C   UNL     1      -3.999   0.952  -0.076  0.00  0.00    +0.099 C 
ENDBRANCH   3   7
BRANCH   2  12
ATOM     12  C   UNL     1       3.195   0.246   0.576  0.00  0.00    -0.015 C 
BRANCH  12  13
ATOM     13  N   UNL     1       3.808   0.769  -0.629  0.00  0.00    +0.387 N 
ATOM     14  C   UNL     1       5.023   1.516  -0.321  0.00  0.00    -0.105 C 
ATOM     15  H   UNL     1       3.146   1.388  -1.097  0.00  0.00    -0.084 HD
ATOM     16  H   UNL     1       4.055  -0.016  -1.231  0.00  0.00    -0.084 HD
ENDBRANCH  12  13
ENDBRANCH   2  12
TORSDOF 3
