22489160
  -OEChem-10051721023D

 56 57  0     1  0  0  0  0  0999 V2000
    4.9211   -2.5827   -0.2172 S   0  0  0  0  0  0  0  0  0  0  0  0
   -4.9800   -2.5692    0.2152 S   0  0  0  0  0  0  0  0  0  0  0  0
    4.7470   -3.4637   -1.3552 O   0  0  0  0  0  0  0  0  0  0  0  0
    3.9516   -2.5637    0.8614 O   0  0  0  0  0  0  0  0  0  0  0  0
   -4.8256   -3.4488    1.3573 O   0  0  0  0  0  0  0  0  0  0  0  0
   -4.0183   -2.5869   -0.8703 O   0  0  0  0  0  0  0  0  0  0  0  0
    5.1568   -0.9825   -0.7506 N   0  0  0  0  0  0  0  0  0  0  0  0
   -5.1613   -0.9593    0.7408 N   0  0  0  0  0  0  0  0  0  0  0  0
    5.0464    1.4079   -0.1140 C   0  0  2  0  0  0  0  0  0  0  0  0
   -4.9884    1.4332    0.1152 C   0  0  2  0  0  0  0  0  0  0  0  0
    3.5265    1.4109   -0.0791 C   0  0  0  0  0  0  0  0  0  0  0  0
   -3.4975    1.4303    0.0813 C   0  0  0  0  0  0  0  0  0  0  0  0
    5.6445    0.0313    0.2147 C   0  0  0  0  0  0  0  0  0  0  0  0
   -5.6238    0.0638   -0.2269 C   0  0  0  0  0  0  0  0  0  0  0  0
    0.7375    1.4182   -0.0157 C   0  0  0  0  0  0  0  0  0  0  0  0
   -0.7087    1.4230    0.0173 C   0  0  0  0  0  0  0  0  0  0  0  0
    5.6170    2.4682    0.8344 C   0  0  0  0  0  0  0  0  0  0  0  0
   -5.5860    2.4988   -0.8278 C   0  0  0  0  0  0  0  0  0  0  0  0
    2.8549    1.0955    1.1021 C   0  0  0  0  0  0  0  0  0  0  0  0
   -2.7728    1.7374    1.2328 C   0  0  0  0  0  0  0  0  0  0  0  0
    2.8035    1.7300   -1.2285 C   0  0  0  0  0  0  0  0  0  0  0  0
   -2.8279    1.1195   -1.1022 C   0  0  0  0  0  0  0  0  0  0  0  0
    1.4605    1.0990    1.1338 C   0  0  0  0  0  0  0  0  0  0  0  0
   -1.3784    1.7338    1.2008 C   0  0  0  0  0  0  0  0  0  0  0  0
    1.4092    1.7336   -1.1969 C   0  0  0  0  0  0  0  0  0  0  0  0
   -1.4335    1.1160   -1.1342 C   0  0  0  0  0  0  0  0  0  0  0  0
    6.5100   -2.9267    0.5033 C   0  0  0  0  0  0  0  0  0  0  0  0
   -6.5842   -2.8670   -0.4918 C   0  0  0  0  0  0  0  0  0  0  0  0
    5.3685    1.6762   -1.1297 H   0  0  0  0  0  0  0  0  0  0  0  0
   -5.3174    1.6958    1.1307 H   0  0  0  0  0  0  0  0  0  0  0  0
    6.7376    0.0720    0.1450 H   0  0  0  0  0  0  0  0  0  0  0  0
    5.3837   -0.2613    1.2373 H   0  0  0  0  0  0  0  0  0  0  0  0
   -6.7157    0.1302   -0.1604 H   0  0  0  0  0  0  0  0  0  0  0  0
   -5.3622   -0.2313   -1.2486 H   0  0  0  0  0  0  0  0  0  0  0  0
    5.3947    2.2461    1.8838 H   0  0  0  0  0  0  0  0  0  0  0  0
    5.2055    3.4584    0.6081 H   0  0  0  0  0  0  0  0  0  0  0  0
    6.7061    2.5285    0.7322 H   0  0  0  0  0  0  0  0  0  0  0  0
   -5.3756    2.2795   -1.8802 H   0  0  0  0  0  0  0  0  0  0  0  0
   -5.1758    3.4897   -0.6033 H   0  0  0  0  0  0  0  0  0  0  0  0
   -6.6736    2.5518   -0.7084 H   0  0  0  0  0  0  0  0  0  0  0  0
    3.3981    0.8378    2.0069 H   0  0  0  0  0  0  0  0  0  0  0  0
   -3.2793    1.9877    2.1613 H   0  0  0  0  0  0  0  0  0  0  0  0
    3.3127    1.9842   -2.1543 H   0  0  0  0  0  0  0  0  0  0  0  0
   -3.3722    0.8710   -2.0091 H   0  0  0  0  0  0  0  0  0  0  0  0
    0.9812    0.8170    2.0673 H   0  0  0  0  0  0  0  0  0  0  0  0
   -0.8570    2.0088    2.1136 H   0  0  0  0  0  0  0  0  0  0  0  0
    0.8896    2.0181   -2.1077 H   0  0  0  0  0  0  0  0  0  0  0  0
   -0.9560    0.8377   -2.0697 H   0  0  0  0  0  0  0  0  0  0  0  0
    5.5377   -0.8612   -1.6982 H   0  0  0  0  0  0  0  0  0  0  0  0
   -5.5341   -0.8219    1.6895 H   0  0  0  0  0  0  0  0  0  0  0  0
    6.6724   -2.2871    1.3715 H   0  0  0  0  0  0  0  0  0  0  0  0
    7.2828   -2.7737   -0.2525 H   0  0  0  0  0  0  0  0  0  0  0  0
    6.5114   -3.9725    0.8198 H   0  0  0  0  0  0  0  0  0  0  0  0
   -6.7326   -2.2267   -1.3621 H   0  0  0  0  0  0  0  0  0  0  0  0
   -7.3461   -2.6860    0.2687 H   0  0  0  0  0  0  0  0  0  0  0  0
   -6.6206   -3.9139   -0.8029 H   0  0  0  0  0  0  0  0  0  0  0  0
  1  3  2  0  0  0  0
  1  4  2  0  0  0  0
  1  7  1  0  0  0  0
  1 27  1  0  0  0  0
  2  5  2  0  0  0  0
  2  6  2  0  0  0  0
  2  8  1  0  0  0  0
  2 28  1  0  0  0  0
  7 13  1  0  0  0  0
  7 49  1  0  0  0  0
  8 14  1  0  0  0  0
  8 50  1  0  0  0  0
  9 11  1  0  0  0  0
  9 13  1  0  0  0  0
  9 17  1  0  0  0  0
  9 29  1  0  0  0  0
 10 12  1  0  0  0  0
 10 14  1  0  0  0  0
 10 18  1  0  0  0  0
 10 30  1  0  0  0  0
 11 19  2  0  0  0  0
 11 21  1  0  0  0  0
 12 20  2  0  0  0  0
 12 22  1  0  0  0  0
 13 31  1  0  0  0  0
 13 32  1  0  0  0  0
 14 33  1  0  0  0  0
 14 34  1  0  0  0  0
 15 16  1  0  0  0  0
 15 23  2  0  0  0  0
 15 25  1  0  0  0  0
 16 24  2  0  0  0  0
 16 26  1  0  0  0  0
 17 35  1  0  0  0  0
 17 36  1  0  0  0  0
 17 37  1  0  0  0  0
 18 38  1  0  0  0  0
 18 39  1  0  0  0  0
 18 40  1  0  0  0  0
 19 23  1  0  0  0  0
 19 41  1  0  0  0  0
 20 24  1  0  0  0  0
 20 42  1  0  0  0  0
 21 25  2  0  0  0  0
 21 43  1  0  0  0  0
 22 26  2  0  0  0  0
 22 44  1  0  0  0  0
 23 45  1  0  0  0  0
 24 46  1  0  0  0  0
 25 47  1  0  0  0  0
 26 48  1  0  0  0  0
 27 51  1  0  0  0  0
 27 52  1  0  0  0  0
 27 53  1  0  0  0  0
 28 54  1  0  0  0  0
 28 55  1  0  0  0  0
 28 56  1  0  0  0  0
M  END
> <DATABASE_ID>
DB07455

> <DATABASE_NAME>
drugbank

> <ORIGINAL_SOURCE>
PUBCHEM

> <ORIGINAL_SOURCE_URL>
https://pubchem.ncbi.nlm.nih.gov/rest/pug/compound/inchikey/ZESUARCHWPARIF-HOTGVXAUSA-N/SDF?record_type=3d

> <SMILES>
[H][C@](C)(CNS(C)(=O)=O)C1=CC=C(C=C1)C1=CC=C(C=C1)[C@@]([H])(C)CNS(C)(=O)=O

> <INCHI_IDENTIFIER>
InChI=1S/C20H28N2O4S2/c1-15(13-21-27(3,23)24)17-5-9-19(10-6-17)20-11-7-18(8-12-20)16(2)14-22-28(4,25)26/h5-12,15-16,21-22H,13-14H2,1-4H3/t15-,16-/m0/s1

> <INCHI_KEY>
ZESUARCHWPARIF-HOTGVXAUSA-N

> <FORMULA>
C20H28N2O4S2

> <MOLECULAR_WEIGHT>
424.577

> <EXACT_MASS>
424.149048774

> <JCHEM_ACCEPTOR_COUNT>
4

> <JCHEM_AVERAGE_POLARIZABILITY>
45.99376052298922

> <JCHEM_BIOAVAILABILITY>
1

> <JCHEM_DONOR_COUNT>
2

> <JCHEM_FORMAL_CHARGE>
0

> <JCHEM_GHOSE_FILTER>
1

> <JCHEM_IUPAC>
N-[(2R)-2-(4-{4-[(2R)-1-methanesulfonamidopropan-2-yl]phenyl}phenyl)propyl]methanesulfonamide

> <ALOGPS_LOGP>
2.46

> <JCHEM_LOGP>
1.8070469426666664

> <ALOGPS_LOGS>
-5.31

> <JCHEM_MDDR_LIKE_RULE>
0

> <JCHEM_NUMBER_OF_RINGS>
2

> <JCHEM_PHYSIOLOGICAL_CHARGE>
0

> <JCHEM_PKA>
11.547847039070934

> <JCHEM_PKA_STRONGEST_ACIDIC>
10.94578693173945

> <JCHEM_POLAR_SURFACE_AREA>
92.34

> <JCHEM_REFRACTIVITY>
112.6838

> <JCHEM_ROTATABLE_BOND_COUNT>
7

> <JCHEM_RULE_OF_FIVE>
1

> <ALOGPS_SOLUBILITY>
2.10e-03 g/l

> <JCHEM_TRADITIONAL_IUPAC>
N-[(2R)-2-(4-{4-[(2R)-1-methanesulfonamidopropan-2-yl]phenyl}phenyl)propyl]methanesulfonamide

> <JCHEM_VEBER_RULE>
0

> <DRUGBANK_ID>
DB07455

> <DRUG_GROUPS>
experimental

> <GENERIC_NAME>
N,N'-[biphenyl-4,4'-diyldi(2R)propane-2,1-diyl]dimethanesulfonamide

$$$$
