REMARK  Name = 5288016
REMARK  4 active torsions:
REMARK  status: ('A' for Active; 'I' for Inactive)
REMARK    1  A    between atoms: N_1  and  C_26
REMARK    2  A    between atoms: C_8  and  C_13
REMARK    3  A    between atoms: C_11  and  C_25
REMARK    4  A    between atoms: C_16  and  N_19
REMARK                            x       y       z     vdW  Elec       q    Type
REMARK                         _______ _______ _______ _____ _____    ______ ____
ROOT
ATOM      1  N   UNL     1       1.022  -1.972   0.764  0.00  0.00    -0.314 N 
ATOM      2  N   UNL     1       2.749  -0.423   0.373  0.00  0.00    -0.326 NA
ATOM      3  N   UNL     1       2.245   1.859  -0.212  0.00  0.00    -0.341 NA
ATOM      4  C   UNL     1       1.424  -0.655   0.428  0.00  0.00    +0.180 C 
ATOM      5  C   UNL     1       0.455   0.312   0.178  0.00  0.00    +0.143 C 
ATOM      6  C   UNL     1       0.928   1.593  -0.148  0.00  0.00    +0.133 C 
ATOM      7  C   UNL     1      -0.924   0.045   0.242  0.00  0.00    -0.011 C 
ATOM      8  C   UNL     1      -1.841   1.058  -0.019  0.00  0.00    -0.003 C 
ATOM      9  C   UNL     1      -0.012   2.588  -0.404  0.00  0.00    +0.029 C 
ATOM     10  C   UNL     1      -1.385   2.330  -0.343  0.00  0.00    +0.002 C 
ATOM     11  C   UNL     1       3.083   0.837   0.052  0.00  0.00    +0.212 C 
ATOM     12  H   UNL     1       0.473  -2.108   1.570  0.00  0.00    +0.149 HD
ENDROOT
BRANCH   8  13
ATOM     13  C   UNL     1      -3.261   0.790   0.045  0.00  0.00    +0.001 C 
ATOM     14  C   UNL     1      -3.746  -0.484  -0.255  0.00  0.00    +0.014 C 
ATOM     15  C   UNL     1      -4.147   1.805   0.406  0.00  0.00    +0.000 C 
ATOM     16  C   UNL     1      -5.115  -0.742  -0.193  0.00  0.00    +0.042 C 
ATOM     17  C   UNL     1      -5.517   1.547   0.468  0.00  0.00    +0.001 C 
ATOM     18  C   UNL     1      -6.000   0.273   0.169  0.00  0.00    +0.014 C 
BRANCH  16  19
ATOM     19  N   UNL     1      -5.604  -2.030  -0.496  0.00  0.00    -0.357 N 
ATOM     20  H   UNL     1      -4.980  -2.746  -0.751  0.00  0.00    +0.142 HD
ATOM     21  H   UNL     1      -6.571  -2.212  -0.452  0.00  0.00    +0.142 HD
ENDBRANCH  16  19
ENDBRANCH   8  13
BRANCH  11  25
ATOM     22  F   UNL     1       4.815   2.437  -0.352  0.00  0.00    -0.156 F 
ATOM     23  F   UNL     1       5.205   0.925   1.153  0.00  0.00    -0.156 F 
ATOM     24  F   UNL     1       5.190   0.381  -0.953  0.00  0.00    -0.156 F 
ATOM     25  C   UNL     1       4.542   1.140  -0.022  0.00  0.00    +0.500 C 
ENDBRANCH  11  25
BRANCH   1  26
ATOM     26  C   UNL     1       1.381  -3.110  -0.019  0.00  0.00    +0.056 C 
ATOM     27  C   UNL     1       2.707  -3.671   0.505  0.00  0.00    +0.020 C 
ATOM     28  C   UNL     1       0.278  -4.164   0.108  0.00  0.00    +0.020 C 
ATOM     29  C   UNL     1       1.530  -2.669  -1.477  0.00  0.00    +0.020 C 
ENDBRANCH   1  26
TORSDOF 4
