REMARK  Name = 11175137
REMARK  3 active torsions:
REMARK  status: ('A' for Active; 'I' for Inactive)
REMARK    1  A    between atoms: C_2  and  C_10
REMARK    2  A    between atoms: C_2  and  C_16
REMARK    3  A    between atoms: C_21  and  C_24
REMARK                            x       y       z     vdW  Elec       q    Type
REMARK                         _______ _______ _______ _____ _____    ______ ____
ROOT
ATOM      1  N   UNL     1       1.622  -4.070   0.082  0.00  0.00    +0.384 N 
ATOM      2  C   UNL     1       1.529  -1.053   0.001  0.00  0.00    +0.034 C 
ATOM      3  C   UNL     1       1.812  -1.993  -1.223  0.00  0.00    -0.015 C 
ATOM      4  C   UNL     1       1.958  -1.905   1.248  0.00  0.00    -0.015 C 
ATOM      5  C   UNL     1       1.145  -3.365  -1.102  0.00  0.00    -0.081 C 
ATOM      6  C   UNL     1       1.344  -3.310   1.295  0.00  0.00    -0.081 C 
ATOM      7  H   UNL     1       2.629  -4.212   0.001  0.00  0.00    -0.085 HD
ATOM      8  H   UNL     1       1.137  -4.966   0.143  0.00  0.00    -0.085 HD
ENDROOT
BRANCH   2  10
ATOM      9 CL   UNL     1       4.935   3.961  -0.083  0.00  0.00    -0.082 Cl
ATOM     10  C   UNL     1       2.403   0.231  -0.020  0.00  0.00    -0.019 C 
ATOM     11  C   UNL     1       2.796   0.824   1.178  0.00  0.00    -0.003 C 
ATOM     12  C   UNL     1       2.790   0.788  -1.238  0.00  0.00    -0.003 C 
ATOM     13  C   UNL     1       3.580   1.978   1.158  0.00  0.00    +0.011 C 
ATOM     14  C   UNL     1       3.574   1.941  -1.257  0.00  0.00    +0.011 C 
ATOM     15  C   UNL     1       3.969   2.537  -0.059  0.00  0.00    +0.058 C 
ENDBRANCH   2  10
BRANCH   2  16
ATOM     16  C   UNL     1       0.042  -0.612  -0.003  0.00  0.00    -0.019 C 
ATOM     17  C   UNL     1      -0.626  -0.432  -1.212  0.00  0.00    -0.004 C 
ATOM     18  C   UNL     1      -0.621  -0.395   1.204  0.00  0.00    -0.004 C 
ATOM     19  C   UNL     1      -1.964  -0.035  -1.215  0.00  0.00    -0.000 C 
ATOM     20  C   UNL     1      -1.958   0.002   1.200  0.00  0.00    -0.000 C 
ATOM     21  C   UNL     1      -2.629   0.182  -0.009  0.00  0.00    +0.003 C 
BRANCH  21  24
ATOM     22  N   UNL     1      -5.879   1.527   0.590  0.00  0.00    -0.235 N 
ATOM     23  N   UNL     1      -6.196   0.905  -0.558  0.00  0.00    -0.180 NA
ATOM     24  C   UNL     1      -4.005   0.592  -0.012  0.00  0.00    +0.037 C 
ATOM     25  C   UNL     1      -4.576   1.370   0.961  0.00  0.00    +0.081 C 
ATOM     26  C   UNL     1      -5.044   0.334  -0.922  0.00  0.00    +0.119 C 
ATOM     27  H   UNL     1      -6.528   2.049   1.115  0.00  0.00    +0.174 HD
ENDBRANCH  21  24
ENDBRANCH   2  16
TORSDOF 3
