REMARK  Name = 13373715
REMARK  1 active torsions:
REMARK  status: ('A' for Active; 'I' for Inactive)
REMARK    1  A    between atoms: C_6  and  C_16
REMARK                            x       y       z     vdW  Elec       q    Type
REMARK                         _______ _______ _______ _____ _____    ______ ____
ROOT
ATOM      1  N   UNL     1      -2.029  -0.147   1.200  0.00  0.00    -0.260 NA
ATOM      2  N   UNL     1      -2.029  -0.146  -1.200  0.00  0.00    -0.260 NA
ATOM      3  N   UNL     1      -4.074  -0.515   0.000  0.00  0.00    -0.247 NA
ATOM      4  N   UNL     1      -4.043  -0.511   2.345  0.00  0.00    -0.282 N 
ATOM      5  N   UNL     1      -4.043  -0.509  -2.345  0.00  0.00    -0.282 N 
ATOM      6  C   UNL     1      -1.447  -0.042   0.000  0.00  0.00    +0.163 C 
ATOM      7  C   UNL     1      -3.348  -0.385   1.122  0.00  0.00    +0.217 C 
ATOM      8  C   UNL     1      -3.348  -0.384  -1.122  0.00  0.00    +0.217 C 
ATOM      9  H   UNL     1      -3.558  -0.424   3.197  0.00  0.00    +0.156 HD
ATOM     10  H   UNL     1      -5.012  -0.685   2.345  0.00  0.00    +0.156 HD
ATOM     11  H   UNL     1      -3.558  -0.422  -3.197  0.00  0.00    +0.156 HD
ATOM     12  H   UNL     1      -5.011  -0.684  -2.345  0.00  0.00    +0.156 HD
ENDROOT
BRANCH   6  16
ATOM     13 BR   UNL     1      -0.619   3.047   0.001  0.00  0.00    -0.048 Br
ATOM     14  C   UNL     1       2.236  -0.698   0.000  0.00  0.00    +0.001 C 
ATOM     15  C   UNL     1       2.761   0.616   0.000  0.00  0.00    +0.001 C 
ATOM     16  C   UNL     1      -0.019   0.216   0.000  0.00  0.00    +0.093 C 
ATOM     17  C   UNL     1       0.843  -0.881   0.000  0.00  0.00    +0.013 C 
ATOM     18  C   UNL     1       1.878   1.708   0.000  0.00  0.00    +0.007 C 
ATOM     19  C   UNL     1       0.497   1.508   0.000  0.00  0.00    +0.046 C 
ATOM     20  C   UNL     1       3.118  -1.791   0.000  0.00  0.00    +0.000 C 
ATOM     21  C   UNL     1       4.153   0.799   0.000  0.00  0.00    +0.000 C 
ATOM     22  C   UNL     1       4.499  -1.590  -0.001  0.00  0.00    +0.000 C 
ATOM     23  C   UNL     1       5.015  -0.298   0.000  0.00  0.00    +0.000 C 
ENDBRANCH   6  16
TORSDOF 1
