REMARK  Name = 255
REMARK  7 active torsions:
REMARK  status: ('A' for Active; 'I' for Inactive)
REMARK    1  A    between atoms: P_1  and  O_3
REMARK    2  A    between atoms: P_1  and  O_5
REMARK    3  A    between atoms: P_1  and  O_15
REMARK    4  A    between atoms: O_5  and  C_6
REMARK    5  A    between atoms: C_9  and  N_14
REMARK    6  A    between atoms: O_15  and  C_16
REMARK    7  A    between atoms: C_19  and  N_24
REMARK                            x       y       z     vdW  Elec       q    Type
REMARK                         _______ _______ _______ _____ _____    ______ ____
ROOT
ATOM      1  P   UNL     1      -0.021   1.887   0.249  0.00  0.00    +0.588 P 
ATOM      2  O   UNL     1      -0.027   1.856   1.750  0.00  0.00    -0.205 OA
ENDROOT
BRANCH   1   3
ATOM      3  O   UNL     1      -0.820   3.137  -0.401  0.00  0.00    -0.283 OA
ATOM      4  H   UNL     1      -0.770   3.085  -1.368  0.00  0.00    +0.224 HD
ENDBRANCH   1   3
BRANCH   1   5
ATOM      5  O   UNL     1      -0.672   0.600  -0.488  0.00  0.00    -0.394 OA
BRANCH   5   6
ATOM      6  C   UNL     1      -1.960   0.181  -0.346  0.00  0.00    +0.150 C 
ATOM      7  C   UNL     1      -2.832   0.878   0.489  0.00  0.00    +0.039 C 
ATOM      8  C   UNL     1      -2.406  -0.945  -1.038  0.00  0.00    +0.039 C 
ATOM      9  C   UNL     1      -4.598  -0.677  -0.058  0.00  0.00    +0.143 C 
ATOM     10  C   UNL     1      -4.152   0.449   0.633  0.00  0.00    +0.027 C 
ATOM     11  C   UNL     1      -3.726  -1.374  -0.893  0.00  0.00    +0.027 C 
BRANCH   9  14
ATOM     12  O   UNL     1      -6.709  -0.475   0.849  0.00  0.00    -0.126 OA
ATOM     13  O   UNL     1      -6.323  -2.130  -0.540  0.00  0.00    -0.126 OA
ATOM     14  N   UNL     1      -5.941  -1.115   0.091  0.00  0.00    +0.058 N 
ENDBRANCH   9  14
ENDBRANCH   5   6
ENDBRANCH   1   5
BRANCH   1  15
ATOM     15  O   UNL     1       1.438   2.023  -0.431  0.00  0.00    -0.394 OA
BRANCH  15  16
ATOM     16  C   UNL     1       2.463   1.130  -0.271  0.00  0.00    +0.150 C 
ATOM     17  C   UNL     1       2.280   0.006   0.527  0.00  0.00    +0.039 C 
ATOM     18  C   UNL     1       3.678   1.353  -0.910  0.00  0.00    +0.039 C 
ATOM     19  C   UNL     1       4.545  -0.687   0.051  0.00  0.00    +0.143 C 
ATOM     20  C   UNL     1       3.324  -0.905   0.689  0.00  0.00    +0.027 C 
ATOM     21  C   UNL     1       4.722   0.442  -0.748  0.00  0.00    +0.027 C 
BRANCH  19  24
ATOM     22  O   UNL     1       5.429  -2.621   0.943  0.00  0.00    -0.126 OA
ATOM     23  O   UNL     1       6.699  -1.399  -0.365  0.00  0.00    -0.126 OA
ATOM     24  N   UNL     1       5.608  -1.613   0.218  0.00  0.00    +0.058 N 
ENDBRANCH  19  24
ENDBRANCH  15  16
ENDBRANCH   1  15
TORSDOF 7
