REMARK  Name = 25134251
REMARK  6 active torsions:
REMARK  status: ('A' for Active; 'I' for Inactive)
REMARK    1  A    between atoms: N_1  and  C_18
REMARK    2  A    between atoms: C_3  and  C_12
REMARK    3  A    between atoms: N_11  and  C_14
REMARK    4  A    between atoms: C_14  and  C_15
REMARK    5  A    between atoms: C_15  and  S_16
REMARK    6  A    between atoms: C_18  and  C_20
REMARK                            x       y       z     vdW  Elec       q    Type
REMARK                         _______ _______ _______ _____ _____    ______ ____
ROOT
ATOM      1  N   UNL     1       0.182  -1.942  -0.102  0.00  0.00    +0.387 N 
ATOM      2  N   UNL     1      -2.650  -2.253   0.397  0.00  0.00    +0.388 N 
ATOM      3  C   UNL     1      -1.991  -0.953   0.518  0.00  0.00    -0.005 C 
ATOM      4  C   UNL     1      -0.764  -0.857  -0.395  0.00  0.00    -0.090 C 
ATOM      5  C   UNL     1      -0.476  -3.247  -0.240  0.00  0.00    -0.101 C 
ATOM      6  C   UNL     1      -1.704  -3.335   0.669  0.00  0.00    -0.104 C 
ATOM      7  H   UNL     1       0.498  -1.841   0.863  0.00  0.00    -0.079 HD
ATOM      8  H   UNL     1      -3.015  -2.357  -0.550  0.00  0.00    -0.084 HD
ATOM      9  H   UNL     1      -3.410  -2.301   1.075  0.00  0.00    -0.084 HD
ENDROOT
BRANCH   3  12
ATOM     10  O   UNL     1      -3.870  -0.165  -0.721  0.00  0.00    -0.277 OA
ATOM     11  N   UNL     1      -2.829   1.271   0.787  0.00  0.00    -0.305 N 
ATOM     12  C   UNL     1      -3.007   0.071   0.120  0.00  0.00    +0.200 C 
ATOM     13  H   UNL     1      -2.098   1.339   1.443  0.00  0.00    +0.149 HD
BRANCH  11  14
ATOM     14  C   UNL     1      -3.665   2.429   0.566  0.00  0.00    +0.101 C 
BRANCH  14  15
ATOM     15  C   UNL     1      -3.141   3.340  -0.536  0.00  0.00    +0.075 C 
BRANCH  15  16
ATOM     16  S   UNL     1      -1.496   4.012  -0.150  0.00  0.00    -0.166 S 
ATOM     17  H   UNL     1      -1.083   4.814  -1.167  0.00  0.00    +0.102 HD
ENDBRANCH  15  16
ENDBRANCH  14  15
ENDBRANCH  11  14
ENDBRANCH   3  12
BRANCH   1  18
ATOM     18  C   UNL     1       1.355  -1.856  -0.969  0.00  0.00    -0.050 C 
BRANCH  18  20
ATOM     19  F   UNL     1       4.919   2.175   0.704  0.00  0.00    -0.204 F 
ATOM     20  C   UNL     1       2.307  -0.779  -0.522  0.00  0.00    -0.043 C 
ATOM     21  C   UNL     1       2.173   0.519  -1.015  0.00  0.00    -0.004 C 
ATOM     22  C   UNL     1       3.324  -1.080   0.385  0.00  0.00    -0.004 C 
ATOM     23  C   UNL     1       3.055   1.517  -0.601  0.00  0.00    +0.029 C 
ATOM     24  C   UNL     1       4.206  -0.082   0.799  0.00  0.00    +0.029 C 
ATOM     25  C   UNL     1       4.072   1.216   0.306  0.00  0.00    +0.140 C 
ENDBRANCH  18  20
ENDBRANCH   1  18
TORSDOF 6
