REMARK  Name = 9549257
REMARK  5 active torsions:
REMARK  status: ('A' for Active; 'I' for Inactive)
REMARK    1  A    between atoms: N_1  and  C_5
REMARK    2  A    between atoms: N_1  and  S_19
REMARK    3  A    between atoms: N_4  and  C_9
REMARK    4  A    between atoms: C_9  and  C_14
REMARK    5  A    between atoms: S_19  and  C_24
REMARK                            x       y       z     vdW  Elec       q    Type
REMARK                         _______ _______ _______ _____ _____    ______ ____
ROOT
ATOM      1  N   UNL     1      -0.336  -1.204   0.742  0.00  0.00    -0.171 NA
ATOM      2  H   UNL     1      -1.167  -1.747   0.974  0.00  0.00    +0.149 HD
ENDROOT
BRANCH   1   5
ATOM      3  O   UNL     1      -2.537  -0.257   2.604  0.00  0.00    -0.273 OA
ATOM      4  N   UNL     1      -2.139   1.396   0.977  0.00  0.00    -0.272 N 
ATOM      5  C   UNL     1      -0.357   0.009   1.577  0.00  0.00    +0.153 C 
ATOM      6  C   UNL     1       0.174   1.218   0.815  0.00  0.00    +0.048 C 
ATOM      7  C   UNL     1      -1.047   1.787   0.116  0.00  0.00    +0.096 C 
ATOM      8  C   UNL     1      -1.807   0.342   1.827  0.00  0.00    +0.242 C 
BRANCH   4   9
ATOM      9  C   UNL     1      -3.462   1.959   0.821  0.00  0.00    +0.152 C 
ATOM     10  C   UNL     1      -3.487   3.447   1.078  0.00  0.00    +0.031 C 
BRANCH   9  14
ATOM     11  O   UNL     1      -4.835  -2.290  -1.536  0.00  0.00    -0.350 OA
ATOM     12  O   UNL     1      -3.619   2.503  -1.481  0.00  0.00    -0.273 OA
ATOM     13  N   UNL     1      -4.402   0.409  -0.854  0.00  0.00    -0.273 N 
ATOM     14  C   UNL     1      -3.833   1.657  -0.609  0.00  0.00    +0.244 C 
ATOM     15  C   UNL     1      -4.785  -0.567   0.171  0.00  0.00    +0.126 C 
ATOM     16  C   UNL     1      -4.786   0.034  -2.215  0.00  0.00    +0.126 C 
ATOM     17  C   UNL     1      -4.335  -1.964  -0.236  0.00  0.00    +0.164 C 
ATOM     18  C   UNL     1      -4.331  -1.385  -2.522  0.00  0.00    +0.164 C 
ENDBRANCH   9  14
ENDBRANCH   4   9
ENDBRANCH   1   5
BRANCH   1  19
ATOM     19  S   UNL     1       1.013  -2.255   0.878  0.00  0.00    +0.073 S 
ATOM     20  O   UNL     1       0.910  -3.297  -0.124  0.00  0.00    -0.152 OA
ATOM     21  O   UNL     1       1.228  -2.572   2.277  0.00  0.00    -0.152 OA
BRANCH  19  24
ATOM     22 CL   UNL     1       7.569   2.176  -0.392  0.00  0.00    -0.082 Cl
ATOM     23  N   UNL     1       2.874  -1.270  -0.860  0.00  0.00    -0.297 N 
ATOM     24  C   UNL     1       2.467  -1.306   0.433  0.00  0.00    +0.173 C 
ATOM     25  C   UNL     1       3.305  -0.556   1.197  0.00  0.00    +0.036 C 
ATOM     26  C   UNL     1       4.294  -0.022   0.325  0.00  0.00    +0.017 C 
ATOM     27  C   UNL     1       4.000  -0.485  -0.960  0.00  0.00    +0.049 C 
ATOM     28  C   UNL     1       5.413   0.814   0.505  0.00  0.00    +0.013 C 
ATOM     29  C   UNL     1       4.774  -0.153  -2.077  0.00  0.00    +0.015 C 
ATOM     30  C   UNL     1       6.197   1.154  -0.603  0.00  0.00    +0.058 C 
ATOM     31  C   UNL     1       5.880   0.678  -1.874  0.00  0.00    +0.013 C 
ATOM     32  H   UNL     1       2.434  -1.733  -1.609  0.00  0.00    +0.153 HD
ENDBRANCH  19  24
ENDBRANCH   1  19
TORSDOF 5
