REMARK  Name = 10379137
REMARK  6 active torsions:
REMARK  status: ('A' for Active; 'I' for Inactive)
REMARK    1  A    between atoms: C_2  and  C_8
REMARK    2  A    between atoms: C_3  and  C_16
REMARK    3  A    between atoms: C_8  and  C_9
REMARK    4  A    between atoms: C_9  and  C_10
REMARK    5  A    between atoms: C_17  and  C_20
REMARK    6  A    between atoms: N_19  and  O_22
REMARK                            x       y       z     vdW  Elec       q    Type
REMARK                         _______ _______ _______ _____ _____    ______ ____
ROOT
ATOM      1  N   UNL     1       1.578   2.210   0.122  0.00  0.00    -0.284 N 
ATOM      2  C   UNL     1      -0.297   1.098   0.015  0.00  0.00    +0.051 C 
ATOM      3  C   UNL     1       1.903   0.898  -0.105  0.00  0.00    +0.052 C 
ATOM      4  C   UNL     1       0.215   2.339   0.197  0.00  0.00    +0.068 C 
ATOM      5  C   UNL     1       0.731   0.179  -0.176  0.00  0.00    +0.019 C 
ATOM      6  C   UNL     1       2.499   3.318   0.266  0.00  0.00    +0.117 C 
ENDROOT
BRANCH   2   8
ATOM      7  O   UNL     1      -2.560   1.717   0.204  0.00  0.00    -0.291 OA
ATOM      8  C   UNL     1      -1.744   0.812   0.025  0.00  0.00    +0.179 C 
BRANCH   8   9
ATOM      9  C   UNL     1      -2.231  -0.624  -0.189  0.00  0.00    +0.095 C 
BRANCH   9  10
ATOM     10  C   UNL     1      -3.711  -0.781  -0.101  0.00  0.00    -0.014 C 
ATOM     11  C   UNL     1      -4.311  -1.064   1.127  0.00  0.00    -0.004 C 
ATOM     12  C   UNL     1      -4.496  -0.646  -1.246  0.00  0.00    -0.004 C 
ATOM     13  C   UNL     1      -5.696  -1.211   1.209  0.00  0.00    -0.000 C 
ATOM     14  C   UNL     1      -5.881  -0.793  -1.163  0.00  0.00    -0.000 C 
ATOM     15  C   UNL     1      -6.481  -1.075   0.064  0.00  0.00    -0.000 C 
ENDBRANCH   9  10
ENDBRANCH   8   9
ENDBRANCH   2   8
BRANCH   3  16
ATOM     16  C   UNL     1       3.254   0.526  -0.219  0.00  0.00    +0.020 C 
ATOM     17  C   UNL     1       3.742  -0.701   0.093  0.00  0.00    +0.061 C 
BRANCH  17  20
ATOM     18  O   UNL     1       6.004  -0.189  -0.480  0.00  0.00    -0.268 OA
ATOM     19  N   UNL     1       5.474  -2.308   0.276  0.00  0.00    -0.193 N 
ATOM     20  C   UNL     1       5.190  -1.013  -0.077  0.00  0.00    +0.268 C 
ATOM     21  H   UNL     1       4.779  -2.928   0.594  0.00  0.00    +0.183 HD
BRANCH  19  22
ATOM     22  O   UNL     1       6.816  -2.692   0.155  0.00  0.00    -0.295 OA
ATOM     23  H   UNL     1       6.913  -3.619   0.426  0.00  0.00    +0.241 HD
ENDBRANCH  19  22
ENDBRANCH  17  20
ENDBRANCH   3  16
TORSDOF 6
