REMARK  Name = 25113181
REMARK  3 active torsions:
REMARK  status: ('A' for Active; 'I' for Inactive)
REMARK    1  A    between atoms: C_14  and  C_19
REMARK    2  A    between atoms: C_17  and  C_30
REMARK    3  A    between atoms: C_22  and  O_25
REMARK                            x       y       z     vdW  Elec       q    Type
REMARK                         _______ _______ _______ _____ _____    ______ ____
ROOT
ATOM      1  N   UNL     1      -2.980  -1.095   0.050  0.00  0.00    -0.290 N 
ATOM      2  N   UNL     1      -5.746  -0.417  -0.175  0.00  0.00    +0.388 N 
ATOM      3  N   UNL     1      -0.742  -0.309  -0.046  0.00  0.00    -0.392 NA
ATOM      4  N   UNL     1       0.147  -2.924   0.259  0.00  0.00    -0.263 NA
ATOM      5  C   UNL     1      -3.466   0.194   0.558  0.00  0.00    +0.070 C 
ATOM      6  C   UNL     1      -3.808  -1.721  -0.985  0.00  0.00    +0.070 C 
ATOM      7  C   UNL     1      -4.944   0.098   0.942  0.00  0.00    -0.056 C 
ATOM      8  C   UNL     1      -5.276  -1.755  -0.552  0.00  0.00    -0.056 C 
ATOM      9  C   UNL     1      -1.602  -1.335   0.076  0.00  0.00    +0.184 C 
ATOM     10  C   UNL     1      -7.163  -0.453   0.184  0.00  0.00    -0.101 C 
ATOM     11  C   UNL     1       0.574  -0.587  -0.016  0.00  0.00    +0.131 C 
ATOM     12  C   UNL     1      -1.164  -2.624   0.227  0.00  0.00    +0.199 C 
ATOM     13  C   UNL     1       1.024  -1.911   0.139  0.00  0.00    +0.084 C 
ATOM     14  C   UNL     1       1.510   0.437  -0.138  0.00  0.00    +0.097 C 
ATOM     15  C   UNL     1       2.393  -2.163   0.165  0.00  0.00    +0.078 C 
ATOM     16  C   UNL     1       2.879   0.174  -0.110  0.00  0.00    -0.015 C 
ATOM     17  C   UNL     1       3.322  -1.131   0.043  0.00  0.00    +0.052 C 
ATOM     18  H   UNL     1      -5.637   0.208  -0.974  0.00  0.00    -0.080 HD
ENDROOT
BRANCH  14  19
ATOM     19  C   UNL     1       1.083   1.816  -0.298  0.00  0.00    -0.009 C 
ATOM     20  C   UNL     1       0.882   2.619   0.824  0.00  0.00    +0.033 C 
ATOM     21  C   UNL     1       0.876   2.337  -1.575  0.00  0.00    -0.003 C 
ATOM     22  C   UNL     1       0.473   3.943   0.669  0.00  0.00    +0.133 C 
ATOM     23  C   UNL     1       0.467   3.662  -1.730  0.00  0.00    +0.003 C 
ATOM     24  C   UNL     1       0.266   4.465  -0.608  0.00  0.00    +0.037 C 
BRANCH  22  25
ATOM     25  O   UNL     1       0.278   4.728   1.764  0.00  0.00    -0.506 OA
ATOM     26  H   UNL     1       0.417   4.379   2.622  0.00  0.00    +0.292 HD
ENDBRANCH  22  25
ENDBRANCH  14  19
BRANCH  17  30
ATOM     27  F   UNL     1       5.572  -0.322  -0.054  0.00  0.00    -0.166 F 
ATOM     28  F   UNL     1       5.193  -2.024   1.235  0.00  0.00    -0.166 F 
ATOM     29  F   UNL     1       5.169  -2.274  -0.925  0.00  0.00    -0.166 F 
ATOM     30  C   UNL     1       4.782  -1.429   0.076  0.00  0.00    +0.415 C 
ENDBRANCH  17  30
TORSDOF 3
