REMARK  Name = 46937093
REMARK  4 active torsions:
REMARK  status: ('A' for Active; 'I' for Inactive)
REMARK    1  A    between atoms: N_2  and  C_25
REMARK    2  A    between atoms: C_3  and  N_13
REMARK    3  A    between atoms: C_14  and  C_19
REMARK    4  A    between atoms: C_25  and  C_28
REMARK                            x       y       z     vdW  Elec       q    Type
REMARK                         _______ _______ _______ _____ _____    ______ ____
ROOT
ATOM      1  O   UNL     1       0.939  -2.002   0.417  0.00  0.00    -0.273 OA
ATOM      2  N   UNL     1       2.917  -0.776   0.502  0.00  0.00    -0.249 N 
ATOM      3  C   UNL     1       0.829   0.303  -0.258  0.00  0.00    +0.154 C 
ATOM      4  C   UNL     1       1.288   1.572   0.436  0.00  0.00    +0.057 C 
ATOM      5  C   UNL     1       2.783   1.671   0.365  0.00  0.00    -0.006 C 
ATOM      6  C   UNL     1       3.563   0.503   0.427  0.00  0.00    +0.050 C 
ATOM      7  C   UNL     1       1.537  -0.931   0.288  0.00  0.00    +0.248 C 
ATOM      8  C   UNL     1       3.397   2.931   0.324  0.00  0.00    -0.003 C 
ATOM      9  C   UNL     1       4.962   0.632   0.441  0.00  0.00    +0.015 C 
ATOM     10  C   UNL     1       4.785   3.039   0.325  0.00  0.00    -0.000 C 
ATOM     11  C   UNL     1       5.566   1.890   0.384  0.00  0.00    +0.001 C 
ENDROOT
BRANCH   3  13
ATOM     12  O   UNL     1      -1.274   1.239  -2.040  0.00  0.00    -0.268 OA
ATOM     13  N   UNL     1      -0.592   0.123  -0.109  0.00  0.00    -0.293 N 
ATOM     14  C   UNL     1      -1.515   0.609  -1.017  0.00  0.00    +0.272 C 
ATOM     15  H   UNL     1      -0.922  -0.370   0.676  0.00  0.00    +0.150 HD
BRANCH  14  19
ATOM     16 CL   UNL     1      -8.146   0.462   1.308  0.00  0.00    -0.098 Cl
ATOM     17  S   UNL     1      -5.679  -1.189   1.511  0.00  0.00    -0.062 S 
ATOM     18  N   UNL     1      -3.201  -0.426   0.519  0.00  0.00    -0.395 NA
ATOM     19  C   UNL     1      -2.905   0.292  -0.641  0.00  0.00    +0.167 C 
ATOM     20  C   UNL     1      -5.078   0.173  -0.677  0.00  0.00    +0.018 C 
ATOM     21  C   UNL     1      -3.959   0.674  -1.389  0.00  0.00    +0.093 C 
ATOM     22  C   UNL     1      -4.500  -0.489   0.483  0.00  0.00    +0.154 C 
ATOM     23  C   UNL     1      -6.405   0.113  -0.722  0.00  0.00    +0.000 C 
ATOM     24  C   UNL     1      -7.057  -0.620   0.419  0.00  0.00    +0.155 C 
ENDBRANCH  14  19
ENDBRANCH   3  13
BRANCH   2  25
ATOM     25  C   UNL     1       3.720  -1.954   0.821  0.00  0.00    +0.183 C 
BRANCH  25  28
ATOM     26  O   UNL     1       3.958  -2.358  -1.555  0.00  0.00    -0.273 OA
ATOM     27  N   UNL     1       5.636  -3.039  -0.139  0.00  0.00    -0.327 N 
ATOM     28  C   UNL     1       4.427  -2.442  -0.423  0.00  0.00    +0.240 C 
ATOM     29  H   UNL     1       6.191  -3.398  -0.868  0.00  0.00    +0.145 HD
ATOM     30  H   UNL     1       5.944  -3.107   0.794  0.00  0.00    +0.145 HD
ENDBRANCH  25  28
ENDBRANCH   2  25
TORSDOF 4
