REMARK  Name = 444704
REMARK  3 active torsions:
REMARK  status: ('A' for Active; 'I' for Inactive)
REMARK    1  A    between atoms: C_4  and  C_14
REMARK    2  A    between atoms: C_5  and  C_21
REMARK    3  A    between atoms: C_21  and  O_22
REMARK                            x       y       z     vdW  Elec       q    Type
REMARK                         _______ _______ _______ _____ _____    ______ ____
ROOT
ATOM      1  S   UNL     1      -0.344  -0.964   2.030  0.00  0.00    -0.113 S 
ATOM      2  O   UNL     1      -1.529   1.091  -2.155  0.00  0.00    -0.270 OA
ATOM      3  N   UNL     1      -0.703  -0.251  -0.395  0.00  0.00    -0.255 N 
ATOM      4  C   UNL     1       0.405  -0.188   0.571  0.00  0.00    +0.139 C 
ATOM      5  C   UNL     1      -1.671  -1.334  -0.248  0.00  0.00    +0.187 C 
ATOM      6  C   UNL     1       0.651   1.296   0.578  0.00  0.00    +0.012 C 
ATOM      7  C   UNL     1      -1.283  -2.145   0.993  0.00  0.00    +0.091 C 
ATOM      8  C   UNL     1      -0.812   0.875  -1.196  0.00  0.00    +0.250 C 
ATOM      9  C   UNL     1       0.029   1.885  -0.535  0.00  0.00    +0.052 C 
ATOM     10  C   UNL     1       1.415   2.074   1.430  0.00  0.00    -0.001 C 
ATOM     11  C   UNL     1       0.141   3.230  -0.832  0.00  0.00    +0.004 C 
ATOM     12  C   UNL     1       1.546   3.438   1.147  0.00  0.00    -0.000 C 
ATOM     13  C   UNL     1       0.919   4.009   0.025  0.00  0.00    +0.000 C 
ENDROOT
BRANCH   4  14
ATOM     14  C   UNL     1       1.655  -0.955   0.106  0.00  0.00    +0.007 C 
ATOM     15  C   UNL     1       2.602  -1.371   1.039  0.00  0.00    -0.002 C 
ATOM     16  C   UNL     1       1.836  -1.232  -1.248  0.00  0.00    -0.002 C 
ATOM     17  C   UNL     1       3.736  -2.066   0.618  0.00  0.00    -0.000 C 
ATOM     18  C   UNL     1       2.970  -1.927  -1.669  0.00  0.00    -0.000 C 
ATOM     19  C   UNL     1       3.920  -2.343  -0.737  0.00  0.00    -0.000 C 
ENDBRANCH   4  14
BRANCH   5  21
ATOM     20  O   UNL     1      -3.212   0.499   0.041  0.00  0.00    -0.248 OA
ATOM     21  C   UNL     1      -3.018  -0.708  -0.017  0.00  0.00    +0.336 C 
BRANCH  21  22
ATOM     22  O   UNL     1      -3.959  -1.686   0.114  0.00  0.00    -0.443 OA
ATOM     23  C   UNL     1      -5.295  -1.227   0.340  0.00  0.00    +0.256 C 
ENDBRANCH  21  22
ENDBRANCH   5  21
TORSDOF 3
