REMARK  Name = 444853
REMARK  9 active torsions:
REMARK  status: ('A' for Active; 'I' for Inactive)
REMARK    1  A    between atoms: C_5  and  O_31
REMARK    2  A    between atoms: C_6  and  C_13
REMARK    3  A    between atoms: C_7  and  O_11
REMARK    4  A    between atoms: C_8  and  C_15
REMARK    5  A    between atoms: C_16  and  C_17
REMARK    6  A    between atoms: C_18  and  C_19
REMARK    7  A    between atoms: C_20  and  C_23
REMARK    8  A    between atoms: C_25  and  O_29
REMARK    9  A    between atoms: O_31  and  C_33
REMARK                            x       y       z     vdW  Elec       q    Type
REMARK                         _______ _______ _______ _____ _____    ______ ____
ROOT
ATOM      1  O   UNL     1       5.273   1.179   0.834  0.00  0.00    -0.352 OA
ATOM      2  O   UNL     1       3.293   0.308  -1.260  0.00  0.00    -0.348 OA
ATOM      3  C   UNL     1       4.730   0.334  -1.303  0.00  0.00    +0.157 C 
ATOM      4  C   UNL     1       4.965  -0.240   0.927  0.00  0.00    +0.159 C 
ATOM      5  C   UNL     1       5.263  -0.820  -0.462  0.00  0.00    +0.222 C 
ATOM      6  C   UNL     1       5.340   1.534  -0.566  0.00  0.00    +0.143 C 
ATOM      7  C   UNL     1       3.443  -0.377   1.134  0.00  0.00    +0.170 C 
ATOM      8  C   UNL     1       2.670   0.364   0.029  0.00  0.00    +0.166 C 
ATOM      9  C   UNL     1       5.134   0.278  -2.771  0.00  0.00    +0.036 C 
ATOM     10  C   UNL     1       5.776  -0.840   2.067  0.00  0.00    +0.036 C 
ENDROOT
BRANCH   7  11
ATOM     11  O   UNL     1       3.057   0.144   2.406  0.00  0.00    -0.379 OA
ATOM     12  H   UNL     1       3.542  -0.321   3.106  0.00  0.00    +0.211 HD
ENDBRANCH   7  11
BRANCH   6  13
ATOM     13  C   UNL     1       4.730   2.901  -0.818  0.00  0.00    +0.032 C 
ATOM     14  C   UNL     1       5.455   3.992  -0.048  0.00  0.00    +0.003 C 
ENDBRANCH   6  13
BRANCH   8  15
ATOM     15  C   UNL     1       1.286  -0.190  -0.123  0.00  0.00    +0.005 C 
ATOM     16  C   UNL     1       0.111   0.439   0.039  0.00  0.00    -0.002 C 
BRANCH  16  17
ATOM     17  C   UNL     1      -1.208  -0.132  -0.116  0.00  0.00    -0.000 C 
ATOM     18  C   UNL     1      -2.333   0.578   0.068  0.00  0.00    +0.000 C 
BRANCH  18  19
ATOM     19  C   UNL     1      -3.656   0.014  -0.086  0.00  0.00    +0.003 C 
ATOM     20  C   UNL     1      -4.778   0.724   0.097  0.00  0.00    +0.037 C 
BRANCH  20  23
ATOM     21  O   UNL     1      -6.051  -1.200  -0.419  0.00  0.00    -0.421 OA
ATOM     22  O   UNL     1      -7.155  -3.116  -0.934  0.00  0.00    -0.244 OA
ATOM     23  C   UNL     1      -6.095   0.171  -0.055  0.00  0.00    +0.148 C 
ATOM     24  C   UNL     1      -7.263   0.822   0.113  0.00  0.00    +0.047 C 
ATOM     25  C   UNL     1      -8.486   0.064  -0.094  0.00  0.00    +0.144 C 
ATOM     26  C   UNL     1      -7.414   2.270   0.496  0.00  0.00    +0.037 C 
ATOM     27  C   UNL     1      -7.185  -1.931  -0.620  0.00  0.00    +0.349 C 
ATOM     28  C   UNL     1      -8.465  -1.228  -0.438  0.00  0.00    +0.119 C 
BRANCH  25  29
ATOM     29  O   UNL     1      -9.667   0.754   0.086  0.00  0.00    -0.471 OA
ATOM     30  C   UNL     1     -10.101   0.664   1.429  0.00  0.00    +0.252 C 
ENDBRANCH  25  29
ENDBRANCH  20  23
ENDBRANCH  18  19
ENDBRANCH  16  17
ENDBRANCH   8  15
BRANCH   5  31
ATOM     31  O   UNL     1       6.655  -1.006  -0.672  0.00  0.00    -0.447 OA
BRANCH  31  33
ATOM     32  O   UNL     1       6.727  -2.943   0.584  0.00  0.00    -0.250 OA
ATOM     33  C   UNL     1       7.258  -1.943   0.122  0.00  0.00    +0.318 C 
ATOM     34  C   UNL     1       8.691  -1.570   0.354  0.00  0.00    +0.121 C 
ENDBRANCH  31  33
ENDBRANCH   5  31
TORSDOF 9
