REMARK  Name = 25011728
REMARK  4 active torsions:
REMARK  status: ('A' for Active; 'I' for Inactive)
REMARK    1  A    between atoms: N_1  and  C_15
REMARK    2  A    between atoms: N_2  and  C_22
REMARK    3  A    between atoms: C_21  and  S_27
REMARK    4  A    between atoms: S_27  and  N_30
REMARK                            x       y       z     vdW  Elec       q    Type
REMARK                         _______ _______ _______ _____ _____    ______ ____
ROOT
ATOM      1  N   UNL     1      -2.513  -1.037  -0.767  0.00  0.00    -0.284 N 
ATOM      2  N   UNL     1       1.864  -2.583   0.100  0.00  0.00    -0.247 N 
ATOM      3  N   UNL     1      -0.303  -1.793  -0.329  0.00  0.00    -0.322 NA
ATOM      4  N   UNL     1       0.150  -4.156  -0.202  0.00  0.00    -0.170 NA
ATOM      5  C   UNL     1      -1.596  -2.091  -0.573  0.00  0.00    +0.198 C 
ATOM      6  C   UNL     1       0.503  -2.857  -0.156  0.00  0.00    +0.150 C 
ATOM      7  C   UNL     1      -2.085  -3.380  -0.645  0.00  0.00    +0.070 C 
ATOM      8  C   UNL     1      -1.157  -4.382  -0.450  0.00  0.00    +0.116 C 
ATOM      9  H   UNL     1      -3.260  -1.269  -1.365  0.00  0.00    +0.155 HD
ATOM     10  H   UNL     1       2.415  -3.390   0.220  0.00  0.00    +0.165 HD
ENDROOT
BRANCH   1  15
ATOM     11 CL   UNL     1      -3.841   1.038  -2.567  0.00  0.00    -0.081 Cl
ATOM     12  O   UNL     1      -1.444  -0.291   1.814  0.00  0.00    -0.433 OA
ATOM     13  O   UNL     1      -1.515   1.947   2.705  0.00  0.00    -0.435 OA
ATOM     14  C   UNL     1      -2.046   0.585   0.964  0.00  0.00    +0.191 C 
ATOM     15  C   UNL     1      -2.572   0.280  -0.274  0.00  0.00    +0.098 C 
ATOM     16  C   UNL     1      -2.087   1.863   1.473  0.00  0.00    +0.178 C 
ATOM     17  C   UNL     1      -3.155   1.318  -1.005  0.00  0.00    +0.074 C 
ATOM     18  C   UNL     1      -2.656   2.906   0.771  0.00  0.00    +0.041 C 
ATOM     19  C   UNL     1      -1.109   0.579   2.914  0.00  0.00    +0.429 C 
ATOM     20  C   UNL     1      -3.196   2.624  -0.485  0.00  0.00    +0.016 C 
ENDBRANCH   1  15
BRANCH   2  22
ATOM     21  C   UNL     1       2.903   0.939  -0.377  0.00  0.00    +0.123 C 
ATOM     22  C   UNL     1       2.587  -1.381   0.219  0.00  0.00    +0.059 C 
ATOM     23  C   UNL     1       2.185  -0.252  -0.494  0.00  0.00    +0.035 C 
ATOM     24  C   UNL     1       4.022   1.000   0.452  0.00  0.00    +0.020 C 
ATOM     25  C   UNL     1       3.707  -1.320   1.048  0.00  0.00    +0.015 C 
ATOM     26  C   UNL     1       4.424  -0.130   1.165  0.00  0.00    +0.003 C 
BRANCH  21  27
ATOM     27  S   UNL     1       2.401   2.353  -1.270  0.00  0.00    +0.057 S 
ATOM     28  O   UNL     1       3.557   3.220  -1.445  0.00  0.00    -0.153 OA
ATOM     29  O   UNL     1       1.639   1.919  -2.433  0.00  0.00    -0.153 OA
BRANCH  27  30
ATOM     30  N   UNL     1       1.331   3.080  -0.153  0.00  0.00    -0.203 NA
ATOM     31  H   UNL     1       0.953   3.938  -0.554  0.00  0.00    +0.144 HD
ATOM     32  H   UNL     1       1.834   3.299   0.707  0.00  0.00    +0.144 HD
ENDBRANCH  27  30
ENDBRANCH  21  27
ENDBRANCH   2  22
TORSDOF 4
