REMARK  Name = 446965
REMARK  6 active torsions:
REMARK  status: ('A' for Active; 'I' for Inactive)
REMARK    1  A    between atoms: C_2  and  C_18
REMARK    2  A    between atoms: C_2  and  C_27
REMARK    3  A    between atoms: N_17  and  C_20
REMARK    4  A    between atoms: C_20  and  C_21
REMARK    5  A    between atoms: C_21  and  C_23
REMARK    6  A    between atoms: C_23  and  O_24
REMARK                            x       y       z     vdW  Elec       q    Type
REMARK                         _______ _______ _______ _____ _____    ______ ____
ROOT
ATOM      1  N   UNL     1      -0.925   1.492  -1.228  0.00  0.00    -0.286 N 
ATOM      2  C   UNL     1      -0.703  -0.253   1.077  0.00  0.00    +0.187 C 
ATOM      3  C   UNL     1       0.196   0.972   0.877  0.00  0.00    +0.016 C 
ATOM      4  C   UNL     1      -1.863  -0.343   0.081  0.00  0.00    +0.016 C 
ATOM      5  C   UNL     1       0.050   1.807  -0.254  0.00  0.00    +0.049 C 
ATOM      6  C   UNL     1      -1.944   0.533  -1.025  0.00  0.00    +0.049 C 
ATOM      7  C   UNL     1       1.208   1.254   1.825  0.00  0.00    -0.001 C 
ATOM      8  C   UNL     1      -2.854  -1.337   0.255  0.00  0.00    -0.001 C 
ATOM      9  C   UNL     1       0.888   2.938  -0.347  0.00  0.00    +0.015 C 
ATOM     10  C   UNL     1      -3.063   0.416  -1.876  0.00  0.00    +0.015 C 
ATOM     11  C   UNL     1      -0.887   2.208  -2.508  0.00  0.00    +0.117 C 
ATOM     12  C   UNL     1       2.035   2.364   1.692  0.00  0.00    -0.000 C 
ATOM     13  C   UNL     1      -3.934  -1.443  -0.616  0.00  0.00    -0.000 C 
ATOM     14  C   UNL     1       1.867   3.213   0.610  0.00  0.00    +0.001 C 
ATOM     15  C   UNL     1      -4.044  -0.558  -1.676  0.00  0.00    +0.001 C 
ENDROOT
BRANCH   2  18
ATOM     16  O   UNL     1       0.314  -2.289   1.840  0.00  0.00    -0.273 OA
ATOM     17  N   UNL     1       0.696  -1.596  -0.349  0.00  0.00    -0.302 N 
ATOM     18  C   UNL     1       0.145  -1.497   0.917  0.00  0.00    +0.243 C 
ATOM     19  H   UNL     1       0.486  -0.895  -1.008  0.00  0.00    +0.149 HD
BRANCH  17  20
ATOM     20  C   UNL     1       1.563  -2.680  -0.751  0.00  0.00    +0.101 C 
BRANCH  20  21
ATOM     21  C   UNL     1       3.030  -2.369  -0.481  0.00  0.00    +0.131 C 
BRANCH  21  23
ATOM     22  O   UNL     1       2.846  -0.442  -1.961  0.00  0.00    -0.250 OA
ATOM     23  C   UNL     1       3.513  -1.129  -1.201  0.00  0.00    +0.316 C 
BRANCH  23  24
ATOM     24  O   UNL     1       4.807  -0.851  -0.893  0.00  0.00    -0.480 OA
ATOM     25  H   UNL     1       5.279  -1.407  -0.305  0.00  0.00    +0.295 HD
ENDBRANCH  23  24
ENDBRANCH  21  23
ENDBRANCH  20  21
ENDBRANCH  17  20
ENDBRANCH   2  18
BRANCH   2  27
ATOM     26  N   UNL     1      -1.686  -0.192   3.534  0.00  0.00    -0.195 NA
ATOM     27  C   UNL     1      -1.255  -0.219   2.457  0.00  0.00    +0.088 C 
ENDBRANCH   2  27
TORSDOF 6
