REMARK  Name = 24941258
REMARK  4 active torsions:
REMARK  status: ('A' for Active; 'I' for Inactive)
REMARK    1  A    between atoms: C_6  and  C_17
REMARK    2  A    between atoms: C_17  and  C_18
REMARK    3  A    between atoms: C_18  and  N_20
REMARK    4  A    between atoms: C_21  and  C_24
REMARK                            x       y       z     vdW  Elec       q    Type
REMARK                         _______ _______ _______ _____ _____    ______ ____
ROOT
ATOM      1  F   UNL     1       3.344  -3.134   0.046  0.00  0.00    -0.203 F 
ATOM      2  F   UNL     1       4.829   2.076   0.777  0.00  0.00    -0.204 F 
ATOM      3  N   UNL     1       1.609  -1.147  -0.794  0.00  0.00    -0.314 N 
ATOM      4  N   UNL     1       1.151   1.301  -1.077  0.00  0.00    -0.238 NA
ATOM      5  N   UNL     1       2.461   2.876  -0.014  0.00  0.00    -0.343 N 
ATOM      6  C   UNL     1       0.916  -0.086  -1.494  0.00  0.00    +0.178 C 
ATOM      7  C   UNL     1       2.826  -0.829  -0.214  0.00  0.00    +0.079 C 
ATOM      8  C   UNL     1       3.197   0.508  -0.003  0.00  0.00    +0.074 C 
ATOM      9  C   UNL     1       2.224   1.576  -0.397  0.00  0.00    +0.126 C 
ATOM     10  C   UNL     1       3.689  -1.849   0.213  0.00  0.00    +0.153 C 
ATOM     11  C   UNL     1       4.434   0.810   0.583  0.00  0.00    +0.144 C 
ATOM     12  C   UNL     1       4.916  -1.546   0.803  0.00  0.00    +0.033 C 
ATOM     13  C   UNL     1       5.289  -0.218   0.981  0.00  0.00    +0.032 C 
ATOM     14  H   UNL     1       1.232  -2.054  -0.732  0.00  0.00    +0.149 HD
ATOM     15  H   UNL     1       1.829   3.587  -0.267  0.00  0.00    +0.144 HD
ATOM     16  H   UNL     1       3.263   3.095   0.512  0.00  0.00    +0.144 HD
ENDROOT
BRANCH   6  17
ATOM     17  C   UNL     1      -0.587  -0.340  -1.387  0.00  0.00    +0.066 C 
BRANCH  17  18
ATOM     18  C   UNL     1      -1.088  -0.272   0.048  0.00  0.00    +0.093 C 
BRANCH  18  20
ATOM     19  O   UNL     1      -3.205   1.662  -0.089  0.00  0.00    -0.270 OA
ATOM     20  N   UNL     1      -2.497  -0.534   0.150  0.00  0.00    -0.301 N 
ATOM     21  C   UNL     1      -3.456   0.470   0.072  0.00  0.00    +0.249 C 
ATOM     22  H   UNL     1      -2.797  -1.463   0.281  0.00  0.00    +0.150 HD
BRANCH  21  24
ATOM     23  O   UNL     1      -7.061   0.136   0.709  0.00  0.00    -0.447 OA
ATOM     24  C   UNL     1      -4.869   0.040   0.222  0.00  0.00    +0.094 C 
ATOM     25  C   UNL     1      -5.447  -1.219  -0.072  0.00  0.00    +0.048 C 
ATOM     26  C   UNL     1      -5.893   0.828   0.695  0.00  0.00    +0.184 C 
ATOM     27  C   UNL     1      -6.782  -1.109   0.241  0.00  0.00    +0.180 C 
ENDBRANCH  21  24
ENDBRANCH  18  20
ENDBRANCH  17  18
ENDBRANCH   6  17
TORSDOF 4
