REMARK  Name = 5330812
REMARK  6 active torsions:
REMARK  status: ('A' for Active; 'I' for Inactive)
REMARK    1  A    between atoms: N_1  and  C_11
REMARK    2  A    between atoms: N_2  and  C_24
REMARK    3  A    between atoms: C_12  and  S_17
REMARK    4  A    between atoms: S_17  and  N_20
REMARK    5  A    between atoms: C_24  and  N_25
REMARK    6  A    between atoms: N_25  and  C_29
REMARK                            x       y       z     vdW  Elec       q    Type
REMARK                         _______ _______ _______ _____ _____    ______ ____
ROOT
ATOM      1  N   UNL     1      -1.967   1.935   0.294  0.00  0.00    -0.246 N 
ATOM      2  N   UNL     1       1.178   0.655   0.258  0.00  0.00    -0.120 N 
ATOM      3  N   UNL     1      -0.135   0.395   0.166  0.00  0.00    -0.089 NA
ATOM      4  N   UNL     1       0.262   2.625   0.485  0.00  0.00    -0.304 NA
ATOM      5  N   UNL     1       2.668   2.453   0.566  0.00  0.00    -0.319 N 
ATOM      6  C   UNL     1      -0.597   1.608   0.310  0.00  0.00    +0.167 C 
ATOM      7  C   UNL     1       1.406   1.982   0.447  0.00  0.00    +0.272 C 
ATOM      8  H   UNL     1      -2.146   2.895   0.415  0.00  0.00    +0.165 HD
ATOM      9  H   UNL     1       3.431   1.834   0.515  0.00  0.00    +0.146 HD
ATOM     10  H   UNL     1       2.823   3.415   0.703  0.00  0.00    +0.146 HD
ENDROOT
BRANCH   1  11
ATOM     11  C   UNL     1      -3.132   1.156   0.139  0.00  0.00    +0.058 C 
ATOM     12  C   UNL     1      -5.438  -0.385  -0.168  0.00  0.00    +0.122 C 
ATOM     13  C   UNL     1      -4.271   1.713  -0.444  0.00  0.00    +0.017 C 
ATOM     14  C   UNL     1      -3.147  -0.171   0.569  0.00  0.00    +0.017 C 
ATOM     15  C   UNL     1      -5.423   0.942  -0.598  0.00  0.00    +0.021 C 
ATOM     16  C   UNL     1      -4.299  -0.941   0.416  0.00  0.00    +0.021 C 
BRANCH  12  17
ATOM     17  S   UNL     1      -6.880  -1.349  -0.361  0.00  0.00    +0.057 S 
ATOM     18  O   UNL     1      -7.665  -0.789  -1.452  0.00  0.00    -0.153 OA
ATOM     19  O   UNL     1      -6.496  -2.754  -0.393  0.00  0.00    -0.153 OA
BRANCH  17  20
ATOM     20  N   UNL     1      -7.683  -1.034   1.114  0.00  0.00    -0.203 NA
ATOM     21  H   UNL     1      -8.564  -1.547   1.137  0.00  0.00    +0.144 HD
ATOM     22  H   UNL     1      -7.869  -0.034   1.192  0.00  0.00    +0.144 HD
ENDBRANCH  17  20
ENDBRANCH  12  17
ENDBRANCH   1  11
BRANCH   2  24
ATOM     23  S   UNL     1       1.718  -1.993   0.527  0.00  0.00    -0.016 S 
ATOM     24  C   UNL     1       2.074  -0.387   0.156  0.00  0.00    +0.166 C 
BRANCH  24  25
ATOM     25  N   UNL     1       3.263   0.095  -0.395  0.00  0.00    -0.291 N 
ATOM     26  H   UNL     1       3.158   0.899  -0.954  0.00  0.00    +0.154 HD
BRANCH  25  29
ATOM     27  F   UNL     1       5.036   0.303  -2.518  0.00  0.00    -0.203 F 
ATOM     28  F   UNL     1       4.185  -1.064   1.951  0.00  0.00    -0.203 F 
ATOM     29  C   UNL     1       4.599  -0.377  -0.285  0.00  0.00    +0.105 C 
ATOM     30  C   UNL     1       5.447  -0.252  -1.369  0.00  0.00    +0.156 C 
ATOM     31  C   UNL     1       5.014  -0.948   0.904  0.00  0.00    +0.156 C 
ATOM     32  C   UNL     1       6.758  -0.715  -1.261  0.00  0.00    +0.031 C 
ATOM     33  C   UNL     1       6.325  -1.410   1.012  0.00  0.00    +0.031 C 
ATOM     34  C   UNL     1       7.197  -1.294  -0.070  0.00  0.00    +0.005 C 
ENDBRANCH  25  29
ENDBRANCH  24  25
ENDBRANCH   2  24
TORSDOF 6
