REMARK  Name = 10200651
REMARK  5 active torsions:
REMARK  status: ('A' for Active; 'I' for Inactive)
REMARK    1  A    between atoms: C_1  and  C_7
REMARK    2  A    between atoms: C_4  and  C_22
REMARK    3  A    between atoms: C_10  and  C_17
REMARK    4  A    between atoms: N_21  and  C_24
REMARK    5  A    between atoms: C_27  and  C_31
REMARK                            x       y       z     vdW  Elec       q    Type
REMARK                         _______ _______ _______ _____ _____    ______ ____
ROOT
ATOM      1  C   UNL     1       1.130   0.522  -0.545  0.00  0.00    -0.000 C 
ATOM      2  C   UNL     1       0.257   0.505   0.543  0.00  0.00    +0.000 C 
ATOM      3  C   UNL     1       0.679   0.141  -1.808  0.00  0.00    +0.000 C 
ATOM      4  C   UNL     1      -1.489  -0.265  -0.893  0.00  0.00    +0.054 C 
ATOM      5  C   UNL     1      -1.068   0.107   0.367  0.00  0.00    +0.005 C 
ATOM      6  C   UNL     1      -0.646  -0.257  -1.984  0.00  0.00    +0.005 C 
ENDROOT
BRANCH   1   7
ATOM      7  C   UNL     1       2.505   0.935  -0.362  0.00  0.00    -0.004 C 
ATOM      8  C   UNL     1       2.882   2.272  -0.501  0.00  0.00    -0.022 C 
ATOM      9  C   UNL     1       3.465  -0.027  -0.041  0.00  0.00    +0.004 C 
ATOM     10  C   UNL     1       4.797   0.346   0.139  0.00  0.00    +0.055 C 
ATOM     11  C   UNL     1       4.214   2.645  -0.321  0.00  0.00    -0.004 C 
ATOM     12  C   UNL     1       5.171   1.683   0.000  0.00  0.00    +0.004 C 
ATOM     13  C   UNL     1       1.885   3.331  -0.844  0.00  0.00    +0.031 C 
BRANCH  10  17
ATOM     14  O   UNL     1       7.055  -0.188   0.625  0.00  0.00    -0.420 OA
ATOM     15  N   UNL     1       5.662  -1.938   0.645  0.00  0.00    -0.107 NA
ATOM     16  N   UNL     1       6.931  -2.399   0.942  0.00  0.00    -0.111 NA
ATOM     17  C   UNL     1       5.787  -0.649   0.470  0.00  0.00    +0.250 A 
ATOM     18  C   UNL     1       7.711  -1.344   0.918  0.00  0.00    +0.227 A 
ATOM     19  C   UNL     1       9.155  -1.242   1.159  0.00  0.00    +0.097 C 
ENDBRANCH  10  17
ENDBRANCH   1   7
BRANCH   4  22
ATOM     20  O   UNL     1      -3.144  -1.481  -1.985  0.00  0.00    -0.270 OA
ATOM     21  N   UNL     1      -3.818  -0.147  -0.170  0.00  0.00    -0.280 N 
ATOM     22  C   UNL     1      -2.901  -0.690  -1.080  0.00  0.00    +0.249 C 
ATOM     23  H   UNL     1      -3.447   0.477   0.496  0.00  0.00    +0.155 HD
BRANCH  21  24
ATOM     24  C   UNL     1      -5.191  -0.383  -0.089  0.00  0.00    +0.051 C 
ATOM     25  C   UNL     1      -5.951   0.251   0.893  0.00  0.00    +0.025 C 
ATOM     26  C   UNL     1      -5.803  -1.253  -0.991  0.00  0.00    +0.015 C 
ATOM     27  C   UNL     1      -7.324   0.015   0.974  0.00  0.00    +0.070 C 
ATOM     28  C   UNL     1      -7.175  -1.490  -0.911  0.00  0.00    +0.002 C 
ATOM     29  C   UNL     1      -7.935  -0.856   0.072  0.00  0.00    +0.010 C 
BRANCH  27  31
ATOM     30  N   UNL     1      -8.737   1.192   2.798  0.00  0.00    -0.191 NA
ATOM     31  C   UNL     1      -8.103   0.664   1.980  0.00  0.00    +0.100 C 
ENDBRANCH  27  31
ENDBRANCH  21  24
ENDBRANCH   4  22
TORSDOF 5
