REMARK  Name = 5288561
REMARK  7 active torsions:
REMARK  status: ('A' for Active; 'I' for Inactive)
REMARK    1  A    between atoms: C_1  and  C_4
REMARK    2  A    between atoms: C_1  and  O_8
REMARK    3  A    between atoms: C_1  and  C_10
REMARK    4  A    between atoms: N_3  and  O_6
REMARK    5  A    between atoms: C_10  and  C_12
REMARK    6  A    between atoms: C_10  and  C_13
REMARK    7  A    between atoms: C_13  and  C_14
REMARK                            x       y       z     vdW  Elec       q    Type
REMARK                         _______ _______ _______ _____ _____    ______ ____
ROOT
ATOM      1  C   UNL     1      -0.892  -0.909  -0.080  0.00  0.00    +0.196 C 
ENDROOT
BRANCH   1   4
ATOM      2  O   UNL     1      -2.140   0.827  -1.210  0.00  0.00    -0.270 OA
ATOM      3  N   UNL     1      -2.797   0.193   0.909  0.00  0.00    -0.195 N 
ATOM      4  C   UNL     1      -2.004   0.126  -0.209  0.00  0.00    +0.272 C 
ATOM      5  H   UNL     1      -2.650  -0.389   1.689  0.00  0.00    +0.182 HD
BRANCH   3   6
ATOM      6  O   UNL     1      -3.829   1.141   0.873  0.00  0.00    -0.295 OA
ATOM      7  H   UNL     1      -4.327   1.108   1.705  0.00  0.00    +0.241 HD
ENDBRANCH   3   6
ENDBRANCH   1   4
BRANCH   1   8
ATOM      8  O   UNL     1      -1.153  -1.934  -1.035  0.00  0.00    -0.375 OA
ATOM      9  H   UNL     1      -0.461  -2.612  -0.980  0.00  0.00    +0.211 HD
ENDBRANCH   1   8
BRANCH   1  10
ATOM     10  C   UNL     1       0.537  -0.371  -0.301  0.00  0.00    +0.101 C 
BRANCH  10  12
ATOM     11  O   UNL     1       1.726  -2.162   0.804  0.00  0.00    -0.288 OA
ATOM     12  C   UNL     1       1.528  -1.514  -0.220  0.00  0.00    +0.210 C 
ENDBRANCH  10  12
BRANCH  10  13
ATOM     13  C   UNL     1       0.936   0.768   0.654  0.00  0.00    +0.011 C 
BRANCH  13  14
ATOM     14  C   UNL     1       2.298   1.430   0.344  0.00  0.00    +0.001 C 
ATOM     15  C   UNL     1       2.368   1.995  -1.075  0.00  0.00    +0.000 C 
ATOM     16  C   UNL     1       3.422   0.410   0.545  0.00  0.00    +0.000 C 
ENDBRANCH  13  14
ENDBRANCH  10  13
ENDBRANCH   1  10
TORSDOF 7
