REMARK  Name = 4634038
REMARK  11 active torsions:
REMARK  status: ('A' for Active; 'I' for Inactive)
REMARK    1  A    between atoms: C_1  and  C_2
REMARK    2  A    between atoms: C_1  and  C_9
REMARK    3  A    between atoms: C_2  and  C_3
REMARK    4  A    between atoms: C_3  and  C_4
REMARK    5  A    between atoms: C_4  and  C_5
REMARK    6  A    between atoms: C_5  and  C_6
REMARK    7  A    between atoms: C_6  and  O_7
REMARK    8  A    between atoms: C_9  and  C_10
REMARK    9  A    between atoms: C_10  and  N_11
REMARK   10  A    between atoms: N_11  and  C_14
REMARK   11  A    between atoms: C_14  and  O_15
REMARK                            x       y       z     vdW  Elec       q    Type
REMARK                         _______ _______ _______ _____ _____    ______ ____
ROOT
ATOM      1  C   UNL     1       0.655  -0.480  -0.014  0.00  0.00    -0.002 C 
ENDROOT
BRANCH   1   2
ATOM      2  C   UNL     1      -0.594   0.405  -0.023  0.00  0.00    -0.000 C 
BRANCH   2   3
ATOM      3  C   UNL     1      -1.903  -0.389  -0.004  0.00  0.00    +0.000 C 
BRANCH   3   4
ATOM      4  C   UNL     1      -3.152   0.496   0.012  0.00  0.00    +0.003 C 
BRANCH   4   5
ATOM      5  C   UNL     1      -4.429  -0.350   0.012  0.00  0.00    +0.032 C 
BRANCH   5   6
ATOM      6  C   UNL     1      -5.689   0.507  -0.005  0.00  0.00    +0.137 C 
BRANCH   6   7
ATOM      7  O   UNL     1      -6.841  -0.323   0.006  0.00  0.00    -0.382 OA
ATOM      8  H   UNL     1      -7.638   0.229  -0.005  0.00  0.00    +0.210 HD
ENDBRANCH   6   7
ENDBRANCH   5   6
ENDBRANCH   4   5
ENDBRANCH   3   4
ENDBRANCH   2   3
ENDBRANCH   1   2
BRANCH   1   9
ATOM      9  C   UNL     1       1.932   0.367   0.006  0.00  0.00    -0.023 C 
BRANCH   9  10
ATOM     10  C   UNL     1       3.211  -0.473   0.000  0.00  0.00    -0.078 C 
BRANCH  10  11
ATOM     11  N   UNL     1       4.409   0.358   0.001  0.00  0.00    +0.401 N 
ATOM     12  H   UNL     1       4.406   0.947   0.833  0.00  0.00    -0.081 HD
ATOM     13  H   UNL     1       4.408   0.930  -0.843  0.00  0.00    -0.081 HD
BRANCH  11  14
ATOM     14  C   UNL     1       5.614  -0.463   0.002  0.00  0.00    +0.062 C 
BRANCH  14  15
ATOM     15  O   UNL     1       6.786   0.344   0.009  0.00  0.00    -0.405 OA
ATOM     16  H   UNL     1       7.571  -0.226   0.010  0.00  0.00    +0.208 HD
ENDBRANCH  14  15
ENDBRANCH  11  14
ENDBRANCH  10  11
ENDBRANCH   9  10
ENDBRANCH   1   9
TORSDOF 11
