REMARK  Name = 46937059
REMARK  6 active torsions:
REMARK  status: ('A' for Active; 'I' for Inactive)
REMARK    1  A    between atoms: N_1  and  C_6
REMARK    2  A    between atoms: N_1  and  O_15
REMARK    3  A    between atoms: O_15  and  C_16
REMARK    4  A    between atoms: C_16  and  C_17
REMARK    5  A    between atoms: C_17  and  C_20
REMARK    6  A    between atoms: C_20  and  O_21
REMARK                            x       y       z     vdW  Elec       q    Type
REMARK                         _______ _______ _______ _____ _____    ______ ____
ROOT
ATOM      1  C   UNL     1       2.816   0.108  -0.055  0.00  0.00    -0.002 C 
ATOM      2  C   UNL     1       1.935   1.252   0.050  0.00  0.00    -0.016 C 
ATOM      3  C   UNL     1       0.607   0.805   0.171  0.00  0.00    +0.016 C 
ATOM      4  C   UNL     1       2.050  -1.070  -0.001  0.00  0.00    +0.020 C 
ATOM      5  C   UNL     1       0.642  -0.668   0.142  0.00  0.00    +0.107 C 
ATOM      6  C   UNL     1       2.206   2.610   0.047  0.00  0.00    +0.052 C 
ATOM      7  C   UNL     1       4.191   0.026  -0.190  0.00  0.00    -0.000 C 
ATOM      8  C   UNL     1       2.602  -2.333  -0.076  0.00  0.00    +0.002 C 
ATOM      9  C   UNL     1      -0.467   1.665   0.289  0.00  0.00    +0.001 C 
ATOM     10  C   UNL     1       1.132   3.500   0.166  0.00  0.00    -0.021 C 
ATOM     11  C   UNL     1       4.775  -1.245  -0.267  0.00  0.00    -0.000 C 
ATOM     12  C   UNL     1      -0.190   3.032   0.286  0.00  0.00    -0.004 C 
ATOM     13  C   UNL     1       3.988  -2.411  -0.211  0.00  0.00    +0.000 C 
ENDROOT
BRANCH   5  14
ATOM     14  N   UNL     1      -0.355  -1.477   0.225  0.00  0.00    -0.131 NA
BRANCH  14  15
ATOM     15  O   UNL     1      -1.530  -0.723   0.351  0.00  0.00    -0.236 OA
BRANCH  15  16
ATOM     16  C   UNL     1      -2.626  -1.621   0.442  0.00  0.00    +0.187 C 
BRANCH  16  17
ATOM     17  C   UNL     1      -3.925  -0.824   0.582  0.00  0.00    +0.131 C 
ATOM     18  C   UNL     1      -5.119  -1.762   0.722  0.00  0.00    +0.014 C 
BRANCH  17  20
ATOM     19  O   UNL     1      -3.782  -0.166  -1.764  0.00  0.00    -0.250 OA
ATOM     20  C   UNL     1      -4.143   0.082  -0.621  0.00  0.00    +0.316 C 
BRANCH  20  21
ATOM     21  O   UNL     1      -4.806   1.221  -0.289  0.00  0.00    -0.480 OA
ATOM     22  H   UNL     1      -5.064   1.371   0.599  0.00  0.00    +0.295 HD
ENDBRANCH  20  21
ENDBRANCH  17  20
ENDBRANCH  16  17
ENDBRANCH  15  16
ENDBRANCH  14  15
ENDBRANCH   5  14
TORSDOF 6
