REMARK  Name = 23643565
REMARK  4 active torsions:
REMARK  status: ('A' for Active; 'I' for Inactive)
REMARK    1  A    between atoms: N_2  and  C_8
REMARK    2  A    between atoms: N_2  and  C_23
REMARK    3  A    between atoms: C_23  and  C_24
REMARK    4  A    between atoms: C_24  and  N_26
REMARK                            x       y       z     vdW  Elec       q    Type
REMARK                         _______ _______ _______ _____ _____    ______ ____
ROOT
ATOM      1  O   UNL     1      -5.569  -2.176   0.335  0.00  0.00    -0.209 OA
ATOM      2  N   UNL     1      -0.349  -1.616   0.127  0.00  0.00    -0.305 N 
ATOM      3  N   UNL     1       0.087   0.542  -0.166  0.00  0.00    -0.305 N 
ATOM      4  N   UNL     1      -4.725   1.704  -0.192  0.00  0.00    -0.275 N 
ATOM      5  N   UNL     1      -6.331  -0.032   0.075  0.00  0.00    -0.302 NA
ATOM      6  N   UNL     1      -6.962   2.208  -0.201  0.00  0.00    -0.320 N 
ATOM      7  C   UNL     1       0.610  -0.654  -0.024  0.00  0.00    +0.208 C 
ATOM      8  C   UNL     1      -1.573  -0.999   0.078  0.00  0.00    +0.061 C 
ATOM      9  C   UNL     1      -1.274   0.347  -0.105  0.00  0.00    +0.061 C 
ATOM     10  C   UNL     1      -3.646   0.818  -0.104  0.00  0.00    +0.064 C 
ATOM     11  C   UNL     1      -3.908  -0.549   0.080  0.00  0.00    +0.110 C 
ATOM     12  C   UNL     1      -2.875  -1.493   0.176  0.00  0.00    +0.030 C 
ATOM     13  C   UNL     1      -2.323   1.278  -0.198  0.00  0.00    +0.031 C 
ATOM     14  C   UNL     1      -5.331  -0.983   0.173  0.00  0.00    +0.208 C 
ATOM     15  C   UNL     1      -6.011   1.224  -0.096  0.00  0.00    +0.248 C 
ATOM     16  H   UNL     1      -0.190  -2.580   0.248  0.00  0.00    +0.150 HD
ATOM     17  H   UNL     1       0.565   1.394  -0.289  0.00  0.00    +0.150 HD
ATOM     18  H   UNL     1      -4.564   2.666  -0.321  0.00  0.00    +0.156 HD
ATOM     19  H   UNL     1      -6.689   3.145  -0.329  0.00  0.00    +0.146 HD
ATOM     20  H   UNL     1      -7.917   1.977  -0.147  0.00  0.00    +0.146 HD
ENDROOT
BRANCH   7  21
ATOM     21  N   UNL     1       1.906  -1.035  -0.009  0.00  0.00    -0.269 NA
ATOM     22  H   UNL     1       2.099  -1.993   0.111  0.00  0.00    +0.126 HD
BRANCH  21  23
ATOM     23  C   UNL     1       3.045  -0.128  -0.159  0.00  0.00    +0.048 C 
BRANCH  23  24
ATOM     24  C   UNL     1       4.342  -0.926  -0.125  0.00  0.00    -0.060 C 
BRANCH  24  26
ATOM     25  O   UNL     1       8.113   0.843   0.393  0.00  0.00    -0.358 OA
ATOM     26  N   UNL     1       5.491  -0.036  -0.281  0.00  0.00    +0.391 N 
ATOM     27  C   UNL     1       6.683  -0.790  -0.692  0.00  0.00    -0.045 C 
ATOM     28  C   UNL     1       5.761   0.692   0.967  0.00  0.00    -0.045 C 
ATOM     29  C   UNL     1       7.871   0.157  -0.836  0.00  0.00    +0.119 C 
ATOM     30  C   UNL     1       6.970   1.604   0.783  0.00  0.00    +0.119 C 
ATOM     31  H   UNL     1       5.265   0.641  -1.010  0.00  0.00    -0.079 HD
ENDBRANCH  24  26
ENDBRANCH  23  24
ENDBRANCH  21  23
ENDBRANCH   7  21
TORSDOF 4
