REMARK  Name = 10397869
REMARK  3 active torsions:
REMARK  status: ('A' for Active; 'I' for Inactive)
REMARK    1  A    between atoms: N_1  and  C_4
REMARK    2  A    between atoms: N_1  and  C_12
REMARK    3  A    between atoms: C_12  and  C_13
REMARK                            x       y       z     vdW  Elec       q    Type
REMARK                         _______ _______ _______ _____ _____    ______ ____
ROOT
ATOM      1  N   UNL     1       0.311  -0.131  -0.040  0.00  0.00    -0.327 N 
ATOM      2  H   UNL     1      -0.037  -1.052  -0.033  0.00  0.00    +0.147 HD
ENDROOT
BRANCH   1   4
ATOM      3  N   UNL     1       3.936  -0.883   0.037  0.00  0.00    -0.228 NA
ATOM      4  C   UNL     1       1.687   0.048  -0.018  0.00  0.00    +0.077 C 
ATOM      5  C   UNL     1       2.591  -1.016   0.014  0.00  0.00    +0.139 C 
ATOM      6  C   UNL     1       2.237   1.335  -0.028  0.00  0.00    +0.019 C 
ATOM      7  C   UNL     1       3.616   1.512  -0.005  0.00  0.00    +0.022 C 
ATOM      8  C   UNL     1       4.415   0.381   0.026  0.00  0.00    +0.100 C 
ATOM      9  N   UNL     1       2.059  -2.330   0.025  0.00  0.00    -0.342 N 
ATOM     10  H   UNL     1       2.664  -3.106   0.048  0.00  0.00    +0.144 HD
ATOM     11  H   UNL     1       1.084  -2.467   0.010  0.00  0.00    +0.144 HD
ENDBRANCH   1   4
BRANCH   1  12
ATOM     12  C   UNL     1      -0.638   0.953  -0.073  0.00  0.00    +0.114 C 
BRANCH  12  13
ATOM     13  C   UNL     1      -2.049   0.472  -0.030  0.00  0.00    -0.003 C 
ATOM     14  C   UNL     1      -2.728   0.194  -1.217  0.00  0.00    -0.003 C 
ATOM     15  C   UNL     1      -2.691   0.300   1.197  0.00  0.00    -0.003 C 
ATOM     16  C   UNL     1      -4.047  -0.256  -1.177  0.00  0.00    -0.000 C 
ATOM     17  C   UNL     1      -4.010  -0.149   1.237  0.00  0.00    -0.000 C 
ATOM     18  C   UNL     1      -4.689  -0.428   0.050  0.00  0.00    -0.000 C 
ENDBRANCH  12  13
ENDBRANCH   1  12
TORSDOF 3
