REMARK  Name = 11979006
REMARK  7 active torsions:
REMARK  status: ('A' for Active; 'I' for Inactive)
REMARK    1  A    between atoms: C_1  and  N_2
REMARK    2  A    between atoms: C_1  and  C_22
REMARK    3  A    between atoms: C_3  and  N_9
REMARK    4  A    between atoms: C_4  and  O_18
REMARK    5  A    between atoms: C_10  and  C_14
REMARK    6  A    between atoms: N_21  and  C_25
REMARK    7  A    between atoms: C_28  and  N_32
REMARK                            x       y       z     vdW  Elec       q    Type
REMARK                         _______ _______ _______ _____ _____    ______ ____
ROOT
ATOM      1  C   UNL     1      -0.635  -1.050   1.283  0.00  0.00    +0.010 C 
ENDROOT
BRANCH   1   2
ATOM      2  N   UNL     1      -1.725  -0.098   1.132  0.00  0.00    +0.396 N 
ATOM      3  C   UNL     1      -3.951   0.388   0.742  0.00  0.00    +0.076 C 
ATOM      4  C   UNL     1      -3.135   1.091  -0.345  0.00  0.00    +0.106 C 
ATOM      5  C   UNL     1      -3.040  -0.734   1.220  0.00  0.00    -0.054 C 
ATOM      6  C   UNL     1      -1.704   0.579  -0.170  0.00  0.00    -0.045 C 
ATOM      7  H   UNL     1      -1.583   0.563   1.895  0.00  0.00    -0.079 HD
BRANCH   3   9
ATOM      8  O   UNL     1      -6.394   1.795   0.796  0.00  0.00    -0.270 OA
ATOM      9  N   UNL     1      -5.212  -0.100   0.255  0.00  0.00    -0.302 N 
ATOM     10  C   UNL     1      -6.383   0.660   0.317  0.00  0.00    +0.252 C 
ATOM     11  H   UNL     1      -5.253  -1.002  -0.136  0.00  0.00    +0.150 HD
BRANCH  10  14
ATOM     12 CL   UNL     1     -11.533  -0.237  -1.314  0.00  0.00    -0.075 Cl
ATOM     13  S   UNL     1      -9.033   0.913  -0.199  0.00  0.00    -0.071 S 
ATOM     14  C   UNL     1      -7.587   0.036  -0.251  0.00  0.00    +0.084 C 
ATOM     15  C   UNL     1      -7.686  -1.184  -0.824  0.00  0.00    +0.012 C 
ATOM     16  C   UNL     1      -9.023  -1.430  -1.252  0.00  0.00    +0.019 C 
ATOM     17  C   UNL     1      -9.858  -0.371  -0.974  0.00  0.00    +0.087 C 
ENDBRANCH  10  14
ENDBRANCH   3   9
BRANCH   4  18
ATOM     18  O   UNL     1      -3.197   2.497  -0.144  0.00  0.00    -0.385 OA
ATOM     19  H   UNL     1      -4.111   2.800  -0.260  0.00  0.00    +0.210 HD
ENDBRANCH   4  18
ENDBRANCH   1   2
BRANCH   1  22
ATOM     20  O   UNL     1       0.831   0.851   1.527  0.00  0.00    -0.277 OA
ATOM     21  N   UNL     1       1.670  -1.163   0.659  0.00  0.00    -0.284 N 
ATOM     22  C   UNL     1       0.692  -0.318   1.180  0.00  0.00    +0.205 C 
ATOM     23  H   UNL     1       1.380  -2.078   0.438  0.00  0.00    +0.155 HD
BRANCH  21  25
ATOM     24  F   UNL     1       3.397  -3.066  -0.392  0.00  0.00    -0.203 F 
ATOM     25  C   UNL     1       3.030  -0.861   0.410  0.00  0.00    +0.078 C 
ATOM     26  C   UNL     1       3.859  -1.838  -0.115  0.00  0.00    +0.155 C 
ATOM     27  C   UNL     1       3.502   0.409   0.698  0.00  0.00    +0.018 C 
ATOM     28  C   UNL     1       5.691  -0.263  -0.074  0.00  0.00    +0.061 C 
ATOM     29  C   UNL     1       5.199  -1.537  -0.359  0.00  0.00    +0.046 C 
ATOM     30  C   UNL     1       4.842   0.710   0.455  0.00  0.00    +0.017 C 
BRANCH  28  32
ATOM     31  O   UNL     1       6.704   2.321  -0.887  0.00  0.00    -0.269 OA
ATOM     32  N   UNL     1       7.084   0.049  -0.327  0.00  0.00    -0.233 N 
ATOM     33  C   UNL     1       7.459   1.371  -0.683  0.00  0.00    +0.257 C 
ATOM     34  C   UNL     1       8.059  -0.947  -0.245  0.00  0.00    +0.072 C 
ATOM     35  C   UNL     1       8.921   1.617  -0.880  0.00  0.00    +0.059 C 
ATOM     36  C   UNL     1       9.357  -0.708  -0.458  0.00  0.00    +0.017 C 
ATOM     37  C   UNL     1       9.799   0.617  -0.778  0.00  0.00    +0.006 C 
ENDBRANCH  28  32
ENDBRANCH  21  25
ENDBRANCH   1  22
TORSDOF 7
