REMARK  Name = 6852206
REMARK  8 active torsions:
REMARK  status: ('A' for Active; 'I' for Inactive)
REMARK    1  A    between atoms: C_4  and  C_19
REMARK    2  A    between atoms: C_7  and  N_11
REMARK    3  A    between atoms: C_8  and  O_16
REMARK    4  A    between atoms: C_9  and  C_15
REMARK    5  A    between atoms: O_16  and  C_17
REMARK    6  A    between atoms: C_19  and  C_21
REMARK    7  A    between atoms: C_22  and  O_27
REMARK    8  A    between atoms: C_24  and  O_29
REMARK                            x       y       z     vdW  Elec       q    Type
REMARK                         _______ _______ _______ _____ _____    ______ ____
ROOT
ATOM      1  O   UNL     1       0.759  -1.173  -0.303  0.00  0.00    -0.274 OA
ATOM      2  N   UNL     1      -0.709   0.623  -0.663  0.00  0.00    -0.259 N 
ATOM      3  N   UNL     1      -3.054   0.858  -0.477  0.00  0.00    -0.355 NA
ATOM      4  C   UNL     1       0.531  -0.009  -0.615  0.00  0.00    +0.232 C 
ATOM      5  C   UNL     1      -1.974   0.065  -0.365  0.00  0.00    +0.190 C 
ATOM      6  C   UNL     1      -1.998  -1.258   0.022  0.00  0.00    +0.059 C 
ATOM      7  C   UNL     1      -3.237  -1.815   0.318  0.00  0.00    +0.047 C 
ATOM      8  C   UNL     1      -4.241   0.282  -0.181  0.00  0.00    +0.273 C 
ATOM      9  C   UNL     1      -4.385  -1.037   0.218  0.00  0.00    +0.215 C 
ATOM     10  H   UNL     1      -0.705   1.569  -0.937  0.00  0.00    +0.157 HD
ENDROOT
BRANCH   7  11
ATOM     11  N   UNL     1      -3.299  -3.169   0.718  0.00  0.00    -0.359 N 
ATOM     12  H   UNL     1      -2.474  -3.702   0.783  0.00  0.00    +0.142 HD
ATOM     13  H   UNL     1      -4.168  -3.580   0.932  0.00  0.00    +0.142 HD
ENDBRANCH   7  11
BRANCH   9  15
ATOM     14  N   UNL     1      -6.724  -2.013   0.755  0.00  0.00    -0.195 NA
ATOM     15  C   UNL     1      -5.678  -1.577   0.515  0.00  0.00    +0.089 C 
ENDBRANCH   9  15
BRANCH   8  16
ATOM     16  O   UNL     1      -5.343   1.091  -0.296  0.00  0.00    -0.454 OA
BRANCH  16  17
ATOM     17  C   UNL     1      -5.110   2.432  -0.710  0.00  0.00    +0.208 C 
ATOM     18  C   UNL     1      -6.436   3.159  -0.793  0.00  0.00    +0.051 C 
ENDBRANCH  16  17
ENDBRANCH   8  16
BRANCH   4  19
ATOM     19  C   UNL     1       1.648   0.952  -1.010  0.00  0.00    +0.115 C 
BRANCH  19  21
ATOM     20 BR   UNL     1       7.135  -0.430   1.469  0.00  0.00    -0.046 Br
ATOM     21  C   UNL     1       2.973   0.621  -0.406  0.00  0.00    +0.024 C 
ATOM     22  C   UNL     1       3.347   1.153   0.827  0.00  0.00    +0.136 C 
ATOM     23  C   UNL     1       3.840  -0.230  -1.091  0.00  0.00    +0.037 C 
ATOM     24  C   UNL     1       5.082  -0.549  -0.541  0.00  0.00    +0.145 C 
ATOM     25  C   UNL     1       4.589   0.834   1.377  0.00  0.00    +0.046 C 
ATOM     26  C   UNL     1       5.456  -0.017   0.693  0.00  0.00    +0.071 C 
BRANCH  22  27
ATOM     27  O   UNL     1       2.512   1.988   1.508  0.00  0.00    -0.472 OA
ATOM     28  C   UNL     1       1.596   1.385   2.420  0.00  0.00    +0.252 C 
ENDBRANCH  22  27
BRANCH  24  29
ATOM     29  O   UNL     1       5.907  -1.384  -1.235  0.00  0.00    -0.471 OA
ATOM     30  C   UNL     1       6.815  -0.780  -2.153  0.00  0.00    +0.252 C 
ENDBRANCH  24  29
ENDBRANCH  19  21
ENDBRANCH   4  19
TORSDOF 8
