REMARK  Name = 15602982
REMARK  5 active torsions:
REMARK  status: ('A' for Active; 'I' for Inactive)
REMARK    1  A    between atoms: C_1  and  C_3
REMARK    2  A    between atoms: C_1  and  C_9
REMARK    3  A    between atoms: C_1  and  C_21
REMARK    4  A    between atoms: C_12  and  C_17
REMARK    5  A    between atoms: C_21  and  N_22
REMARK                            x       y       z     vdW  Elec       q    Type
REMARK                         _______ _______ _______ _____ _____    ______ ____
ROOT
ATOM      1  C   UNL     1       1.578   1.457   0.387  0.00  0.00    +0.023 C 
ENDROOT
BRANCH   1   3
ATOM      2 CL   UNL     1       5.636  -2.888  -0.439  0.00  0.00    -0.082 Cl
ATOM      3  C   UNL     1       2.619   0.344   0.175  0.00  0.00    -0.020 C 
ATOM      4  C   UNL     1       2.378  -0.595  -0.797  0.00  0.00    -0.003 C 
ATOM      5  C   UNL     1       3.739   0.340   0.967  0.00  0.00    -0.003 C 
ATOM      6  C   UNL     1       3.321  -1.605  -0.989  0.00  0.00    +0.011 C 
ATOM      7  C   UNL     1       4.682  -0.670   0.776  0.00  0.00    +0.011 C 
ATOM      8  C   UNL     1       4.473  -1.642  -0.203  0.00  0.00    +0.058 C 
ENDBRANCH   1   3
BRANCH   1   9
ATOM      9  C   UNL     1       0.176   0.959   0.293  0.00  0.00    -0.021 C 
ATOM     10  C   UNL     1      -0.452   0.425   1.418  0.00  0.00    -0.004 C 
ATOM     11  C   UNL     1      -0.507   1.025  -0.922  0.00  0.00    -0.004 C 
ATOM     12  C   UNL     1      -2.446   0.023   0.115  0.00  0.00    +0.003 C 
ATOM     13  C   UNL     1      -1.763  -0.043   1.329  0.00  0.00    -0.000 C 
ATOM     14  C   UNL     1      -1.819   0.557  -1.010  0.00  0.00    -0.000 C 
BRANCH  12  17
ATOM     15  N   UNL     1      -5.867  -0.678  -0.617  0.00  0.00    -0.235 N 
ATOM     16  N   UNL     1      -5.733  -1.618   0.335  0.00  0.00    -0.180 NA
ATOM     17  C   UNL     1      -3.796  -0.460   0.023  0.00  0.00    +0.037 C 
ATOM     18  C   UNL     1      -4.732   0.044  -0.842  0.00  0.00    +0.081 C 
ATOM     19  C   UNL     1      -4.462  -1.478   0.723  0.00  0.00    +0.119 C 
ATOM     20  H   UNL     1      -6.707  -0.526  -1.107  0.00  0.00    +0.174 HD
ENDBRANCH  12  17
ENDBRANCH   1   9
BRANCH   1  21
ATOM     21  C   UNL     1       1.916   2.682  -0.521  0.00  0.00    -0.077 C 
BRANCH  21  22
ATOM     22  N   UNL     1       1.058   3.822  -0.203  0.00  0.00    +0.381 N 
ATOM     23  H   UNL     1       1.297   4.607  -0.808  0.00  0.00    -0.089 HD
ATOM     24  H   UNL     1       1.195   4.090   0.771  0.00  0.00    -0.089 HD
ATOM     25  H   UNL     1       0.082   3.564  -0.351  0.00  0.00    -0.089 HD
ENDBRANCH  21  22
ENDBRANCH   1  21
TORSDOF 5
