REMARK  Name = 2738139
REMARK  3 active torsions:
REMARK  status: ('A' for Active; 'I' for Inactive)
REMARK    1  A    between atoms: C_3  and  C_8
REMARK    2  A    between atoms: CA_4  and  C_15
REMARK    3  A    between atoms: C_15  and  O_16
REMARK                            x       y       z     vdW  Elec       q    Type
REMARK                         _______ _______ _______ _____ _____    ______ ____
ROOT
ATOM      1  N   UNL     1       0.952  -0.466   0.093  0.00  0.00    -0.309 N 
ATOM      2  N   UNL     1       0.469   1.663  -0.313  0.00  0.00    -0.313 N 
ATOM      3  C   UNL     1      -0.030   0.468  -0.090  0.00  0.00    +0.168 C 
ATOM      4  CA  UNL     1       2.153   0.175  -0.020  0.00  0.00    +0.137 C 
ATOM      5  C   UNL     1       1.829   1.488  -0.272  0.00  0.00    +0.080 C 
ATOM      6  H   UNL     1       0.818  -1.424   0.274  0.00  0.00    +0.149 HD
ATOM      7  H   UNL     1      -0.025   2.500  -0.475  0.00  0.00    +0.149 HD
ENDROOT
BRANCH   3   8
ATOM      8  C   UNL     1      -1.431   0.127  -0.034  0.00  0.00    +0.014 C 
ATOM      9  C   UNL     1      -2.361   1.073   0.397  0.00  0.00    -0.001 C 
ATOM     10  C   UNL     1      -1.855  -1.148  -0.409  0.00  0.00    -0.001 C 
ATOM     11  C   UNL     1      -3.716   0.744   0.453  0.00  0.00    -0.000 C 
ATOM     12  C   UNL     1      -3.209  -1.477  -0.353  0.00  0.00    -0.000 C 
ATOM     13  C   UNL     1      -4.140  -0.531   0.077  0.00  0.00    -0.000 C 
ENDBRANCH   3   8
BRANCH   4  15
ATOM     14  OXT UNL     1       4.545   0.119   0.004  0.00  0.00    -0.244 OA
ATOM     15  C   UNL     1       3.430  -0.444   0.105  0.00  0.00    +0.353 C 
BRANCH  15  16
ATOM     16  O   UNL     1       3.365  -1.791   0.362  0.00  0.00    -0.476 OA
ATOM     17  H   UNL     1       2.532  -2.214   0.437  0.00  0.00    +0.295 HD
ENDBRANCH  15  16
ENDBRANCH   4  15
TORSDOF 3
