REMARK  Name = 11149479
REMARK  4 active torsions:
REMARK  status: ('A' for Active; 'I' for Inactive)
REMARK    1  A    between atoms: N_1  and  C_10
REMARK    2  A    between atoms: C_3  and  C_20
REMARK    3  A    between atoms: C_8  and  O_18
REMARK    4  A    between atoms: C_15  and  O_16
REMARK                            x       y       z     vdW  Elec       q    Type
REMARK                         _______ _______ _______ _____ _____    ______ ____
ROOT
ATOM      1  N   UNL     1       0.232   0.303  -0.009  0.00  0.00    -0.234 N 
ATOM      2  N   UNL     1      -0.403   1.463   0.251  0.00  0.00    -0.165 NA
ATOM      3  C   UNL     1      -0.592  -0.758  -0.245  0.00  0.00    +0.062 A 
ATOM      4  C   UNL     1      -1.853  -0.244  -0.129  0.00  0.00    +0.036 A 
ATOM      5  C   UNL     1      -1.711   1.158   0.184  0.00  0.00    +0.103 A 
ATOM      6  C   UNL     1      -3.035  -0.955  -0.287  0.00  0.00    +0.039 C 
ATOM      7  C   UNL     1      -2.846   1.969   0.366  0.00  0.00    +0.024 C 
ATOM      8  C   UNL     1      -4.154  -0.119  -0.099  0.00  0.00    +0.134 C 
ATOM      9  C   UNL     1      -4.066   1.274   0.211  0.00  0.00    +0.038 C 
ENDROOT
BRANCH   1  10
ATOM     10  C   UNL     1       1.627   0.275  -0.016  0.00  0.00    +0.083 C 
ATOM     11  C   UNL     1       2.311   0.524  -1.199  0.00  0.00    +0.022 C 
ATOM     12  C   UNL     1       2.313  -0.002   1.159  0.00  0.00    +0.022 C 
ATOM     13  C   UNL     1       3.705   0.496  -1.206  0.00  0.00    +0.038 C 
ATOM     14  C   UNL     1       3.707  -0.031   1.152  0.00  0.00    +0.038 C 
ATOM     15  C   UNL     1       4.404   0.218  -0.031  0.00  0.00    +0.134 C 
BRANCH  15  16
ATOM     16  O   UNL     1       5.764   0.190  -0.038  0.00  0.00    -0.506 OA
ATOM     17  H   UNL     1       6.232   0.358  -0.833  0.00  0.00    +0.292 HD
ENDBRANCH  15  16
ENDBRANCH   1  10
BRANCH   8  18
ATOM     18  O   UNL     1      -5.402  -0.673  -0.221  0.00  0.00    -0.506 OA
ATOM     19  H   UNL     1      -5.493  -1.583  -0.424  0.00  0.00    +0.292 HD
ENDBRANCH   8  18
BRANCH   3  20
ATOM     20  C   UNL     1      -0.100  -2.117  -0.549  0.00  0.00    +0.046 C 
ATOM     21  C   UNL     1       0.099  -2.973   0.706  0.00  0.00    +0.007 C 
ENDBRANCH   3  20
TORSDOF 4
