REMARK  Name = 346926
REMARK  2 active torsions:
REMARK  status: ('A' for Active; 'I' for Inactive)
REMARK    1  A    between atoms: C_1  and  C_10
REMARK    2  A    between atoms: C_6  and  O_15
REMARK                            x       y       z     vdW  Elec       q    Type
REMARK                         _______ _______ _______ _____ _____    ______ ____
ROOT
ATOM      1  C   UNL     1       0.395   0.110   0.028  0.00  0.00    +0.027 C 
ATOM      2  C   UNL     1       1.187   1.204  -0.317  0.00  0.00    +0.005 C 
ATOM      3  C   UNL     1       0.991  -1.111   0.346  0.00  0.00    +0.005 C 
ATOM      4  C   UNL     1       2.576   1.079  -0.345  0.00  0.00    +0.037 C 
ATOM      5  C   UNL     1       2.380  -1.236   0.318  0.00  0.00    +0.037 C 
ATOM      6  C   UNL     1       3.172  -0.141  -0.027  0.00  0.00    +0.134 C 
ENDROOT
BRANCH   1  10
ATOM      7  S   UNL     1      -3.365   1.208   0.294  0.00  0.00    -0.060 S 
ATOM      8  N   UNL     1      -1.862  -0.833  -0.214  0.00  0.00    -0.385 NA
ATOM      9  N   UNL     1      -4.188  -1.244  -0.324  0.00  0.00    -0.328 N 
ATOM     10  C   UNL     1      -1.035   0.239   0.057  0.00  0.00    +0.122 C 
ATOM     11  C   UNL     1      -1.665   1.428   0.355  0.00  0.00    +0.125 C 
ATOM     12  C   UNL     1      -3.113  -0.438  -0.118  0.00  0.00    +0.204 C 
ATOM     13  H   UNL     1      -5.099  -0.882  -0.235  0.00  0.00    +0.145 HD
ATOM     14  H   UNL     1      -4.056  -2.190  -0.561  0.00  0.00    +0.145 HD
ENDBRANCH   1  10
BRANCH   6  15
ATOM     15  O   UNL     1       4.528  -0.264  -0.053  0.00  0.00    -0.506 OA
ATOM     16  H   UNL     1       5.060   0.472  -0.285  0.00  0.00    +0.292 HD
ENDBRANCH   6  15
TORSDOF 2
