REMARK  Name = 11963499
REMARK  11 active torsions:
REMARK  status: ('A' for Active; 'I' for Inactive)
REMARK    1  A    between atoms: S_1  and  C_4
REMARK    2  A    between atoms: S_1  and  N_17
REMARK    3  A    between atoms: C_7  and  N_14
REMARK    4  A    between atoms: N_17  and  C_19
REMARK    5  A    between atoms: C_19  and  C_20
REMARK    6  A    between atoms: C_20  and  C_21
REMARK    7  A    between atoms: C_21  and  C_22
REMARK    8  A    between atoms: C_22  and  N_24
REMARK    9  A    between atoms: C_25  and  C_27
REMARK   10  A    between atoms: C_27  and  C_28
REMARK   11  A    between atoms: C_28  and  S_29
REMARK                            x       y       z     vdW  Elec       q    Type
REMARK                         _______ _______ _______ _____ _____    ______ ____
ROOT
ATOM      1  S   UNL     1       3.712   0.300   0.540  0.00  0.00    +0.060 S 
ATOM      2  O   UNL     1       3.964  -0.231   1.870  0.00  0.00    -0.153 OA
ATOM      3  O   UNL     1       4.814   0.458  -0.394  0.00  0.00    -0.153 OA
ENDROOT
BRANCH   1   4
ATOM      4  C   UNL     1       2.505  -0.712  -0.240  0.00  0.00    +0.122 C 
ATOM      5  C   UNL     1       1.340  -1.147   0.413  0.00  0.00    +0.020 C 
ATOM      6  C   UNL     1       0.417  -1.960  -0.287  0.00  0.00    +0.015 C 
ATOM      7  C   UNL     1      -0.748  -2.396   0.366  0.00  0.00    +0.048 C 
ATOM      8  C   UNL     1       2.756  -1.073  -1.564  0.00  0.00    +0.020 C 
ATOM      9  C   UNL     1       1.071  -0.794   1.745  0.00  0.00    +0.001 C 
ATOM     10  C   UNL     1       0.686  -2.314  -1.619  0.00  0.00    +0.001 C 
ATOM     11  C   UNL     1       1.849  -1.872  -2.252  0.00  0.00    +0.001 C 
ATOM     12  C   UNL     1      -0.999  -2.035   1.690  0.00  0.00    +0.015 C 
ATOM     13  C   UNL     1      -0.091  -1.236   2.378  0.00  0.00    +0.001 C 
BRANCH   7  14
ATOM     14  N   UNL     1      -1.703  -3.212  -0.288  0.00  0.00    -0.304 N 
ATOM     15  C   UNL     1      -1.583  -4.652  -0.243  0.00  0.00    +0.112 C 
ATOM     16  C   UNL     1      -2.798  -2.609  -1.017  0.00  0.00    +0.112 C 
ENDBRANCH   7  14
ENDBRANCH   1   4
BRANCH   1  17
ATOM     17  N   UNL     1       2.891   1.789   0.684  0.00  0.00    -0.179 NA
ATOM     18  H   UNL     1       3.244   2.239   1.529  0.00  0.00    +0.149 HD
BRANCH  17  19
ATOM     19  C   UNL     1       2.978   2.785  -0.394  0.00  0.00    +0.092 C 
BRANCH  19  20
ATOM     20  C   UNL     1       1.727   3.657  -0.413  0.00  0.00    +0.021 C 
BRANCH  20  21
ATOM     21  C   UNL     1       0.449   2.847  -0.666  0.00  0.00    +0.023 C 
BRANCH  21  22
ATOM     22  C   UNL     1      -0.803   3.719  -0.677  0.00  0.00    +0.089 C 
BRANCH  22  24
ATOM     23  O   UNL     1      -2.507   2.451   1.273  0.00  0.00    -0.275 OA
ATOM     24  N   UNL     1      -1.996   2.961  -0.935  0.00  0.00    -0.304 N 
ATOM     25  C   UNL     1      -2.760   2.382   0.073  0.00  0.00    +0.223 C 
ATOM     26  H   UNL     1      -2.286   2.846  -1.869  0.00  0.00    +0.149 HD
BRANCH  25  27
ATOM     27  C   UNL     1      -3.982   1.666  -0.482  0.00  0.00    +0.096 C 
BRANCH  27  28
ATOM     28  C   UNL     1      -4.859   1.011   0.580  0.00  0.00    +0.063 C 
BRANCH  28  29
ATOM     29  S   UNL     1      -6.327   0.218  -0.144  0.00  0.00    -0.167 S 
ATOM     30  H   UNL     1      -7.071  -0.348   0.844  0.00  0.00    +0.102 HD
ENDBRANCH  28  29
ENDBRANCH  27  28
ENDBRANCH  25  27
ENDBRANCH  22  24
ENDBRANCH  21  22
ENDBRANCH  20  21
ENDBRANCH  19  20
ENDBRANCH  17  19
ENDBRANCH   1  17
TORSDOF 11
