REMARK  Name = 24875313
REMARK  5 active torsions:
REMARK  status: ('A' for Active; 'I' for Inactive)
REMARK    1  A    between atoms: N_3  and  C_13
REMARK    2  A    between atoms: C_6  and  C_22
REMARK    3  A    between atoms: C_14  and  C_21
REMARK    4  A    between atoms: C_22  and  C_23
REMARK    5  A    between atoms: C_23  and  N_24
REMARK                            x       y       z     vdW  Elec       q    Type
REMARK                         _______ _______ _______ _____ _____    ______ ____
ROOT
ATOM      1  S   UNL     1       0.186  -0.448  -2.205  0.00  0.00    -0.056 S 
ATOM      2  O   UNL     1       3.393  -1.997   0.814  0.00  0.00    -0.252 OA
ATOM      3  N   UNL     1       4.609  -0.246  -0.147  0.00  0.00    -0.266 N 
ATOM      4  N   UNL     1       2.429  -0.668  -0.867  0.00  0.00    -0.248 N 
ATOM      5  N   UNL     1       0.648  -2.215  -0.376  0.00  0.00    -0.223 NA
ATOM      6  C   UNL     1      -1.061  -1.566  -1.836  0.00  0.00    +0.031 C 
ATOM      7  C   UNL     1      -0.635  -2.424  -0.844  0.00  0.00    +0.103 C 
ATOM      8  C   UNL     1       1.176  -1.200  -1.022  0.00  0.00    +0.166 C 
ATOM      9  C   UNL     1       3.481  -1.065   0.021  0.00  0.00    +0.310 C 
ATOM     10  H   UNL     1       4.530   0.464  -0.825  0.00  0.00    +0.157 HD
ATOM     11  H   UNL     1       2.637   0.097  -1.450  0.00  0.00    +0.158 HD
ENDROOT
BRANCH   3  13
ATOM     12  O   UNL     1       7.949   0.165   1.168  0.00  0.00    -0.452 OA
ATOM     13  C   UNL     1       5.845  -0.314   0.538  0.00  0.00    +0.093 C 
ATOM     14  C   UNL     1       6.928   0.511   0.341  0.00  0.00    +0.229 C 
ATOM     15  C   UNL     1       6.226  -1.227   1.551  0.00  0.00    +0.051 C 
ATOM     16  C   UNL     1       7.513  -0.893   1.901  0.00  0.00    +0.125 C 
ATOM     17  C   UNL     1       8.466  -1.444   2.875  0.00  0.00    +0.073 C 
BRANCH  14  21
ATOM     18  F   UNL     1       6.129   1.973  -1.376  0.00  0.00    -0.163 F 
ATOM     19  F   UNL     1       7.478   2.826   0.093  0.00  0.00    -0.163 F 
ATOM     20  F   UNL     1       8.239   1.447  -1.407  0.00  0.00    -0.163 F 
ATOM     21  C   UNL     1       7.183   1.650  -0.554  0.00  0.00    +0.452 C 
ENDBRANCH  14  21
ENDBRANCH   3  13
BRANCH   6  22
ATOM     22  C   UNL     1      -2.383  -1.510  -2.563  0.00  0.00    +0.056 C 
BRANCH  22  23
ATOM     23  C   UNL     1      -3.488  -0.842  -1.747  0.00  0.00    +0.093 C 
BRANCH  23  24
ATOM     24  N   UNL     1      -3.117   0.504  -1.378  0.00  0.00    -0.321 N 
ATOM     25  H   UNL     1      -2.259   0.857  -1.708  0.00  0.00    +0.148 HD
ATOM     26  N   UNL     1      -3.458   2.570  -0.302  0.00  0.00    -0.234 NA
ATOM     27  N   UNL     1      -7.089   1.184   1.140  0.00  0.00    -0.274 N 
ATOM     28  N   UNL     1      -5.470   2.922   0.977  0.00  0.00    -0.233 NA
ATOM     29  N   UNL     1      -8.961  -0.228   1.583  0.00  0.00    -0.206 N 
ATOM     30  N   UNL     1      -7.414  -1.130   0.331  0.00  0.00    -0.193 NA
ATOM     31  N   UNL     1      -9.446  -1.453   1.329  0.00  0.00    -0.156 NA
ATOM     32  C   UNL     1      -3.900   1.328  -0.586  0.00  0.00    +0.110 C 
ATOM     33  C   UNL     1      -5.100   0.818  -0.132  0.00  0.00    +0.121 C 
ATOM     34  C   UNL     1      -5.851   1.669   0.653  0.00  0.00    +0.115 C 
ATOM     35  C   UNL     1      -4.280   3.303   0.473  0.00  0.00    +0.252 C 
ATOM     36  C   UNL     1      -7.753  -0.044   0.987  0.00  0.00    +0.207 C 
ATOM     37  C   UNL     1      -8.473  -1.958   0.568  0.00  0.00    +0.219 C 
ATOM     38  H   UNL     1      -7.579   1.834   1.694  0.00  0.00    +0.156 HD
ATOM     39  H   UNL     1      -9.420   0.450   2.130  0.00  0.00    +0.177 HD
ENDBRANCH  23  24
ENDBRANCH  22  23
ENDBRANCH   6  22
TORSDOF 5
