REMARK  Name = 5326930
REMARK  4 active torsions:
REMARK  status: ('A' for Active; 'I' for Inactive)
REMARK    1  A    between atoms: C_7  and  C_21
REMARK    2  A    between atoms: C_21  and  C_22
REMARK    3  A    between atoms: C_22  and  C_23
REMARK    4  A    between atoms: C_28  and  O_29
REMARK                            x       y       z     vdW  Elec       q    Type
REMARK                         _______ _______ _______ _____ _____    ______ ____
ROOT
ATOM      1  O   UNL     1       5.294  -1.604   0.375  0.00  0.00    -0.209 OA
ATOM      2  N   UNL     1       1.348  -1.822  -0.278  0.00  0.00    -0.275 N 
ATOM      3  N   UNL     1       3.380   3.280   0.059  0.00  0.00    -0.315 N 
ATOM      4  N   UNL     1       1.194   3.125  -0.304  0.00  0.00    -0.316 N 
ATOM      5  N   UNL     1       3.437  -2.908   0.067  0.00  0.00    -0.302 NA
ATOM      6  N   UNL     1       1.454  -4.112  -0.262  0.00  0.00    -0.320 N 
ATOM      7  C   UNL     1       1.123   0.606  -0.315  0.00  0.00    +0.007 C 
ATOM      8  C   UNL     1       1.914  -0.546  -0.184  0.00  0.00    +0.060 C 
ATOM      9  C   UNL     1       1.740   1.866  -0.213  0.00  0.00    +0.056 C 
ATOM     10  C   UNL     1       3.111   1.935   0.015  0.00  0.00    +0.060 C 
ATOM     11  C   UNL     1       3.294  -0.435   0.045  0.00  0.00    +0.109 C 
ATOM     12  C   UNL     1       3.928   0.812   0.150  0.00  0.00    +0.029 C 
ATOM     13  C   UNL     1       4.086  -1.692   0.175  0.00  0.00    +0.208 C 
ATOM     14  C   UNL     1       2.204   3.948  -0.136  0.00  0.00    +0.182 C 
ATOM     15  C   UNL     1       2.148  -2.934  -0.146  0.00  0.00    +0.248 C 
ATOM     16  H   UNL     1       0.382  -1.923  -0.438  0.00  0.00    +0.156 HD
ATOM     17  H   UNL     1       4.263   3.689   0.206  0.00  0.00    +0.148 HD
ATOM     18  H   UNL     1       0.250   3.359  -0.461  0.00  0.00    +0.148 HD
ATOM     19  H   UNL     1       0.483  -4.098  -0.423  0.00  0.00    +0.146 HD
ATOM     20  H   UNL     1       1.928  -4.972  -0.184  0.00  0.00    +0.146 HD
ENDROOT
BRANCH   7  21
ATOM     21  C   UNL     1      -0.349   0.495  -0.559  0.00  0.00    +0.034 C 
BRANCH  21  22
ATOM     22  C   UNL     1      -1.193   0.449   0.728  0.00  0.00    +0.031 C 
BRANCH  22  23
ATOM     23  C   UNL     1      -2.672   0.305   0.466  0.00  0.00    -0.022 C 
ATOM     24  C   UNL     1      -3.450   1.442   0.319  0.00  0.00    -0.001 C 
ATOM     25  C   UNL     1      -3.226  -0.962   0.379  0.00  0.00    -0.001 C 
ATOM     26  C   UNL     1      -4.817   1.310   0.077  0.00  0.00    +0.037 C 
ATOM     27  C   UNL     1      -4.594  -1.095   0.137  0.00  0.00    +0.037 C 
ATOM     28  C   UNL     1      -5.389   0.041  -0.014  0.00  0.00    +0.139 C 
BRANCH  28  29
ATOM     29  O   UNL     1      -6.723  -0.089  -0.249  0.00  0.00    -0.471 OA
ATOM     30  C   UNL     1      -7.243  -1.415  -0.330  0.00  0.00    +0.252 C 
ENDBRANCH  28  29
ENDBRANCH  22  23
ENDBRANCH  21  22
ENDBRANCH   7  21
TORSDOF 4
