REMARK  Name = 24794392
REMARK  6 active torsions:
REMARK  status: ('A' for Active; 'I' for Inactive)
REMARK    1  A    between atoms: S_1  and  C_5
REMARK    2  A    between atoms: S_1  and  N_17
REMARK    3  A    between atoms: N_17  and  C_19
REMARK    4  A    between atoms: C_19  and  C_20
REMARK    5  A    between atoms: C_19  and  C_24
REMARK    6  A    between atoms: C_24  and  O_25
REMARK                            x       y       z     vdW  Elec       q    Type
REMARK                         _______ _______ _______ _____ _____    ______ ____
ROOT
ATOM      1  S   UNL     1      -2.312  -1.839  -0.212  0.00  0.00    +0.061 S 
ATOM      2  O   UNL     1      -2.611  -1.915  -1.636  0.00  0.00    -0.153 OA
ATOM      3  O   UNL     1      -2.548  -3.003   0.630  0.00  0.00    -0.153 OA
ENDROOT
BRANCH   1   5
ATOM      4  S   UNL     1       2.320   0.601  -1.959  0.00  0.00    -0.087 S 
ATOM      5  C   UNL     1      -0.642  -1.368  -0.014  0.00  0.00    +0.122 C 
ATOM      6  C   UNL     1       2.056  -0.605   0.303  0.00  0.00    +0.007 A 
ATOM      7  C   UNL     1       1.346  -0.277  -0.852  0.00  0.00    +0.031 A 
ATOM      8  C   UNL     1      -0.002  -0.651  -1.026  0.00  0.00    +0.026 C 
ATOM      9  C   UNL     1       3.422  -0.117   0.257  0.00  0.00    +0.006 A 
ATOM     10  C   UNL     1       0.038  -1.708   1.145  0.00  0.00    +0.020 C 
ATOM     11  C   UNL     1       1.374  -1.335   1.312  0.00  0.00    +0.002 C 
ATOM     12  C   UNL     1       3.693   0.562  -0.932  0.00  0.00    +0.029 A 
ATOM     13  C   UNL     1       4.471  -0.229   1.207  0.00  0.00    +0.001 C 
ATOM     14  C   UNL     1       4.959   1.123  -1.194  0.00  0.00    +0.006 C 
ATOM     15  C   UNL     1       5.728   0.326   0.952  0.00  0.00    +0.000 C 
ATOM     16  C   UNL     1       5.968   0.995  -0.238  0.00  0.00    +0.001 C 
ENDBRANCH   1   5
BRANCH   1  17
ATOM     17  N   UNL     1      -3.151  -0.506   0.452  0.00  0.00    -0.170 NA
ATOM     18  H   UNL     1      -2.875  -0.443   1.432  0.00  0.00    +0.149 HD
BRANCH  17  19
ATOM     19  C   UNL     1      -2.974   0.834  -0.127  0.00  0.00    +0.174 C 
BRANCH  19  20
ATOM     20  C   UNL     1      -4.324   1.398  -0.609  0.00  0.00    +0.027 C 
ATOM     21  C   UNL     1      -5.357   1.424   0.524  0.00  0.00    +0.002 C 
ATOM     22  C   UNL     1      -4.882   0.569  -1.772  0.00  0.00    +0.002 C 
ENDBRANCH  19  20
BRANCH  19  24
ATOM     23  O   UNL     1      -2.168   1.198   2.139  0.00  0.00    -0.249 OA
ATOM     24  C   UNL     1      -2.369   1.631   1.012  0.00  0.00    +0.330 C 
BRANCH  24  25
ATOM     25  O   UNL     1      -2.034   2.893   0.637  0.00  0.00    -0.479 OA
ATOM     26  H   UNL     1      -2.206   3.183  -0.237  0.00  0.00    +0.295 HD
ENDBRANCH  24  25
ENDBRANCH  19  24
ENDBRANCH  17  19
ENDBRANCH   1  17
TORSDOF 6
