REMARK  Name = 42647299
REMARK  2 active torsions:
REMARK  status: ('A' for Active; 'I' for Inactive)
REMARK    1  A    between atoms: C_3  and  C_8
REMARK    2  A    between atoms: C_4  and  C_16
REMARK                            x       y       z     vdW  Elec       q    Type
REMARK                         _______ _______ _______ _____ _____    ______ ____
ROOT
ATOM      1  N   UNL     1      -1.528  -2.671  -0.147  0.00  0.00    -0.236 N 
ATOM      2  N   UNL     1      -0.660  -3.692  -0.252  0.00  0.00    -0.180 NA
ATOM      3  C   UNL     1       0.422  -1.689  -0.063  0.00  0.00    +0.035 C 
ATOM      4  C   UNL     1      -0.930  -1.450  -0.031  0.00  0.00    +0.067 C 
ATOM      5  C   UNL     1       0.529  -3.086  -0.200  0.00  0.00    +0.119 C 
ATOM      6  H   UNL     1      -2.504  -2.793  -0.154  0.00  0.00    +0.174 HD
ENDROOT
BRANCH   3   8
ATOM      7  F   UNL     1       4.366   2.220   0.297  0.00  0.00    -0.204 F 
ATOM      8  C   UNL     1       1.440  -0.681   0.031  0.00  0.00    +0.003 C 
ATOM      9  C   UNL     1       2.354  -0.515  -1.010  0.00  0.00    +0.002 C 
ATOM     10  C   UNL     1       1.514   0.133   1.161  0.00  0.00    +0.002 C 
ATOM     11  C   UNL     1       3.343   0.465  -0.919  0.00  0.00    +0.030 C 
ATOM     12  C   UNL     1       2.503   1.113   1.251  0.00  0.00    +0.030 C 
ATOM     13  C   UNL     1       3.417   1.279   0.211  0.00  0.00    +0.140 C 
ENDBRANCH   3   8
BRANCH   4  16
ATOM     14  F   UNL     1      -2.191   2.907  -1.600  0.00  0.00    -0.183 F 
ATOM     15  N   UNL     1      -3.171   2.129   0.332  0.00  0.00    -0.216 NA
ATOM     16  C   UNL     1      -1.693  -0.232   0.092  0.00  0.00    +0.020 C 
ATOM     17  C   UNL     1      -1.558   0.776  -0.856  0.00  0.00    +0.051 C 
ATOM     18  C   UNL     1      -2.567  -0.060   1.161  0.00  0.00    +0.022 C 
ATOM     19  C   UNL     1      -2.313   1.927  -0.692  0.00  0.00    +0.222 C 
ATOM     20  C   UNL     1      -3.276   1.127   1.234  0.00  0.00    +0.101 C 
ENDBRANCH   4  16
TORSDOF 2
