REMARK  Name = 11473003
REMARK  8 active torsions:
REMARK  status: ('A' for Active; 'I' for Inactive)
REMARK    1  A    between atoms: S_1  and  C_4
REMARK    2  A    between atoms: S_1  and  N_14
REMARK    3  A    between atoms: N_14  and  C_16
REMARK    4  A    between atoms: C_16  and  C_17
REMARK    5  A    between atoms: C_17  and  O_18
REMARK    6  A    between atoms: O_18  and  P_19
REMARK    7  A    between atoms: P_19  and  O_21
REMARK    8  A    between atoms: P_19  and  O_23
REMARK                            x       y       z     vdW  Elec       q    Type
REMARK                         _______ _______ _______ _____ _____    ______ ____
ROOT
ATOM      1  S   UNL     1       0.301  -1.828   0.597  0.00  0.00    +0.060 S 
ATOM      2  O   UNL     1       0.574  -1.471   1.984  0.00  0.00    -0.153 OA
ATOM      3  O   UNL     1       0.306  -3.232   0.208  0.00  0.00    -0.153 OA
ENDROOT
BRANCH   1   4
ATOM      4  C   UNL     1      -1.242  -1.153   0.136  0.00  0.00    +0.122 C 
ATOM      5  C   UNL     1      -2.978   0.523   0.442  0.00  0.00    +0.001 C 
ATOM      6  C   UNL     1      -1.738  -0.031   0.800  0.00  0.00    +0.020 C 
ATOM      7  C   UNL     1      -3.724  -0.068  -0.606  0.00  0.00    +0.000 C 
ATOM      8  C   UNL     1      -1.975  -1.735  -0.893  0.00  0.00    +0.020 C 
ATOM      9  C   UNL     1      -3.208  -1.197  -1.263  0.00  0.00    +0.001 C 
ATOM     10  C   UNL     1      -3.493   1.652   1.099  0.00  0.00    +0.000 C 
ATOM     11  C   UNL     1      -4.963   0.486  -0.964  0.00  0.00    +0.000 C 
ATOM     12  C   UNL     1      -4.726   2.190   0.730  0.00  0.00    +0.000 C 
ATOM     13  C   UNL     1      -5.460   1.608  -0.300  0.00  0.00    +0.000 C 
ENDBRANCH   1   4
BRANCH   1  14
ATOM     14  N   UNL     1       1.391  -0.979  -0.410  0.00  0.00    -0.177 NA
ATOM     15  H   UNL     1       1.137  -1.202  -1.372  0.00  0.00    +0.149 HD
BRANCH  14  16
ATOM     16  C   UNL     1       1.479   0.485  -0.322  0.00  0.00    +0.124 C 
BRANCH  16  17
ATOM     17  C   UNL     1       2.875   0.935  -0.713  0.00  0.00    +0.172 C 
BRANCH  17  18
ATOM     18  O   UNL     1       3.821   0.378   0.191  0.00  0.00    -0.272 OA
BRANCH  18  19
ATOM     19  P   UNL     1       5.386   0.721  -0.028  0.00  0.00    +0.473 P 
ATOM     20  O   UNL     1       6.319   0.095   0.967  0.00  0.00    -0.227 OA
BRANCH  19  21
ATOM     21  O   UNL     1       5.421   2.336  -0.089  0.00  0.00    -0.303 OA
ATOM     22  H   UNL     1       4.790   2.649  -0.755  0.00  0.00    +0.222 HD
ENDBRANCH  19  21
BRANCH  19  23
ATOM     23  O   UNL     1       5.635   0.286  -1.566  0.00  0.00    -0.303 OA
ATOM     24  H   UNL     1       4.991   0.734  -2.137  0.00  0.00    +0.222 HD
ENDBRANCH  19  23
ENDBRANCH  18  19
ENDBRANCH  17  18
ENDBRANCH  16  17
ENDBRANCH  14  16
ENDBRANCH   1  14
TORSDOF 8
