REMARK  Name = 22049997
REMARK  5 active torsions:
REMARK  status: ('A' for Active; 'I' for Inactive)
REMARK    1  A    between atoms: N_3  and  C_10
REMARK    2  A    between atoms: C_7  and  O_22
REMARK    3  A    between atoms: C_13  and  C_19
REMARK    4  A    between atoms: O_22  and  C_23
REMARK    5  A    between atoms: C_23  and  C_26
REMARK                            x       y       z     vdW  Elec       q    Type
REMARK                         _______ _______ _______ _____ _____    ______ ____
ROOT
ATOM      1 BR   UNL     1       1.444   2.872   0.287  0.00  0.00    -0.041 Br
ATOM      2  O   UNL     1      -1.437   2.212  -0.365  0.00  0.00    -0.269 OA
ATOM      3  N   UNL     1      -1.444  -0.136  -0.229  0.00  0.00    -0.237 N 
ATOM      4  C   UNL     1      -0.689  -1.303  -0.004  0.00  0.00    +0.039 C 
ATOM      5  C   UNL     1      -0.846   1.151  -0.148  0.00  0.00    +0.265 C 
ATOM      6  C   UNL     1       0.623  -1.220   0.275  0.00  0.00    +0.048 C 
ATOM      7  C   UNL     1       1.288   0.047   0.351  0.00  0.00    +0.151 C 
ATOM      8  C   UNL     1       0.622   1.196   0.174  0.00  0.00    +0.122 C 
ATOM      9  C   UNL     1      -1.352  -2.656   0.048  0.00  0.00    +0.048 C 
ENDROOT
BRANCH   3  10
ATOM     10  C   UNL     1      -2.845  -0.173  -0.568  0.00  0.00    +0.054 C 
ATOM     11  C   UNL     1      -3.257  -0.234  -1.899  0.00  0.00    -0.008 C 
ATOM     12  C   UNL     1      -3.793  -0.149   0.455  0.00  0.00    +0.019 C 
ATOM     13  C   UNL     1      -5.152  -0.185   0.147  0.00  0.00    +0.055 C 
ATOM     14  C   UNL     1      -4.617  -0.271  -2.207  0.00  0.00    -0.003 C 
ATOM     15  C   UNL     1      -5.565  -0.246  -1.184  0.00  0.00    +0.004 C 
ATOM     16  C   UNL     1      -2.264  -0.262  -3.015  0.00  0.00    +0.032 C 
BRANCH  13  19
ATOM     17  O   UNL     1      -5.856  -0.574   2.350  0.00  0.00    -0.270 OA
ATOM     18  N   UNL     1      -7.398   0.374   0.901  0.00  0.00    -0.299 N 
ATOM     19  C   UNL     1      -6.141  -0.158   1.214  0.00  0.00    +0.246 C 
ATOM     20  C   UNL     1      -8.476   0.491   1.857  0.00  0.00    +0.111 C 
ATOM     21  H   UNL     1      -7.556   0.685  -0.019  0.00  0.00    +0.150 HD
ENDBRANCH  13  19
ENDBRANCH   3  10
BRANCH   7  22
ATOM     22  O   UNL     1       2.632  -0.034   0.639  0.00  0.00    -0.470 OA
BRANCH  22  23
ATOM     23  C   UNL     1       3.397  -0.128  -0.548  0.00  0.00    +0.234 C 
BRANCH  23  26
ATOM     24  F   UNL     1       5.095   2.115  -0.234  0.00  0.00    -0.204 F 
ATOM     25  F   UNL     1       8.843  -0.579   0.806  0.00  0.00    -0.204 F 
ATOM     26  C   UNL     1       4.849  -0.246  -0.186  0.00  0.00    +0.049 C 
ATOM     27  C   UNL     1       5.631   0.901  -0.047  0.00  0.00    +0.142 C 
ATOM     28  C   UNL     1       5.416  -1.505   0.010  0.00  0.00    +0.004 C 
ATOM     29  C   UNL     1       6.980   0.788   0.288  0.00  0.00    +0.059 C 
ATOM     30  C   UNL     1       6.765  -1.617   0.345  0.00  0.00    +0.030 C 
ATOM     31  C   UNL     1       7.547  -0.471   0.484  0.00  0.00    +0.142 C 
ENDBRANCH  23  26
ENDBRANCH  22  23
ENDBRANCH   7  22
TORSDOF 5
