REMARK  Name = 44176354
REMARK  10 active torsions:
REMARK  status: ('A' for Active; 'I' for Inactive)
REMARK    1  A    between atoms: C_1  and  C_3
REMARK    2  A    between atoms: C_1  and  C_6
REMARK    3  A    between atoms: C_1  and  C_16
REMARK    4  A    between atoms: C_3  and  O_4
REMARK    5  A    between atoms: C_6  and  C_7
REMARK    6  A    between atoms: C_7  and  O_8
REMARK    7  A    between atoms: C_7  and  O_10
REMARK    8  A    between atoms: C_7  and  C_12
REMARK    9  A    between atoms: C_12  and  N_15
REMARK   10  A    between atoms: C_16  and  C_17
REMARK                            x       y       z     vdW  Elec       q    Type
REMARK                         _______ _______ _______ _____ _____    ______ ____
ROOT
ATOM      1  C   UNL     1       0.082  -0.607  -0.899  0.00  0.00    +0.108 C 
ENDROOT
BRANCH   1   3
ATOM      2  O   UNL     1       0.338  -1.455   1.376  0.00  0.00    -0.250 OA
ATOM      3  C   UNL     1       0.135  -1.672   0.188  0.00  0.00    +0.314 C 
BRANCH   3   4
ATOM      4  O   UNL     1      -0.035  -2.924  -0.310  0.00  0.00    -0.480 OA
ATOM      5  H   UNL     1      -0.189  -3.047  -1.226  0.00  0.00    +0.295 HD
ENDBRANCH   3   4
ENDBRANCH   1   3
BRANCH   1   6
ATOM      6  C   UNL     1      -0.469   0.741  -0.377  0.00  0.00    +0.069 C 
BRANCH   6   7
ATOM      7  C   UNL     1      -2.011   0.847  -0.286  0.00  0.00    +0.209 C 
BRANCH   7   8
ATOM      8  O   UNL     1      -2.535   0.662  -1.607  0.00  0.00    -0.362 OA
ATOM      9  H   UNL     1      -2.306  -0.226  -1.924  0.00  0.00    +0.213 HD
ENDBRANCH   7   8
BRANCH   7  10
ATOM     10  O   UNL     1      -2.361   2.163   0.160  0.00  0.00    -0.362 OA
ATOM     11  H   UNL     1      -2.014   2.304   1.054  0.00  0.00    +0.213 HD
ENDBRANCH   7  10
BRANCH   7  12
ATOM     12  C   UNL     1      -2.695  -0.157   0.641  0.00  0.00    +0.249 C 
BRANCH  12  15
ATOM     13  O   UNL     1      -4.769  -0.678  -0.280  0.00  0.00    -0.131 OA
ATOM     14  O   UNL     1      -4.694   0.786   1.365  0.00  0.00    -0.131 OA
ATOM     15  N   UNL     1      -4.158  -0.001   0.565  0.00  0.00    +0.040 N 
ENDBRANCH  12  15
ENDBRANCH   7  12
ENDBRANCH   6   7
ENDBRANCH   1   6
BRANCH   1  16
ATOM     16  C   UNL     1       1.474  -0.471  -1.558  0.00  0.00    +0.038 C 
BRANCH  16  17
ATOM     17  C   UNL     1       2.588   0.014  -0.659  0.00  0.00    -0.022 C 
ATOM     18  C   UNL     1       2.849   1.379  -0.545  0.00  0.00    -0.004 C 
ATOM     19  C   UNL     1       3.356  -0.905   0.057  0.00  0.00    -0.004 C 
ATOM     20  C   UNL     1       3.877   1.827   0.284  0.00  0.00    -0.000 C 
ATOM     21  C   UNL     1       4.384  -0.458   0.886  0.00  0.00    -0.000 C 
ATOM     22  C   UNL     1       4.645   0.908   1.000  0.00  0.00    -0.000 C 
ENDBRANCH  16  17
ENDBRANCH   1  16
TORSDOF 10
