REMARK  Name = 46937108
REMARK  5 active torsions:
REMARK  status: ('A' for Active; 'I' for Inactive)
REMARK    1  A    between atoms: S_1  and  C_4
REMARK    2  A    between atoms: S_1  and  N_10
REMARK    3  A    between atoms: N_10  and  C_12
REMARK    4  A    between atoms: C_12  and  C_14
REMARK    5  A    between atoms: C_14  and  N_16
REMARK                            x       y       z     vdW  Elec       q    Type
REMARK                         _______ _______ _______ _____ _____    ______ ____
ROOT
ATOM      1  S   UNL     1      -0.445   1.618  -0.404  0.00  0.00    +0.061 S 
ATOM      2  O   UNL     1      -0.139   1.672  -1.828  0.00  0.00    -0.153 OA
ATOM      3  O   UNL     1      -0.953   2.811   0.261  0.00  0.00    -0.153 OA
ENDROOT
BRANCH   1   4
ATOM      4  C   UNL     1      -1.584   0.325  -0.123  0.00  0.00    +0.122 C 
ATOM      5  C   UNL     1      -2.424   0.366   0.990  0.00  0.00    +0.020 C 
ATOM      6  C   UNL     1      -1.651  -0.750  -1.009  0.00  0.00    +0.020 C 
ATOM      7  C   UNL     1      -3.332  -0.669   1.217  0.00  0.00    +0.001 C 
ATOM      8  C   UNL     1      -2.558  -1.785  -0.782  0.00  0.00    +0.001 C 
ATOM      9  C   UNL     1      -3.398  -1.745   0.331  0.00  0.00    +0.000 C 
ENDBRANCH   1   4
BRANCH   1  10
ATOM     10  N   UNL     1       0.942   1.075   0.433  0.00  0.00    -0.170 NA
ATOM     11  H   UNL     1       0.680   0.991   1.415  0.00  0.00    +0.149 HD
BRANCH  10  12
ATOM     12  C   UNL     1       1.578  -0.194   0.052  0.00  0.00    +0.180 C 
BRANCH  12  14
ATOM     13  O   UNL     1       3.606   0.872   0.820  0.00  0.00    -0.269 OA
ATOM     14  C   UNL     1       3.052  -0.115   0.349  0.00  0.00    +0.288 C 
BRANCH  14  16
ATOM     15  O   UNL     1       3.362  -2.231  -0.390  0.00  0.00    -0.071 OA
ATOM     16  N   UNL     1       3.945  -1.250   0.084  0.00  0.00    -0.027 NA
ENDBRANCH  14  16
ENDBRANCH  12  14
ENDBRANCH  10  12
ENDBRANCH   1  10
TORSDOF 5
