REMARK  Name = 5287979
REMARK  6 active torsions:
REMARK  status: ('A' for Active; 'I' for Inactive)
REMARK    1  A    between atoms: C_1  and  C_7
REMARK    2  A    between atoms: C_2  and  C_21
REMARK    3  A    between atoms: C_3  and  N_25
REMARK    4  A    between atoms: C_10  and  C_15
REMARK    5  A    between atoms: N_14  and  O_17
REMARK    6  A    between atoms: C_26  and  C_28
REMARK                            x       y       z     vdW  Elec       q    Type
REMARK                         _______ _______ _______ _____ _____    ______ ____
ROOT
ATOM      1  C   UNL     1       1.313   0.527  -0.186  0.00  0.00    +0.001 C 
ATOM      2  C   UNL     1      -0.035   2.520  -0.410  0.00  0.00    +0.055 C 
ATOM      3  C   UNL     1      -1.098   0.362  -0.188  0.00  0.00    +0.051 C 
ATOM      4  C   UNL     1       1.218   1.911  -0.334  0.00  0.00    +0.005 C 
ATOM      5  C   UNL     1       0.155  -0.247  -0.112  0.00  0.00    +0.015 C 
ATOM      6  C   UNL     1      -1.193   1.745  -0.336  0.00  0.00    +0.019 C 
ENDROOT
BRANCH   1   7
ATOM      7  C   UNL     1       2.612  -0.105  -0.107  0.00  0.00    +0.000 C 
ATOM      8  C   UNL     1       2.783  -1.408  -0.573  0.00  0.00    +0.000 C 
ATOM      9  C   UNL     1       3.694   0.589   0.436  0.00  0.00    +0.000 C 
ATOM     10  C   UNL     1       5.117  -1.325   0.046  0.00  0.00    +0.055 C 
ATOM     11  C   UNL     1       4.035  -2.018  -0.497  0.00  0.00    +0.005 C 
ATOM     12  C   UNL     1       4.946  -0.021   0.512  0.00  0.00    +0.005 C 
BRANCH  10  15
ATOM     13  O   UNL     1       7.463  -1.280   0.106  0.00  0.00    -0.268 OA
ATOM     14  N   UNL     1       6.447  -3.346   0.209  0.00  0.00    -0.193 N 
ATOM     15  C   UNL     1       6.422  -1.961   0.126  0.00  0.00    +0.268 C 
ATOM     16  H   UNL     1       5.617  -3.877   0.224  0.00  0.00    +0.183 HD
BRANCH  14  17
ATOM     17  O   UNL     1       7.709  -3.953   0.271  0.00  0.00    -0.295 OA
ATOM     18  H   UNL     1       7.602  -4.916   0.327  0.00  0.00    +0.241 HD
ENDBRANCH  14  17
ENDBRANCH  10  15
ENDBRANCH   1   7
BRANCH   2  21
ATOM     19  O   UNL     1      -0.150   4.403  -1.722  0.00  0.00    -0.270 OA
ATOM     20  N   UNL     1      -0.190   4.769   0.586  0.00  0.00    -0.273 N 
ATOM     21  C   UNL     1      -0.134   3.963  -0.565  0.00  0.00    +0.249 C 
ATOM     22  C   UNL     1      -0.168   4.204   1.933  0.00  0.00    +0.115 C 
ATOM     23  C   UNL     1      -0.274   6.221   0.512  0.00  0.00    +0.115 C 
ENDBRANCH   2  21
BRANCH   3  25
ATOM     24  O   UNL     1      -3.982   1.173  -0.298  0.00  0.00    -0.270 OA
ATOM     25  N   UNL     1      -2.256  -0.413  -0.114  0.00  0.00    -0.280 N 
ATOM     26  C   UNL     1      -3.587   0.019  -0.171  0.00  0.00    +0.249 C 
ATOM     27  H   UNL     1      -2.121  -1.383  -0.010  0.00  0.00    +0.155 HD
BRANCH  26  28
ATOM     28  C   UNL     1      -4.610  -1.052  -0.036  0.00  0.00    +0.054 C 
ATOM     29  C   UNL     1      -4.286  -2.334  -0.425  0.00  0.00    +0.004 C 
ATOM     30  C   UNL     1      -5.850  -0.726   0.473  0.00  0.00    +0.004 C 
ATOM     31  C   UNL     1      -6.508  -3.037   0.213  0.00  0.00    -0.022 C 
ATOM     32  C   UNL     1      -5.246  -3.338  -0.299  0.00  0.00    -0.004 C 
ATOM     33  C   UNL     1      -6.810  -1.730   0.599  0.00  0.00    -0.004 C 
ATOM     34  C   UNL     1      -7.534  -4.110   0.349  0.00  0.00    +0.031 C 
ENDBRANCH  26  28
ENDBRANCH   3  25
TORSDOF 6
