REMARK  Name = 9543486
REMARK  9 active torsions:
REMARK  status: ('A' for Active; 'I' for Inactive)
REMARK    1  A    between atoms: C_1  and  N_2
REMARK    2  A    between atoms: C_1  and  C_17
REMARK    3  A    between atoms: N_2  and  S_4
REMARK    4  A    between atoms: S_4  and  C_7
REMARK    5  A    between atoms: C_17  and  O_18
REMARK    6  A    between atoms: C_17  and  C_20
REMARK    7  A    between atoms: C_20  and  N_21
REMARK    8  A    between atoms: C_20  and  C_25
REMARK    9  A    between atoms: C_25  and  C_26
REMARK                            x       y       z     vdW  Elec       q    Type
REMARK                         _______ _______ _______ _____ _____    ______ ____
ROOT
ATOM      1  C   UNL     1       1.646  -2.346   0.858  0.00  0.00    +0.118 C 
ENDROOT
BRANCH   1   2
ATOM      2  N   UNL     1       2.618  -2.157  -0.246  0.00  0.00    -0.177 NA
ATOM      3  H   UNL     1       3.265  -2.945  -0.207  0.00  0.00    +0.149 HD
BRANCH   2   4
ATOM      4  S   UNL     1       3.561  -0.747  -0.310  0.00  0.00    +0.060 S 
ATOM      5  O   UNL     1       4.325  -0.732  -1.543  0.00  0.00    -0.153 OA
ATOM      6  O   UNL     1       4.232  -0.576   0.965  0.00  0.00    -0.153 OA
BRANCH   4   7
ATOM      7  C   UNL     1       2.327   0.514  -0.417  0.00  0.00    +0.122 C 
ATOM      8  C   UNL     1       1.826   1.069   0.748  0.00  0.00    +0.020 C 
ATOM      9  C   UNL     1       0.845   2.071   0.680  0.00  0.00    +0.001 C 
ATOM     10  C   UNL     1       1.886   0.921  -1.661  0.00  0.00    +0.020 C 
ATOM     11  C   UNL     1       0.381   2.501  -0.586  0.00  0.00    +0.000 C 
ATOM     12  C   UNL     1       0.912   1.915  -1.747  0.00  0.00    +0.001 C 
ATOM     13  C   UNL     1       0.314   2.657   1.841  0.00  0.00    +0.000 C 
ATOM     14  C   UNL     1      -0.601   3.503  -0.654  0.00  0.00    +0.000 C 
ATOM     15  C   UNL     1      -0.660   3.652   1.755  0.00  0.00    +0.000 C 
ATOM     16  C   UNL     1      -1.117   4.074   0.510  0.00  0.00    +0.000 C 
ENDBRANCH   4   7
ENDBRANCH   2   4
ENDBRANCH   1   2
BRANCH   1  17
ATOM     17  C   UNL     1       0.233  -2.458   0.278  0.00  0.00    +0.108 C 
BRANCH  17  18
ATOM     18  O   UNL     1       0.196  -3.529  -0.666  0.00  0.00    -0.385 OA
ATOM     19  H   UNL     1      -0.698  -3.603  -1.036  0.00  0.00    +0.210 HD
ENDBRANCH  17  18
BRANCH  17  20
ATOM     20  C   UNL     1      -0.844  -2.690   1.365  0.00  0.00    -0.032 C 
BRANCH  20  21
ATOM     21  N   UNL     1      -0.842  -1.579   2.325  0.00  0.00    +0.384 N 
ATOM     22  H   UNL     1       0.095  -1.467   2.714  0.00  0.00    -0.089 HD
ATOM     23  H   UNL     1      -1.501  -1.778   3.078  0.00  0.00    -0.089 HD
ATOM     24  H   UNL     1      -1.117  -0.718   1.851  0.00  0.00    -0.089 HD
ENDBRANCH  20  21
BRANCH  20  25
ATOM     25  C   UNL     1      -2.271  -2.838   0.791  0.00  0.00    +0.007 C 
BRANCH  25  26
ATOM     26  C   UNL     1      -2.736  -1.636   0.004  0.00  0.00    -0.024 C 
ATOM     27  C   UNL     1      -3.401  -0.612   0.660  0.00  0.00    -0.004 C 
ATOM     28  C   UNL     1      -2.490  -1.579  -1.358  0.00  0.00    -0.004 C 
ATOM     29  C   UNL     1      -3.831   0.499  -0.067  0.00  0.00    -0.000 C 
ATOM     30  C   UNL     1      -2.919  -0.468  -2.084  0.00  0.00    -0.000 C 
ATOM     31  C   UNL     1      -3.590   0.571  -1.439  0.00  0.00    -0.000 C 
ENDBRANCH  25  26
ENDBRANCH  20  25
ENDBRANCH  17  20
ENDBRANCH   1  17
TORSDOF 9
