REMARK  Name = 448724
REMARK  4 active torsions:
REMARK  status: ('A' for Active; 'I' for Inactive)
REMARK    1  A    between atoms: C_4  and  O_14
REMARK    2  A    between atoms: C_5  and  C_21
REMARK    3  A    between atoms: O_14  and  C_15
REMARK    4  A    between atoms: C_21  and  C_22
REMARK                            x       y       z     vdW  Elec       q    Type
REMARK                         _______ _______ _______ _____ _____    ______ ____
ROOT
ATOM      1 CL   UNL     1       3.843  -2.791  -1.267  0.00  0.00    -0.082 Cl
ATOM      2  O   UNL     1       0.013   3.747   1.266  0.00  0.00    -0.267 OA
ATOM      3  N   UNL     1       1.719   2.262   0.922  0.00  0.00    -0.321 N 
ATOM      4  C   UNL     1      -0.106   0.531  -0.302  0.00  0.00    +0.140 A 
ATOM      5  C   UNL     1      -0.547   1.710   0.173  0.00  0.00    +0.068 A 
ATOM      6  C   UNL     1       1.320   0.154  -0.216  0.00  0.00    +0.050 A 
ATOM      7  C   UNL     1       2.200   1.044   0.417  0.00  0.00    +0.062 A 
ATOM      8  C   UNL     1       0.405   2.664   0.831  0.00  0.00    +0.257 A 
ATOM      9  C   UNL     1       1.854  -1.031  -0.744  0.00  0.00    +0.016 C 
ATOM     10  C   UNL     1       3.563   0.754   0.545  0.00  0.00    +0.018 C 
ATOM     11  C   UNL     1       3.216  -1.323  -0.619  0.00  0.00    +0.058 C 
ATOM     12  C   UNL     1       4.069  -0.434   0.028  0.00  0.00    +0.013 C 
ATOM     13  H   UNL     1       2.358   2.863   1.368  0.00  0.00    +0.169 HD
ENDROOT
BRANCH   4  14
ATOM     14  O   UNL     1      -0.993  -0.340  -0.909  0.00  0.00    -0.479 OA
BRANCH  14  15
ATOM     15  C   UNL     1      -1.541  -1.244   0.045  0.00  0.00    +0.166 C 
ATOM     16  C   UNL     1      -2.964  -1.622  -0.366  0.00  0.00    +0.044 C 
ATOM     17  C   UNL     1      -0.643  -2.474   0.161  0.00  0.00    +0.044 C 
ATOM     18  C   UNL     1      -3.560  -2.665   0.574  0.00  0.00    +0.004 C 
ATOM     19  C   UNL     1      -1.239  -3.518   1.100  0.00  0.00    +0.004 C 
ATOM     20  C   UNL     1      -2.661  -3.894   0.691  0.00  0.00    +0.000 C 
ENDBRANCH  14  15
ENDBRANCH   4  14
BRANCH   5  21
ATOM     21  C   UNL     1      -1.978   2.165   0.104  0.00  0.00    +0.034 C 
BRANCH  21  22
ATOM     22  C   UNL     1      -2.257   2.936  -1.181  0.00  0.00    +0.005 C 
ATOM     23  C   UNL     1      -3.712   3.370  -1.252  0.00  0.00    +0.000 C 
ENDBRANCH  21  22
ENDBRANCH   5  21
TORSDOF 4
