REMARK  Name = 45480632
REMARK  4 active torsions:
REMARK  status: ('A' for Active; 'I' for Inactive)
REMARK    1  A    between atoms: C_8  and  O_27
REMARK    2  A    between atoms: C_23  and  C_31
REMARK    3  A    between atoms: C_25  and  O_29
REMARK    4  A    between atoms: C_31  and  O_32
REMARK                            x       y       z     vdW  Elec       q    Type
REMARK                         _______ _______ _______ _____ _____    ______ ____
ROOT
ATOM      1  O   UNL     1      -1.163   1.464  -0.168  0.00  0.00    -0.347 OA
ATOM      2  O   UNL     1      -3.369  -1.444  -0.024  0.00  0.00    -0.353 OA
ATOM      3  O   UNL     1       1.385  -1.221  -0.216  0.00  0.00    -0.353 OA
ATOM      4  O   UNL     1      -5.928   1.224  -0.007  0.00  0.00    -0.346 OA
ATOM      5  O   UNL     1       4.540   0.590  -0.683  0.00  0.00    -0.346 OA
ATOM      6  C   UNL     1      -2.249   0.667   0.304  0.00  0.00    +0.172 C 
ATOM      7  C   UNL     1      -2.283  -0.641  -0.472  0.00  0.00    +0.147 C 
ATOM      8  C   UNL     1      -3.562   1.416   0.100  0.00  0.00    +0.169 C 
ATOM      9  C   UNL     1      -0.972  -1.381  -0.255  0.00  0.00    +0.065 C 
ATOM     10  C   UNL     1       0.226  -0.493  -0.617  0.00  0.00    +0.149 C 
ATOM     11  C   UNL     1      -4.764   0.514   0.423  0.00  0.00    +0.172 C 
ATOM     12  C   UNL     1       0.120   0.867   0.096  0.00  0.00    +0.164 C 
ATOM     13  C   UNL     1      -4.642  -0.839  -0.299  0.00  0.00    +0.149 C 
ATOM     14  C   UNL     1       2.594  -0.826  -0.866  0.00  0.00    +0.151 C 
ATOM     15  C   UNL     1      -5.701  -1.861   0.134  0.00  0.00    +0.058 C 
ATOM     16  C   UNL     1       1.144   1.876  -0.345  0.00  0.00    +0.003 C 
ATOM     17  C   UNL     1       3.210   0.407  -0.177  0.00  0.00    +0.164 C 
ATOM     18  C   UNL     1       2.464   1.682  -0.462  0.00  0.00    +0.003 C 
ATOM     19  C   UNL     1       3.527  -2.055  -0.847  0.00  0.00    +0.058 C 
ATOM     20  C   UNL     1      -7.114  -1.544  -0.239  0.00  0.00    -0.026 C 
ATOM     21  C   UNL     1      -7.134   0.818   0.627  0.00  0.00    +0.168 C 
ATOM     22  C   UNL     1      -7.739  -0.378  -0.029  0.00  0.00    +0.001 C 
ATOM     23  C   UNL     1       5.582   0.511   0.301  0.00  0.00    +0.176 C 
ATOM     24  C   UNL     1       4.040  -2.381   0.527  0.00  0.00    -0.026 C 
ATOM     25  C   UNL     1       6.118  -0.933   0.403  0.00  0.00    +0.162 C 
ATOM     26  C   UNL     1       5.160  -1.883   1.073  0.00  0.00    +0.001 C 
ENDROOT
BRANCH   8  27
ATOM     27  O   UNL     1      -3.576   2.545   0.975  0.00  0.00    -0.379 OA
ATOM     28  H   UNL     1      -2.819   3.118   0.776  0.00  0.00    +0.211 HD
ENDBRANCH   8  27
BRANCH  25  29
ATOM     29  O   UNL     1       7.323  -0.960   1.170  0.00  0.00    -0.377 OA
ATOM     30  H   UNL     1       7.972  -0.359   0.773  0.00  0.00    +0.211 HD
ENDBRANCH  25  29
BRANCH  23  31
ATOM     31  C   UNL     1       6.664   1.484  -0.174  0.00  0.00    +0.170 C 
BRANCH  31  32
ATOM     32  O   UNL     1       6.098   2.777  -0.253  0.00  0.00    -0.379 OA
ATOM     33  H   UNL     1       6.772   3.407  -0.553  0.00  0.00    +0.211 HD
ENDBRANCH  31  32
ENDBRANCH  23  31
TORSDOF 4
