REMARK  Name = 11608401
REMARK  3 active torsions:
REMARK  status: ('A' for Active; 'I' for Inactive)
REMARK    1  A    between atoms: C_1  and  C_11
REMARK    2  A    between atoms: C_2  and  C_18
REMARK    3  A    between atoms: C_18  and  N_19
REMARK                            x       y       z     vdW  Elec       q    Type
REMARK                         _______ _______ _______ _____ _____    ______ ____
ROOT
ATOM      1  C   UNL     1       0.162   0.578   0.000  0.00  0.00    +0.015 C 
ATOM      2  C   UNL     1       2.960   0.450  -0.002  0.00  0.00    -0.044 C 
ATOM      3  C   UNL     1       0.870   0.547  -1.208  0.00  0.00    +0.001 C 
ATOM      4  C   UNL     1       0.871   0.545   1.207  0.00  0.00    +0.001 C 
ATOM      5  C   UNL     1       2.263   0.483  -1.209  0.00  0.00    -0.006 C 
ATOM      6  C   UNL     1       2.264   0.482   1.207  0.00  0.00    -0.006 C 
ENDROOT
BRANCH   1  11
ATOM      7  N   UNL     1      -1.869  -1.819  -0.001  0.00  0.00    -0.271 NA
ATOM      8  N   UNL     1      -1.863   1.859   0.002  0.00  0.00    -0.247 NA
ATOM      9  N   UNL     1      -4.084  -1.566   0.000  0.00  0.00    -0.307 N 
ATOM     10  N   UNL     1      -4.091   0.865   0.001  0.00  0.00    -0.232 NA
ATOM     11  C   UNL     1      -1.272   0.643   0.001  0.00  0.00    +0.077 C 
ATOM     12  C   UNL     1      -2.089  -0.471   0.000  0.00  0.00    +0.150 C 
ATOM     13  C   UNL     1      -3.471  -0.340   0.001  0.00  0.00    +0.123 C 
ATOM     14  C   UNL     1      -3.094  -2.433  -0.001  0.00  0.00    +0.163 C 
ATOM     15  C   UNL     1      -3.217   1.894   0.002  0.00  0.00    +0.251 C 
ATOM     16  H   UNL     1      -0.993  -2.267  -0.001  0.00  0.00    +0.125 HD
ATOM     17  H   UNL     1      -5.050  -1.756   0.000  0.00  0.00    +0.149 HD
ENDBRANCH   1  11
BRANCH   2  18
ATOM     18  C   UNL     1       4.450   0.382  -0.002  0.00  0.00    -0.054 C 
BRANCH  18  19
ATOM     19  N   UNL     1       4.876  -0.994  -0.003  0.00  0.00    +0.385 N 
ATOM     20  C   UNL     1       6.335  -1.104   0.007  0.00  0.00    -0.105 C 
ATOM     21  H   UNL     1       4.515  -1.452  -0.839  0.00  0.00    -0.084 HD
ATOM     22  H   UNL     1       4.516  -1.440   0.841  0.00  0.00    -0.084 HD
ENDBRANCH  18  19
ENDBRANCH   2  18
TORSDOF 3
