REMARK  Name = 46937084
REMARK  16 active torsions:
REMARK  status: ('A' for Active; 'I' for Inactive)
REMARK    1  A    between atoms: C_2  and  O_9
REMARK    2  A    between atoms: C_4  and  O_7
REMARK    3  A    between atoms: C_5  and  O_23
REMARK    4  A    between atoms: C_6  and  C_32
REMARK    5  A    between atoms: O_9  and  C_11
REMARK    6  A    between atoms: C_12  and  O_17
REMARK    7  A    between atoms: C_13  and  O_19
REMARK    8  A    between atoms: C_14  and  O_21
REMARK    9  A    between atoms: O_23  and  C_24
REMARK   10  A    between atoms: C_24  and  C_25
REMARK   11  A    between atoms: C_25  and  C_26
REMARK   12  A    between atoms: C_26  and  C_27
REMARK   13  A    between atoms: C_27  and  C_28
REMARK   14  A    between atoms: C_28  and  C_29
REMARK   15  A    between atoms: C_29  and  C_30
REMARK   16  A    between atoms: C_32  and  O_33
REMARK                            x       y       z     vdW  Elec       q    Type
REMARK                         _______ _______ _______ _____ _____    ______ ____
ROOT
ATOM      1  O   UNL     1       0.946  -2.991   0.199  0.00  0.00    -0.326 OA
ATOM      2  C   UNL     1       2.224  -0.926   0.175  0.00  0.00    +0.176 C 
ATOM      3  C   UNL     1       3.466  -1.700  -0.267  0.00  0.00    +0.067 C 
ATOM      4  C   UNL     1       3.373  -3.169   0.132  0.00  0.00    +0.143 C 
ATOM      5  C   UNL     1       0.948  -1.642  -0.266  0.00  0.00    +0.264 C 
ATOM      6  C   UNL     1       2.033  -3.762  -0.323  0.00  0.00    +0.174 C 
ENDROOT
BRANCH   4   7
ATOM      7  O   UNL     1       3.488  -3.278   1.549  0.00  0.00    -0.382 OA
ATOM      8  H   UNL     1       4.335  -2.902   1.835  0.00  0.00    +0.210 HD
ENDBRANCH   4   7
BRANCH   2   9
ATOM      9  O   UNL     1       2.250   0.377  -0.401  0.00  0.00    -0.326 OA
BRANCH   9  11
ATOM     10  O   UNL     1       2.057   1.914   1.388  0.00  0.00    -0.329 OA
ATOM     11  C   UNL     1       2.936   1.304   0.439  0.00  0.00    +0.266 C 
ATOM     12  C   UNL     1       3.631   2.371  -0.413  0.00  0.00    +0.196 C 
ATOM     13  C   UNL     1       2.604   3.284  -1.081  0.00  0.00    +0.171 C 
ATOM     14  C   UNL     1       1.619   3.841  -0.048  0.00  0.00    +0.167 C 
ATOM     15  C   UNL     1       1.018   2.702   0.787  0.00  0.00    +0.147 C 
ATOM     16  C   UNL     1       0.128   3.215   1.914  0.00  0.00    +0.035 C 
BRANCH  12  17
ATOM     17  O   UNL     1       4.436   1.753  -1.413  0.00  0.00    -0.378 OA
ATOM     18  H   UNL     1       5.088   1.173  -0.990  0.00  0.00    +0.211 HD
ENDBRANCH  12  17
BRANCH  13  19
ATOM     19  O   UNL     1       3.279   4.353  -1.739  0.00  0.00    -0.379 OA
ATOM     20  H   UNL     1       3.900   3.991  -2.391  0.00  0.00    +0.211 HD
ENDBRANCH  13  19
BRANCH  14  21
ATOM     21  O   UNL     1       2.291   4.769   0.807  0.00  0.00    -0.379 OA
ATOM     22  H   UNL     1       2.668   5.486   0.273  0.00  0.00    +0.211 HD
ENDBRANCH  14  21
ENDBRANCH   9  11
ENDBRANCH   2   9
BRANCH   5  23
ATOM     23  O   UNL     1      -0.164  -0.940   0.287  0.00  0.00    -0.329 OA
BRANCH  23  24
ATOM     24  C   UNL     1      -1.367  -1.232  -0.411  0.00  0.00    +0.145 C 
BRANCH  24  25
ATOM     25  C   UNL     1      -2.505  -0.438   0.215  0.00  0.00    +0.032 C 
BRANCH  25  26
ATOM     26  C   UNL     1      -3.837  -0.718  -0.480  0.00  0.00    +0.003 C 
BRANCH  26  27
ATOM     27  C   UNL     1      -4.966   0.116   0.130  0.00  0.00    +0.000 C 
BRANCH  27  28
ATOM     28  C   UNL     1      -6.330  -0.142  -0.515  0.00  0.00    +0.000 C 
BRANCH  28  29
ATOM     29  C   UNL     1      -7.472   0.636   0.143  0.00  0.00    +0.000 C 
BRANCH  29  30
ATOM     30  C   UNL     1      -8.818   0.286  -0.493  0.00  0.00    +0.000 C 
ATOM     31  C   UNL     1      -9.962   1.027   0.181  0.00  0.00    +0.000 C 
ENDBRANCH  29  30
ENDBRANCH  28  29
ENDBRANCH  27  28
ENDBRANCH  26  27
ENDBRANCH  25  26
ENDBRANCH  24  25
ENDBRANCH  23  24
ENDBRANCH   5  23
BRANCH   6  32
ATOM     32  C   UNL     1       1.844  -5.198   0.152  0.00  0.00    +0.169 C 
BRANCH  32  33
ATOM     33  O   UNL     1       0.851  -5.813  -0.650  0.00  0.00    -0.379 OA
ATOM     34  H   UNL     1       0.721  -6.728  -0.357  0.00  0.00    +0.211 HD
ENDBRANCH  32  33
ENDBRANCH   6  32
TORSDOF 16
