REMARK  Name = 5287977
REMARK  8 active torsions:
REMARK  status: ('A' for Active; 'I' for Inactive)
REMARK    1  A    between atoms: C_3  and  C_15
REMARK    2  A    between atoms: C_4  and  N_9
REMARK    3  A    between atoms: C_7  and  C_21
REMARK    4  A    between atoms: C_10  and  C_12
REMARK    5  A    between atoms: C_15  and  C_20
REMARK    6  A    between atoms: C_21  and  N_23
REMARK    7  A    between atoms: C_21  and  C_33
REMARK    8  A    between atoms: N_24  and  C_28
REMARK                            x       y       z     vdW  Elec       q    Type
REMARK                         _______ _______ _______ _____ _____    ______ ____
ROOT
ATOM      1  O   UNL     1      -0.182  -0.940  -1.396  0.00  0.00    -0.273 OA
ATOM      2  N   UNL     1       1.185  -0.683   0.454  0.00  0.00    -0.278 N 
ATOM      3  C   UNL     1       2.389  -0.287  -0.278  0.00  0.00    +0.100 C 
ATOM      4  C   UNL     1       3.325   0.283   0.794  0.00  0.00    +0.092 C 
ATOM      5  C   UNL     1       2.912  -0.471   2.060  0.00  0.00    +0.043 C 
ATOM      6  C   UNL     1       1.408  -0.650   1.897  0.00  0.00    +0.095 C 
ATOM      7  C   UNL     1      -0.028  -0.919  -0.174  0.00  0.00    +0.244 C 
ENDROOT
BRANCH   4   9
ATOM      8  O   UNL     1       4.796   2.425  -0.515  0.00  0.00    -0.275 OA
ATOM      9  N   UNL     1       3.134   1.707   0.950  0.00  0.00    -0.304 N 
ATOM     10  C   UNL     1       3.890   2.650   0.279  0.00  0.00    +0.222 C 
ATOM     11  H   UNL     1       2.431   2.020   1.564  0.00  0.00    +0.149 HD
BRANCH  10  12
ATOM     12  C   UNL     1       3.518   4.062   0.590  0.00  0.00    +0.077 C 
ATOM     13  C   UNL     1       2.095   4.501   0.405  0.00  0.00    +0.010 C 
ATOM     14  C   UNL     1       3.159   4.987  -0.535  0.00  0.00    +0.010 C 
ENDBRANCH  10  12
ENDBRANCH   4   9
BRANCH   3  15
ATOM     15  C   UNL     1       2.974  -1.551  -0.906  0.00  0.00    +0.077 C 
ATOM     16  C   UNL     1       4.449  -1.381  -1.323  0.00  0.00    +0.009 C 
ATOM     17  C   UNL     1       2.643  -1.676  -2.408  0.00  0.00    +0.009 C 
ATOM     18  C   UNL     1       4.096  -2.158  -2.609  0.00  0.00    +0.001 C 
BRANCH  15  20
ATOM     19  O   UNL     1       3.465  -3.441   0.627  0.00  0.00    -0.288 OA
ATOM     20  C   UNL     1       2.654  -2.793  -0.034  0.00  0.00    +0.208 C 
ENDBRANCH  15  20
ENDBRANCH   3  15
BRANCH   7  21
ATOM     21  C   UNL     1      -1.198  -1.167   0.745  0.00  0.00    +0.150 C 
BRANCH  21  23
ATOM     22  O   UNL     1      -3.422   0.249   1.891  0.00  0.00    -0.253 OA
ATOM     23  N   UNL     1      -2.278  -0.542   0.033  0.00  0.00    -0.283 N 
ATOM     24  N   UNL     1      -4.236   0.641  -0.248  0.00  0.00    -0.291 N 
ATOM     25  C   UNL     1      -3.324   0.129   0.670  0.00  0.00    +0.301 C 
ATOM     26  H   UNL     1      -2.281  -0.589  -0.951  0.00  0.00    +0.151 HD
ATOM     27  H   UNL     1      -4.070   0.492  -1.207  0.00  0.00    +0.151 HD
BRANCH  24  28
ATOM     28  C   UNL     1      -5.413   1.380   0.138  0.00  0.00    +0.073 C 
ATOM     29  C   UNL     1      -6.625   0.468   0.290  0.00  0.00    +0.020 C 
ATOM     30  C   UNL     1      -5.856   2.352  -0.949  0.00  0.00    +0.020 C 
ATOM     31  C   UNL     1      -7.144   0.280  -1.133  0.00  0.00    +0.002 C 
ATOM     32  C   UNL     1      -6.686   1.510  -1.917  0.00  0.00    +0.002 C 
ENDBRANCH  24  28
ENDBRANCH  21  23
BRANCH  21  33
ATOM     33  C   UNL     1      -1.421  -2.663   0.991  0.00  0.00    +0.027 C 
ATOM     34  C   UNL     1      -1.678  -3.401  -0.327  0.00  0.00    +0.002 C 
ATOM     35  C   UNL     1      -2.601  -2.900   1.940  0.00  0.00    +0.002 C 
ENDBRANCH  21  33
ENDBRANCH   7  21
TORSDOF 8
