448955
  -OEChem-10051721113D

 49 51  0     0  0  0  0  0  0999 V2000
   -4.5443   -0.5237    0.3528 S   0  0  0  0  0  0  0  0  0  0  0  0
    0.9928    1.8324    1.1700 O   0  0  0  0  0  0  0  0  0  0  0  0
   -5.3873   -1.2779    1.2616 O   0  0  0  0  0  0  0  0  0  0  0  0
   -5.1161    0.0541   -0.8483 O   0  0  0  0  0  0  0  0  0  0  0  0
   -3.6992    0.6843    1.2441 N   0  0  0  0  0  0  0  0  0  0  0  0
    3.1784    0.1541    0.4555 N   0  0  0  0  0  0  0  0  0  0  0  0
    7.0434   -0.7543   -0.7189 N   0  3  0  0  0  0  0  0  0  0  0  0
   -2.5923    1.3444    0.6295 C   0  0  0  0  0  0  0  0  0  0  0  0
   -0.2435    1.9095    0.6065 C   0  0  0  0  0  0  0  0  0  0  0  0
   -1.6964    2.7125   -1.1488 C   0  0  0  0  0  0  0  0  0  0  0  0
   -1.3250    1.2651    1.2069 C   0  0  0  0  0  0  0  0  0  0  0  0
   -2.7780    2.0680   -0.5484 C   0  0  0  0  0  0  0  0  0  0  0  0
   -0.4291    2.6333   -0.5714 C   0  0  0  0  0  0  0  0  0  0  0  0
    1.2974    0.6502    1.9086 C   0  0  0  0  0  0  0  0  0  0  0  0
    2.7893    0.3742    1.8290 C   0  0  0  0  0  0  0  0  0  0  0  0
   -3.2286   -1.6004   -0.1390 C   0  0  0  0  0  0  0  0  0  0  0  0
   -1.8947    3.4860   -2.4084 C   0  0  0  0  0  0  0  0  0  0  0  0
    4.4717   -0.1496    0.0624 C   0  0  0  0  0  0  0  0  0  0  0  0
   -2.8759   -2.6532    0.6856 C   0  0  0  0  0  0  0  0  0  0  0  0
   -2.5799   -1.3672   -1.3380 C   0  0  0  0  0  0  0  0  0  0  0  0
   -1.8389   -3.5019    0.2979 C   0  0  0  0  0  0  0  0  0  0  0  0
   -1.5430   -2.2158   -1.7258 C   0  0  0  0  0  0  0  0  0  0  0  0
    5.5050   -0.2632    1.0066 C   0  0  0  0  0  0  0  0  0  0  0  0
    4.7859   -0.3528   -1.2909 C   0  0  0  0  0  0  0  0  0  0  0  0
   -1.1725   -3.2832   -0.9079 C   0  0  0  0  0  0  0  0  0  0  0  0
    6.7909   -0.5689    0.5840 C   0  0  0  0  0  0  0  0  0  0  0  0
    6.0899   -0.6561   -1.6553 C   0  0  0  0  0  0  0  0  0  0  0  0
   -3.5931    0.5067    2.2515 H   0  0  0  0  0  0  0  0  0  0  0  0
   -1.2171    0.7165    2.1388 H   0  0  0  0  0  0  0  0  0  0  0  0
   -3.7642    2.1643   -0.9934 H   0  0  0  0  0  0  0  0  0  0  0  0
    1.0074    0.8000    2.9548 H   0  0  0  0  0  0  0  0  0  0  0  0
    0.7703   -0.2261    1.5073 H   0  0  0  0  0  0  0  0  0  0  0  0
    0.4183    3.1342   -1.0331 H   0  0  0  0  0  0  0  0  0  0  0  0
    3.3324    1.2385    2.2290 H   0  0  0  0  0  0  0  0  0  0  0  0
    3.0188   -0.5051    2.4415 H   0  0  0  0  0  0  0  0  0  0  0  0
    2.4742    0.2345   -0.2701 H   0  0  0  0  0  0  0  0  0  0  0  0
   -2.2110    4.5077   -2.1760 H   0  0  0  0  0  0  0  0  0  0  0  0
   -0.9721    3.5314   -2.9970 H   0  0  0  0  0  0  0  0  0  0  0  0
   -2.6553    3.0164   -3.0414 H   0  0  0  0  0  0  0  0  0  0  0  0
   -3.3762   -2.8351    1.6316 H   0  0  0  0  0  0  0  0  0  0  0  0
   -2.8560   -0.5479   -1.9938 H   0  0  0  0  0  0  0  0  0  0  0  0
   -1.5487   -4.3317    0.9358 H   0  0  0  0  0  0  0  0  0  0  0  0
   -1.0246   -2.0460   -2.6649 H   0  0  0  0  0  0  0  0  0  0  0  0
    5.3361   -0.1183    2.0690 H   0  0  0  0  0  0  0  0  0  0  0  0
    4.0185   -0.2752   -2.0560 H   0  0  0  0  0  0  0  0  0  0  0  0
   -0.3647   -3.9435   -1.2095 H   0  0  0  0  0  0  0  0  0  0  0  0
    7.6360   -0.6723    1.2505 H   0  0  0  0  0  0  0  0  0  0  0  0
    6.4069   -0.8256   -2.6750 H   0  0  0  0  0  0  0  0  0  0  0  0
    7.9951   -0.9780   -1.0081 H   0  0  0  0  0  0  0  0  0  0  0  0
  1  3  2  0  0  0  0
  1  4  2  0  0  0  0
  1  5  1  0  0  0  0
  1 16  1  0  0  0  0
  2  9  1  0  0  0  0
  2 14  1  0  0  0  0
  5  8  1  0  0  0  0
  5 28  1  0  0  0  0
  6 15  1  0  0  0  0
  6 18  1  0  0  0  0
  6 36  1  0  0  0  0
  7 26  2  0  0  0  0
  7 27  1  0  0  0  0
  7 49  1  0  0  0  0
  8 11  2  0  0  0  0
  8 12  1  0  0  0  0
  9 11  1  0  0  0  0
  9 13  2  0  0  0  0
 10 12  2  0  0  0  0
 10 13  1  0  0  0  0
 10 17  1  0  0  0  0
 11 29  1  0  0  0  0
 12 30  1  0  0  0  0
 13 33  1  0  0  0  0
 14 15  1  0  0  0  0
 14 31  1  0  0  0  0
 14 32  1  0  0  0  0
 15 34  1  0  0  0  0
 15 35  1  0  0  0  0
 16 19  2  0  0  0  0
 16 20  1  0  0  0  0
 17 37  1  0  0  0  0
 17 38  1  0  0  0  0
 17 39  1  0  0  0  0
 18 23  2  0  0  0  0
 18 24  1  0  0  0  0
 19 21  1  0  0  0  0
 19 40  1  0  0  0  0
 20 22  2  0  0  0  0
 20 41  1  0  0  0  0
 21 25  2  0  0  0  0
 21 42  1  0  0  0  0
 22 25  1  0  0  0  0
 22 43  1  0  0  0  0
 23 26  1  0  0  0  0
 23 44  1  0  0  0  0
 24 27  2  0  0  0  0
 24 45  1  0  0  0  0
 25 46  1  0  0  0  0
 26 47  1  0  0  0  0
 27 48  1  0  0  0  0
M  CHG  1   7   1
M  END
> <DATABASE_ID>
DB07944

> <DATABASE_NAME>
drugbank

> <ORIGINAL_SOURCE>
PUBCHEM

> <ORIGINAL_SOURCE_URL>
https://pubchem.ncbi.nlm.nih.gov/rest/pug/compound/inchikey/MPTWCWHNLVMCRW-UHFFFAOYSA-O/SDF?record_type=3d

> <SMILES>
CC1=CC(OCCNC2=CC=[NH+]C=C2)=CC(NS(=O)(=O)C2=CC=CC=C2)=C1

> <INCHI_IDENTIFIER>
InChI=1S/C20H21N3O3S/c1-16-13-18(23-27(24,25)20-5-3-2-4-6-20)15-19(14-16)26-12-11-22-17-7-9-21-10-8-17/h2-10,13-15,23H,11-12H2,1H3,(H,21,22)/p+1

> <INCHI_KEY>
MPTWCWHNLVMCRW-UHFFFAOYSA-O

> <FORMULA>
C20H22N3O3S

> <MOLECULAR_WEIGHT>
384.472

> <EXACT_MASS>
384.138187275

> <JCHEM_ACCEPTOR_COUNT>
4

> <JCHEM_AVERAGE_POLARIZABILITY>
41.9919675718339

> <JCHEM_BIOAVAILABILITY>
1

> <JCHEM_DONOR_COUNT>
3

> <JCHEM_FORMAL_CHARGE>
1

> <JCHEM_GHOSE_FILTER>
1

> <JCHEM_IUPAC>
4-{[2-(3-benzenesulfonamido-5-methylphenoxy)ethyl]amino}pyridin-1-ium

> <ALOGPS_LOGP>
1.09

> <JCHEM_LOGP>
1.8395278751061945

> <ALOGPS_LOGS>
-5.87

> <JCHEM_MDDR_LIKE_RULE>
1

> <JCHEM_NUMBER_OF_RINGS>
3

> <JCHEM_PHYSIOLOGICAL_CHARGE>
1

> <JCHEM_PKA_STRONGEST_ACIDIC>
7.679665194595079

> <JCHEM_PKA_STRONGEST_BASIC>
8.84793618666339

> <JCHEM_POLAR_SURFACE_AREA>
81.57

> <JCHEM_REFRACTIVITY>
107.77919999999999

> <JCHEM_ROTATABLE_BOND_COUNT>
7

> <JCHEM_RULE_OF_FIVE>
1

> <ALOGPS_SOLUBILITY>
5.72e-04 g/l

> <JCHEM_TRADITIONAL_IUPAC>
4-{[2-(3-benzenesulfonamido-5-methylphenoxy)ethyl]amino}pyridin-1-ium

> <JCHEM_VEBER_RULE>
0

> <DRUGBANK_ID>
DB07944

> <DRUG_GROUPS>
experimental

> <GENERIC_NAME>
N-{3-METHYL-5-[2-(PYRIDIN-4-YLAMINO)-ETHOXY]-PHENYL}-BENZENESULFONAMIDE

$$$$
