REMARK  Name = 11840930
REMARK  11 active torsions:
REMARK  status: ('A' for Active; 'I' for Inactive)
REMARK    1  A    between atoms: C_1  and  C_4
REMARK    2  A    between atoms: C_1  and  N_14
REMARK    3  A    between atoms: C_1  and  C_29
REMARK    4  A    between atoms: N_3  and  C_6
REMARK    5  A    between atoms: C_6  and  C_9
REMARK    6  A    between atoms: C_9  and  N_10
REMARK    7  A    between atoms: N_14  and  C_17
REMARK    8  A    between atoms: C_17  and  C_19
REMARK    9  A    between atoms: C_17  and  C_28
REMARK   10  A    between atoms: C_29  and  S_30
REMARK   11  A    between atoms: S_30  and  N_34
REMARK                            x       y       z     vdW  Elec       q    Type
REMARK                         _______ _______ _______ _____ _____    ______ ____
ROOT
ATOM      1  C   UNL     1      -0.144   0.347   0.314  0.00  0.00    +0.043 C 
ENDROOT
BRANCH   1   4
ATOM      2  O   UNL     1      -0.819   2.341   1.517  0.00  0.00    -0.277 OA
ATOM      3  N   UNL     1       1.136   2.403   0.271  0.00  0.00    -0.311 N 
ATOM      4  C   UNL     1       0.001   1.791   0.784  0.00  0.00    +0.204 C 
ATOM      5  H   UNL     1       1.736   1.880  -0.308  0.00  0.00    +0.149 HD
BRANCH   3   6
ATOM      6  C   UNL     1       1.468   3.771   0.554  0.00  0.00    +0.037 C 
ATOM      7  C   UNL     1       1.691   4.202   1.974  0.00  0.00    +0.017 C 
ATOM      8  C   UNL     1       2.850   4.119   1.024  0.00  0.00    +0.017 C 
BRANCH   6   9
ATOM      9  C   UNL     1       0.799   4.753  -0.349  0.00  0.00    -0.068 C 
BRANCH   9  10
ATOM     10  N   UNL     1       1.030   4.427  -1.751  0.00  0.00    +0.382 N 
ATOM     11  H   UNL     1       0.561   5.114  -2.342  0.00  0.00    -0.089 HD
ATOM     12  H   UNL     1       0.658   3.498  -1.950  0.00  0.00    -0.089 HD
ATOM     13  H   UNL     1       2.032   4.441  -1.943  0.00  0.00    -0.089 HD
ENDBRANCH   9  10
ENDBRANCH   6   9
ENDBRANCH   3   6
ENDBRANCH   1   4
BRANCH   1  14
ATOM     14  N   UNL     1       0.566  -0.468   1.298  0.00  0.00    +0.401 N 
ATOM     15  H   UNL     1      -0.032  -0.604   2.114  0.00  0.00    -0.083 HD
ATOM     16  H   UNL     1       1.424   0.014   1.565  0.00  0.00    -0.083 HD
BRANCH  14  17
ATOM     17  C   UNL     1       0.913  -1.765   0.739  0.00  0.00    +0.059 C 
BRANCH  17  19
ATOM     18  F   UNL     1       5.516  -1.467  -2.515  0.00  0.00    -0.204 F 
ATOM     19  C   UNL     1       2.149  -1.685  -0.135  0.00  0.00    -0.034 C 
ATOM     20  C   UNL     1       3.183  -0.809   0.198  0.00  0.00    -0.004 C 
ATOM     21  C   UNL     1       2.253  -2.486  -1.272  0.00  0.00    -0.004 C 
ATOM     22  C   UNL     1       4.321  -0.736  -0.606  0.00  0.00    +0.029 C 
ATOM     23  C   UNL     1       3.390  -2.413  -2.076  0.00  0.00    +0.029 C 
ATOM     24  C   UNL     1       4.424  -1.538  -1.743  0.00  0.00    +0.140 C 
ENDBRANCH  17  19
BRANCH  17  28
ATOM     25  F   UNL     1       1.272  -4.034   1.319  0.00  0.00    -0.172 F 
ATOM     26  F   UNL     1       2.090  -2.525   2.656  0.00  0.00    -0.172 F 
ATOM     27  F   UNL     1      -0.062  -2.892   2.612  0.00  0.00    -0.172 F 
ATOM     28  C   UNL     1       1.045  -2.807   1.845  0.00  0.00    +0.384 C 
ENDBRANCH  17  28
ENDBRANCH  14  17
ENDBRANCH   1  14
BRANCH   1  29
ATOM     29  C   UNL     1      -1.603  -0.097   0.255  0.00  0.00    +0.157 C 
BRANCH  29  30
ATOM     30  S   UNL     1      -2.421   0.529  -1.182  0.00  0.00    +0.042 S 
ATOM     31  O   UNL     1      -2.502   1.974  -1.062  0.00  0.00    -0.157 OA
ATOM     32  O   UNL     1      -1.821  -0.091  -2.349  0.00  0.00    -0.157 OA
BRANCH  30  34
ATOM     33  O   UNL     1      -6.221  -1.466   0.172  0.00  0.00    -0.351 OA
ATOM     34  N   UNL     1      -3.980  -0.136  -0.940  0.00  0.00    -0.154 NA
ATOM     35  C   UNL     1      -4.780   0.482   0.158  0.00  0.00    +0.127 C 
ATOM     36  C   UNL     1      -4.040  -1.626  -0.872  0.00  0.00    +0.127 C 
ATOM     37  C   UNL     1      -6.207  -0.040   0.077  0.00  0.00    +0.161 C 
ATOM     38  C   UNL     1      -5.499  -2.059  -0.910  0.00  0.00    +0.161 C 
ENDBRANCH  30  34
ENDBRANCH  29  30
ENDBRANCH   1  29
TORSDOF 11
