REMARK  Name = 25113101
REMARK  8 active torsions:
REMARK  status: ('A' for Active; 'I' for Inactive)
REMARK    1  A    between atoms: C_1  and  C_2
REMARK    2  A    between atoms: C_1  and  O_11
REMARK    3  A    between atoms: C_1  and  CA_13
REMARK    4  A    between atoms: C_7  and  N_10
REMARK    5  A    between atoms: CA_13  and  N_15
REMARK    6  A    between atoms: CA_13  and  C_21
REMARK    7  A    between atoms: C_16  and  C_20
REMARK    8  A    between atoms: C_21  and  O_22
REMARK                            x       y       z     vdW  Elec       q    Type
REMARK                         _______ _______ _______ _____ _____    ______ ____
ROOT
ATOM      1  C   UNL     1      -0.329  -0.124   1.058  0.00  0.00    +0.153 C 
ENDROOT
BRANCH   1   2
ATOM      2  C   UNL     1       1.124  -0.016   0.654  0.00  0.00    +0.006 C 
ATOM      3  C   UNL     1       2.059  -0.915   1.167  0.00  0.00    -0.000 C 
ATOM      4  C   UNL     1       1.529   0.982  -0.233  0.00  0.00    -0.000 C 
ATOM      5  C   UNL     1       3.399  -0.816   0.794  0.00  0.00    +0.024 C 
ATOM      6  C   UNL     1       2.870   1.081  -0.606  0.00  0.00    +0.024 C 
ATOM      7  C   UNL     1       3.805   0.181  -0.093  0.00  0.00    +0.143 C 
BRANCH   7  10
ATOM      8  O   UNL     1       5.993  -0.538  -0.002  0.00  0.00    -0.126 OA
ATOM      9  O   UNL     1       5.513   1.186  -1.273  0.00  0.00    -0.126 OA
ATOM     10  N   UNL     1       5.169   0.281  -0.474  0.00  0.00    +0.058 N 
ENDBRANCH   7  10
ENDBRANCH   1   2
BRANCH   1  11
ATOM     11  O   UNL     1      -0.650   1.063   1.791  0.00  0.00    -0.378 OA
ATOM     12  H   UNL     1      -1.579   1.030   2.069  0.00  0.00    +0.211 HD
ENDBRANCH   1  11
BRANCH   1  13
ATOM     13  CA  UNL     1      -1.300  -0.269  -0.134  0.00  0.00    +0.132 C 
BRANCH  13  15
ATOM     14  O   UNL     1      -3.583   0.773  -1.529  0.00  0.00    -0.273 OA
ATOM     15  N   UNL     1      -2.669  -0.235   0.347  0.00  0.00    -0.300 N 
ATOM     16  C   UNL     1      -3.705   0.290  -0.404  0.00  0.00    +0.244 C 
ATOM     17  H   UNL     1      -2.867  -0.600   1.240  0.00  0.00    +0.150 HD
BRANCH  16  20
ATOM     18 BR   UNL     1      -5.671   2.018   0.542  0.00  0.00    -0.059 Br
ATOM     19 BR   UNL     1      -6.195  -0.900  -0.767  0.00  0.00    -0.059 Br
ATOM     20  C   UNL     1      -5.029   0.206   0.314  0.00  0.00    +0.189 C 
ENDBRANCH  16  20
ENDBRANCH  13  15
BRANCH  13  21
ATOM     21  C   UNL     1      -1.085  -1.536  -0.969  0.00  0.00    +0.159 C 
BRANCH  21  22
ATOM     22  O   UNL     1      -1.244  -2.712  -0.185  0.00  0.00    -0.380 OA
ATOM     23  H   UNL     1      -1.102  -3.494  -0.742  0.00  0.00    +0.211 HD
ENDBRANCH  21  22
ENDBRANCH  13  21
ENDBRANCH   1  13
TORSDOF 8
