REMARK  Name = 11485425
REMARK  3 active torsions:
REMARK  status: ('A' for Active; 'I' for Inactive)
REMARK    1  A    between atoms: C_2  and  C_23
REMARK    2  A    between atoms: C_7  and  S_13
REMARK    3  A    between atoms: S_13  and  N_17
REMARK                            x       y       z     vdW  Elec       q    Type
REMARK                         _______ _______ _______ _____ _____    ______ ____
ROOT
ATOM      1  N   UNL     1      -3.542   1.180   1.196  0.00  0.00    +0.390 N 
ATOM      2  C   UNL     1      -4.246   0.324   0.234  0.00  0.00    -0.021 C 
ATOM      3  C   UNL     1      -3.342   0.066  -0.982  0.00  0.00    +0.007 C 
ATOM      4  C   UNL     1      -1.949  -0.360  -0.591  0.00  0.00    -0.030 C 
ATOM      5  C   UNL     1      -1.475  -0.121   0.711  0.00  0.00    -0.046 C 
ATOM      6  C   UNL     1      -2.379   0.482   1.756  0.00  0.00    -0.054 C 
ATOM      7  C   UNL     1       0.662  -1.094   0.101  0.00  0.00    +0.122 C 
ATOM      8  C   UNL     1      -0.171  -0.504   1.052  0.00  0.00    +0.013 C 
ATOM      9  C   UNL     1      -1.101  -0.944  -1.541  0.00  0.00    -0.003 C 
ATOM     10  C   UNL     1       0.198  -1.311  -1.194  0.00  0.00    +0.020 C 
ATOM     11  H   UNL     1      -4.179   1.429   1.952  0.00  0.00    -0.084 HD
ATOM     12  H   UNL     1      -3.220   2.019   0.714  0.00  0.00    -0.084 HD
ENDROOT
BRANCH   7  13
ATOM     13  S   UNL     1       2.288  -1.561   0.535  0.00  0.00    +0.063 S 
ATOM     14  O   UNL     1       2.335  -1.775   1.975  0.00  0.00    -0.153 OA
ATOM     15  O   UNL     1       2.722  -2.617  -0.368  0.00  0.00    -0.153 OA
BRANCH  13  17
ATOM     16  S   UNL     1       4.191   2.712  -0.768  0.00  0.00    -0.137 S 
ATOM     17  N   UNL     1       3.152  -0.126   0.161  0.00  0.00    -0.154 NA
ATOM     18  C   UNL     1       2.716   1.089   0.913  0.00  0.00    +0.107 C 
ATOM     19  C   UNL     1       3.337   0.138  -1.298  0.00  0.00    +0.107 C 
ATOM     20  C   UNL     1       3.817   2.140   0.914  0.00  0.00    +0.077 C 
ATOM     21  C   UNL     1       4.503   1.090  -1.524  0.00  0.00    +0.077 C 
ENDBRANCH  13  17
ENDBRANCH   7  13
BRANCH   2  23
ATOM     22  F   UNL     1      -6.168   0.190  -1.084  0.00  0.00    -0.237 F 
ATOM     23  C   UNL     1      -5.546   1.001  -0.197  0.00  0.00    +0.172 C 
ENDBRANCH   2  23
TORSDOF 3
