REMARK  Name = 23657800
REMARK  6 active torsions:
REMARK  status: ('A' for Active; 'I' for Inactive)
REMARK    1  A    between atoms: N_3  and  C_8
REMARK    2  A    between atoms: C_9  and  O_14
REMARK    3  A    between atoms: C_18  and  O_22
REMARK    4  A    between atoms: O_22  and  C_23
REMARK    5  A    between atoms: C_23  and  C_25
REMARK    6  A    between atoms: C_25  and  N_26
REMARK                            x       y       z     vdW  Elec       q    Type
REMARK                         _______ _______ _______ _____ _____    ______ ____
ROOT
ATOM      1  O   UNL     1       0.161   0.337   0.127  0.00  0.00    -0.252 OA
ATOM      2  N   UNL     1      -0.202  -1.977   0.139  0.00  0.00    -0.245 N 
ATOM      3  N   UNL     1       1.957  -1.161   0.118  0.00  0.00    -0.266 N 
ATOM      4  C   UNL     1       0.597  -0.809   0.128  0.00  0.00    +0.310 C 
ATOM      5  H   UNL     1       0.289  -2.831   0.138  0.00  0.00    +0.159 HD
ATOM      6  H   UNL     1       2.153  -2.125   0.120  0.00  0.00    +0.157 HD
ATOM      7  N   UNL     1      -2.342  -0.956   0.151  0.00  0.00    -0.353 NA
ATOM      8  N   UNL     1      -3.501  -3.510   0.173  0.00  0.00    -0.254 NA
ATOM      9  C   UNL     1      -3.677  -1.135   0.162  0.00  0.00    +0.298 C 
ATOM     10  C   UNL     1      -4.247  -2.388   0.173  0.00  0.00    +0.165 C 
ATOM     11  C   UNL     1      -1.595  -2.079   0.151  0.00  0.00    +0.192 C 
ATOM     12  C   UNL     1      -2.165  -3.333   0.162  0.00  0.00    +0.200 C 
ENDROOT
BRANCH   3  14
ATOM     13 CL   UNL     1       3.719   3.636   0.079  0.00  0.00    -0.082 Cl
ATOM     14  C   UNL     1       3.079  -0.299   0.105  0.00  0.00    +0.087 C 
ATOM     15  C   UNL     1       4.359  -0.829   0.095  0.00  0.00    +0.152 C 
ATOM     16  C   UNL     1       2.866   1.071   0.102  0.00  0.00    +0.029 C 
ATOM     17  C   UNL     1       5.456   0.033   0.081  0.00  0.00    +0.039 C 
ATOM     18  C   UNL     1       3.963   1.933   0.087  0.00  0.00    +0.059 C 
ATOM     19  C   UNL     1       5.258   1.414   0.076  0.00  0.00    +0.015 C 
BRANCH  15  20
ATOM     20  O   UNL     1       4.575  -2.175   0.098  0.00  0.00    -0.470 OA
ATOM     21  C   UNL     1       4.666  -2.819  -1.171  0.00  0.00    +0.253 C 
ENDBRANCH  15  20
ENDBRANCH   3  14
BRANCH   9  22
ATOM     22  O   UNL     1      -4.468  -0.019   0.164  0.00  0.00    -0.457 OA
BRANCH  22  23
ATOM     23  C   UNL     1      -3.940   1.138  -0.485  0.00  0.00    +0.148 C 
ATOM     24  C   UNL     1      -5.112   1.905  -1.085  0.00  0.00    +0.045 C 
BRANCH  23  25
ATOM     25  C   UNL     1      -3.148   1.957   0.538  0.00  0.00    -0.033 C 
BRANCH  25  26
ATOM     26  N   UNL     1      -2.618   3.186  -0.036  0.00  0.00    +0.387 N 
ATOM     27  C   UNL     1      -1.686   2.887  -1.126  0.00  0.00    -0.101 C 
ATOM     28  C   UNL     1      -1.954   3.991   0.991  0.00  0.00    -0.101 C 
ATOM     29  H   UNL     1      -3.399   3.722  -0.414  0.00  0.00    -0.080 HD
ENDBRANCH  25  26
ENDBRANCH  23  25
ENDBRANCH  22  23
ENDBRANCH   9  22
TORSDOF 6
