REMARK  Name = 11701820
REMARK  4 active torsions:
REMARK  status: ('A' for Active; 'I' for Inactive)
REMARK    1  A    between atoms: C_1  and  C_13
REMARK    2  A    between atoms: C_2  and  C_8
REMARK    3  A    between atoms: C_13  and  N_14
REMARK    4  A    between atoms: N_14  and  C_17
REMARK                            x       y       z     vdW  Elec       q    Type
REMARK                         _______ _______ _______ _____ _____    ______ ____
ROOT
ATOM      1  C   UNL     1      -0.094   1.306   0.384  0.00  0.00    -0.003 C 
ATOM      2  C   UNL     1      -2.403   0.727  -0.028  0.00  0.00    +0.001 C 
ATOM      3  C   UNL     1      -1.133   0.377   0.431  0.00  0.00    -0.003 C 
ATOM      4  C   UNL     1      -0.324   2.585  -0.122  0.00  0.00    -0.003 C 
ATOM      5  C   UNL     1      -2.633   2.006  -0.534  0.00  0.00    +0.000 C 
ATOM      6  C   UNL     1      -1.594   2.936  -0.581  0.00  0.00    -0.000 C 
ENDROOT
BRANCH   2   8
ATOM      7  N   UNL     1      -4.190  -2.544  -0.049  0.00  0.00    -0.242 NA
ATOM      8  C   UNL     1      -3.482  -0.236   0.021  0.00  0.00    +0.019 C 
ATOM      9  C   UNL     1      -4.799   0.175   0.180  0.00  0.00    +0.003 C 
ATOM     10  C   UNL     1      -3.230  -1.592  -0.088  0.00  0.00    +0.099 C 
ATOM     11  C   UNL     1      -5.814  -0.774   0.224  0.00  0.00    +0.021 C 
ATOM     12  C   UNL     1      -5.460  -2.109   0.106  0.00  0.00    +0.099 C 
ENDBRANCH   2   8
BRANCH   1  13
ATOM     13  C   UNL     1       1.264   0.932   0.876  0.00  0.00    +0.114 C 
BRANCH  13  14
ATOM     14  N   UNL     1       2.101   0.362  -0.181  0.00  0.00    -0.327 N 
ATOM     15  H   UNL     1       1.734   0.305  -1.092  0.00  0.00    +0.147 HD
BRANCH  14  17
ATOM     16  N   UNL     1       5.445  -1.109  -0.786  0.00  0.00    -0.228 NA
ATOM     17  C   UNL     1       3.378  -0.098   0.042  0.00  0.00    +0.077 C 
ATOM     18  C   UNL     1       4.188  -0.647  -0.965  0.00  0.00    +0.139 C 
ATOM     19  C   UNL     1       3.954  -0.042   1.324  0.00  0.00    +0.019 C 
ATOM     20  C   UNL     1       5.246  -0.508   1.547  0.00  0.00    +0.022 C 
ATOM     21  C   UNL     1       5.943  -1.028   0.468  0.00  0.00    +0.100 C 
ATOM     22  N   UNL     1       3.639  -0.719  -2.270  0.00  0.00    -0.342 N 
ATOM     23  H   UNL     1       4.170  -1.096  -3.007  0.00  0.00    +0.144 HD
ATOM     24  H   UNL     1       2.726  -0.392  -2.439  0.00  0.00    +0.144 HD
ENDBRANCH  14  17
ENDBRANCH  13  14
ENDBRANCH   1  13
TORSDOF 4
