REMARK  Name = 976666
REMARK  3 active torsions:
REMARK  status: ('A' for Active; 'I' for Inactive)
REMARK    1  A    between atoms: C_1  and  C_11
REMARK    2  A    between atoms: C_2  and  C_16
REMARK    3  A    between atoms: C_16  and  O_17
REMARK                            x       y       z     vdW  Elec       q    Type
REMARK                         _______ _______ _______ _____ _____    ______ ____
ROOT
ATOM      1  C   UNL     1      -0.542   0.811   0.560  0.00  0.00    +0.080 C 
ATOM      2  C   UNL     1      -1.322  -0.486   0.813  0.00  0.00    +0.107 C 
ATOM      3  C   UNL     1      -1.035   1.577  -0.670  0.00  0.00    +0.009 C 
ATOM      4  C   UNL     1      -2.835  -0.243   0.821  0.00  0.00    +0.012 C 
ATOM      5  C   UNL     1      -2.538   1.829  -0.602  0.00  0.00    +0.000 C 
ATOM      6  C   UNL     1      -3.320   0.534  -0.404  0.00  0.00    +0.001 C 
ENDROOT
BRANCH   1  11
ATOM      7  S   UNL     1       4.157  -0.168  -1.353  0.00  0.00    +0.041 S 
ATOM      8  N   UNL     1       1.761   0.542   1.530  0.00  0.00    -0.235 N 
ATOM      9  N   UNL     1       1.534   0.322  -0.697  0.00  0.00    -0.335 NA
ATOM     10  N   UNL     1       2.998   0.294   1.029  0.00  0.00    -0.207 N 
ATOM     11  C   UNL     1       0.930   0.543   0.448  0.00  0.00    +0.185 C 
ATOM     12  C   UNL     1       2.870   0.153  -0.342  0.00  0.00    +0.109 C 
ATOM     13  H   UNL     1       1.516   0.689   2.472  0.00  0.00    +0.173 HD
ATOM     14  H   UNL     1       3.833   0.226   1.545  0.00  0.00    +0.182 HD
ENDBRANCH   1  11
BRANCH   2  16
ATOM     15  O   UNL     1      -1.186  -1.490  -1.388  0.00  0.00    -0.250 OA
ATOM     16  C   UNL     1      -1.000  -1.567  -0.183  0.00  0.00    +0.314 C 
BRANCH  16  17
ATOM     17  O   UNL     1      -0.472  -2.649   0.440  0.00  0.00    -0.480 OA
ATOM     18  H   UNL     1      -0.355  -2.644   1.369  0.00  0.00    +0.295 HD
ENDBRANCH  16  17
ENDBRANCH   2  16
TORSDOF 3
