REMARK  Name = 445952
REMARK  8 active torsions:
REMARK  status: ('A' for Active; 'I' for Inactive)
REMARK    1  A    between atoms: N_1  and  C_22
REMARK    2  A    between atoms: N_2  and  C_13
REMARK    3  A    between atoms: C_19  and  O_25
REMARK    4  A    between atoms: O_25  and  C_26
REMARK    5  A    between atoms: C_26  and  C_27
REMARK    6  A    between atoms: C_27  and  O_28
REMARK    7  A    between atoms: C_27  and  C_30
REMARK    8  A    between atoms: C_30  and  N_31
REMARK                            x       y       z     vdW  Elec       q    Type
REMARK                         _______ _______ _______ _____ _____    ______ ____
ROOT
ATOM      1  N   UNL     1       2.038   3.063  -0.085  0.00  0.00    -0.247 N 
ATOM      2  N   UNL     1       3.843  -1.305  -0.197  0.00  0.00    -0.287 N 
ATOM      3  N   UNL     1       2.913   0.887  -0.137  0.00  0.00    -0.322 NA
ATOM      4  N   UNL     1       4.353   2.806  -0.366  0.00  0.00    -0.170 NA
ATOM      5  C   UNL     1       3.154   2.212  -0.201  0.00  0.00    +0.150 C 
ATOM      6  C   UNL     1       4.004   0.101  -0.253  0.00  0.00    +0.198 C 
ATOM      7  C   UNL     1       5.284   0.587  -0.425  0.00  0.00    +0.070 C 
ATOM      8  C   UNL     1       5.400   1.961  -0.474  0.00  0.00    +0.116 C 
ATOM      9  H   UNL     1       2.263   4.020  -0.139  0.00  0.00    +0.165 HD
ATOM     10  H   UNL     1       4.686  -1.805  -0.288  0.00  0.00    +0.155 HD
ENDROOT
BRANCH   2  13
ATOM     11 CL   UNL     1       4.299  -3.976   1.189  0.00  0.00    -0.081 Cl
ATOM     12 CL   UNL     1      -1.182  -1.904  -0.950  0.00  0.00    -0.082 Cl
ATOM     13  C   UNL     1       2.713  -2.124  -0.036  0.00  0.00    +0.062 C 
ATOM     14  C   UNL     1       2.796  -3.375   0.586  0.00  0.00    +0.071 C 
ATOM     15  C   UNL     1       1.476  -1.674  -0.510  0.00  0.00    +0.027 C 
ATOM     16  C   UNL     1       0.336  -2.465  -0.364  0.00  0.00    +0.059 C 
ATOM     17  C   UNL     1       1.657  -4.166   0.731  0.00  0.00    +0.014 C 
ATOM     18  C   UNL     1       0.427  -3.711   0.256  0.00  0.00    +0.012 C 
ENDBRANCH   2  13
BRANCH   1  22
ATOM     19  C   UNL     1      -2.054   2.324   0.446  0.00  0.00    +0.139 C 
ATOM     20  C   UNL     1      -1.642   3.459  -0.244  0.00  0.00    +0.038 C 
ATOM     21  C   UNL     1      -1.120   1.431   0.961  0.00  0.00    +0.038 C 
ATOM     22  C   UNL     1       0.661   2.814   0.093  0.00  0.00    +0.058 C 
ATOM     23  C   UNL     1      -0.281   3.704  -0.421  0.00  0.00    +0.018 C 
ATOM     24  C   UNL     1       0.241   1.677   0.784  0.00  0.00    +0.018 C 
BRANCH  19  25
ATOM     25  O   UNL     1      -3.391   2.082   0.619  0.00  0.00    -0.473 OA
BRANCH  25  26
ATOM     26  C   UNL     1      -3.789   0.717   0.704  0.00  0.00    +0.232 C 
BRANCH  26  27
ATOM     27  C   UNL     1      -5.214   0.585   0.172  0.00  0.00    +0.133 C 
BRANCH  27  28
ATOM     28  O   UNL     1      -6.080   1.381   0.987  0.00  0.00    -0.383 OA
ATOM     29  H   UNL     1      -6.990   1.307   0.660  0.00  0.00    +0.210 HD
ENDBRANCH  27  28
BRANCH  27  30
ATOM     30  C   UNL     1      -5.735  -0.854   0.186  0.00  0.00    -0.044 C 
BRANCH  30  31
ATOM     31  N   UNL     1      -4.889  -1.750  -0.591  0.00  0.00    +0.386 N 
ATOM     32  C   UNL     1      -4.871  -1.351  -2.000  0.00  0.00    -0.101 C 
ATOM     33  C   UNL     1      -5.348  -3.135  -0.462  0.00  0.00    -0.101 C 
ATOM     34  H   UNL     1      -3.940  -1.687  -0.223  0.00  0.00    -0.080 HD
ENDBRANCH  30  31
ENDBRANCH  27  30
ENDBRANCH  26  27
ENDBRANCH  25  26
ENDBRANCH  19  25
ENDBRANCH   1  22
TORSDOF 8
