REMARK  Name = 23728517
REMARK  4 active torsions:
REMARK  status: ('A' for Active; 'I' for Inactive)
REMARK    1  A    between atoms: C_6  and  C_23
REMARK    2  A    between atoms: C_7  and  O_19
REMARK    3  A    between atoms: C_18  and  O_21
REMARK    4  A    between atoms: C_23  and  O_24
REMARK                            x       y       z     vdW  Elec       q    Type
REMARK                         _______ _______ _______ _____ _____    ______ ____
ROOT
ATOM      1  C   UNL     1      -2.625   0.001  -0.172  0.00  0.00    +0.025 C 
ATOM      2  C   UNL     1      -1.825   1.317  -0.204  0.00  0.00    +0.003 C 
ATOM      3  C   UNL     1      -0.393   1.142   0.304  0.00  0.00    +0.005 C 
ATOM      4  C   UNL     1       0.345   0.174  -0.676  0.00  0.00    +0.024 C 
ATOM      5  C   UNL     1      -1.915  -1.026  -1.072  0.00  0.00    +0.005 C 
ATOM      6  C   UNL     1      -0.396  -1.203  -0.783  0.00  0.00    +0.034 C 
ATOM      7  C   UNL     1      -3.966   0.525  -0.732  0.00  0.00    +0.110 C 
ATOM      8  C   UNL     1      -2.763   2.316   0.465  0.00  0.00    +0.003 C 
ATOM      9  C   UNL     1      -4.159   1.885  -0.027  0.00  0.00    +0.029 C 
ATOM     10  C   UNL     1       0.364   2.469   0.387  0.00  0.00    +0.005 C 
ATOM     11  C   UNL     1      -2.861  -0.589   1.242  0.00  0.00    +0.002 C 
ATOM     12  C   UNL     1       1.851   0.120  -0.432  0.00  0.00    -0.026 C 
ATOM     13  C   UNL     1       1.741   2.233   0.998  0.00  0.00    +0.026 C 
ATOM     14  C   UNL     1       2.498   1.109   0.338  0.00  0.00    -0.023 C 
ATOM     15  C   UNL     1       2.643  -0.860  -1.056  0.00  0.00    -0.001 C 
ATOM     16  C   UNL     1       3.889   1.046   0.533  0.00  0.00    +0.032 C 
ATOM     17  C   UNL     1       4.026  -0.905  -0.866  0.00  0.00    +0.036 C 
ATOM     18  C   UNL     1       4.648   0.043  -0.064  0.00  0.00    +0.133 C 
ENDROOT
BRANCH   7  19
ATOM     19  O   UNL     1      -5.063  -0.334  -0.483  0.00  0.00    -0.384 OA
ATOM     20  H   UNL     1      -4.920  -1.180  -0.935  0.00  0.00    +0.210 HD
ENDBRANCH   7  19
BRANCH  18  21
ATOM     21  O   UNL     1       5.994  -0.001   0.128  0.00  0.00    -0.506 OA
ATOM     22  H   UNL     1       6.411   0.640   0.670  0.00  0.00    +0.292 HD
ENDBRANCH  18  21
BRANCH   6  23
ATOM     23  C   UNL     1      -0.126  -2.134   0.406  0.00  0.00    +0.143 C 
BRANCH  23  24
ATOM     24  O   UNL     1      -1.045  -3.205   0.345  0.00  0.00    -0.351 OA
ATOM     25  C   UNL     1      -0.863  -4.122   1.421  0.00  0.00    +0.174 C 
ENDBRANCH  23  24
ENDBRANCH   6  23
TORSDOF 4
