REMARK  Name = 24901723
REMARK  5 active torsions:
REMARK  status: ('A' for Active; 'I' for Inactive)
REMARK    1  A    between atoms: N_3  and  C_18
REMARK    2  A    between atoms: C_4  and  C_11
REMARK    3  A    between atoms: N_9  and  C_15
REMARK    4  A    between atoms: C_19  and  S_24
REMARK    5  A    between atoms: S_24  and  N_27
REMARK                            x       y       z     vdW  Elec       q    Type
REMARK                         _______ _______ _______ _____ _____    ______ ____
ROOT
ATOM      1  N   UNL     1       1.401   1.192  -0.263  0.00  0.00    -0.336 NA
ATOM      2  N   UNL     1       1.792   3.499   0.312  0.00  0.00    -0.170 NA
ATOM      3  N   UNL     1      -0.385   2.647   0.165  0.00  0.00    -0.247 N 
ATOM      4  C   UNL     1       2.737   1.026  -0.348  0.00  0.00    +0.161 C 
ATOM      5  C   UNL     1       3.652   2.034  -0.122  0.00  0.00    +0.056 C 
ATOM      6  C   UNL     1       1.004   2.436   0.067  0.00  0.00    +0.149 C 
ATOM      7  C   UNL     1       3.116   3.262   0.209  0.00  0.00    +0.114 C 
ATOM      8  H   UNL     1      -0.629   3.569   0.408  0.00  0.00    +0.165 HD
ENDROOT
BRANCH   4  11
ATOM      9  N   UNL     1       2.877  -1.425   0.031  0.00  0.00    -0.274 N 
ATOM     10  N   UNL     1       4.061  -2.119  -1.715  0.00  0.00    -0.232 NA
ATOM     11  C   UNL     1       3.158  -0.305  -0.700  0.00  0.00    +0.103 C 
ATOM     12  C   UNL     1       3.440  -2.489  -0.617  0.00  0.00    +0.113 C 
ATOM     13  C   UNL     1       3.890  -0.758  -1.772  0.00  0.00    +0.117 C 
ATOM     14  C   UNL     1       3.334  -3.871  -0.105  0.00  0.00    +0.069 C 
BRANCH   9  15
ATOM     15  C   UNL     1       2.122  -1.481   1.266  0.00  0.00    +0.078 C 
ATOM     16  C   UNL     1       2.692  -2.121   2.498  0.00  0.00    +0.022 C 
ATOM     17  C   UNL     1       2.497  -0.634   2.447  0.00  0.00    +0.022 C 
ENDBRANCH   9  15
ENDBRANCH   4  11
BRANCH   3  18
ATOM     18  C   UNL     1      -1.496   1.796  -0.015  0.00  0.00    +0.058 C 
ATOM     19  C   UNL     1      -3.692   0.114  -0.373  0.00  0.00    +0.122 C 
ATOM     20  C   UNL     1      -2.670   2.020   0.704  0.00  0.00    +0.017 C 
ATOM     21  C   UNL     1      -1.420   0.732  -0.913  0.00  0.00    +0.017 C 
ATOM     22  C   UNL     1      -3.768   1.179   0.525  0.00  0.00    +0.021 C 
ATOM     23  C   UNL     1      -2.518  -0.110  -1.092  0.00  0.00    +0.021 C 
BRANCH  19  24
ATOM     24  S   UNL     1      -5.067  -0.938  -0.598  0.00  0.00    +0.060 S 
ATOM     25  O   UNL     1      -6.279  -0.209  -0.246  0.00  0.00    -0.153 OA
ATOM     26  O   UNL     1      -4.956  -1.539  -1.920  0.00  0.00    -0.153 OA
BRANCH  24  27
ATOM     27  N   UNL     1      -4.799  -2.151   0.576  0.00  0.00    -0.178 NA
ATOM     28  C   UNL     1      -4.720  -1.788   1.999  0.00  0.00    +0.110 C 
ATOM     29  H   UNL     1      -3.917  -2.603   0.337  0.00  0.00    +0.149 HD
ENDBRANCH  24  27
ENDBRANCH  19  24
ENDBRANCH   3  18
TORSDOF 5
