REMARK  Name = 445950
REMARK  8 active torsions:
REMARK  status: ('A' for Active; 'I' for Inactive)
REMARK    1  A    between atoms: N_1  and  C_20
REMARK    2  A    between atoms: N_3  and  C_13
REMARK    3  A    between atoms: C_19  and  O_25
REMARK    4  A    between atoms: O_25  and  C_26
REMARK    5  A    between atoms: C_26  and  C_27
REMARK    6  A    between atoms: C_27  and  O_28
REMARK    7  A    between atoms: C_27  and  C_30
REMARK    8  A    between atoms: C_30  and  N_31
REMARK                            x       y       z     vdW  Elec       q    Type
REMARK                         _______ _______ _______ _____ _____    ______ ____
ROOT
ATOM      1  N   UNL     1      -0.057  -0.236   0.828  0.00  0.00    -0.301 N 
ATOM      2  H   UNL     1       0.080  -0.741   1.662  0.00  0.00    +0.153 HD
ATOM      3  N   UNL     1       4.659  -0.841   0.343  0.00  0.00    -0.298 N 
ATOM      4  N   UNL     1       1.061   0.651  -1.078  0.00  0.00    -0.233 NA
ATOM      5  N   UNL     1       3.439   0.346  -1.323  0.00  0.00    -0.233 NA
ATOM      6  C   UNL     1       1.124  -0.032   0.088  0.00  0.00    +0.113 C 
ATOM      7  C   UNL     1       2.301  -0.547   0.601  0.00  0.00    +0.122 C 
ATOM      8  C   UNL     1       3.436  -0.326  -0.153  0.00  0.00    +0.113 C 
ATOM      9  C   UNL     1       2.235   0.800  -1.720  0.00  0.00    +0.252 C 
ATOM     10  H   UNL     1       4.556  -1.658   0.881  0.00  0.00    +0.153 HD
ENDROOT
BRANCH   3  13
ATOM     11  F   UNL     1       6.775  -2.645   0.379  0.00  0.00    -0.203 F 
ATOM     12  F   UNL     1       5.286   1.852   0.042  0.00  0.00    -0.203 F 
ATOM     13  C   UNL     1       5.989  -0.410   0.214  0.00  0.00    +0.105 C 
ATOM     14  C   UNL     1       7.035  -1.338   0.236  0.00  0.00    +0.156 C 
ATOM     15  C   UNL     1       6.277   0.950   0.066  0.00  0.00    +0.156 C 
ATOM     16  C   UNL     1       8.357  -0.909   0.111  0.00  0.00    +0.031 C 
ATOM     17  C   UNL     1       7.599   1.378  -0.060  0.00  0.00    +0.031 C 
ATOM     18  C   UNL     1       8.638   0.449  -0.038  0.00  0.00    +0.005 C 
ENDBRANCH   3  13
BRANCH   1  20
ATOM     19  C   UNL     1      -4.044   0.881   0.176  0.00  0.00    +0.139 C 
ATOM     20  C   UNL     1      -1.399   0.140   0.609  0.00  0.00    +0.049 C 
ATOM     21  C   UNL     1      -3.569   0.751   1.477  0.00  0.00    +0.038 C 
ATOM     22  C   UNL     1      -3.209   0.645  -0.910  0.00  0.00    +0.038 C 
ATOM     23  C   UNL     1      -2.242   0.379   1.694  0.00  0.00    +0.018 C 
ATOM     24  C   UNL     1      -1.882   0.273  -0.693  0.00  0.00    +0.018 C 
BRANCH  19  25
ATOM     25  O   UNL     1      -5.347   1.247  -0.036  0.00  0.00    -0.473 OA
BRANCH  25  26
ATOM     26  C   UNL     1      -6.292   0.854   0.954  0.00  0.00    +0.232 C 
BRANCH  26  27
ATOM     27  C   UNL     1      -7.653   0.663   0.289  0.00  0.00    +0.133 C 
BRANCH  27  28
ATOM     28  O   UNL     1      -8.067   1.912  -0.272  0.00  0.00    -0.383 OA
ATOM     29  H   UNL     1      -8.932   1.804  -0.698  0.00  0.00    +0.210 HD
ENDBRANCH  27  28
BRANCH  27  30
ATOM     30  C   UNL     1      -7.640  -0.382  -0.828  0.00  0.00    -0.044 C 
BRANCH  30  31
ATOM     31  N   UNL     1      -7.288  -1.707  -0.335  0.00  0.00    +0.386 N 
ATOM     32  C   UNL     1      -7.341  -2.692  -1.417  0.00  0.00    -0.101 C 
ATOM     33  C   UNL     1      -8.179  -2.106   0.757  0.00  0.00    -0.101 C 
ATOM     34  H   UNL     1      -6.334  -1.668   0.023  0.00  0.00    -0.080 HD
ENDBRANCH  30  31
ENDBRANCH  27  30
ENDBRANCH  26  27
ENDBRANCH  25  26
ENDBRANCH  19  25
ENDBRANCH   1  20
TORSDOF 8
