REMARK  Name = 16744441
REMARK  9 active torsions:
REMARK  status: ('A' for Active; 'I' for Inactive)
REMARK    1  A    between atoms: N_1  and  C_26
REMARK    2  A    between atoms: C_9  and  O_21
REMARK    3  A    between atoms: N_10  and  C_12
REMARK    4  A    between atoms: C_12  and  C_13
REMARK    5  A    between atoms: C_13  and  N_15
REMARK    6  A    between atoms: O_21  and  C_22
REMARK    7  A    between atoms: C_22  and  C_23
REMARK    8  A    between atoms: C_23  and  C_24
REMARK    9  A    between atoms: C_26  and  C_29
REMARK                            x       y       z     vdW  Elec       q    Type
REMARK                         _______ _______ _______ _____ _____    ______ ____
ROOT
ATOM      1  N   UNL     1      -2.812   1.161  -0.914  0.00  0.00    -0.256 N 
ATOM      2  N   UNL     1       0.904   0.007   0.096  0.00  0.00    -0.294 NA
ATOM      3  N   UNL     1      -1.526   2.789  -0.098  0.00  0.00    -0.240 NA
ATOM      4  N   UNL     1      -1.252  -0.697  -0.806  0.00  0.00    -0.294 NA
ATOM      5  C   UNL     1       0.477   1.285   0.244  0.00  0.00    +0.217 C 
ATOM      6  C   UNL     1      -0.823   1.611  -0.128  0.00  0.00    +0.167 C 
ATOM      7  C   UNL     1      -1.606   0.585  -0.633  0.00  0.00    +0.222 C 
ATOM      8  C   UNL     1      -2.715   2.486  -0.577  0.00  0.00    +0.222 C 
ATOM      9  C   UNL     1       0.026  -0.891  -0.412  0.00  0.00    +0.313 C 
ATOM     10  N   UNL     1       1.330   2.249   0.757  0.00  0.00    -0.308 N 
ATOM     11  H   UNL     1       0.988   3.168   0.851  0.00  0.00    +0.149 HD
ENDROOT
BRANCH  10  12
ATOM     12  C   UNL     1       2.689   1.984   1.163  0.00  0.00    +0.066 C 
BRANCH  12  13
ATOM     13  C   UNL     1       3.597   1.983  -0.059  0.00  0.00    -0.056 C 
BRANCH  13  15
ATOM     14  O   UNL     1       7.510   0.465  -0.013  0.00  0.00    -0.358 OA
ATOM     15  N   UNL     1       4.981   1.723   0.335  0.00  0.00    +0.391 N 
ATOM     16  C   UNL     1       5.178   0.298   0.635  0.00  0.00    -0.045 C 
ATOM     17  C   UNL     1       5.912   2.149  -0.719  0.00  0.00    -0.045 C 
ATOM     18  C   UNL     1       6.631   0.050   1.032  0.00  0.00    +0.119 C 
ATOM     19  C   UNL     1       7.347   1.857  -0.291  0.00  0.00    +0.119 C 
ATOM     20  H   UNL     1       5.172   2.264   1.178  0.00  0.00    -0.079 HD
ENDBRANCH  13  15
ENDBRANCH  12  13
ENDBRANCH  10  12
BRANCH   9  21
ATOM     21  O   UNL     1       0.500  -2.178  -0.541  0.00  0.00    -0.400 OA
BRANCH  21  22
ATOM     22  C   UNL     1       1.840  -2.402  -0.132  0.00  0.00    +0.223 C 
BRANCH  22  23
ATOM     23  C   UNL     1       2.187  -3.866  -0.366  0.00  0.00    +0.049 C 
BRANCH  23  24
ATOM     24  C   UNL     1       3.615  -4.183   0.068  0.00  0.00    +0.004 C 
ATOM     25  C   UNL     1       3.943  -5.655  -0.127  0.00  0.00    +0.000 C 
ENDBRANCH  23  24
ENDBRANCH  22  23
ENDBRANCH  21  22
ENDBRANCH   9  21
BRANCH   1  26
ATOM     26  C   UNL     1      -3.973   0.510  -1.470  0.00  0.00    +0.126 C 
BRANCH  26  29
ATOM     27  F   UNL     1      -6.072   2.010  -0.306  0.00  0.00    -0.204 F 
ATOM     28  F   UNL     1      -3.707  -2.104  -0.420  0.00  0.00    -0.204 F 
ATOM     29  C   UNL     1      -4.868  -0.034  -0.389  0.00  0.00    +0.053 C 
ATOM     30  C   UNL     1      -5.884   0.761   0.141  0.00  0.00    +0.140 C 
ATOM     31  C   UNL     1      -4.681  -1.333   0.084  0.00  0.00    +0.140 C 
ATOM     32  C   UNL     1      -6.713   0.257   1.143  0.00  0.00    +0.030 C 
ATOM     33  C   UNL     1      -5.509  -1.837   1.086  0.00  0.00    +0.030 C 
ATOM     34  C   UNL     1      -6.525  -1.042   1.616  0.00  0.00    +0.005 C 
ENDBRANCH  26  29
ENDBRANCH   1  26
TORSDOF 9
