REMARK  Name = 11633167
REMARK  7 active torsions:
REMARK  status: ('A' for Active; 'I' for Inactive)
REMARK    1  A    between atoms: C_1  and  C_8
REMARK    2  A    between atoms: C_2  and  C_25
REMARK    3  A    between atoms: C_4  and  O_17
REMARK    4  A    between atoms: O_17  and  C_18
REMARK    5  A    between atoms: C_18  and  C_20
REMARK    6  A    between atoms: C_25  and  N_26
REMARK    7  A    between atoms: N_26  and  C_29
REMARK                            x       y       z     vdW  Elec       q    Type
REMARK                         _______ _______ _______ _____ _____    ______ ____
ROOT
ATOM      1  C   UNL     1       2.408   1.126   0.261  0.00  0.00    -0.000 C 
ATOM      2  C   UNL     1       0.133   0.509   0.786  0.00  0.00    +0.031 C 
ATOM      3  C   UNL     1       1.481   0.168   0.670  0.00  0.00    +0.000 C 
ATOM      4  C   UNL     1      -0.286   1.806   0.493  0.00  0.00    +0.137 C 
ATOM      5  C   UNL     1       1.990   2.423  -0.032  0.00  0.00    +0.003 C 
ATOM      6  C   UNL     1       0.642   2.764   0.085  0.00  0.00    +0.037 C 
ENDROOT
BRANCH   1   8
ATOM      7  N   UNL     1       6.149  -2.023  -0.607  0.00  0.00    -0.312 N 
ATOM      8  C   UNL     1       3.807   0.773   0.140  0.00  0.00    +0.001 C 
ATOM      9  C   UNL     1       5.520  -0.838  -0.299  0.00  0.00    +0.048 C 
ATOM     10  C   UNL     1       6.520   0.115  -0.089  0.00  0.00    +0.015 C 
ATOM     11  C   UNL     1       4.157  -0.539  -0.192  0.00  0.00    +0.015 C 
ATOM     12  C   UNL     1       4.782   1.744   0.355  0.00  0.00    +0.000 C 
ATOM     13  C   UNL     1       6.142   1.431   0.245  0.00  0.00    +0.001 C 
ATOM     14  C   UNL     1       7.768  -0.539  -0.283  0.00  0.00    +0.017 C 
ATOM     15  C   UNL     1       7.508  -1.853  -0.599  0.00  0.00    +0.062 C 
ATOM     16  H   UNL     1       5.689  -2.871  -0.804  0.00  0.00    +0.152 HD
ENDBRANCH   1   8
BRANCH   4  17
ATOM     17  O   UNL     1      -1.598   2.156   0.601  0.00  0.00    -0.469 OA
BRANCH  17  18
ATOM     18  C   UNL     1      -2.244   2.624  -0.581  0.00  0.00    +0.251 C 
BRANCH  18  20
ATOM     19  N   UNL     1      -4.498   3.229   0.063  0.00  0.00    -0.244 NA
ATOM     20  C   UNL     1      -3.706   2.296  -0.503  0.00  0.00    +0.103 C 
ATOM     21  C   UNL     1      -4.151   1.088  -1.003  0.00  0.00    +0.018 C 
ATOM     22  C   UNL     1      -5.511   0.815  -0.915  0.00  0.00    +0.003 C 
ATOM     23  C   UNL     1      -5.814   2.929   0.131  0.00  0.00    +0.099 C 
ATOM     24  C   UNL     1      -6.366   1.748  -0.339  0.00  0.00    +0.021 C 
ENDBRANCH  18  20
ENDBRANCH  17  18
ENDBRANCH   4  17
BRANCH   2  25
ATOM     25  C   UNL     1      -0.847  -0.528   1.225  0.00  0.00    +0.117 C 
BRANCH  25  26
ATOM     26  N   UNL     1      -1.413  -1.270   0.098  0.00  0.00    -0.327 N 
ATOM     27  H   UNL     1      -1.095  -1.061  -0.810  0.00  0.00    +0.147 HD
BRANCH  26  29
ATOM     28  N   UNL     1      -3.859  -3.928  -0.722  0.00  0.00    -0.228 NA
ATOM     29  C   UNL     1      -2.370  -2.247   0.247  0.00  0.00    +0.077 C 
ATOM     30  C   UNL     1      -2.918  -2.963  -0.828  0.00  0.00    +0.139 C 
ATOM     31  C   UNL     1      -2.862  -2.588   1.520  0.00  0.00    +0.019 C 
ATOM     32  C   UNL     1      -3.830  -3.576   1.670  0.00  0.00    +0.022 C 
ATOM     33  C   UNL     1      -4.291  -4.210   0.527  0.00  0.00    +0.100 C 
ATOM     34  N   UNL     1      -2.445  -2.644  -2.126  0.00  0.00    -0.342 N 
ATOM     35  H   UNL     1      -2.801  -3.121  -2.910  0.00  0.00    +0.144 HD
ATOM     36  H   UNL     1      -1.760  -1.946  -2.243  0.00  0.00    +0.144 HD
ENDBRANCH  26  29
ENDBRANCH  25  26
ENDBRANCH   2  25
TORSDOF 7
