REMARK  Name = 11348631
REMARK  0 active torsions:
REMARK  status: ('A' for Active; 'I' for Inactive)
REMARK                            x       y       z     vdW  Elec       q    Type
REMARK                         _______ _______ _______ _____ _____    ______ ____
ROOT
ATOM      1 CL   UNL     1      -6.059   1.035  -0.387  0.00  0.00    -0.082 Cl
ATOM      2  O   UNL     1      -0.829  -1.614   0.122  0.00  0.00    -0.474 OA
ATOM      3  O   UNL     1       3.069  -1.039  -0.860  0.00  0.00    -0.451 OA
ATOM      4  O   UNL     1      -1.596   3.265   0.341  0.00  0.00    -0.252 OA
ATOM      5  N   UNL     1      -0.890   1.062   0.084  0.00  0.00    -0.266 N 
ATOM      6  N   UNL     1       0.625   2.857   0.282  0.00  0.00    -0.245 N 
ATOM      7  N   UNL     1       1.846   0.833  -0.264  0.00  0.00    -0.353 NA
ATOM      8  N   UNL     1       4.228   2.256   0.110  0.00  0.00    -0.254 NA
ATOM      9  C   UNL     1       1.508  -3.425  -0.350  0.00  0.00    +0.008 C 
ATOM     10  C   UNL     1       0.717  -3.231   0.949  0.00  0.00    +0.047 C 
ATOM     11  C   UNL     1       3.025  -3.340  -0.154  0.00  0.00    +0.048 C 
ATOM     12  C   UNL     1      -0.756  -2.934   0.667  0.00  0.00    +0.205 C 
ATOM     13  C   UNL     1       3.523  -1.928   0.166  0.00  0.00    +0.208 C 
ATOM     14  C   UNL     1      -2.076  -1.050   0.021  0.00  0.00    +0.152 C 
ATOM     15  C   UNL     1      -2.122   0.360  -0.018  0.00  0.00    +0.087 C 
ATOM     16  C   UNL     1      -3.258  -1.796  -0.069  0.00  0.00    +0.039 C 
ATOM     17  C   UNL     1      -3.364   0.992  -0.146  0.00  0.00    +0.029 C 
ATOM     18  C   UNL     1       3.059   0.260  -0.423  0.00  0.00    +0.298 C 
ATOM     19  C   UNL     1      -4.486  -1.149  -0.190  0.00  0.00    +0.015 C 
ATOM     20  C   UNL     1      -4.539   0.240  -0.229  0.00  0.00    +0.059 C 
ATOM     21  C   UNL     1      -0.697   2.427   0.228  0.00  0.00    +0.310 C 
ATOM     22  C   UNL     1       1.825   2.134   0.096  0.00  0.00    +0.192 C 
ATOM     23  C   UNL     1       4.231   0.961  -0.249  0.00  0.00    +0.165 C 
ATOM     24  C   UNL     1       3.014   2.825   0.275  0.00  0.00    +0.200 C 
ATOM     25  H   UNL     1      -0.074   0.512   0.049  0.00  0.00    +0.157 HD
ATOM     26  H   UNL     1       0.744   3.814   0.481  0.00  0.00    +0.159 HD
ENDROOT
TORSDOF 0
