REMARK  Name = 673481
REMARK  3 active torsions:
REMARK  status: ('A' for Active; 'I' for Inactive)
REMARK    1  A    between atoms: C_8  and  N_16
REMARK    2  A    between atoms: C_9  and  C_12
REMARK    3  A    between atoms: C_17  and  C_19
REMARK                            x       y       z     vdW  Elec       q    Type
REMARK                         _______ _______ _______ _____ _____    ______ ____
ROOT
ATOM      1  S   UNL     1       0.215   1.706  -0.105  0.00  0.00    -0.077 S 
ATOM      2  C   UNL     1       1.972  -0.171   0.012  0.00  0.00    -0.014 A 
ATOM      3  C   UNL     1       3.307  -0.840   0.124  0.00  0.00    +0.027 C 
ATOM      4  C   UNL     1       4.459   0.132  -0.175  0.00  0.00    +0.005 C 
ATOM      5  C   UNL     1       1.837   1.205   0.015  0.00  0.00    +0.005 A 
ATOM      6  C   UNL     1       4.261   1.479   0.534  0.00  0.00    +0.006 C 
ATOM      7  C   UNL     1       2.971   2.180   0.079  0.00  0.00    +0.033 C 
ATOM      8  C   UNL     1      -0.336   0.086  -0.155  0.00  0.00    +0.084 A 
ATOM      9  C   UNL     1       0.704  -0.817  -0.084  0.00  0.00    +0.069 A 
ENDROOT
BRANCH   9  12
ATOM     10  O   UNL     1       0.487  -2.916  -1.150  0.00  0.00    -0.270 OA
ATOM     11  N   UNL     1       0.304  -2.879   1.122  0.00  0.00    -0.325 N 
ATOM     12  C   UNL     1       0.490  -2.243  -0.103  0.00  0.00    +0.244 C 
ATOM     13  H   UNL     1       0.155  -3.851   1.154  0.00  0.00    +0.145 HD
ATOM     14  H   UNL     1       0.320  -2.356   1.956  0.00  0.00    +0.145 HD
ENDBRANCH   9  12
BRANCH   8  16
ATOM     15  O   UNL     1      -2.575   2.093  -0.312  0.00  0.00    -0.275 OA
ATOM     16  N   UNL     1      -1.688  -0.098  -0.253  0.00  0.00    -0.279 N 
ATOM     17  C   UNL     1      -2.718   0.874  -0.324  0.00  0.00    +0.226 C 
ATOM     18  H   UNL     1      -1.988  -1.035  -0.279  0.00  0.00    +0.155 HD
BRANCH  17  19
ATOM     19  C   UNL     1      -4.091   0.259  -0.425  0.00  0.00    +0.077 C 
ATOM     20  C   UNL     1      -4.495  -0.710   0.622  0.00  0.00    +0.010 C 
ATOM     21  C   UNL     1      -5.107   0.660   0.578  0.00  0.00    +0.010 C 
ENDBRANCH  17  19
ENDBRANCH   8  16
TORSDOF 3
