REMARK  Name = 647499
REMARK  4 active torsions:
REMARK  status: ('A' for Active; 'I' for Inactive)
REMARK    1  A    between atoms: C_1  and  C_8
REMARK    2  A    between atoms: C_2  and  C_19
REMARK    3  A    between atoms: C_10  and  C_13
REMARK    4  A    between atoms: C_13  and  O_14
REMARK                            x       y       z     vdW  Elec       q    Type
REMARK                         _______ _______ _______ _____ _____    ______ ____
ROOT
ATOM      1  C   UNL     1      -1.021   0.774   0.223  0.00  0.00    +0.038 C 
ATOM      2  C   UNL     1      -1.882  -0.273  -0.104  0.00  0.00    +0.074 C 
ATOM      3  C   UNL     1      -1.475   2.092   0.170  0.00  0.00    +0.003 C 
ATOM      4  C   UNL     1      -3.197  -0.003  -0.484  0.00  0.00    +0.004 C 
ATOM      5  C   UNL     1      -2.789   2.363  -0.211  0.00  0.00    +0.000 C 
ATOM      6  C   UNL     1      -3.650   1.315  -0.538  0.00  0.00    -0.000 C 
ENDROOT
BRANCH   1   8
ATOM      7  O   UNL     1       1.242   0.495  -0.395  0.00  0.00    -0.447 OA
ATOM      8  C   UNL     1       0.345   0.521   0.620  0.00  0.00    +0.146 C 
ATOM      9  C   UNL     1       0.954   0.295   1.825  0.00  0.00    +0.041 C 
ATOM     10  C   UNL     1       2.451   0.247   0.172  0.00  0.00    +0.220 C 
ATOM     11  C   UNL     1       2.328   0.116   1.536  0.00  0.00    +0.047 C 
BRANCH  10  13
ATOM     12  O   UNL     1       3.591   0.302  -1.931  0.00  0.00    -0.242 OA
ATOM     13  C   UNL     1       3.585   0.166  -0.684  0.00  0.00    +0.373 C 
BRANCH  13  14
ATOM     14  O   UNL     1       4.761  -0.086  -0.021  0.00  0.00    -0.475 OA
ATOM     15  H   UNL     1       4.761  -0.189   0.910  0.00  0.00    +0.296 HD
ENDBRANCH  13  14
ENDBRANCH  10  13
ENDBRANCH   1   8
BRANCH   2  19
ATOM     16  F   UNL     1      -2.406  -2.587  -0.410  0.00  0.00    -0.166 F 
ATOM     17  F   UNL     1      -0.385  -1.964  -0.893  0.00  0.00    -0.166 F 
ATOM     18  F   UNL     1      -1.018  -2.075   1.184  0.00  0.00    -0.166 F 
ATOM     19  C   UNL     1      -1.432  -1.698  -0.059  0.00  0.00    +0.419 C 
ENDBRANCH   2  19
TORSDOF 4
