REMARK  Name = 24894167
REMARK  9 active torsions:
REMARK  status: ('A' for Active; 'I' for Inactive)
REMARK    1  A    between atoms: C_2  and  C_13
REMARK    2  A    between atoms: C_3  and  N_21
REMARK    3  A    between atoms: N_21  and  O_23
REMARK    4  A    between atoms: O_23  and  C_24
REMARK    5  A    between atoms: C_24  and  C_25
REMARK    6  A    between atoms: C_25  and  C_26
REMARK    7  A    between atoms: C_26  and  O_27
REMARK    8  A    between atoms: C_26  and  C_29
REMARK    9  A    between atoms: C_29  and  O_30
REMARK                            x       y       z     vdW  Elec       q    Type
REMARK                         _______ _______ _______ _____ _____    ______ ____
ROOT
ATOM      1  N   UNL     1       3.040  -0.741   0.017  0.00  0.00    -0.351 N 
ATOM      2  C   UNL     1       1.709  -0.442   0.139  0.00  0.00    +0.086 A 
ATOM      3  C   UNL     1       1.572   0.924   0.052  0.00  0.00    +0.096 A 
ATOM      4  C   UNL     1       2.869   1.479  -0.130  0.00  0.00    +0.034 A 
ATOM      5  C   UNL     1       3.772   0.414  -0.148  0.00  0.00    +0.058 A 
ATOM      6  C   UNL     1       3.364   2.790  -0.282  0.00  0.00    +0.003 C 
ATOM      7  C   UNL     1       5.150   0.594  -0.311  0.00  0.00    +0.017 C 
ATOM      8  C   UNL     1       4.740   2.985  -0.446  0.00  0.00    +0.000 C 
ATOM      9  C   UNL     1       5.618   1.903  -0.460  0.00  0.00    +0.001 C 
ATOM     10  H   UNL     1       3.419  -1.649   0.044  0.00  0.00    +0.166 HD
ENDROOT
BRANCH   2  13
ATOM     11  O   UNL     1       1.648  -2.505   2.354  0.00  0.00    -0.209 OA
ATOM     12  N   UNL     1      -0.190  -3.450   1.286  0.00  0.00    -0.333 NA
ATOM     13  C   UNL     1       0.777  -1.554   0.323  0.00  0.00    +0.114 C 
ATOM     14  C   UNL     1      -0.249  -1.915  -0.454  0.00  0.00    +0.044 C 
ATOM     15  C   UNL     1      -0.808  -3.101   0.207  0.00  0.00    +0.145 C 
ATOM     16  C   UNL     1       0.831  -2.537   1.447  0.00  0.00    +0.206 C 
ATOM     17  C   UNL     1      -0.813  -1.422  -1.675  0.00  0.00    +0.003 C 
ATOM     18  C   UNL     1      -1.980  -3.745  -0.420  0.00  0.00    +0.033 C 
ATOM     19  C   UNL     1      -1.876  -2.054  -2.200  0.00  0.00    +0.000 C 
ATOM     20  C   UNL     1      -2.460  -3.219  -1.559  0.00  0.00    +0.003 C 
ENDBRANCH   2  13
BRANCH   3  21
ATOM     21  N   UNL     1       0.370   1.637   0.127  0.00  0.00    -0.262 N 
ATOM     22  H   UNL     1       0.370   2.589  -0.123  0.00  0.00    +0.194 HD
BRANCH  21  23
ATOM     23  O   UNL     1      -0.821   1.058   0.540  0.00  0.00    -0.260 OA
BRANCH  23  24
ATOM     24  C   UNL     1      -1.864   1.892   0.057  0.00  0.00    +0.176 C 
BRANCH  24  25
ATOM     25  C   UNL     1      -3.218   1.322   0.470  0.00  0.00    +0.067 C 
BRANCH  25  26
ATOM     26  C   UNL     1      -4.401   2.177   0.001  0.00  0.00    +0.142 C 
BRANCH  26  27
ATOM     27  O   UNL     1      -4.250   3.496   0.526  0.00  0.00    -0.382 OA
ATOM     28  H   UNL     1      -3.411   3.873   0.219  0.00  0.00    +0.210 HD
ENDBRANCH  26  27
BRANCH  26  29
ATOM     29  C   UNL     1      -5.726   1.602   0.496  0.00  0.00    +0.166 C 
BRANCH  29  30
ATOM     30  O   UNL     1      -6.804   2.413   0.042  0.00  0.00    -0.379 OA
ATOM     31  H   UNL     1      -7.643   2.042   0.359  0.00  0.00    +0.211 HD
ENDBRANCH  29  30
ENDBRANCH  26  29
ENDBRANCH  25  26
ENDBRANCH  24  25
ENDBRANCH  23  24
ENDBRANCH  21  23
ENDBRANCH   3  21
TORSDOF 9
