REMARK  Name = 448953
REMARK  10 active torsions:
REMARK  status: ('A' for Active; 'I' for Inactive)
REMARK    1  A    between atoms: C_1  and  C_9
REMARK    2  A    between atoms: C_1  and  N_11
REMARK    3  A    between atoms: C_1  and  C_26
REMARK    4  A    between atoms: C_12  and  C_14
REMARK    5  A    between atoms: C_14  and  N_15
REMARK    6  A    between atoms: N_15  and  S_17
REMARK    7  A    between atoms: S_17  and  C_20
REMARK    8  A    between atoms: C_26  and  C_27
REMARK    9  A    between atoms: C_27  and  N_28
REMARK   10  A    between atoms: N_28  and  C_31
REMARK                            x       y       z     vdW  Elec       q    Type
REMARK                         _______ _______ _______ _____ _____    ______ ____
ROOT
ATOM      1  C   UNL     1       2.369  -0.410  -0.682  0.00  0.00    +0.150 C 
ENDROOT
BRANCH   1   9
ATOM      2  O   UNL     1       2.422  -2.422  -1.932  0.00  0.00    -0.273 OA
ATOM      3  N   UNL     1       4.142  -2.107  -0.401  0.00  0.00    -0.278 N 
ATOM      4  C   UNL     1       4.788  -3.383  -0.718  0.00  0.00    +0.093 C 
ATOM      5  C   UNL     1       4.845  -1.293   0.599  0.00  0.00    +0.093 C 
ATOM      6  C   UNL     1       5.002  -4.214   0.544  0.00  0.00    +0.022 C 
ATOM      7  C   UNL     1       5.061  -2.085   1.887  0.00  0.00    +0.022 C 
ATOM      8  C   UNL     1       5.754  -3.418   1.609  0.00  0.00    +0.004 C 
ATOM      9  C   UNL     1       2.974  -1.737  -1.067  0.00  0.00    +0.244 C 
ENDBRANCH   1   9
BRANCH   1  11
ATOM     10  O   UNL     1       0.417  -0.388   1.458  0.00  0.00    -0.274 OA
ATOM     11  N   UNL     1       0.957  -0.636  -0.790  0.00  0.00    -0.297 N 
ATOM     12  C   UNL     1       0.084  -0.607   0.296  0.00  0.00    +0.241 C 
ATOM     13  H   UNL     1       0.583  -0.821  -1.682  0.00  0.00    +0.150 HD
BRANCH  12  14
ATOM     14  C   UNL     1      -1.339  -0.875  -0.121  0.00  0.00    +0.176 C 
BRANCH  14  15
ATOM     15  N   UNL     1      -2.260  -0.171   0.782  0.00  0.00    -0.174 NA
ATOM     16  H   UNL     1      -2.450  -0.799   1.563  0.00  0.00    +0.149 HD
BRANCH  15  17
ATOM     17  S   UNL     1      -3.773   0.357   0.189  0.00  0.00    +0.039 S 
ATOM     18  O   UNL     1      -3.588   1.071  -1.060  0.00  0.00    -0.158 OA
ATOM     19  O   UNL     1      -4.515   0.956   1.282  0.00  0.00    -0.158 OA
BRANCH  17  20
ATOM     20  C   UNL     1      -4.537  -1.199  -0.180  0.00  0.00    +0.146 C 
ATOM     21  C   UNL     1      -4.646  -2.054   1.083  0.00  0.00    +0.025 C 
ATOM     22  C   UNL     1      -5.904  -0.982  -0.829  0.00  0.00    +0.025 C 
ATOM     23  C   UNL     1      -5.354  -3.377   0.805  0.00  0.00    +0.002 C 
ATOM     24  C   UNL     1      -6.610  -2.307  -1.106  0.00  0.00    +0.002 C 
ATOM     25  C   UNL     1      -6.717  -3.161   0.154  0.00  0.00    +0.000 C 
ENDBRANCH  17  20
ENDBRANCH  15  17
ENDBRANCH  14  15
ENDBRANCH  12  14
ENDBRANCH   1  11
BRANCH   1  26
ATOM     26  C   UNL     1       2.869   0.688  -1.613  0.00  0.00    +0.050 C 
BRANCH  26  27
ATOM     27  C   UNL     1       2.763   2.087  -1.006  0.00  0.00    +0.089 C 
BRANCH  27  28
ATOM     28  N   UNL     1       1.386   2.422  -0.732  0.00  0.00    -0.333 N 
ATOM     29  H   UNL     1       0.698   1.739  -0.908  0.00  0.00    +0.147 HD
BRANCH  28  31
ATOM     30  N   UNL     1       0.170   6.068   0.740  0.00  0.00    -0.328 N 
ATOM     31  C   UNL     1       0.977   3.650  -0.236  0.00  0.00    +0.043 C 
ATOM     32  C   UNL     1       1.915   4.643   0.026  0.00  0.00    +0.009 C 
ATOM     33  C   UNL     1      -0.373   3.891   0.000  0.00  0.00    +0.030 C 
ATOM     34  C   UNL     1       1.476   5.863   0.522  0.00  0.00    +0.115 C 
ATOM     35  C   UNL     1      -0.754   5.130   0.496  0.00  0.00    +0.059 C 
ATOM     36  H   UNL     1      -0.120   6.941   1.093  0.00  0.00    +0.147 HD
ENDBRANCH  28  31
ENDBRANCH  27  28
ENDBRANCH  26  27
ENDBRANCH   1  26
TORSDOF 10
