REMARK  Name = 447297
REMARK  4 active torsions:
REMARK  status: ('A' for Active; 'I' for Inactive)
REMARK    1  A    between atoms: N_1  and  C_5
REMARK    2  A    between atoms: N_1  and  S_14
REMARK    3  A    between atoms: N_3  and  C_8
REMARK    4  A    between atoms: S_14  and  C_17
REMARK                            x       y       z     vdW  Elec       q    Type
REMARK                         _______ _______ _______ _____ _____    ______ ____
ROOT
ATOM      1  N   UNL     1       2.046   0.060   0.926  0.00  0.00    -0.174 N 
ATOM      2  C   UNL     1       3.213  -0.291   1.780  0.00  0.00    +0.141 C 
ENDROOT
BRANCH   1   5
ATOM      3  N   UNL     1       0.858  -1.490  -0.676  0.00  0.00    -0.175 N 
ATOM      4  N   UNL     1       1.019  -2.069  -1.879  0.00  0.00    -0.171 NA
ATOM      5  C   UNL     1       1.901  -0.720  -0.333  0.00  0.00    +0.144 C 
ATOM      6  C   UNL     1       2.814  -0.767  -1.328  0.00  0.00    +0.056 C 
ATOM      7  C   UNL     1       2.216  -1.623  -2.272  0.00  0.00    +0.121 C 
BRANCH   3   8
ATOM      8  C   UNL     1      -0.301  -1.723   0.062  0.00  0.00    +0.075 C 
ATOM      9  C   UNL     1      -0.248  -1.691   1.450  0.00  0.00    +0.017 C 
ATOM     10  C   UNL     1      -1.496  -1.982  -0.599  0.00  0.00    +0.017 C 
ATOM     11  C   UNL     1      -1.409  -1.921   2.189  0.00  0.00    +0.001 C 
ATOM     12  C   UNL     1      -2.656  -2.212   0.140  0.00  0.00    +0.001 C 
ATOM     13  C   UNL     1      -2.612  -2.182   1.534  0.00  0.00    +0.000 C 
ENDBRANCH   3   8
ENDBRANCH   1   5
BRANCH   1  14
ATOM     14  S   UNL     1       1.729   1.753   0.692  0.00  0.00    +0.078 S 
ATOM     15  O   UNL     1       2.596   2.243  -0.373  0.00  0.00    -0.150 OA
ATOM     16  O   UNL     1       1.727   2.434   1.981  0.00  0.00    -0.150 OA
BRANCH  14  17
ATOM     17  C   UNL     1       0.080   1.747   0.120  0.00  0.00    +0.125 C 
ATOM     18  C   UNL     1      -0.974   1.828   1.031  0.00  0.00    +0.020 C 
ATOM     19  C   UNL     1      -0.185   1.661  -1.247  0.00  0.00    +0.020 C 
ATOM     20  C   UNL     1      -2.557   1.737  -0.792  0.00  0.00    -0.022 C 
ATOM     21  C   UNL     1      -2.292   1.823   0.575  0.00  0.00    -0.003 C 
ATOM     22  C   UNL     1      -1.503   1.656  -1.703  0.00  0.00    -0.003 C 
ATOM     23  C   UNL     1      -3.966   1.732  -1.280  0.00  0.00    +0.031 C 
ENDBRANCH  14  17
ENDBRANCH   1  14
TORSDOF 4
