REMARK  Name = 21078798
REMARK  5 active torsions:
REMARK  status: ('A' for Active; 'I' for Inactive)
REMARK    1  A    between atoms: C_1  and  C_22
REMARK    2  A    between atoms: C_4  and  C_7
REMARK    3  A    between atoms: C_10  and  C_17
REMARK    4  A    between atoms: N_21  and  C_24
REMARK    5  A    between atoms: C_24  and  C_25
REMARK                            x       y       z     vdW  Elec       q    Type
REMARK                         _______ _______ _______ _____ _____    ______ ____
ROOT
ATOM      1  C   UNL     1       2.861   0.607   0.095  0.00  0.00    +0.053 C 
ATOM      2  C   UNL     1       2.194   0.656  -1.129  0.00  0.00    +0.005 C 
ATOM      3  C   UNL     1       2.147   0.742   1.285  0.00  0.00    +0.005 C 
ATOM      4  C   UNL     1       0.097   0.974   0.028  0.00  0.00    -0.000 C 
ATOM      5  C   UNL     1       0.812   0.839  -1.163  0.00  0.00    +0.000 C 
ATOM      6  C   UNL     1       0.764   0.925   1.252  0.00  0.00    +0.000 C 
ENDROOT
BRANCH   4   7
ATOM      7  C   UNL     1      -1.337   1.166  -0.006  0.00  0.00    -0.004 C 
ATOM      8  C   UNL     1      -1.890   2.445  -0.060  0.00  0.00    -0.022 C 
ATOM      9  C   UNL     1      -2.169   0.047   0.018  0.00  0.00    +0.004 C 
ATOM     10  C   UNL     1      -3.554   0.207  -0.013  0.00  0.00    +0.055 C 
ATOM     11  C   UNL     1      -3.276   2.605  -0.091  0.00  0.00    -0.004 C 
ATOM     12  C   UNL     1      -4.107   1.486  -0.068  0.00  0.00    +0.004 C 
ATOM     13  C   UNL     1      -1.030   3.668  -0.086  0.00  0.00    +0.031 C 
BRANCH  10  17
ATOM     14  O   UNL     1      -5.752  -0.699  -0.024  0.00  0.00    -0.420 OA
ATOM     15  N   UNL     1      -4.122  -2.229   0.061  0.00  0.00    -0.107 NA
ATOM     16  N   UNL     1      -5.334  -2.895   0.062  0.00  0.00    -0.111 NA
ATOM     17  C   UNL     1      -4.415  -0.950   0.010  0.00  0.00    +0.250 A 
ATOM     18  C   UNL     1      -6.256  -1.963   0.012  0.00  0.00    +0.227 A 
ATOM     19  C   UNL     1      -7.719  -2.093  -0.011  0.00  0.00    +0.097 C 
ENDBRANCH  10  17
ENDBRANCH   4   7
BRANCH   1  22
ATOM     20  O   UNL     1       4.971   0.831   1.094  0.00  0.00    -0.270 OA
ATOM     21  N   UNL     1       4.880  -0.269  -0.946  0.00  0.00    -0.301 N 
ATOM     22  C   UNL     1       4.303   0.415   0.131  0.00  0.00    +0.246 C 
ATOM     23  H   UNL     1       4.291  -0.570  -1.675  0.00  0.00    +0.150 HD
BRANCH  21  24
ATOM     24  C   UNL     1       6.293  -0.557  -1.044  0.00  0.00    +0.090 C 
BRANCH  24  25
ATOM     25  C   UNL     1       6.617  -1.872  -0.420  0.00  0.00    +0.020 C 
ATOM     26  C   UNL     1       6.989  -1.923   1.033  0.00  0.00    +0.002 C 
ATOM     27  C   UNL     1       8.034  -2.163  -0.018  0.00  0.00    +0.002 C 
ENDBRANCH  24  25
ENDBRANCH  21  24
ENDBRANCH   1  22
TORSDOF 5
