REMARK  Name = 447492
REMARK  5 active torsions:
REMARK  status: ('A' for Active; 'I' for Inactive)
REMARK    1  A    between atoms: C_2  and  C_17
REMARK    2  A    between atoms: C_8  and  C_13
REMARK    3  A    between atoms: C_18  and  O_29
REMARK    4  A    between atoms: C_19  and  C_23
REMARK    5  A    between atoms: C_21  and  O_31
REMARK                            x       y       z     vdW  Elec       q    Type
REMARK                         _______ _______ _______ _____ _____    ______ ____
ROOT
ATOM      1  N   UNL     1       1.264  -0.689  -0.573  0.00  0.00    -0.312 N 
ATOM      2  C   UNL     1       0.805   0.496  -0.063  0.00  0.00    +0.051 C 
ATOM      3  C   UNL     1       3.053   0.421   0.164  0.00  0.00    +0.015 C 
ATOM      4  C   UNL     1       2.633  -0.762  -0.447  0.00  0.00    +0.048 C 
ATOM      5  C   UNL     1       1.889   1.205   0.401  0.00  0.00    +0.016 C 
ATOM      6  C   UNL     1       4.428   0.605   0.412  0.00  0.00    +0.004 C 
ATOM      7  C   UNL     1       3.522  -1.775  -0.824  0.00  0.00    +0.015 C 
ATOM      8  C   UNL     1       5.329  -0.400   0.041  0.00  0.00    +0.031 C 
ATOM      9  C   UNL     1       4.881  -1.571  -0.568  0.00  0.00    +0.004 C 
ATOM     10  H   UNL     1       0.696  -1.388  -0.971  0.00  0.00    +0.152 HD
ENDROOT
BRANCH   8  13
ATOM     11  N   UNL     1       7.680  -1.194  -0.059  0.00  0.00    -0.343 N 
ATOM     12  N   UNL     1       7.178   0.889   0.875  0.00  0.00    -0.285 NA
ATOM     13  C   UNL     1       6.750  -0.218   0.294  0.00  0.00    +0.117 C 
ATOM     14  H   UNL     1       8.637  -1.050   0.122  0.00  0.00    +0.144 HD
ATOM     15  H   UNL     1       7.380  -2.026  -0.490  0.00  0.00    +0.144 HD
ATOM     16  H   UNL     1       8.139   1.015   1.048  0.00  0.00    +0.188 HD
ENDBRANCH   8  13
BRANCH   2  17
ATOM     17  C   UNL     1      -0.597   0.838  -0.064  0.00  0.00    +0.050 C 
ATOM     18  C   UNL     1      -1.579  -0.151   0.019  0.00  0.00    +0.135 C 
ATOM     19  C   UNL     1      -2.928   0.203   0.018  0.00  0.00    +0.037 C 
ATOM     20  C   UNL     1      -0.968   2.181  -0.147  0.00  0.00    +0.041 C 
ATOM     21  C   UNL     1      -2.317   2.534  -0.148  0.00  0.00    +0.139 C 
ATOM     22  C   UNL     1      -3.297   1.546  -0.066  0.00  0.00    +0.040 C 
BRANCH  19  23
ATOM     23  C   UNL     1      -3.964  -0.807   0.102  0.00  0.00    +0.003 C 
ATOM     24  C   UNL     1      -4.480  -1.372  -1.063  0.00  0.00    +0.000 C 
ATOM     25  C   UNL     1      -4.441  -1.212   1.347  0.00  0.00    +0.000 C 
ATOM     26  C   UNL     1      -5.477  -2.345  -0.983  0.00  0.00    +0.000 C 
ATOM     27  C   UNL     1      -5.438  -2.184   1.428  0.00  0.00    +0.000 C 
ATOM     28  C   UNL     1      -5.956  -2.751   0.263  0.00  0.00    +0.000 C 
ENDBRANCH  19  23
BRANCH  18  29
ATOM     29  O   UNL     1      -1.218  -1.466   0.102  0.00  0.00    -0.505 OA
ATOM     30  H   UNL     1      -0.311  -1.704   0.102  0.00  0.00    +0.292 HD
ENDBRANCH  18  29
BRANCH  21  31
ATOM     31  O   UNL     1      -2.677   3.844  -0.231  0.00  0.00    -0.471 OA
ATOM     32  C   UNL     1      -4.074   4.135  -0.229  0.00  0.00    +0.252 C 
ENDBRANCH  21  31
ENDBRANCH   2  17
TORSDOF 5
