REMARK  Name = 656913
REMARK  7 active torsions:
REMARK  status: ('A' for Active; 'I' for Inactive)
REMARK    1  A    between atoms: N_3  and  C_22
REMARK    2  A    between atoms: N_4  and  C_11
REMARK    3  A    between atoms: C_11  and  C_14
REMARK    4  A    between atoms: C_14  and  C_17
REMARK    5  A    between atoms: C_22  and  C_25
REMARK    6  A    between atoms: N_24  and  C_27
REMARK    7  A    between atoms: C_27  and  C_29
REMARK                            x       y       z     vdW  Elec       q    Type
REMARK                         _______ _______ _______ _____ _____    ______ ____
ROOT
ATOM      1 CL   UNL     1      -2.707  -0.779  -2.674  0.00  0.00    -0.064 Cl
ATOM      2  O   UNL     1       0.188  -2.001   1.248  0.00  0.00    -0.266 OA
ATOM      3  N   UNL     1      -1.192  -1.449  -0.566  0.00  0.00    -0.233 N 
ATOM      4  N   UNL     1       2.372  -0.830   0.194  0.00  0.00    -0.310 N 
ATOM      5  N   UNL     1       1.088  -0.224  -1.671  0.00  0.00    -0.223 NA
ATOM      6  C   UNL     1       1.193  -0.800  -0.507  0.00  0.00    +0.183 C 
ATOM      7  C   UNL     1       0.003  -1.483   0.153  0.00  0.00    +0.285 C 
ATOM      8  C   UNL     1      -1.227  -0.818  -1.794  0.00  0.00    +0.133 C 
ATOM      9  C   UNL     1      -0.127  -0.245  -2.292  0.00  0.00    +0.127 C 
ATOM     10  H   UNL     1       2.394  -1.280   1.070  0.00  0.00    +0.149 HD
ENDROOT
BRANCH   4  11
ATOM     11  C   UNL     1       3.570  -0.230  -0.303  0.00  0.00    +0.162 C 
BRANCH  11  14
ATOM     12  F   UNL     1       4.856  -1.732   0.963  0.00  0.00    -0.196 F 
ATOM     13  F   UNL     1       4.300   0.146   1.896  0.00  0.00    -0.196 F 
ATOM     14  C   UNL     1       4.702  -0.398   0.710  0.00  0.00    +0.317 C 
BRANCH  14  17
ATOM     15  O   UNL     1       5.370   2.229   1.205  0.00  0.00    -0.163 OA
ATOM     16  N   UNL     1       6.199   1.550   0.513  0.00  0.00    -0.128 N 
ATOM     17  C   UNL     1       5.976   0.232   0.202  0.00  0.00    +0.142 C 
ATOM     18  C   UNL     1       6.867  -0.515  -0.545  0.00  0.00    +0.022 C 
ATOM     19  C   UNL     1       7.360   2.143   0.056  0.00  0.00    +0.121 C 
ATOM     20  C   UNL     1       8.033   0.092  -1.000  0.00  0.00    +0.003 C 
ATOM     21  C   UNL     1       8.283   1.427  -0.699  0.00  0.00    +0.022 C 
ENDBRANCH  14  17
ENDBRANCH  11  14
ENDBRANCH   4  11
BRANCH   3  22
ATOM     22  C   UNL     1      -2.377  -2.084   0.001  0.00  0.00    +0.184 C 
BRANCH  22  25
ATOM     23  O   UNL     1      -2.592  -0.181   1.475  0.00  0.00    -0.273 OA
ATOM     24  N   UNL     1      -4.502  -1.336   0.828  0.00  0.00    -0.299 N 
ATOM     25  C   UNL     1      -3.139  -1.078   0.838  0.00  0.00    +0.243 C 
ATOM     26  H   UNL     1      -4.832  -2.084   0.279  0.00  0.00    +0.150 HD
BRANCH  24  27
ATOM     27  C   UNL     1      -5.462  -0.561   1.582  0.00  0.00    +0.119 C 
BRANCH  27  29
ATOM     28  F   UNL     1      -7.782  -0.815  -0.012  0.00  0.00    -0.204 F 
ATOM     29  C   UNL     1      -6.025   0.574   0.776  0.00  0.00    +0.025 C 
ATOM     30  C   UNL     1      -7.171   0.378   0.014  0.00  0.00    +0.138 C 
ATOM     31  C   UNL     1      -5.392   1.811   0.801  0.00  0.00    -0.000 C 
ATOM     32  C   UNL     1      -7.691   1.434  -0.733  0.00  0.00    +0.029 C 
ATOM     33  C   UNL     1      -5.913   2.867   0.054  0.00  0.00    -0.000 C 
ATOM     34  C   UNL     1      -7.062   2.679  -0.713  0.00  0.00    +0.002 C 
ENDBRANCH  27  29
ENDBRANCH  24  27
ENDBRANCH  22  25
ENDBRANCH   3  22
TORSDOF 7
