REMARK  Name = 12000133
REMARK  17 active torsions:
REMARK  status: ('A' for Active; 'I' for Inactive)
REMARK    1  A    between atoms: C_2  and  O_18
REMARK    2  A    between atoms: C_3  and  O_20
REMARK    3  A    between atoms: C_4  and  C_22
REMARK    4  A    between atoms: C_5  and  N_6
REMARK    5  A    between atoms: C_22  and  S_23
REMARK    6  A    between atoms: S_23  and  C_24
REMARK    7  A    between atoms: C_24  and  C_25
REMARK    8  A    between atoms: C_25  and  N_26
REMARK    9  A    between atoms: N_26  and  C_29
REMARK   10  A    between atoms: C_29  and  C_30
REMARK   11  A    between atoms: C_30  and  C_31
REMARK   12  A    between atoms: C_31  and  C_32
REMARK   13  A    between atoms: C_32  and  C_33
REMARK   14  A    between atoms: C_33  and  C_34
REMARK   15  A    between atoms: C_34  and  C_35
REMARK   16  A    between atoms: C_35  and  C_36
REMARK   17  A    between atoms: C_36  and  C_37
REMARK                            x       y       z     vdW  Elec       q    Type
REMARK                         _______ _______ _______ _____ _____    ______ ____
ROOT
ATOM      1  O   UNL     1       2.441  -0.808   1.306  0.00  0.00    -0.335 OA
ATOM      2  C   UNL     1       4.451  -1.936   0.709  0.00  0.00    +0.169 C 
ATOM      3  C   UNL     1       3.388  -2.233  -0.331  0.00  0.00    +0.187 C 
ATOM      4  C   UNL     1       3.880  -0.710   1.415  0.00  0.00    +0.157 C 
ATOM      5  C   UNL     1       2.115  -1.909   0.436  0.00  0.00    +0.225 C 
ENDROOT
BRANCH   5   6
ATOM      6  N   UNL     1       0.984  -1.546  -0.415  0.00  0.00    -0.247 N 
ATOM      7  N   UNL     1      -0.199  -0.453  -1.957  0.00  0.00    -0.242 NA
ATOM      8  N   UNL     1      -0.673  -3.169   0.308  0.00  0.00    -0.228 NA
ATOM      9  N   UNL     1      -2.771  -2.895  -0.908  0.00  0.00    -0.229 NA
ATOM     10  C   UNL     1      -0.246  -2.139  -0.438  0.00  0.00    +0.152 C 
ATOM     11  C   UNL     1       0.964  -0.539  -1.343  0.00  0.00    +0.223 C 
ATOM     12  C   UNL     1      -0.964  -1.447  -1.401  0.00  0.00    +0.140 C 
ATOM     13  C   UNL     1      -2.274  -1.859  -1.626  0.00  0.00    +0.143 C 
ATOM     14  C   UNL     1      -1.952  -3.477   0.001  0.00  0.00    +0.253 C 
ATOM     15  N   UNL     1      -3.074  -1.215  -2.585  0.00  0.00    -0.342 N 
ATOM     16  H   UNL     1      -3.999  -1.515  -2.736  0.00  0.00    +0.144 HD
ATOM     17  H   UNL     1      -2.709  -0.463  -3.106  0.00  0.00    +0.144 HD
ENDBRANCH   5   6
BRANCH   2  18
ATOM     18  O   UNL     1       4.519  -3.014   1.641  0.00  0.00    -0.379 OA
ATOM     19  H   UNL     1       4.881  -3.799   1.202  0.00  0.00    +0.211 HD
ENDBRANCH   2  18
BRANCH   3  20
ATOM     20  O   UNL     1       3.409  -3.575  -0.775  0.00  0.00    -0.378 OA
ATOM     21  H   UNL     1       4.233  -3.743  -1.258  0.00  0.00    +0.211 HD
ENDBRANCH   3  20
BRANCH   4  22
ATOM     22  C   UNL     1       4.321   0.601   0.779  0.00  0.00    +0.090 C 
BRANCH  22  23
ATOM     23  S   UNL     1       3.619   2.007   1.670  0.00  0.00    -0.140 S 
BRANCH  23  24
ATOM     24  C   UNL     1       4.335   3.340   0.665  0.00  0.00    +0.034 C 
BRANCH  24  25
ATOM     25  C   UNL     1       3.552   3.505  -0.632  0.00  0.00    -0.070 C 
BRANCH  25  26
ATOM     26  N   UNL     1       2.166   3.835  -0.333  0.00  0.00    +0.384 N 
ATOM     27  H   UNL     1       2.135   4.718   0.176  0.00  0.00    -0.084 HD
ATOM     28  H   UNL     1       1.766   3.084   0.230  0.00  0.00    -0.084 HD
BRANCH  26  29
ATOM     29  C   UNL     1       1.386   3.963  -1.559  0.00  0.00    -0.082 C 
BRANCH  29  30
ATOM     30  C   UNL     1      -0.079   4.300  -1.271  0.00  0.00    -0.023 C 
BRANCH  30  31
ATOM     31  C   UNL     1      -0.777   3.244  -0.407  0.00  0.00    -0.002 C 
BRANCH  31  32
ATOM     32  C   UNL     1      -2.260   3.544  -0.166  0.00  0.00    -0.000 C 
BRANCH  32  33
ATOM     33  C   UNL     1      -2.976   2.450   0.630  0.00  0.00    -0.000 C 
BRANCH  33  34
ATOM     34  C   UNL     1      -4.456   2.754   0.883  0.00  0.00    -0.000 C 
BRANCH  34  35
ATOM     35  C   UNL     1      -5.223   1.705   1.695  0.00  0.00    +0.000 C 
BRANCH  35  36
ATOM     36  C   UNL     1      -5.288   0.336   1.015  0.00  0.00    +0.000 C 
BRANCH  36  37
ATOM     37  C   UNL     1      -6.139  -0.643   1.824  0.00  0.00    +0.000 C 
ATOM     38  C   UNL     1      -6.181  -2.016   1.171  0.00  0.00    +0.000 C 
ENDBRANCH  36  37
ENDBRANCH  35  36
ENDBRANCH  34  35
ENDBRANCH  33  34
ENDBRANCH  32  33
ENDBRANCH  31  32
ENDBRANCH  30  31
ENDBRANCH  29  30
ENDBRANCH  26  29
ENDBRANCH  25  26
ENDBRANCH  24  25
ENDBRANCH  23  24
ENDBRANCH  22  23
ENDBRANCH   4  22
TORSDOF 17
