REMARK  Name = 2724883
REMARK  5 active torsions:
REMARK  status: ('A' for Active; 'I' for Inactive)
REMARK    1  A    between atoms: C_1  and  C_2
REMARK    2  A    between atoms: C_1  and  CA_12
REMARK    3  A    between atoms: CA_12  and  N_13
REMARK    4  A    between atoms: CA_12  and  C_18
REMARK    5  A    between atoms: C_18  and  O_19
REMARK                            x       y       z     vdW  Elec       q    Type
REMARK                         _______ _______ _______ _____ _____    ______ ____
ROOT
ATOM      1  C   UNL     1       1.259   0.559  -1.048  0.00  0.00    +0.015 C 
ENDROOT
BRANCH   1   2
ATOM      2  C   UNL     1       0.115  -0.320  -0.647  0.00  0.00    -0.024 C 
ATOM      3  C   UNL     1      -1.129   0.206  -0.263  0.00  0.00    -0.004 C 
ATOM      4  C   UNL     1      -2.171  -0.678   0.104  0.00  0.00    -0.000 C 
ATOM      5  C   UNL     1       0.328  -1.699  -0.669  0.00  0.00    -0.004 C 
ATOM      6  C   UNL     1      -1.362   1.591  -0.235  0.00  0.00    -0.000 C 
ATOM      7  C   UNL     1      -1.939  -2.063   0.076  0.00  0.00    -0.000 C 
ATOM      8  C   UNL     1      -0.697  -2.568  -0.308  0.00  0.00    -0.000 C 
ATOM      9  C   UNL     1      -3.416  -0.152   0.488  0.00  0.00    -0.000 C 
ATOM     10  C   UNL     1      -2.604   2.096   0.149  0.00  0.00    -0.000 C 
ATOM     11  C   UNL     1      -3.629   1.227   0.510  0.00  0.00    -0.000 C 
ENDBRANCH   1   2
BRANCH   1  12
ATOM     12  CA  UNL     1       2.161   0.964   0.136  0.00  0.00    +0.040 C 
BRANCH  12  13
ATOM     13  N   UNL     1       2.937   2.155  -0.204  0.00  0.00    +0.389 N 
ATOM     14  H1  UNL     1       2.302   2.916  -0.446  0.00  0.00    -0.088 HD
ATOM     15  H2  UNL     1       3.541   1.951  -1.000  0.00  0.00    -0.088 HD
ATOM     16  H3  UNL     1       3.508   2.428   0.595  0.00  0.00    -0.088 HD
ENDBRANCH  12  13
BRANCH  12  18
ATOM     17  OXT UNL     1       4.278  -0.232  -0.015  0.00  0.00    -0.253 OA
ATOM     18  C   UNL     1       3.165  -0.123   0.482  0.00  0.00    +0.293 C 
BRANCH  18  19
ATOM     19  O   UNL     1       2.705  -0.963   1.446  0.00  0.00    -0.482 OA
ATOM     20  H   UNL     1       1.845  -0.844   1.799  0.00  0.00    +0.295 HD
ENDBRANCH  18  19
ENDBRANCH  12  18
ENDBRANCH   1  12
TORSDOF 5
