REMARK  Name = 11840913
REMARK  8 active torsions:
REMARK  status: ('A' for Active; 'I' for Inactive)
REMARK    1  A    between atoms: C_2  and  C_13
REMARK    2  A    between atoms: C_3  and  C_20
REMARK    3  A    between atoms: C_10  and  C_15
REMARK    4  A    between atoms: C_15  and  N_16
REMARK    5  A    between atoms: C_20  and  N_22
REMARK    6  A    between atoms: N_23  and  C_27
REMARK    7  A    between atoms: C_32  and  C_34
REMARK    8  A    between atoms: C_34  and  O_35
REMARK                            x       y       z     vdW  Elec       q    Type
REMARK                         _______ _______ _______ _____ _____    ______ ____
ROOT
ATOM      1  N   UNL     1       2.736  -0.216  -1.142  0.00  0.00    +0.393 N 
ATOM      2  C   UNL     1       3.620   0.434  -0.173  0.00  0.00    +0.017 C 
ATOM      3  C   UNL     1       1.433  -0.348  -0.489  0.00  0.00    -0.041 C 
ATOM      4  C   UNL     1       3.031   0.148   1.204  0.00  0.00    -0.015 C 
ATOM      5  C   UNL     1       1.821  -0.733   0.929  0.00  0.00    -0.021 C 
ATOM      6  H   UNL     1       3.101  -1.135  -1.390  0.00  0.00    -0.084 HD
ATOM      7  H   UNL     1       2.666   0.329  -2.001  0.00  0.00    -0.084 HD
ENDROOT
BRANCH   2  13
ATOM      8  O   UNL     1       5.078  -1.341  -0.742  0.00  0.00    -0.277 OA
ATOM      9  N   UNL     1       6.042   0.643  -0.043  0.00  0.00    -0.285 N 
ATOM     10  C   UNL     1       7.433   0.235  -0.252  0.00  0.00    +0.054 C 
ATOM     11  C   UNL     1       8.210   1.554  -0.207  0.00  0.00    +0.019 C 
ATOM     12  C   UNL     1       5.960   2.025   0.424  0.00  0.00    +0.093 C 
ATOM     13  C   UNL     1       4.970  -0.178  -0.350  0.00  0.00    +0.205 C 
ATOM     14  C   UNL     1       7.394   2.411   0.753  0.00  0.00    +0.023 C 
BRANCH  10  15
ATOM     15  C   UNL     1       7.896  -0.743   0.826  0.00  0.00    -0.066 C 
BRANCH  15  16
ATOM     16  N   UNL     1       9.282  -1.063   0.667  0.00  0.00    +0.382 N 
ATOM     17  H   UNL     1       9.566  -1.717   1.398  0.00  0.00    -0.089 HD
ATOM     18  H   UNL     1       9.839  -0.212   0.738  0.00  0.00    -0.089 HD
ATOM     19  H   UNL     1       9.430  -1.491  -0.247  0.00  0.00    -0.089 HD
ENDBRANCH  15  16
ENDBRANCH  10  15
ENDBRANCH   2  13
BRANCH   3  20
ATOM     20  C   UNL     1       0.568  -1.390  -1.176  0.00  0.00    +0.070 C 
BRANCH  20  22
ATOM     21  O   UNL     1      -1.907   0.004  -1.550  0.00  0.00    -0.252 OA
ATOM     22  N   UNL     1      -0.656  -1.607  -0.459  0.00  0.00    -0.291 N 
ATOM     23  N   UNL     1      -2.859  -1.310   0.146  0.00  0.00    -0.268 N 
ATOM     24  C   UNL     1      -1.833  -0.881  -0.700  0.00  0.00    +0.304 C 
ATOM     25  H   UNL     1      -0.671  -2.302   0.239  0.00  0.00    +0.151 HD
ATOM     26  H   UNL     1      -2.629  -2.034   0.773  0.00  0.00    +0.156 HD
BRANCH  23  27
ATOM     27  C   UNL     1      -4.188  -0.830   0.213  0.00  0.00    +0.052 C 
ATOM     28  C   UNL     1      -5.065  -1.388   1.128  0.00  0.00    +0.015 C 
ATOM     29  C   UNL     1      -4.585   0.188  -0.638  0.00  0.00    +0.015 C 
ATOM     30  C   UNL     1      -6.375  -0.915   1.194  0.00  0.00    +0.008 C 
ATOM     31  C   UNL     1      -5.895   0.662  -0.572  0.00  0.00    +0.008 C 
ATOM     32  C   UNL     1      -6.790   0.110   0.344  0.00  0.00    +0.076 C 
BRANCH  32  34
ATOM     33  O   UNL     1      -8.998   0.164   1.199  0.00  0.00    -0.245 OA
ATOM     34  C   UNL     1      -8.156   0.605   0.414  0.00  0.00    +0.341 C 
BRANCH  34  35
ATOM     35  O   UNL     1      -8.419   1.612  -0.482  0.00  0.00    -0.441 OA
ATOM     36  C   UNL     1      -9.748   2.146  -0.467  0.00  0.00    +0.256 C 
ENDBRANCH  34  35
ENDBRANCH  32  34
ENDBRANCH  23  27
ENDBRANCH  20  22
ENDBRANCH   3  20
TORSDOF 8
