REMARK  Name = 6102820
REMARK  2 active torsions:
REMARK  status: ('A' for Active; 'I' for Inactive)
REMARK    1  A    between atoms: N_3  and  S_13
REMARK    2  A    between atoms: S_13  and  C_18
REMARK                            x       y       z     vdW  Elec       q    Type
REMARK                         _______ _______ _______ _____ _____    ______ ____
ROOT
ATOM      1 CL   UNL     1       6.460  -0.741   1.105  0.00  0.00    -0.086 Cl
ATOM      2  O   UNL     1       1.096   0.188  -0.907  0.00  0.00    -0.413 OA
ATOM      3  N   UNL     1      -0.520   1.819   0.005  0.00  0.00    -0.158 N 
ATOM      4  N   UNL     1       1.719   1.453   0.868  0.00  0.00    -0.355 NA
ATOM      5  C   UNL     1       0.778   1.155  -0.002  0.00  0.00    +0.364 C 
ATOM      6  C   UNL     1       2.750   0.616   0.516  0.00  0.00    +0.153 C 
ATOM      7  C   UNL     1       2.373  -0.159  -0.570  0.00  0.00    +0.175 C 
ATOM      8  C   UNL     1       4.033   0.447   1.056  0.00  0.00    +0.100 C 
ATOM      9  C   UNL     1       3.178  -1.112  -1.181  0.00  0.00    +0.041 C 
ATOM     10  C   UNL     1       4.876  -0.506   0.466  0.00  0.00    +0.043 C 
ATOM     11  C   UNL     1       4.455  -1.269  -0.630  0.00  0.00    +0.011 C 
ATOM     12  H   UNL     1      -0.689   2.510   0.686  0.00  0.00    +0.179 HD
ENDROOT
BRANCH   3  13
ATOM     13  S   UNL     1      -1.741   1.463  -1.091  0.00  0.00    +0.078 S 
ATOM     14  O   UNL     1      -1.179   0.860  -2.285  0.00  0.00    -0.150 OA
ATOM     15  O   UNL     1      -2.661   2.580  -1.195  0.00  0.00    -0.150 OA
BRANCH  13  18
ATOM     16 CL   UNL     1      -3.441   2.056   1.596  0.00  0.00    -0.081 Cl
ATOM     17 CL   UNL     1      -2.983  -3.762  -0.603  0.00  0.00    -0.082 Cl
ATOM     18  C   UNL     1      -2.569   0.183  -0.194  0.00  0.00    +0.137 C 
ATOM     19  C   UNL     1      -3.293   0.459   0.956  0.00  0.00    +0.077 C 
ATOM     20  C   UNL     1      -2.466  -1.110  -0.684  0.00  0.00    +0.032 C 
ATOM     21  C   UNL     1      -3.102  -2.152  -0.008  0.00  0.00    +0.059 C 
ATOM     22  C   UNL     1      -3.928  -0.582   1.632  0.00  0.00    +0.014 C 
ATOM     23  C   UNL     1      -3.833  -1.888   1.150  0.00  0.00    +0.012 C 
ENDBRANCH  13  18
ENDBRANCH   3  13
TORSDOF 2
