REMARK  Name = 5288257
REMARK  4 active torsions:
REMARK  status: ('A' for Active; 'I' for Inactive)
REMARK    1  A    between atoms: N_4  and  C_28
REMARK    2  A    between atoms: C_8  and  C_15
REMARK    3  A    between atoms: C_20  and  C_23
REMARK    4  A    between atoms: C_28  and  C_30
REMARK                            x       y       z     vdW  Elec       q    Type
REMARK                         _______ _______ _______ _____ _____    ______ ____
ROOT
ATOM      1  O   UNL     1       2.155   2.900   0.704  0.00  0.00    -0.275 OA
ATOM      2  O   UNL     1       0.569   0.325  -2.795  0.00  0.00    -0.275 OA
ATOM      3  N   UNL     1       2.860  -1.402   0.671  0.00  0.00    +0.393 N 
ATOM      4  N   UNL     1       1.131   1.866  -1.127  0.00  0.00    -0.226 N 
ATOM      5  C   UNL     1       3.046   0.004   1.079  0.00  0.00    -0.048 C 
ATOM      6  C   UNL     1       3.009   0.829  -0.204  0.00  0.00    +0.065 C 
ATOM      7  C   UNL     1       2.413  -0.078  -1.280  0.00  0.00    +0.069 C 
ATOM      8  C   UNL     1       2.097  -1.416  -0.594  0.00  0.00    -0.025 C 
ATOM      9  C   UNL     1       4.390   0.046   1.810  0.00  0.00    -0.022 C 
ATOM     10  C   UNL     1       4.209  -1.964   0.534  0.00  0.00    -0.077 C 
ATOM     11  C   UNL     1       4.924  -1.376   1.733  0.00  0.00    -0.025 C 
ATOM     12  C   UNL     1       2.066   2.003  -0.123  0.00  0.00    +0.230 C 
ATOM     13  C   UNL     1       1.257   0.702  -1.856  0.00  0.00    +0.230 C 
ATOM     14  H   UNL     1       2.333  -1.961   1.342  0.00  0.00    -0.079 HD
ENDROOT
BRANCH   8  15
ATOM     15  C   UNL     1       0.630  -1.753  -0.368  0.00  0.00    -0.041 C 
ATOM     16  C   UNL     1      -0.087  -2.445  -1.346  0.00  0.00    -0.006 C 
ATOM     17  C   UNL     1      -0.002  -1.372   0.817  0.00  0.00    -0.006 C 
ATOM     18  C   UNL     1      -1.432  -2.753  -1.140  0.00  0.00    +0.002 C 
ATOM     19  C   UNL     1      -1.347  -1.680   1.022  0.00  0.00    +0.002 C 
ATOM     20  C   UNL     1      -2.061  -2.371   0.044  0.00  0.00    +0.029 C 
BRANCH  20  23
ATOM     21  N   UNL     1      -4.071  -2.328   1.396  0.00  0.00    -0.345 N 
ATOM     22  N   UNL     1      -4.153  -3.355  -0.679  0.00  0.00    -0.387 N 
ATOM     23  C   UNL     1      -3.455  -2.690   0.258  0.00  0.00    +0.095 C 
ATOM     24  H   UNL     1      -5.020  -2.549   1.534  0.00  0.00    +0.144 HD
ATOM     25  H   UNL     1      -3.572  -1.842   2.092  0.00  0.00    +0.144 HD
ATOM     26  H   UNL     1      -5.102  -3.569  -0.527  0.00  0.00    +0.157 HD
ATOM     27  H   UNL     1      -3.715  -3.628  -1.518  0.00  0.00    +0.157 HD
ENDBRANCH  20  23
ENDBRANCH   8  15
BRANCH   4  28
ATOM     28  C   UNL     1       0.079   2.832  -1.375  0.00  0.00    +0.127 C 
BRANCH  28  30
ATOM     29  F   UNL     1      -4.520   1.767   1.675  0.00  0.00    -0.204 F 
ATOM     30  C   UNL     1      -1.150   2.547  -0.561  0.00  0.00    -0.002 C 
ATOM     31  C   UNL     1      -2.141   1.722  -1.078  0.00  0.00    -0.000 C 
ATOM     32  C   UNL     1      -1.283   3.112   0.701  0.00  0.00    -0.000 C 
ATOM     33  C   UNL     1      -3.283   1.458  -0.321  0.00  0.00    +0.029 C 
ATOM     34  C   UNL     1      -2.424   2.848   1.458  0.00  0.00    +0.029 C 
ATOM     35  C   UNL     1      -3.424   2.021   0.947  0.00  0.00    +0.140 C 
ENDBRANCH  28  30
ENDBRANCH   4  28
TORSDOF 4
