REMARK  Name = 25134252
REMARK  7 active torsions:
REMARK  status: ('A' for Active; 'I' for Inactive)
REMARK    1  A    between atoms: N_1  and  C_19
REMARK    2  A    between atoms: C_3  and  C_12
REMARK    3  A    between atoms: N_11  and  C_14
REMARK    4  A    between atoms: C_14  and  C_15
REMARK    5  A    between atoms: C_15  and  C_16
REMARK    6  A    between atoms: C_16  and  S_17
REMARK    7  A    between atoms: C_19  and  C_21
REMARK                            x       y       z     vdW  Elec       q    Type
REMARK                         _______ _______ _______ _____ _____    ______ ____
ROOT
ATOM      1  N   UNL     1       0.473  -2.127  -0.199  0.00  0.00    +0.387 N 
ATOM      2  N   UNL     1      -2.303  -2.770   0.298  0.00  0.00    +0.388 N 
ATOM      3  C   UNL     1      -1.780  -1.423   0.516  0.00  0.00    -0.005 C 
ATOM      4  C   UNL     1      -0.586  -1.128  -0.397  0.00  0.00    -0.090 C 
ATOM      5  C   UNL     1      -0.049  -3.479  -0.436  0.00  0.00    -0.101 C 
ATOM      6  C   UNL     1      -1.246  -3.766   0.474  0.00  0.00    -0.104 C 
ATOM      7  H   UNL     1       0.793  -2.070   0.768  0.00  0.00    -0.079 HD
ATOM      8  H   UNL     1      -2.672  -2.837  -0.651  0.00  0.00    -0.084 HD
ATOM      9  H   UNL     1      -3.042  -2.951   0.977  0.00  0.00    -0.084 HD
ENDROOT
BRANCH   3  12
ATOM     10  O   UNL     1      -3.751  -0.740  -0.639  0.00  0.00    -0.277 OA
ATOM     11  N   UNL     1      -2.839   0.674   0.970  0.00  0.00    -0.306 N 
ATOM     12  C   UNL     1      -2.903  -0.482   0.211  0.00  0.00    +0.200 C 
ATOM     13  H   UNL     1      -2.108   0.766   1.623  0.00  0.00    +0.149 HD
BRANCH  11  14
ATOM     14  C   UNL     1      -3.793   1.752   0.849  0.00  0.00    +0.090 C 
BRANCH  14  15
ATOM     15  C   UNL     1      -3.380   2.797  -0.186  0.00  0.00    +0.033 C 
BRANCH  15  16
ATOM     16  C   UNL     1      -2.058   3.475   0.167  0.00  0.00    +0.055 C 
BRANCH  16  17
ATOM     17  S   UNL     1      -1.613   4.706  -1.093  0.00  0.00    -0.168 S 
ATOM     18  H   UNL     1      -0.435   5.295  -0.756  0.00  0.00    +0.102 HD
ENDBRANCH  16  17
ENDBRANCH  15  16
ENDBRANCH  14  15
ENDBRANCH  11  14
ENDBRANCH   3  12
BRANCH   1  19
ATOM     19  C   UNL     1       1.616  -1.852  -1.068  0.00  0.00    -0.050 C 
BRANCH  19  21
ATOM     20  F   UNL     1       4.772   2.386   0.890  0.00  0.00    -0.204 F 
ATOM     21  C   UNL     1       2.459  -0.720  -0.544  0.00  0.00    -0.043 C 
ATOM     22  C   UNL     1       2.183   0.592  -0.930  0.00  0.00    -0.004 C 
ATOM     23  C   UNL     1       3.516  -0.982   0.327  0.00  0.00    -0.004 C 
ATOM     24  C   UNL     1       2.964   1.641  -0.446  0.00  0.00    +0.029 C 
ATOM     25  C   UNL     1       4.298   0.067   0.811  0.00  0.00    +0.029 C 
ATOM     26  C   UNL     1       4.021   1.378   0.425  0.00  0.00    +0.140 C 
ENDBRANCH  19  21
ENDBRANCH   1  19
TORSDOF 7
