REMARK  Name = 11149707
REMARK  3 active torsions:
REMARK  status: ('A' for Active; 'I' for Inactive)
REMARK    1  A    between atoms: C_3  and  N_9
REMARK    2  A    between atoms: C_8  and  O_18
REMARK    3  A    between atoms: O_18  and  C_19
REMARK                            x       y       z     vdW  Elec       q    Type
REMARK                         _______ _______ _______ _____ _____    ______ ____
ROOT
ATOM      1  O   UNL     1       4.400   1.447  -0.393  0.00  0.00    -0.226 OA
ATOM      2  N   UNL     1       2.268   0.534  -0.243  0.00  0.00    -0.246 N 
ATOM      3  C   UNL     1      -0.321   0.844   1.039  0.00  0.00    +0.074 C 
ATOM      4  C   UNL     1       0.431  -0.492   1.045  0.00  0.00    +0.041 C 
ATOM      5  C   UNL     1       0.639   2.024   0.847  0.00  0.00    +0.041 C 
ATOM      6  C   UNL     1       1.394  -0.637  -0.135  0.00  0.00    +0.098 C 
ATOM      7  C   UNL     1       1.582   1.821  -0.338  0.00  0.00    +0.098 C 
ATOM      8  C   UNL     1       3.663   0.467  -0.302  0.00  0.00    +0.405 C 
ENDROOT
BRANCH   3   9
ATOM      9  N   UNL     1      -1.330   0.852  -0.001  0.00  0.00    -0.320 N 
ATOM     10  N   UNL     1      -2.864  -0.459   1.266  0.00  0.00    -0.229 NA
ATOM     11  C   UNL     1      -2.554   0.221   0.119  0.00  0.00    +0.128 C 
ATOM     12  C   UNL     1      -3.454   0.297  -0.953  0.00  0.00    +0.030 C 
ATOM     13  C   UNL     1      -4.689  -0.333  -0.847  0.00  0.00    -0.018 C 
ATOM     14  C   UNL     1      -4.074  -1.059   1.333  0.00  0.00    +0.100 C 
ATOM     15  C   UNL     1      -5.013  -1.025   0.314  0.00  0.00    +0.017 C 
ATOM     16  C   UNL     1      -5.663  -0.265  -1.974  0.00  0.00    +0.031 C 
ATOM     17  H   UNL     1      -1.134   1.332  -0.837  0.00  0.00    +0.148 HD
ENDBRANCH   3   9
BRANCH   8  18
ATOM     18  O   UNL     1       4.134  -0.818  -0.247  0.00  0.00    -0.435 OA
BRANCH  18  19
ATOM     19  C   UNL     1       5.557  -0.972  -0.302  0.00  0.00    +0.210 C 
ATOM     20  C   UNL     1       5.896  -2.446  -0.230  0.00  0.00    +0.051 C 
ENDBRANCH  18  19
ENDBRANCH   8  18
TORSDOF 3
