REMARK  Name = 802
REMARK  3 active torsions:
REMARK  status: ('A' for Active; 'I' for Inactive)
REMARK    1  A    between atoms: C_3  and  C_11
REMARK    2  A    between atoms: C_11  and  C_13
REMARK    3  A    between atoms: C_13  and  O_14
REMARK                            x       y       z     vdW  Elec       q    Type
REMARK                         _______ _______ _______ _____ _____    ______ ____
ROOT
ATOM      1  N   UNL     1       0.940  -2.046  -0.151  0.00  0.00    -0.312 N 
ATOM      2  C   UNL     1       0.573   0.111   0.286  0.00  0.00    +0.011 C 
ATOM      3  C   UNL     1      -0.635  -0.615   0.481  0.00  0.00    +0.005 C 
ATOM      4  C   UNL     1       1.545  -0.810  -0.110  0.00  0.00    +0.048 C 
ATOM      5  C   UNL     1      -0.378  -1.938   0.205  0.00  0.00    +0.058 C 
ATOM      6  C   UNL     1       0.934   1.468   0.409  0.00  0.00    +0.001 C 
ATOM      7  C   UNL     1       2.866  -0.441  -0.391  0.00  0.00    +0.015 C 
ATOM      8  C   UNL     1       2.252   1.851   0.131  0.00  0.00    +0.000 C 
ATOM      9  C   UNL     1       3.201   0.910  -0.263  0.00  0.00    +0.001 C 
ATOM     10  H   UNL     1       1.389  -2.885  -0.399  0.00  0.00    +0.152 HD
ENDROOT
BRANCH   3  11
ATOM     11  C   UNL     1      -1.936  -0.059   0.905  0.00  0.00    +0.137 C 
BRANCH  11  13
ATOM     12  O   UNL     1      -2.500   0.354  -1.428  0.00  0.00    -0.250 OA
ATOM     13  C   UNL     1      -2.824   0.385  -0.248  0.00  0.00    +0.318 C 
BRANCH  13  14
ATOM     14  O   UNL     1      -4.038   0.829   0.174  0.00  0.00    -0.480 OA
ATOM     15  H   UNL     1      -4.242   0.834   1.088  0.00  0.00    +0.295 HD
ENDBRANCH  13  14
ENDBRANCH  11  13
ENDBRANCH   3  11
TORSDOF 3
