REMARK  Name = 17755582
REMARK  6 active torsions:
REMARK  status: ('A' for Active; 'I' for Inactive)
REMARK    1  A    between atoms: S_1  and  C_4
REMARK    2  A    between atoms: S_1  and  N_19
REMARK    3  A    between atoms: C_5  and  N_10
REMARK    4  A    between atoms: N_10  and  C_17
REMARK    5  A    between atoms: N_19  and  C_21
REMARK    6  A    between atoms: C_21  and  C_25
REMARK                            x       y       z     vdW  Elec       q    Type
REMARK                         _______ _______ _______ _____ _____    ______ ____
ROOT
ATOM      1  S   UNL     1       1.084   2.418  -1.482  0.00  0.00    +0.061 S 
ATOM      2  O   UNL     1       0.650   1.560  -2.578  0.00  0.00    -0.153 OA
ATOM      3  O   UNL     1       1.604   3.746  -1.780  0.00  0.00    -0.153 OA
ENDROOT
BRANCH   1   4
ATOM      4  C   UNL     1      -0.238   2.604  -0.357  0.00  0.00    +0.123 C 
ATOM      5  C   UNL     1      -2.288   1.778   0.618  0.00  0.00    +0.050 C 
ATOM      6  C   UNL     1      -1.232   1.629  -0.281  0.00  0.00    +0.034 C 
ATOM      7  C   UNL     1      -0.300   3.728   0.466  0.00  0.00    +0.020 C 
ATOM      8  C   UNL     1      -2.350   2.902   1.441  0.00  0.00    +0.015 C 
ATOM      9  C   UNL     1      -1.356   3.878   1.365  0.00  0.00    +0.003 C 
BRANCH   5  10
ATOM     10  N   UNL     1      -3.289   0.796   0.695  0.00  0.00    -0.312 N 
ATOM     11  H   UNL     1      -4.004   0.965   1.351  0.00  0.00    +0.152 HD
BRANCH  10  17
ATOM     12  O   UNL     1      -5.335  -3.318  -0.249  0.00  0.00    -0.445 OA
ATOM     13  O   UNL     1      -3.680  -2.730  -1.737  0.00  0.00    -0.245 OA
ATOM     14  C   UNL     1      -5.526  -1.314   0.980  0.00  0.00    +0.082 C 
ATOM     15  C   UNL     1      -4.361  -1.279   0.068  0.00  0.00    +0.072 C 
ATOM     16  C   UNL     1      -5.816  -2.795   0.999  0.00  0.00    +0.214 C 
ATOM     17  C   UNL     1      -3.403  -0.355  -0.016  0.00  0.00    +0.064 C 
ATOM     18  C   UNL     1      -4.374  -2.497  -0.764  0.00  0.00    +0.339 C 
ENDBRANCH  10  17
ENDBRANCH   5  10
ENDBRANCH   1   4
BRANCH   1  19
ATOM     19  N   UNL     1       2.243   1.573  -0.553  0.00  0.00    -0.173 NA
ATOM     20  H   UNL     1       2.482   2.173   0.237  0.00  0.00    +0.149 HD
BRANCH  19  21
ATOM     21  C   UNL     1       1.915   0.252   0.001  0.00  0.00    +0.147 C 
BRANCH  21  25
ATOM     22  N   UNL     1       3.769  -0.526   1.363  0.00  0.00    -0.335 NA
ATOM     23  N   UNL     1       5.353  -2.153   0.555  0.00  0.00    -0.337 NA
ATOM     24  N   UNL     1       5.546  -1.251   2.713  0.00  0.00    -0.283 N 
ATOM     25  C   UNL     1       3.134  -0.611   0.176  0.00  0.00    +0.124 C 
ATOM     26  C   UNL     1       3.542  -1.431  -0.855  0.00  0.00    +0.112 C 
ATOM     27  C   UNL     1       4.668  -2.187  -0.607  0.00  0.00    +0.107 C 
ATOM     28  C   UNL     1       4.856  -1.313   1.483  0.00  0.00    +0.195 C 
ATOM     29  C   UNL     1       5.187  -3.104  -1.663  0.00  0.00    +0.063 C 
ATOM     30  H   UNL     1       5.227  -0.654   3.428  0.00  0.00    +0.156 HD
ATOM     31  H   UNL     1       6.347  -1.805   2.856  0.00  0.00    +0.156 HD
ENDBRANCH  21  25
ENDBRANCH  19  21
ENDBRANCH   1  19
TORSDOF 6
