REMARK  Name = 11509180
REMARK  11 active torsions:
REMARK  status: ('A' for Active; 'I' for Inactive)
REMARK    1  A    between atoms: N_2  and  C_7
REMARK    2  A    between atoms: N_2  and  O_19
REMARK    3  A    between atoms: C_3  and  O_15
REMARK    4  A    between atoms: C_4  and  O_17
REMARK    5  A    between atoms: C_5  and  N_9
REMARK    6  A    between atoms: C_6  and  C_30
REMARK    7  A    between atoms: C_10  and  C_12
REMARK    8  A    between atoms: C_12  and  C_13
REMARK    9  A    between atoms: O_19  and  C_22
REMARK   10  A    between atoms: N_21  and  C_24
REMARK   11  A    between atoms: C_30  and  O_31
REMARK                            x       y       z     vdW  Elec       q    Type
REMARK                         _______ _______ _______ _____ _____    ______ ____
ROOT
ATOM      1  O   UNL     1      -0.795  -1.541   0.455  0.00  0.00    -0.333 OA
ATOM      2  C   UNL     1      -3.202  -1.340  -1.169  0.00  0.00    +0.161 C 
ATOM      3  C   UNL     1      -2.675  -2.652  -0.586  0.00  0.00    +0.169 C 
ATOM      4  C   UNL     1      -2.296  -0.139  -0.893  0.00  0.00    +0.149 C 
ATOM      5  C   UNL     1      -1.936  -2.384   0.722  0.00  0.00    +0.175 C 
ATOM      6  C   UNL     1      -0.928  -0.494  -0.381  0.00  0.00    +0.251 C 
ENDROOT
BRANCH   4   8
ATOM      7  O   UNL     1      -4.017   2.119  -1.320  0.00  0.00    -0.275 OA
ATOM      8  N   UNL     1      -2.845   0.728   0.122  0.00  0.00    -0.300 N 
ATOM      9  C   UNL     1      -3.671   1.799  -0.186  0.00  0.00    +0.223 C 
ATOM     10  H   UNL     1      -2.626   0.553   1.066  0.00  0.00    +0.150 HD
BRANCH   9  11
ATOM     11  C   UNL     1      -4.111   2.544   1.062  0.00  0.00    +0.085 C 
BRANCH  11  12
ATOM     12  C   UNL     1      -5.021   3.726   0.744  0.00  0.00    +0.010 C 
ATOM     13  C   UNL     1      -5.422   4.476   2.004  0.00  0.00    +0.001 C 
ENDBRANCH  11  12
ENDBRANCH   9  11
ENDBRANCH   4   8
BRANCH   2  14
ATOM     14  O   UNL     1      -3.332  -1.521  -2.583  0.00  0.00    -0.380 OA
ATOM     15  H   UNL     1      -3.906  -2.283  -2.760  0.00  0.00    +0.211 HD
ENDBRANCH   2  14
BRANCH   3  16
ATOM     16  O   UNL     1      -3.783  -3.524  -0.385  0.00  0.00    -0.379 OA
ATOM     17  H   UNL     1      -4.232  -3.676  -1.231  0.00  0.00    +0.211 HD
ENDBRANCH   3  16
BRANCH   6  18
ATOM     18  N   UNL     1       0.111   0.203  -0.699  0.00  0.00    +0.008 NA
BRANCH  18  19
ATOM     19  O   UNL     1       1.231  -0.365  -0.077  0.00  0.00    -0.330 OA
BRANCH  19  22
ATOM     20  O   UNL     1       2.323   1.355  -1.131  0.00  0.00    -0.224 OA
ATOM     21  N   UNL     1       3.441  -0.202   0.210  0.00  0.00    -0.249 N 
ATOM     22  C   UNL     1       2.343   0.366  -0.407  0.00  0.00    +0.425 C 
ATOM     23  H   UNL     1       3.262  -1.000   0.759  0.00  0.00    +0.158 HD
BRANCH  21  24
ATOM     24  C   UNL     1       4.789   0.219   0.152  0.00  0.00    +0.053 C 
ATOM     25  C   UNL     1       5.771  -0.486   0.848  0.00  0.00    +0.015 C 
ATOM     26  C   UNL     1       5.137   1.340  -0.602  0.00  0.00    +0.015 C 
ATOM     27  C   UNL     1       7.101  -0.071   0.790  0.00  0.00    +0.001 C 
ATOM     28  C   UNL     1       6.468   1.755  -0.660  0.00  0.00    +0.001 C 
ATOM     29  C   UNL     1       7.449   1.050   0.036  0.00  0.00    +0.000 C 
ENDBRANCH  21  24
ENDBRANCH  19  22
ENDBRANCH  18  19
ENDBRANCH   6  18
BRANCH   5  30
ATOM     30  C   UNL     1      -1.403  -3.657   1.371  0.00  0.00    +0.169 C 
BRANCH  30  31
ATOM     31  O   UNL     1      -0.728  -3.306   2.566  0.00  0.00    -0.379 OA
ATOM     32  H   UNL     1      -0.383  -4.107   2.990  0.00  0.00    +0.211 HD
ENDBRANCH  30  31
ENDBRANCH   5  30
TORSDOF 11
