REMARK  Name = 5288616
REMARK  5 active torsions:
REMARK  status: ('A' for Active; 'I' for Inactive)
REMARK    1  A    between atoms: N_1  and  C_20
REMARK    2  A    between atoms: C_9  and  C_19
REMARK    3  A    between atoms: N_10  and  C_12
REMARK    4  A    between atoms: C_20  and  C_21
REMARK    5  A    between atoms: C_21  and  N_22
REMARK                            x       y       z     vdW  Elec       q    Type
REMARK                         _______ _______ _______ _____ _____    ______ ____
ROOT
ATOM      1  N   UNL     1       0.963   1.229   0.707  0.00  0.00    -0.263 N 
ATOM      2  N   UNL     1      -0.920   2.372   0.486  0.00  0.00    -0.240 NA
ATOM      3  N   UNL     1      -2.245  -1.029  -0.113  0.00  0.00    -0.315 NA
ATOM      4  N   UNL     1       0.156  -1.026   0.323  0.00  0.00    -0.315 NA
ATOM      5  C   UNL     1      -2.317   0.318   0.015  0.00  0.00    +0.215 C 
ATOM      6  C   UNL     1      -1.159   1.033   0.301  0.00  0.00    +0.167 C 
ATOM      7  C   UNL     1       0.011   0.303   0.436  0.00  0.00    +0.219 C 
ATOM      8  C   UNL     1       0.372   2.454   0.729  0.00  0.00    +0.222 C 
ATOM      9  C   UNL     1      -1.031  -1.609   0.046  0.00  0.00    +0.215 C 
ATOM     10  N   UNL     1      -3.549   0.977  -0.139  0.00  0.00    -0.308 N 
ATOM     11  H   UNL     1      -3.573   1.956  -0.040  0.00  0.00    +0.149 HD
ENDROOT
BRANCH  10  12
ATOM     12  C   UNL     1      -4.784   0.284  -0.436  0.00  0.00    +0.071 C 
ATOM     13  C   UNL     1      -5.339  -0.352   0.841  0.00  0.00    +0.020 C 
ATOM     14  C   UNL     1      -5.784   1.266  -1.050  0.00  0.00    +0.020 C 
ATOM     15  C   UNL     1      -6.694  -1.011   0.595  0.00  0.00    +0.002 C 
ATOM     16  C   UNL     1      -7.139   0.606  -1.293  0.00  0.00    +0.002 C 
ATOM     17  C   UNL     1      -7.690  -0.033  -0.022  0.00  0.00    +0.000 C 
ENDBRANCH  10  12
BRANCH   9  19
ATOM     18  N   UNL     1      -0.980  -4.186  -0.217  0.00  0.00    -0.178 NA
ATOM     19  C   UNL     1      -1.003  -3.025  -0.099  0.00  0.00    +0.198 C 
ENDBRANCH   9  19
BRANCH   1  20
ATOM     20  C   UNL     1       2.381   0.969   0.936  0.00  0.00    +0.072 C 
BRANCH  20  21
ATOM     21  C   UNL     1       3.186   1.014  -0.360  0.00  0.00    -0.056 C 
BRANCH  21  22
ATOM     22  N   UNL     1       4.601   0.775  -0.083  0.00  0.00    +0.385 N 
ATOM     23  N   UNL     1       7.087  -0.660  -0.429  0.00  0.00    +0.383 N 
ATOM     24  C   UNL     1       4.800  -0.557   0.502  0.00  0.00    -0.101 C 
ATOM     25  C   UNL     1       5.403   0.923  -1.304  0.00  0.00    -0.101 C 
ATOM     26  C   UNL     1       6.283  -0.810   0.791  0.00  0.00    -0.101 C 
ATOM     27  C   UNL     1       6.887   0.671  -1.014  0.00  0.00    -0.101 C 
ATOM     28  C   UNL     1       8.502  -0.898  -0.150  0.00  0.00    -0.101 C 
ATOM     29  H   UNL     1       4.912   1.473   0.593  0.00  0.00    -0.080 HD
ATOM     30  H   UNL     1       6.777  -1.358  -1.105  0.00  0.00    -0.080 HD
ENDBRANCH  21  22
ENDBRANCH  20  21
ENDBRANCH   1  20
TORSDOF 5
