REMARK  Name = 6914633
REMARK  5 active torsions:
REMARK  status: ('A' for Active; 'I' for Inactive)
REMARK    1  A    between atoms: C_1  and  C_11
REMARK    2  A    between atoms: C_2  and  N_21
REMARK    3  A    between atoms: C_12  and  C_19
REMARK    4  A    between atoms: N_21  and  C_23
REMARK    5  A    between atoms: C_23  and  C_26
REMARK                            x       y       z     vdW  Elec       q    Type
REMARK                         _______ _______ _______ _____ _____    ______ ____
ROOT
ATOM      1  C   UNL     1      -2.159   0.199   0.162  0.00  0.00    -0.008 C 
ATOM      2  C   UNL     1       0.627   0.174   0.290  0.00  0.00    +0.045 C 
ATOM      3  C   UNL     1      -1.409   0.051  -1.005  0.00  0.00    -0.002 C 
ATOM      4  C   UNL     1      -1.517   0.334   1.392  0.00  0.00    -0.002 C 
ATOM      5  C   UNL     1      -0.016   0.038  -0.941  0.00  0.00    +0.014 C 
ATOM      6  C   UNL     1      -0.123   0.322   1.456  0.00  0.00    +0.014 C 
ENDROOT
BRANCH   1  11
ATOM      7  N   UNL     1      -5.695  -0.986   0.144  0.00  0.00    -0.337 NA
ATOM      8  N   UNL     1      -5.681   1.408  -0.140  0.00  0.00    -0.317 NA
ATOM      9  N   UNL     1      -3.640   2.601  -0.190  0.00  0.00    -0.335 N 
ATOM     10  N   UNL     1      -7.699   0.212  -0.088  0.00  0.00    -0.283 N 
ATOM     11  C   UNL     1      -3.604   0.210   0.096  0.00  0.00    +0.138 C 
ATOM     12  C   UNL     1      -4.347  -0.949   0.200  0.00  0.00    +0.112 C 
ATOM     13  C   UNL     1      -4.334   1.370  -0.075  0.00  0.00    +0.178 C 
ATOM     14  C   UNL     1      -6.289   0.211  -0.025  0.00  0.00    +0.196 C 
ATOM     15  H   UNL     1      -4.142   3.439  -0.312  0.00  0.00    +0.144 HD
ATOM     16  H   UNL     1      -2.657   2.617  -0.147  0.00  0.00    +0.144 HD
ATOM     17  H   UNL     1      -8.196  -0.635  -0.009  0.00  0.00    +0.156 HD
ATOM     18  H   UNL     1      -8.186   1.059  -0.210  0.00  0.00    +0.156 HD
BRANCH  12  19
ATOM     19  C   UNL     1      -3.681  -2.274   0.387  0.00  0.00    +0.056 C 
ATOM     20  C   UNL     1      -3.361  -2.952  -0.942  0.00  0.00    +0.008 C 
ENDBRANCH  12  19
ENDBRANCH   1  11
BRANCH   2  21
ATOM     21  N   UNL     1       2.036   0.162   0.355  0.00  0.00    -0.329 N 
ATOM     22  H   UNL     1       2.468   0.259   1.234  0.00  0.00    +0.147 HD
BRANCH  21  23
ATOM     23  C   UNL     1       2.866   0.014  -0.801  0.00  0.00    +0.114 C 
BRANCH  23  26
ATOM     24  F   UNL     1       7.080   2.326  -0.034  0.00  0.00    -0.204 F 
ATOM     25  F   UNL     1       6.915  -2.382   0.450  0.00  0.00    -0.204 F 
ATOM     26  C   UNL     1       4.328  -0.001  -0.443  0.00  0.00    +0.002 C 
ATOM     27  C   UNL     1       4.950  -1.208  -0.158  0.00  0.00    +0.027 C 
ATOM     28  C   UNL     1       5.034   1.193  -0.405  0.00  0.00    +0.027 C 
ATOM     29  C   UNL     1       6.389   1.180  -0.074  0.00  0.00    +0.142 C 
ATOM     30  C   UNL     1       6.305  -1.222   0.173  0.00  0.00    +0.142 C 
ATOM     31  C   UNL     1       7.025  -0.028   0.214  0.00  0.00    +0.059 C 
ENDBRANCH  23  26
ENDBRANCH  21  23
ENDBRANCH   2  21
TORSDOF 5
