REMARK  Name = 449486
REMARK  5 active torsions:
REMARK  status: ('A' for Active; 'I' for Inactive)
REMARK    1  A    between atoms: N_3  and  C_14
REMARK    2  A    between atoms: C_9  and  S_12
REMARK    3  A    between atoms: C_14  and  C_17
REMARK    4  A    between atoms: C_14  and  C_20
REMARK    5  A    between atoms: C_20  and  C_21
REMARK                            x       y       z     vdW  Elec       q    Type
REMARK                         _______ _______ _______ _____ _____    ______ ____
ROOT
ATOM      1  S   UNL     1       4.288   0.760  -1.258  0.00  0.00    -0.024 S 
ATOM      2  O   UNL     1       0.816  -0.870   1.359  0.00  0.00    -0.252 OA
ATOM      3  N   UNL     1      -0.333  -0.570  -0.619  0.00  0.00    -0.282 N 
ATOM      4  N   UNL     1       1.878  -0.037  -0.568  0.00  0.00    -0.247 N 
ATOM      5  N   UNL     1       3.651  -0.085   1.075  0.00  0.00    -0.125 NA
ATOM      6  N   UNL     1       4.997   0.225   1.145  0.00  0.00    -0.133 NA
ATOM      7  C   UNL     1       0.803  -0.524   0.180  0.00  0.00    +0.306 C 
ATOM      8  C   UNL     1       3.184   0.152  -0.114  0.00  0.00    +0.190 A 
ATOM      9  C   UNL     1       5.455   0.676  -0.004  0.00  0.00    +0.157 A 
ATOM     10  H   UNL     1      -0.266  -0.277  -1.557  0.00  0.00    +0.151 HD
ATOM     11  H   UNL     1       1.696   0.196  -1.507  0.00  0.00    +0.158 HD
ENDROOT
BRANCH   9  12
ATOM     12  S   UNL     1       7.121   1.148  -0.215  0.00  0.00    -0.114 S 
ATOM     13  H   UNL     1       7.314   1.572  -1.492  0.00  0.00    +0.109 HD
ENDBRANCH   9  12
BRANCH   3  14
ATOM     14  C   UNL     1      -1.625  -1.039  -0.118  0.00  0.00    +0.154 C 
BRANCH  14  17
ATOM     15  O   UNL     1      -1.108  -3.092  -1.295  0.00  0.00    -0.273 OA
ATOM     16  N   UNL     1      -2.407  -3.211   0.622  0.00  0.00    -0.301 N 
ATOM     17  C   UNL     1      -1.664  -2.547  -0.343  0.00  0.00    +0.241 C 
ATOM     18  C   UNL     1      -2.599  -4.641   0.593  0.00  0.00    +0.111 C 
ATOM     19  H   UNL     1      -2.817  -2.690   1.350  0.00  0.00    +0.150 HD
ENDBRANCH  14  17
BRANCH  14  20
ATOM     20  C   UNL     1      -2.764  -0.345  -0.879  0.00  0.00    +0.055 C 
BRANCH  20  21
ATOM     21  C   UNL     1      -3.035   1.055  -0.382  0.00  0.00    -0.020 C 
ATOM     22  C   UNL     1      -3.954   1.247   0.638  0.00  0.00    -0.004 C 
ATOM     23  C   UNL     1      -2.359   2.121  -0.953  0.00  0.00    -0.004 C 
ATOM     24  C   UNL     1      -4.203   2.540   1.097  0.00  0.00    -0.000 C 
ATOM     25  C   UNL     1      -2.608   3.414  -0.493  0.00  0.00    -0.000 C 
ATOM     26  C   UNL     1      -3.531   3.623   0.532  0.00  0.00    -0.000 C 
ENDBRANCH  20  21
ENDBRANCH  14  20
ENDBRANCH   3  14
TORSDOF 5
