REMARK  Name = 16043
REMARK  3 active torsions:
REMARK  status: ('A' for Active; 'I' for Inactive)
REMARK    1  A    between atoms: C_1  and  C_7
REMARK    2  A    between atoms: C_2  and  O_11
REMARK    3  A    between atoms: C_4  and  O_13
REMARK                            x       y       z     vdW  Elec       q    Type
REMARK                         _______ _______ _______ _____ _____    ______ ____
ROOT
ATOM      1  C   UNL     1       0.237   0.065   0.002  0.00  0.00    +0.014 C 
ATOM      2  C   UNL     1      -0.017  -1.279   0.008  0.00  0.00    +0.130 C 
ATOM      3  C   UNL     1      -0.737   1.027  -0.002  0.00  0.00    +0.035 C 
ATOM      4  C   UNL     1      -2.069   0.611   0.001  0.00  0.00    +0.134 C 
ATOM      5  C   UNL     1      -1.349  -1.695   0.011  0.00  0.00    +0.039 C 
ATOM      6  C   UNL     1      -2.374  -0.750   0.007  0.00  0.00    +0.040 C 
ENDROOT
BRANCH   1   7
ATOM      7  C   UNL     1       1.708   0.545  -0.002  0.00  0.00    +0.022 C 
ATOM      8  C   UNL     1       1.756   2.088  -0.010  0.00  0.00    +0.004 C 
ATOM      9  C   UNL     1       2.433   0.003  -1.253  0.00  0.00    +0.004 C 
ATOM     10  C   UNL     1       2.509   0.070   1.230  0.00  0.00    +0.004 C 
ENDBRANCH   1   7
BRANCH   2  11
ATOM     11  O   UNL     1       0.973  -2.216   0.011  0.00  0.00    -0.506 OA
ATOM     12  H   UNL     1       1.871  -1.949   0.009  0.00  0.00    +0.292 HD
ENDBRANCH   2  11
BRANCH   4  13
ATOM     13  O   UNL     1      -3.070   1.533  -0.001  0.00  0.00    -0.506 OA
ATOM     14  H   UNL     1      -2.864   2.447  -0.005  0.00  0.00    +0.292 HD
ENDBRANCH   4  13
TORSDOF 3
