REMARK  Name = 25134257
REMARK  3 active torsions:
REMARK  status: ('A' for Active; 'I' for Inactive)
REMARK    1  A    between atoms: C_1  and  N_9
REMARK    2  A    between atoms: C_3  and  C_19
REMARK    3  A    between atoms: C_4  and  O_25
REMARK                            x       y       z     vdW  Elec       q    Type
REMARK                         _______ _______ _______ _____ _____    ______ ____
ROOT
ATOM      1  C   UNL     1       0.205   0.846   0.215  0.00  0.00    +0.095 C 
ATOM      2  C   UNL     1       1.349   0.071   0.022  0.00  0.00    +0.018 C 
ATOM      3  C   UNL     1       2.611   0.662   0.089  0.00  0.00    +0.001 C 
ATOM      4  C   UNL     1       0.323   2.211   0.473  0.00  0.00    +0.148 C 
ATOM      5  C   UNL     1       2.728   2.028   0.348  0.00  0.00    +0.003 C 
ATOM      6  C   UNL     1       1.585   2.803   0.539  0.00  0.00    +0.038 C 
ENDROOT
BRANCH   1   9
ATOM      7  O   UNL     1      -2.459   1.991  -0.687  0.00  0.00    -0.269 OA
ATOM      8  O   UNL     1      -0.633  -1.986   0.921  0.00  0.00    -0.269 OA
ATOM      9  N   UNL     1      -1.085   0.225   0.143  0.00  0.00    -0.198 N 
ATOM     10  C   UNL     1      -3.317  -0.125  -0.189  0.00  0.00    +0.055 C 
ATOM     11  C   UNL     1      -2.770  -1.312   0.257  0.00  0.00    +0.058 C 
ATOM     12  C   UNL     1      -2.247   0.865  -0.273  0.00  0.00    +0.259 C 
ATOM     13  C   UNL     1      -1.343  -1.099   0.480  0.00  0.00    +0.259 C 
ATOM     14  C   UNL     1      -4.660  -0.006  -0.486  0.00  0.00    -0.017 C 
ATOM     15  C   UNL     1      -3.536  -2.446   0.437  0.00  0.00    +0.005 C 
ATOM     16  C   UNL     1      -5.457  -1.141  -0.313  0.00  0.00    -0.004 C 
ATOM     17  C   UNL     1      -4.900  -2.351   0.144  0.00  0.00    -0.000 C 
ATOM     18  C   UNL     1      -5.265   1.264  -0.972  0.00  0.00    +0.031 C 
ENDBRANCH   1   9
BRANCH   3  19
ATOM     19  C   UNL     1       3.797  -0.141  -0.110  0.00  0.00    +0.000 C 
ATOM     20  C   UNL     1       4.325  -0.300  -1.392  0.00  0.00    +0.000 C 
ATOM     21  C   UNL     1       4.414  -0.756   0.979  0.00  0.00    +0.000 C 
ATOM     22  C   UNL     1       5.470  -1.073  -1.584  0.00  0.00    +0.000 C 
ATOM     23  C   UNL     1       5.559  -1.529   0.787  0.00  0.00    +0.000 C 
ATOM     24  C   UNL     1       6.087  -1.688  -0.495  0.00  0.00    +0.000 C 
ENDBRANCH   3  19
BRANCH   4  25
ATOM     25  O   UNL     1      -0.782   2.986   0.667  0.00  0.00    -0.504 OA
ATOM     26  H   UNL     1      -1.636   2.602   0.625  0.00  0.00    +0.292 HD
ENDBRANCH   4  25
TORSDOF 3
