REMARK  Name = 24905143
REMARK  3 active torsions:
REMARK  status: ('A' for Active; 'I' for Inactive)
REMARK    1  A    between atoms: N_1  and  C_21
REMARK    2  A    between atoms: C_7  and  C_10
REMARK    3  A    between atoms: C_13  and  O_16
REMARK                            x       y       z     vdW  Elec       q    Type
REMARK                         _______ _______ _______ _____ _____    ______ ____
ROOT
ATOM      1  N   UNL     1      -1.907   0.981  -0.020  0.00  0.00    -0.200 N 
ATOM      2  N   UNL     1      -0.634   1.403   0.101  0.00  0.00    -0.181 NA
ATOM      3  N   UNL     1      -3.165  -1.081  -0.181  0.00  0.00    -0.232 NA
ATOM      4  N   UNL     1      -1.707  -3.036  -0.105  0.00  0.00    -0.234 NA
ATOM      5  C   UNL     1      -2.028  -0.376  -0.065  0.00  0.00    +0.137 C 
ATOM      6  C   UNL     1      -0.743  -0.878   0.033  0.00  0.00    +0.150 C 
ATOM      7  C   UNL     1       0.070   0.267   0.133  0.00  0.00    +0.090 C 
ATOM      8  C   UNL     1      -0.601  -2.262   0.010  0.00  0.00    +0.112 C 
ATOM      9  C   UNL     1      -2.903  -2.406  -0.192  0.00  0.00    +0.252 C 
ATOM     10  N   UNL     1       0.665  -2.868   0.105  0.00  0.00    -0.346 N 
ATOM     11  H   UNL     1       0.743  -3.849   0.087  0.00  0.00    +0.143 HD
ATOM     12  H   UNL     1       1.472  -2.311   0.190  0.00  0.00    +0.143 HD
ENDROOT
BRANCH   7  13
ATOM     13  C   UNL     1       1.504   0.316   0.258  0.00  0.00    +0.019 C 
ATOM     14  C   UNL     1       2.302   0.373  -0.885  0.00  0.00    +0.038 C 
ATOM     15  C   UNL     1       2.095   0.309   1.521  0.00  0.00    +0.001 C 
ATOM     16  C   UNL     1       3.691   0.423  -0.764  0.00  0.00    +0.134 C 
ATOM     17  C   UNL     1       3.484   0.359   1.642  0.00  0.00    +0.003 C 
ATOM     18  C   UNL     1       4.282   0.416   0.499  0.00  0.00    +0.037 C 
BRANCH  16  19
ATOM     19  O   UNL     1       4.470   0.478  -1.879  0.00  0.00    -0.506 OA
ATOM     20  H   UNL     1       4.074   0.483  -2.728  0.00  0.00    +0.292 HD
ENDBRANCH  16  19
ENDBRANCH   7  13
BRANCH   1  21
ATOM     21  C   UNL     1      -2.975   1.950  -0.087  0.00  0.00    +0.098 C 
ATOM     22  C   UNL     1      -2.842   2.849  -1.318  0.00  0.00    +0.024 C 
ATOM     23  C   UNL     1      -3.059   2.785   1.193  0.00  0.00    +0.024 C 
ENDBRANCH   1  21
TORSDOF 3
