REMARK  Name = 23615309
REMARK  5 active torsions:
REMARK  status: ('A' for Active; 'I' for Inactive)
REMARK    1  A    between atoms: C_1  and  C_3
REMARK    2  A    between atoms: C_1  and  C_10
REMARK    3  A    between atoms: C_3  and  C_4
REMARK    4  A    between atoms: C_11  and  C_13
REMARK    5  A    between atoms: C_13  and  C_16
REMARK                            x       y       z     vdW  Elec       q    Type
REMARK                         _______ _______ _______ _____ _____    ______ ____
ROOT
ATOM      1  C   UNL     1      -0.203   0.448  -0.699  0.00  0.00    +0.095 C 
ENDROOT
BRANCH   1   3
ATOM      2  O   UNL     1      -0.821  -1.638   0.355  0.00  0.00    -0.291 OA
ATOM      3  C   UNL     1      -1.178  -0.545  -0.079  0.00  0.00    +0.177 C 
BRANCH   3   4
ATOM      4  C   UNL     1      -2.618  -0.165   0.015  0.00  0.00    +0.035 C 
ATOM      5  C   UNL     1      -3.044   1.076  -0.460  0.00  0.00    +0.003 C 
ATOM      6  C   UNL     1      -3.539  -1.050   0.576  0.00  0.00    +0.003 C 
ATOM      7  C   UNL     1      -4.390   1.432  -0.372  0.00  0.00    +0.000 C 
ATOM      8  C   UNL     1      -4.885  -0.694   0.663  0.00  0.00    +0.000 C 
ATOM      9  C   UNL     1      -5.310   0.546   0.189  0.00  0.00    +0.000 C 
ENDBRANCH   3   4
ENDBRANCH   1   3
BRANCH   1  10
ATOM     10  C   UNL     1       1.182  -0.127  -0.748  0.00  0.00    -0.014 C 
ATOM     11  C   UNL     1       2.235   0.437  -0.140  0.00  0.00    +0.045 C 
BRANCH  11  13
ATOM     12  O   UNL     1       3.810  -1.225  -0.852  0.00  0.00    -0.279 OA
ATOM     13  C   UNL     1       3.571  -0.194  -0.240  0.00  0.00    +0.274 C 
BRANCH  13  16
ATOM     14  O   UNL     1       5.865  -0.202   0.286  0.00  0.00    -0.237 OA
ATOM     15  O   UNL     1       4.555   1.484   1.076  0.00  0.00    -0.237 OA
ATOM     16  C   UNL     1       4.770   0.415   0.432  0.00  0.00    +0.426 C 
ENDBRANCH  13  16
ENDBRANCH  11  13
ENDBRANCH   1  10
TORSDOF 5
