REMARK  Name = 46937071
REMARK  11 active torsions:
REMARK  status: ('A' for Active; 'I' for Inactive)
REMARK    1  A    between atoms: C_1  and  O_2
REMARK    2  A    between atoms: C_1  and  N_4
REMARK    3  A    between atoms: C_1  and  C_18
REMARK    4  A    between atoms: N_4  and  C_6
REMARK    5  A    between atoms: C_9  and  C_15
REMARK    6  A    between atoms: C_11  and  C_17
REMARK    7  A    between atoms: C_18  and  O_20
REMARK    8  A    between atoms: C_18  and  C_22
REMARK    9  A    between atoms: C_22  and  O_23
REMARK   10  A    between atoms: O_23  and  C_24
REMARK   11  A    between atoms: C_29  and  N_32
REMARK                            x       y       z     vdW  Elec       q    Type
REMARK                         _______ _______ _______ _____ _____    ______ ____
ROOT
ATOM      1  C   UNL     1      -0.348  -1.718  -0.059  0.00  0.00    +0.214 C 
ENDROOT
BRANCH   1   2
ATOM      2  O   UNL     1      -0.148  -0.998  -1.274  0.00  0.00    -0.365 OA
ATOM      3  H   UNL     1      -0.775  -0.259  -1.319  0.00  0.00    +0.212 HD
ENDBRANCH   1   2
BRANCH   1   4
ATOM      4  N   UNL     1      -1.724  -2.185   0.030  0.00  0.00    -0.310 N 
ATOM      5  H   UNL     1      -1.874  -3.153   0.120  0.00  0.00    +0.149 HD
BRANCH   4   6
ATOM      6  C   UNL     1      -2.837  -1.358  -0.004  0.00  0.00    +0.046 C 
ATOM      7  C   UNL     1      -2.680   0.027   0.043  0.00  0.00    +0.019 C 
ATOM      8  C   UNL     1      -4.115  -1.913  -0.085  0.00  0.00    +0.015 C 
ATOM      9  C   UNL     1      -3.800   0.858   0.009  0.00  0.00    +0.082 C 
ATOM     10  C   UNL     1      -5.235  -1.082  -0.119  0.00  0.00    +0.011 C 
ATOM     11  C   UNL     1      -5.078   0.303  -0.072  0.00  0.00    +0.072 C 
BRANCH   9  15
ATOM     12  F   UNL     1      -2.276   2.678   0.141  0.00  0.00    -0.166 F 
ATOM     13  F   UNL     1      -4.081   2.994  -1.029  0.00  0.00    -0.166 F 
ATOM     14  F   UNL     1      -4.192   2.931   1.136  0.00  0.00    -0.166 F 
ATOM     15  C   UNL     1      -3.594   2.338   0.063  0.00  0.00    +0.419 C 
ENDBRANCH   9  15
BRANCH  11  17
ATOM     16  N   UNL     1      -7.187   1.808  -0.137  0.00  0.00    -0.191 NA
ATOM     17  C   UNL     1      -6.242   1.134  -0.108  0.00  0.00    +0.100 C 
ENDBRANCH  11  17
ENDBRANCH   4   6
ENDBRANCH   1   4
BRANCH   1  18
ATOM     18  C   UNL     1       0.654  -2.902   0.013  0.00  0.00    +0.171 C 
ATOM     19  C   UNL     1       0.503  -3.640   1.352  0.00  0.00    +0.038 C 
BRANCH  18  20
ATOM     20  O   UNL     1       0.337  -3.857  -1.006  0.00  0.00    -0.379 OA
ATOM     21  H   UNL     1       0.417  -3.438  -1.877  0.00  0.00    +0.211 HD
ENDBRANCH  18  20
BRANCH  18  22
ATOM     22  C   UNL     1       2.115  -2.461  -0.178  0.00  0.00    +0.236 C 
BRANCH  22  23
ATOM     23  O   UNL     1       2.530  -1.603   0.874  0.00  0.00    -0.473 OA
BRANCH  23  24
ATOM     24  C   UNL     1       3.507  -0.687   0.578  0.00  0.00    +0.139 C 
ATOM     25  C   UNL     1       4.463  -0.977  -0.396  0.00  0.00    +0.039 C 
ATOM     26  C   UNL     1       3.546   0.534   1.251  0.00  0.00    +0.039 C 
ATOM     27  C   UNL     1       5.457  -0.046  -0.697  0.00  0.00    +0.027 C 
ATOM     28  C   UNL     1       4.540   1.465   0.951  0.00  0.00    +0.027 C 
ATOM     29  C   UNL     1       5.496   1.175  -0.023  0.00  0.00    +0.143 C 
BRANCH  29  32
ATOM     30  O   UNL     1       7.357   1.843  -1.210  0.00  0.00    -0.126 OA
ATOM     31  O   UNL     1       6.524   3.216   0.287  0.00  0.00    -0.126 OA
ATOM     32  N   UNL     1       6.507   2.123  -0.330  0.00  0.00    +0.058 N 
ENDBRANCH  29  32
ENDBRANCH  23  24
ENDBRANCH  22  23
ENDBRANCH  18  22
ENDBRANCH   1  18
TORSDOF 11
