REMARK  Name = 5951796
REMARK  4 active torsions:
REMARK  status: ('A' for Active; 'I' for Inactive)
REMARK    1  A    between atoms: C_2  and  C_16
REMARK    2  A    between atoms: C_3  and  C_10
REMARK    3  A    between atoms: C_19  and  C_23
REMARK    4  A    between atoms: C_23  and  O_24
REMARK                            x       y       z     vdW  Elec       q    Type
REMARK                         _______ _______ _______ _____ _____    ______ ____
ROOT
ATOM      1  O   UNL     1       0.583  -0.940   0.006  0.00  0.00    -0.453 OA
ATOM      2  C   UNL     1      -0.550  -1.685  -0.005  0.00  0.00    +0.145 C 
ATOM      3  C   UNL     1       1.619  -1.819   0.002  0.00  0.00    +0.147 C 
ATOM      4  C   UNL     1      -0.259  -3.024  -0.015  0.00  0.00    +0.041 C 
ATOM      5  C   UNL     1       1.154  -3.114  -0.011  0.00  0.00    +0.041 C 
ENDROOT
BRANCH   3  10
ATOM      6  S   UNL     1       2.487   1.321  -0.020  0.00  0.00    -0.027 S 
ATOM      7  O   UNL     1       5.779  -0.584   0.033  0.00  0.00    -0.209 OA
ATOM      8  N   UNL     1       5.062   1.620   0.003  0.00  0.00    -0.311 NA
ATOM      9  N   UNL     1       3.798   3.645  -0.030  0.00  0.00    -0.327 N 
ATOM     10  C   UNL     1       2.967  -1.393   0.011  0.00  0.00    +0.057 C 
ATOM     11  C   UNL     1       3.440  -0.104   0.004  0.00  0.00    +0.131 C 
ATOM     12  C   UNL     1       4.883   0.249   0.015  0.00  0.00    +0.213 C 
ATOM     13  C   UNL     1       3.951   2.291  -0.015  0.00  0.00    +0.222 C 
ATOM     14  H   UNL     1       2.895   4.038  -0.042  0.00  0.00    +0.145 HD
ATOM     15  H   UNL     1       4.590   4.230  -0.028  0.00  0.00    +0.145 HD
ENDBRANCH   3  10
BRANCH   2  16
ATOM     16  C   UNL     1      -1.779  -0.930  -0.003  0.00  0.00    +0.035 C 
ATOM     17  C   UNL     1      -3.006  -1.594  -0.014  0.00  0.00    +0.003 C 
ATOM     18  C   UNL     1      -1.741   0.464   0.010  0.00  0.00    +0.003 C 
ATOM     19  C   UNL     1      -4.156   0.531   0.003  0.00  0.00    +0.075 C 
ATOM     20  C   UNL     1      -4.194  -0.864  -0.011  0.00  0.00    +0.007 C 
ATOM     21  C   UNL     1      -2.930   1.195   0.013  0.00  0.00    +0.007 C 
BRANCH  19  23
ATOM     22  O   UNL     1      -6.533   0.809  -0.002  0.00  0.00    -0.245 OA
ATOM     23  C   UNL     1      -5.395   1.292   0.006  0.00  0.00    +0.338 C 
BRANCH  23  24
ATOM     24  O   UNL     1      -5.181   2.636   0.021  0.00  0.00    -0.477 OA
ATOM     25  H   UNL     1      -4.306   2.970   0.027  0.00  0.00    +0.295 HD
ENDBRANCH  23  24
ENDBRANCH  19  23
ENDBRANCH   2  16
TORSDOF 4
