5288581
  -OEChem-10051721113D

 59 61  0     1  0  0  0  0  0999 V2000
    6.0089    0.7070   -1.2332 S   0  0  0  0  0  0  0  0  0  0  0  0
    2.2109   -0.2789    1.4626 O   0  0  0  0  0  0  0  0  0  0  0  0
   -2.5500    4.0308    0.7746 O   0  0  0  0  0  0  0  0  0  0  0  0
    3.2447   -5.0442   -0.0815 O   0  0  0  0  0  0  0  0  0  0  0  0
   -0.5817   -2.9744    1.4556 O   0  0  0  0  0  0  0  0  0  0  0  0
   -0.3892   -1.1170    0.1600 O   0  0  0  0  0  0  0  0  0  0  0  0
   -2.8999   -1.3850   -2.1288 O   0  0  0  0  0  0  0  0  0  0  0  0
    2.8447   -1.5325   -0.3849 N   0  0  0  0  0  0  0  0  0  0  0  0
   -1.5453    2.8792   -0.9704 N   0  0  0  0  0  0  0  0  0  0  0  0
   -3.1999    0.8193   -0.5079 N   0  0  0  0  0  0  0  0  0  0  0  0
    3.3550    0.8404   -0.3632 C   0  0  1  0  0  0  0  0  0  0  0  0
    2.6474    2.1655   -0.0208 C   0  0  0  0  0  0  0  0  0  0  0  0
    1.3606    2.3588   -0.8322 C   0  0  0  0  0  0  0  0  0  0  0  0
    0.7162    3.7135   -0.5359 C   0  0  0  0  0  0  0  0  0  0  0  0
    4.8334    0.8954   -0.0024 C   0  0  0  0  0  0  0  0  0  0  0  0
    2.7338   -0.3620    0.3530 C   0  0  0  0  0  0  0  0  0  0  0  0
   -0.5832    3.8909   -1.3122 C   0  0  0  0  0  0  0  0  0  0  0  0
    2.3463   -2.8049    0.0834 C   0  0  1  0  0  0  0  0  0  0  0  0
    5.4071    1.0838    1.2359 C   0  0  0  0  0  0  0  0  0  0  0  0
    0.9244   -3.0691   -0.3918 C   0  0  0  0  0  0  0  0  0  0  0  0
    6.8305    1.0737    1.1730 C   0  0  0  0  0  0  0  0  0  0  0  0
    7.2904    0.8778   -0.1106 C   0  0  0  0  0  0  0  0  0  0  0  0
   -2.4639    3.0348    0.0610 C   0  0  0  0  0  0  0  0  0  0  0  0
    3.3149   -3.8607   -0.4033 C   0  0  0  0  0  0  0  0  0  0  0  0
   -3.3738    1.8861    0.3056 C   0  0  0  0  0  0  0  0  0  0  0  0
   -0.0767   -2.2738    0.4099 C   0  0  0  0  0  0  0  0  0  0  0  0
   -3.9966   -0.2518   -0.3321 C   0  0  0  0  0  0  0  0  0  0  0  0
   -4.3194    1.9484    1.3088 C   0  0  0  0  0  0  0  0  0  0  0  0
   -4.9923   -0.2831    0.6667 C   0  0  0  0  0  0  0  0  0  0  0  0
   -5.1388    0.8432    1.4875 C   0  0  0  0  0  0  0  0  0  0  0  0
   -3.8515   -1.3710   -1.1474 C   0  0  0  0  0  0  0  0  0  0  0  0
   -5.8064   -1.4179    0.8219 C   0  0  0  0  0  0  0  0  0  0  0  0
   -4.6609   -2.4992   -0.9933 C   0  0  0  0  0  0  0  0  0  0  0  0
   -5.6395   -2.5232   -0.0075 C   0  0  0  0  0  0  0  0  0  0  0  0
    3.2589    0.6795   -1.4460 H   0  0  0  0  0  0  0  0  0  0  0  0
    2.4220    2.2269    1.0512 H   0  0  0  0  0  0  0  0  0  0  0  0
    3.3184    3.0057   -0.2452 H   0  0  0  0  0  0  0  0  0  0  0  0
    0.6696    1.5429   -0.5928 H   0  0  0  0  0  0  0  0  0  0  0  0
    1.5847    2.2903   -1.9037 H   0  0  0  0  0  0  0  0  0  0  0  0
    1.4082    4.5201   -0.8046 H   0  0  0  0  0  0  0  0  0  0  0  0
    0.5198    3.7987    0.5399 H   0  0  0  0  0  0  0  0  0  0  0  0
   -1.0069    4.8795   -1.1047 H   0  0  0  0  0  0  0  0  0  0  0  0
   -0.4017    3.8208   -2.3899 H   0  0  0  0  0  0  0  0  0  0  0  0
    3.2651   -1.4907   -1.3093 H   0  0  0  0  0  0  0  0  0  0  0  0
    2.3951   -2.8091    1.1792 H   0  0  0  0  0  0  0  0  0  0  0  0
    4.8387    1.2234    2.1466 H   0  0  0  0  0  0  0  0  0  0  0  0
   -1.5441    2.0156   -1.5060 H   0  0  0  0  0  0  0  0  0  0  0  0
    0.6655   -4.1313   -0.3039 H   0  0  0  0  0  0  0  0  0  0  0  0
    0.7940   -2.8152   -1.4510 H   0  0  0  0  0  0  0  0  0  0  0  0
    7.4838    1.2036    2.0259 H   0  0  0  0  0  0  0  0  0  0  0  0
    8.3178    0.8267   -0.4427 H   0  0  0  0  0  0  0  0  0  0  0  0
    4.1066   -3.5309   -1.0984 H   0  0  0  0  0  0  0  0  0  0  0  0
   -4.4381    2.8167    1.9472 H   0  0  0  0  0  0  0  0  0  0  0  0
   -5.8930    0.8650    2.2709 H   0  0  0  0  0  0  0  0  0  0  0  0
   -6.5756   -1.4468    1.5905 H   0  0  0  0  0  0  0  0  0  0  0  0
   -4.5356   -3.3655   -1.6375 H   0  0  0  0  0  0  0  0  0  0  0  0
   -6.2705   -3.3982    0.1156 H   0  0  0  0  0  0  0  0  0  0  0  0
   -1.2254   -2.4454    1.9733 H   0  0  0  0  0  0  0  0  0  0  0  0
   -2.9344   -2.2379   -2.5948 H   0  0  0  0  0  0  0  0  0  0  0  0
  1 15  1  0  0  0  0
  1 22  1  0  0  0  0
  2 16  2  0  0  0  0
  3 23  2  0  0  0  0
  4 24  2  0  0  0  0
  5 26  1  0  0  0  0
  5 58  1  0  0  0  0
  6 26  2  0  0  0  0
  7 31  1  0  0  0  0
  7 59  1  0  0  0  0
  8 16  1  0  0  0  0
  8 18  1  0  0  0  0
  8 44  1  0  0  0  0
  9 17  1  0  0  0  0
  9 23  1  0  0  0  0
  9 47  1  0  0  0  0
 10 25  2  0  0  0  0
 10 27  1  0  0  0  0
 11 12  1  0  0  0  0
 11 15  1  0  0  0  0
 11 16  1  0  0  0  0
 11 35  1  0  0  0  0
 12 13  1  0  0  0  0
 12 36  1  0  0  0  0
 12 37  1  0  0  0  0
 13 14  1  0  0  0  0
 13 38  1  0  0  0  0
 13 39  1  0  0  0  0
 14 17  1  0  0  0  0
 14 40  1  0  0  0  0
 14 41  1  0  0  0  0
 15 19  2  0  0  0  0
 17 42  1  0  0  0  0
 17 43  1  0  0  0  0
 18 20  1  0  0  0  0
 18 24  1  0  0  0  0
 18 45  1  0  0  0  0
 19 21  1  0  0  0  0
 19 46  1  0  0  0  0
 20 26  1  0  0  0  0
 20 48  1  0  0  0  0
 20 49  1  0  0  0  0
 21 22  2  0  0  0  0
 21 50  1  0  0  0  0
 22 51  1  0  0  0  0
 23 25  1  0  0  0  0
 24 52  1  0  0  0  0
 25 28  1  0  0  0  0
 27 29  2  0  0  0  0
 27 31  1  0  0  0  0
 28 30  2  0  0  0  0
 28 53  1  0  0  0  0
 29 30  1  0  0  0  0
 29 32  1  0  0  0  0
 30 54  1  0  0  0  0
 31 33  2  0  0  0  0
 32 34  2  0  0  0  0
 32 55  1  0  0  0  0
 33 34  1  0  0  0  0
 33 56  1  0  0  0  0
 34 57  1  0  0  0  0
M  END
> <DATABASE_ID>
DB07916

> <DATABASE_NAME>
drugbank

> <ORIGINAL_SOURCE>
PUBCHEM

> <ORIGINAL_SOURCE_URL>
https://pubchem.ncbi.nlm.nih.gov/rest/pug/compound/inchikey/QXMPYGCWDMKRMF-IRXDYDNUSA-N/SDF?record_type=3d

> <SMILES>
[H][C@@](CC(O)=O)(NC(=O)[C@@]([H])(CCCCNC(=O)C1=NC2=C(C=CC=C2O)C=C1)C1=CC=CS1)C=O

> <INCHI_IDENTIFIER>
InChI=1S/C24H25N3O6S/c28-14-16(13-21(30)31)26-23(32)17(20-8-4-12-34-20)6-1-2-11-25-24(33)18-10-9-15-5-3-7-19(29)22(15)27-18/h3-5,7-10,12,14,16-17,29H,1-2,6,11,13H2,(H,25,33)(H,26,32)(H,30,31)/t16-,17-/m0/s1

> <INCHI_KEY>
QXMPYGCWDMKRMF-IRXDYDNUSA-N

> <FORMULA>
C24H25N3O6S

> <MOLECULAR_WEIGHT>
483.537

> <EXACT_MASS>
483.146406237

> <JCHEM_ACCEPTOR_COUNT>
7

> <JCHEM_AVERAGE_POLARIZABILITY>
49.96166228567536

> <JCHEM_BIOAVAILABILITY>
1

> <JCHEM_DONOR_COUNT>
4

> <JCHEM_FORMAL_CHARGE>
0

> <JCHEM_GHOSE_FILTER>
0

> <JCHEM_IUPAC>
(3S)-3-[(2R)-6-[(8-hydroxyquinolin-2-yl)formamido]-2-(thiophen-2-yl)hexanamido]-4-oxobutanoic acid

> <ALOGPS_LOGP>
2.39

> <JCHEM_LOGP>
2.4330208793333337

> <ALOGPS_LOGS>
-5.06

> <JCHEM_MDDR_LIKE_RULE>
1

> <JCHEM_NUMBER_OF_RINGS>
3

> <JCHEM_PHYSIOLOGICAL_CHARGE>
-1

> <JCHEM_PKA>
9.19302504906509

> <JCHEM_PKA_STRONGEST_ACIDIC>
4.646300681431045

> <JCHEM_PKA_STRONGEST_BASIC>
0.85758939127003

> <JCHEM_POLAR_SURFACE_AREA>
145.69

> <JCHEM_REFRACTIVITY>
124.27109999999998

> <JCHEM_ROTATABLE_BOND_COUNT>
12

> <JCHEM_RULE_OF_FIVE>
1

> <ALOGPS_SOLUBILITY>
4.18e-03 g/l

> <JCHEM_TRADITIONAL_IUPAC>
(3S)-3-[(2R)-6-[(8-hydroxyquinolin-2-yl)formamido]-2-(thiophen-2-yl)hexanamido]-4-oxobutanoic acid

> <JCHEM_VEBER_RULE>
0

> <DRUGBANK_ID>
DB07916

> <DRUG_GROUPS>
experimental

> <GENERIC_NAME>
3-{6-[(8-HYDROXY-QUINOLINE-2-CARBONYL)-AMINO]-2-THIOPHEN-2-YL-HEXANOYLAMINO}-4-OXO-BUTYRI ACID

$$$$
