REMARK  Name = 11987846
REMARK  4 active torsions:
REMARK  status: ('A' for Active; 'I' for Inactive)
REMARK    1  A    between atoms: C_3  and  C_18
REMARK    2  A    between atoms: C_14  and  O_16
REMARK    3  A    between atoms: C_18  and  C_19
REMARK    4  A    between atoms: C_19  and  C_20
REMARK                            x       y       z     vdW  Elec       q    Type
REMARK                         _______ _______ _______ _____ _____    ______ ____
ROOT
ATOM      1 BR   UNL     1      -0.411  -3.716   0.811  0.00  0.00    -0.046 Br
ATOM      2  O   UNL     1       2.553  -3.505   0.287  0.00  0.00    -0.291 OA
ATOM      3  C   UNL     1       0.856   0.180  -0.541  0.00  0.00    +0.024 C 
ATOM      4  C   UNL     1      -0.177   1.019  -1.332  0.00  0.00    +0.030 C 
ATOM      5  C   UNL     1       1.954  -0.357  -1.466  0.00  0.00    +0.013 C 
ATOM      6  C   UNL     1       0.045  -0.984   0.038  0.00  0.00    -0.014 C 
ATOM      7  C   UNL     1      -1.459   0.670  -0.639  0.00  0.00    -0.019 C 
ATOM      8  C   UNL     1      -1.339  -0.487   0.144  0.00  0.00    -0.007 C 
ATOM      9  C   UNL     1       2.820  -1.383  -0.753  0.00  0.00    +0.070 C 
ATOM     10  C   UNL     1       0.549  -2.215   0.242  0.00  0.00    +0.065 C 
ATOM     11  C   UNL     1       2.005  -2.455  -0.055  0.00  0.00    +0.179 C 
ATOM     12  C   UNL     1      -2.659   1.361  -0.744  0.00  0.00    +0.032 C 
ATOM     13  C   UNL     1      -2.431  -0.928   0.881  0.00  0.00    +0.002 C 
ATOM     14  C   UNL     1      -3.758   0.901  -0.022  0.00  0.00    +0.133 C 
ATOM     15  C   UNL     1      -3.642  -0.233   0.790  0.00  0.00    +0.037 C 
ENDROOT
BRANCH  14  16
ATOM     16  O   UNL     1      -4.946   1.561  -0.098  0.00  0.00    -0.506 OA
ATOM     17  H   UNL     1      -5.026   2.320  -0.641  0.00  0.00    +0.292 HD
ENDBRANCH  14  16
BRANCH   3  18
ATOM     18  C   UNL     1       1.456   1.029   0.601  0.00  0.00    +0.004 C 
BRANCH  18  19
ATOM     19  C   UNL     1       2.231   2.209   0.041  0.00  0.00    +0.000 C 
BRANCH  19  20
ATOM     20  C   UNL     1       2.800   3.062   1.174  0.00  0.00    +0.000 C 
ATOM     21  C   UNL     1       3.553   4.270   0.639  0.00  0.00    +0.000 C 
ENDBRANCH  19  20
ENDBRANCH  18  19
ENDBRANCH   3  18
TORSDOF 4
