REMARK  Name = 5287855
REMARK  1 active torsions:
REMARK  status: ('A' for Active; 'I' for Inactive)
REMARK    1  A    between atoms: C_7  and  C_16
REMARK                            x       y       z     vdW  Elec       q    Type
REMARK                         _______ _______ _______ _____ _____    ______ ____
ROOT
ATOM      1  F   UNL     1       4.554   1.799  -0.369  0.00  0.00    -0.125 F 
ATOM      2  F   UNL     1       5.177  -0.247  -0.837  0.00  0.00    -0.125 F 
ATOM      3  O   UNL     1       3.050   0.385  -1.308  0.00  0.00    -0.395 OA
ATOM      4  O   UNL     1       3.837   0.106   0.958  0.00  0.00    -0.395 OA
ATOM      5  C   UNL     1       2.084  -0.100  -0.480  0.00  0.00    +0.182 C 
ATOM      6  C   UNL     1       2.533  -0.259   0.813  0.00  0.00    +0.182 C 
ATOM      7  C   UNL     1      -0.062  -0.899   0.151  0.00  0.00    +0.004 C 
ATOM      8  C   UNL     1       0.790  -0.411  -0.843  0.00  0.00    +0.040 C 
ATOM      9  C   UNL     1       1.711  -0.739   1.812  0.00  0.00    +0.040 C 
ATOM     10  C   UNL     1       0.396  -1.062   1.471  0.00  0.00    +0.003 C 
ATOM     11  C   UNL     1       4.143   0.506  -0.386  0.00  0.00    +0.589 C 
ENDROOT
BRANCH   7  16
ATOM     12  S   UNL     1      -2.471   1.228   0.389  0.00  0.00    -0.025 S 
ATOM     13  O   UNL     1      -4.191  -1.952  -0.857  0.00  0.00    -0.269 OA
ATOM     14  O   UNL     1      -4.797   2.473   0.378  0.00  0.00    -0.262 OA
ATOM     15  N   UNL     1      -4.730   0.239  -0.287  0.00  0.00    -0.243 N 
ATOM     16  C   UNL     1      -1.437  -1.241  -0.182  0.00  0.00    +0.011 C 
ATOM     17  C   UNL     1      -2.503  -0.419  -0.113  0.00  0.00    +0.087 C 
ATOM     18  C   UNL     1      -3.880  -0.836  -0.468  0.00  0.00    +0.258 C 
ATOM     19  C   UNL     1      -4.203   1.428   0.160  0.00  0.00    +0.283 C 
ATOM     20  H   UNL     1      -5.693   0.155  -0.475  0.00  0.00    +0.159 HD
ENDBRANCH   7  16
TORSDOF 1
