REMARK  Name = 11326613
REMARK  6 active torsions:
REMARK  status: ('A' for Active; 'I' for Inactive)
REMARK    1  A    between atoms: C_2  and  C_8
REMARK    2  A    between atoms: C_3  and  C_18
REMARK    3  A    between atoms: CA_4  and  C_28
REMARK    4  A    between atoms: CA_5  and  C_32
REMARK    5  A    between atoms: C_28  and  O_29
REMARK    6  A    between atoms: C_32  and  O_33
REMARK                            x       y       z     vdW  Elec       q    Type
REMARK                         _______ _______ _______ _____ _____    ______ ____
ROOT
ATOM      1  N   UNL     1      -0.014  -3.107  -0.432  0.00  0.00    -0.343 N 
ATOM      2  C   UNL     1       0.704  -1.150   0.341  0.00  0.00    +0.025 A 
ATOM      3  C   UNL     1      -0.714  -1.146   0.340  0.00  0.00    +0.025 A 
ATOM      4  CA  UNL     1       1.109  -2.377  -0.143  0.00  0.00    +0.133 A 
ATOM      5  CA  UNL     1      -1.131  -2.367  -0.142  0.00  0.00    +0.133 A 
ATOM      6  H   UNL     1      -0.018  -4.023  -0.792  0.00  0.00    +0.166 HD
ENDROOT
BRANCH   2   8
ATOM      7  N   UNL     1       2.784   1.306   2.015  0.00  0.00    -0.312 N 
ATOM      8  C   UNL     1       1.548  -0.057   0.772  0.00  0.00    +0.017 C 
ATOM      9  C   UNL     1       2.031   0.991  -0.061  0.00  0.00    +0.015 C 
ATOM     10  C   UNL     1       2.803   1.832   0.743  0.00  0.00    +0.048 C 
ATOM     11  C   UNL     1       2.028   0.164   2.043  0.00  0.00    +0.062 C 
ATOM     12  C   UNL     1       1.884   1.305  -1.427  0.00  0.00    +0.001 C 
ATOM     13  C   UNL     1       3.438   2.976   0.248  0.00  0.00    +0.015 C 
ATOM     14  C   UNL     1       2.514   2.446  -1.936  0.00  0.00    +0.000 C 
ATOM     15  C   UNL     1       3.279   3.268  -1.110  0.00  0.00    +0.001 C 
ATOM     16  H   UNL     1       3.246   1.694   2.793  0.00  0.00    +0.152 HD
ENDBRANCH   2   8
BRANCH   3  18
ATOM     17  N   UNL     1      -2.772   1.327   2.014  0.00  0.00    -0.312 N 
ATOM     18  C   UNL     1      -1.550  -0.043   0.773  0.00  0.00    +0.017 C 
ATOM     19  C   UNL     1      -2.021   1.006  -0.061  0.00  0.00    +0.015 C 
ATOM     20  C   UNL     1      -2.787   1.854   0.743  0.00  0.00    +0.048 C 
ATOM     21  C   UNL     1      -2.026   0.179   2.042  0.00  0.00    +0.062 C 
ATOM     22  C   UNL     1      -1.871   1.320  -1.427  0.00  0.00    +0.001 C 
ATOM     23  C   UNL     1      -3.412   3.003   0.247  0.00  0.00    +0.015 C 
ATOM     24  C   UNL     1      -2.491   2.467  -1.936  0.00  0.00    +0.000 C 
ATOM     25  C   UNL     1      -3.249   3.295  -1.110  0.00  0.00    +0.001 C 
ATOM     26  H   UNL     1      -3.232   1.719   2.792  0.00  0.00    +0.152 HD
ENDBRANCH   3  18
BRANCH   4  28
ATOM     27  OXT UNL     1       3.498  -2.261  -0.093  0.00  0.00    -0.243 OA
ATOM     28  C   UNL     1       2.436  -2.873  -0.336  0.00  0.00    +0.354 C 
BRANCH  28  29
ATOM     29  O   UNL     1       2.473  -4.148  -0.838  0.00  0.00    -0.476 OA
ATOM     30  H   UNL     1       1.674  -4.604  -1.018  0.00  0.00    +0.295 HD
ENDBRANCH  28  29
ENDBRANCH   4  28
BRANCH   5  32
ATOM     31  OXT UNL     1      -3.519  -2.231  -0.093  0.00  0.00    -0.243 OA
ATOM     32  C   UNL     1      -2.462  -2.852  -0.336  0.00  0.00    +0.354 C 
BRANCH  32  33
ATOM     33  O   UNL     1      -2.510  -4.126  -0.839  0.00  0.00    -0.476 OA
ATOM     34  H   UNL     1      -1.715  -4.588  -1.020  0.00  0.00    +0.295 HD
ENDBRANCH  32  33
ENDBRANCH   5  32
TORSDOF 6
