REMARK  Name = 24836811
REMARK  4 active torsions:
REMARK  status: ('A' for Active; 'I' for Inactive)
REMARK    1  A    between atoms: C_9  and  C_12
REMARK    2  A    between atoms: C_11  and  C_19
REMARK    3  A    between atoms: C_21  and  C_25
REMARK    4  A    between atoms: N_24  and  O_27
REMARK                            x       y       z     vdW  Elec       q    Type
REMARK                         _______ _______ _______ _____ _____    ______ ____
ROOT
ATOM      1  O   UNL     1      -1.472   2.975  -0.519  0.00  0.00    -0.269 OA
ATOM      2  N   UNL     1       2.169  -0.006   0.475  0.00  0.00    -0.271 N 
ATOM      3  N   UNL     1      -0.229   1.382   0.659  0.00  0.00    -0.267 N 
ATOM      4  N   UNL     1       1.471  -1.802   1.561  0.00  0.00    -0.230 NA
ATOM      5  C   UNL     1       2.102   1.317  -0.110  0.00  0.00    +0.118 C 
ATOM      6  C   UNL     1       1.021   2.147   0.572  0.00  0.00    +0.116 C 
ATOM      7  C   UNL     1      -0.161   0.107   1.398  0.00  0.00    +0.155 C 
ATOM      8  C   UNL     1       1.134  -0.593   1.159  0.00  0.00    +0.133 C 
ATOM      9  C   UNL     1       3.213  -0.877   0.436  0.00  0.00    +0.072 C 
ATOM     10  C   UNL     1       2.758  -1.984   1.115  0.00  0.00    +0.115 C 
ATOM     11  C   UNL     1      -1.396   1.915   0.100  0.00  0.00    +0.255 C 
ENDROOT
BRANCH   9  12
ATOM     12  C   UNL     1       4.489  -0.620  -0.185  0.00  0.00    +0.015 C 
ATOM     13  C   UNL     1       5.654  -0.639   0.583  0.00  0.00    +0.001 C 
ATOM     14  C   UNL     1       4.560  -0.353  -1.552  0.00  0.00    +0.001 C 
ATOM     15  C   UNL     1       6.888  -0.390  -0.017  0.00  0.00    +0.000 C 
ATOM     16  C   UNL     1       5.794  -0.105  -2.152  0.00  0.00    +0.000 C 
ATOM     17  C   UNL     1       6.959  -0.123  -1.384  0.00  0.00    +0.000 C 
ENDBRANCH   9  12
BRANCH  11  19
ATOM     18  S   UNL     1      -3.487   0.628  -1.134  0.00  0.00    -0.078 S 
ATOM     19  C   UNL     1      -2.650   1.162   0.260  0.00  0.00    +0.083 C 
ATOM     20  C   UNL     1      -3.294   0.798   1.422  0.00  0.00    +0.012 C 
ATOM     21  C   UNL     1      -4.717  -0.093  -0.185  0.00  0.00    +0.085 C 
ATOM     22  C   UNL     1      -4.492   0.070   1.164  0.00  0.00    +0.012 C 
BRANCH  21  25
ATOM     23  O   UNL     1      -5.876  -0.821  -2.093  0.00  0.00    -0.268 OA
ATOM     24  N   UNL     1      -6.789  -1.346  -0.043  0.00  0.00    -0.193 N 
ATOM     25  C   UNL     1      -5.796  -0.761  -0.838  0.00  0.00    +0.274 C 
ATOM     26  H   UNL     1      -6.741  -1.307   0.940  0.00  0.00    +0.183 HD
BRANCH  24  27
ATOM     27  O   UNL     1      -7.853  -1.988  -0.692  0.00  0.00    -0.295 OA
ATOM     28  H   UNL     1      -8.466  -2.347  -0.031  0.00  0.00    +0.241 HD
ENDBRANCH  24  27
ENDBRANCH  21  25
ENDBRANCH  11  19
TORSDOF 4
