REMARK  Name = 5287741
REMARK  11 active torsions:
REMARK  status: ('A' for Active; 'I' for Inactive)
REMARK    1  A    between atoms: N_3  and  C_27
REMARK    2  A    between atoms: C_5  and  C_12
REMARK    3  A    between atoms: C_6  and  O_10
REMARK    4  A    between atoms: C_12  and  C_13
REMARK    5  A    between atoms: C_16  and  O_19
REMARK    6  A    between atoms: O_19  and  C_20
REMARK    7  A    between atoms: C_20  and  C_21
REMARK    8  A    between atoms: C_27  and  O_28
REMARK    9  A    between atoms: O_28  and  C_29
REMARK   10  A    between atoms: C_29  and  C_30
REMARK   11  A    between atoms: C_30  and  O_31
REMARK                            x       y       z     vdW  Elec       q    Type
REMARK                         _______ _______ _______ _____ _____    ______ ____
ROOT
ATOM      1  O   UNL     1       3.497   2.075   1.405  0.00  0.00    -0.267 OA
ATOM      2  O   UNL     1       3.546  -2.469   1.967  0.00  0.00    -0.246 OA
ATOM      3  N   UNL     1       2.778  -1.619  -0.067  0.00  0.00    -0.225 N 
ATOM      4  N   UNL     1       3.518  -0.206   1.663  0.00  0.00    -0.274 N 
ATOM      5  C   UNL     1       2.742   0.756  -0.429  0.00  0.00    +0.089 A 
ATOM      6  C   UNL     1       2.515  -0.502  -0.857  0.00  0.00    +0.209 A 
ATOM      7  C   UNL     1       3.283   0.953   0.950  0.00  0.00    +0.262 A 
ATOM      8  C   UNL     1       3.296  -1.511   1.232  0.00  0.00    +0.334 A 
ATOM      9  H   UNL     1       3.881  -0.098   2.572  0.00  0.00    +0.173 HD
ENDROOT
BRANCH   6  10
ATOM     10  O   UNL     1       1.998  -0.784  -2.110  0.00  0.00    -0.493 OA
ATOM     11  H   UNL     1       1.855  -1.674  -2.368  0.00  0.00    +0.294 HD
ENDBRANCH   6  10
BRANCH   5  12
ATOM     12  C   UNL     1       2.520   2.022  -1.208  0.00  0.00    +0.062 C 
BRANCH  12  13
ATOM     13  C   UNL     1       1.294   2.763  -0.755  0.00  0.00    -0.014 C 
ATOM     14  C   UNL     1       0.114   2.065  -0.530  0.00  0.00    +0.033 C 
ATOM     15  C   UNL     1       1.354   4.138  -0.565  0.00  0.00    -0.004 C 
ATOM     16  C   UNL     1      -1.024   2.753  -0.109  0.00  0.00    +0.139 C 
ATOM     17  C   UNL     1       0.217   4.826  -0.144  0.00  0.00    +0.003 C 
ATOM     18  C   UNL     1      -0.973   4.134   0.085  0.00  0.00    +0.037 C 
BRANCH  16  19
ATOM     19  O   UNL     1      -2.184   2.078   0.115  0.00  0.00    -0.471 OA
BRANCH  19  20
ATOM     20  C   UNL     1      -2.167   0.668  -0.102  0.00  0.00    +0.232 C 
BRANCH  20  21
ATOM     21  C   UNL     1      -3.537   0.115   0.164  0.00  0.00    +0.021 C 
ATOM     22  C   UNL     1      -3.869  -0.313   1.445  0.00  0.00    -0.001 C 
ATOM     23  C   UNL     1      -4.461   0.035  -0.872  0.00  0.00    -0.001 C 
ATOM     24  C   UNL     1      -5.142  -0.827   1.693  0.00  0.00    -0.000 C 
ATOM     25  C   UNL     1      -5.734  -0.478  -0.623  0.00  0.00    -0.000 C 
ATOM     26  C   UNL     1      -6.074  -0.910   0.659  0.00  0.00    -0.000 C 
ENDBRANCH  20  21
ENDBRANCH  19  20
ENDBRANCH  16  19
ENDBRANCH  12  13
ENDBRANCH   5  12
BRANCH   3  27
ATOM     27  C   UNL     1       2.505  -2.949  -0.612  0.00  0.00    +0.262 C 
BRANCH  27  28
ATOM     28  O   UNL     1       1.170  -3.308  -0.287  0.00  0.00    -0.329 OA
BRANCH  28  29
ATOM     29  C   UNL     1       0.850  -4.609  -0.760  0.00  0.00    +0.176 C 
BRANCH  29  30
ATOM     30  C   UNL     1      -0.583  -4.933  -0.384  0.00  0.00    +0.169 C 
BRANCH  30  31
ATOM     31  O   UNL     1      -1.446  -3.962  -0.964  0.00  0.00    -0.379 OA
ATOM     32  H   UNL     1      -2.365  -4.164  -0.727  0.00  0.00    +0.211 HD
ENDBRANCH  30  31
ENDBRANCH  29  30
ENDBRANCH  28  29
ENDBRANCH  27  28
ENDBRANCH   3  27
TORSDOF 11
