REMARK  Name = 165323
REMARK  3 active torsions:
REMARK  status: ('A' for Active; 'I' for Inactive)
REMARK    1  A    between atoms: C_4  and  C_7
REMARK    2  A    between atoms: C_5  and  S_13
REMARK    3  A    between atoms: S_13  and  N_16
REMARK                            x       y       z     vdW  Elec       q    Type
REMARK                         _______ _______ _______ _____ _____    ______ ____
ROOT
ATOM      1  S   UNL     1       0.780   0.173  -0.959  0.00  0.00    -0.026 S 
ATOM      2  N   UNL     1       0.240   0.167   1.545  0.00  0.00    -0.139 NA
ATOM      3  N   UNL     1       1.621   0.146   1.461  0.00  0.00    -0.120 NA
ATOM      4  C   UNL     1      -0.316   0.182   0.356  0.00  0.00    +0.136 A 
ATOM      5  C   UNL     1       2.034   0.147   0.211  0.00  0.00    +0.254 A 
ENDROOT
BRANCH   4   7
ATOM      6 CL   UNL     1      -1.757  -2.531   0.084  0.00  0.00    -0.082 Cl
ATOM      7  C   UNL     1      -1.739   0.207   0.094  0.00  0.00    +0.036 C 
ATOM      8  C   UNL     1      -2.481  -0.966  -0.046  0.00  0.00    +0.060 C 
ATOM      9  C   UNL     1      -2.366   1.447  -0.019  0.00  0.00    +0.003 C 
ATOM     10  C   UNL     1      -3.852  -0.897  -0.297  0.00  0.00    +0.011 C 
ATOM     11  C   UNL     1      -3.736   1.516  -0.271  0.00  0.00    +0.000 C 
ATOM     12  C   UNL     1      -4.479   0.344  -0.410  0.00  0.00    +0.001 C 
ENDBRANCH   4   7
BRANCH   5  13
ATOM     13  S   UNL     1       3.683   0.124  -0.329  0.00  0.00    +0.081 S 
ATOM     14  O   UNL     1       3.700   0.736  -1.659  0.00  0.00    -0.151 OA
ATOM     15  O   UNL     1       4.468   0.717   0.754  0.00  0.00    -0.151 OA
BRANCH  13  16
ATOM     16  N   UNL     1       4.200  -1.511  -0.516  0.00  0.00    -0.202 NA
ATOM     17  H   UNL     1       5.169  -1.527  -0.834  0.00  0.00    +0.144 HD
ATOM     18  H   UNL     1       3.609  -1.978  -1.205  0.00  0.00    +0.144 HD
ENDBRANCH  13  16
ENDBRANCH   5  13
TORSDOF 3
