REMARK  Name = 24963048
REMARK  6 active torsions:
REMARK  status: ('A' for Active; 'I' for Inactive)
REMARK    1  A    between atoms: N_2  and  C_20
REMARK    2  A    between atoms: C_3  and  C_7
REMARK    3  A    between atoms: C_6  and  C_12
REMARK    4  A    between atoms: C_20  and  C_21
REMARK    5  A    between atoms: C_20  and  C_27
REMARK    6  A    between atoms: C_27  and  N_28
REMARK                            x       y       z     vdW  Elec       q    Type
REMARK                         _______ _______ _______ _____ _____    ______ ____
ROOT
ATOM      1  O   UNL     1      -1.788   0.085   1.849  0.00  0.00    -0.270 OA
ATOM      2  N   UNL     1      -2.550  -0.990  -0.057  0.00  0.00    -0.300 N 
ATOM      3  C   UNL     1      -1.538  -0.357   0.699  0.00  0.00    +0.252 C 
ATOM      4  H   UNL     1      -2.316  -1.323  -0.953  0.00  0.00    +0.150 HD
ENDROOT
BRANCH   3   7
ATOM      5  S   UNL     1       1.014   0.502   1.017  0.00  0.00    -0.082 S 
ATOM      6  C   UNL     1       2.147   0.237  -0.239  0.00  0.00    +0.030 C 
ATOM      7  C   UNL     1      -0.235  -0.259   0.125  0.00  0.00    +0.083 C 
ATOM      8  C   UNL     1       1.584  -0.417  -1.313  0.00  0.00    +0.007 C 
ATOM      9  C   UNL     1       0.205  -0.704  -1.102  0.00  0.00    +0.012 C 
BRANCH   6  12
ATOM     10  N   UNL     1       6.711  -0.794   0.000  0.00  0.00    -0.297 N 
ATOM     11  N   UNL     1       6.202   1.544   0.277  0.00  0.00    -0.229 NA
ATOM     12  C   UNL     1       3.497   0.695  -0.065  0.00  0.00    +0.010 C 
ATOM     13  C   UNL     1       4.553  -0.230  -0.102  0.00  0.00    +0.033 C 
ATOM     14  C   UNL     1       5.843   0.263   0.072  0.00  0.00    +0.132 C 
ATOM     15  C   UNL     1       4.670  -1.633  -0.283  0.00  0.00    +0.019 C 
ATOM     16  C   UNL     1       3.813   2.036   0.144  0.00  0.00    +0.021 C 
ATOM     17  C   UNL     1       6.009  -1.952  -0.215  0.00  0.00    +0.063 C 
ATOM     18  C   UNL     1       5.146   2.390   0.304  0.00  0.00    +0.100 C 
ATOM     19  H   UNL     1       7.690  -0.732   0.090  0.00  0.00    +0.154 HD
ENDBRANCH   6  12
ENDBRANCH   3   7
BRANCH   2  20
ATOM     20  C   UNL     1      -3.901  -1.178   0.397  0.00  0.00    +0.073 C 
BRANCH  20  21
ATOM     21  C   UNL     1      -4.750   0.031   0.059  0.00  0.00    -0.007 C 
ATOM     22  C   UNL     1      -4.518   0.739  -1.120  0.00  0.00    -0.003 C 
ATOM     23  C   UNL     1      -5.763   0.437   0.928  0.00  0.00    -0.003 C 
ATOM     24  C   UNL     1      -5.299   1.852  -1.431  0.00  0.00    -0.000 C 
ATOM     25  C   UNL     1      -6.544   1.550   0.618  0.00  0.00    -0.000 C 
ATOM     26  C   UNL     1      -6.312   2.257  -0.562  0.00  0.00    -0.000 C 
ENDBRANCH  20  21
BRANCH  20  27
ATOM     27  C   UNL     1      -4.512  -2.472  -0.165  0.00  0.00    -0.062 C 
BRANCH  27  28
ATOM     28  N   UNL     1      -3.684  -3.631   0.164  0.00  0.00    +0.382 N 
ATOM     29  H   UNL     1      -4.112  -4.474  -0.219  0.00  0.00    -0.089 HD
ATOM     30  H   UNL     1      -3.610  -3.719   1.178  0.00  0.00    -0.089 HD
ATOM     31  H   UNL     1      -2.754  -3.509  -0.236  0.00  0.00    -0.089 HD
ENDBRANCH  27  28
ENDBRANCH  20  27
ENDBRANCH   2  20
TORSDOF 6
