REMARK  Name = 149790
REMARK  8 active torsions:
REMARK  status: ('A' for Active; 'I' for Inactive)
REMARK    1  A    between atoms: N_1  and  C_13
REMARK    2  A    between atoms: C_13  and  C_14
REMARK    3  A    between atoms: C_13  and  C_18
REMARK    4  A    between atoms: C_14  and  O_16
REMARK    5  A    between atoms: C_18  and  C_19
REMARK    6  A    between atoms: C_19  and  C_20
REMARK    7  A    between atoms: C_20  and  C_21
REMARK    8  A    between atoms: C_21  and  C_22
REMARK                            x       y       z     vdW  Elec       q    Type
REMARK                         _______ _______ _______ _____ _____    ______ ____
ROOT
ATOM      1  N   UNL     1      -0.863   0.677   0.373  0.00  0.00    -0.271 N 
ATOM      2  N   UNL     1      -1.790  -0.621   1.895  0.00  0.00    -0.242 NA
ATOM      3  N   UNL     1      -1.591  -0.420  -1.662  0.00  0.00    -0.228 NA
ATOM      4  N   UNL     1      -2.958  -2.375  -1.145  0.00  0.00    -0.229 NA
ATOM      5  C   UNL     1      -1.512  -0.274  -0.331  0.00  0.00    +0.151 C 
ATOM      6  C   UNL     1      -1.045   0.446   1.695  0.00  0.00    +0.221 C 
ATOM      7  C   UNL     1      -2.089  -1.081   0.637  0.00  0.00    +0.140 C 
ATOM      8  C   UNL     1      -2.836  -2.166   0.188  0.00  0.00    +0.143 C 
ATOM      9  C   UNL     1      -2.337  -1.502  -1.975  0.00  0.00    +0.253 C 
ATOM     10  N   UNL     1      -3.458  -3.036   1.100  0.00  0.00    -0.342 N 
ATOM     11  H   UNL     1      -3.984  -3.800   0.771  0.00  0.00    +0.144 HD
ATOM     12  H   UNL     1      -3.368  -2.881   2.068  0.00  0.00    +0.144 HD
ENDROOT
BRANCH   1  13
ATOM     13  C   UNL     1      -0.083   1.787  -0.192  0.00  0.00    +0.103 C 
BRANCH  13  14
ATOM     14  C   UNL     1      -0.688   3.165   0.177  0.00  0.00    +0.129 C 
ATOM     15  C   UNL     1      -2.141   3.319  -0.266  0.00  0.00    +0.033 C 
BRANCH  14  16
ATOM     16  O   UNL     1       0.073   4.187  -0.470  0.00  0.00    -0.383 OA
ATOM     17  H   UNL     1       1.004   4.113  -0.206  0.00  0.00    +0.210 HD
ENDBRANCH  14  16
ENDBRANCH  13  14
BRANCH  13  18
ATOM     18  C   UNL     1       1.418   1.699   0.185  0.00  0.00    +0.022 C 
BRANCH  18  19
ATOM     19  C   UNL     1       2.070   0.376  -0.239  0.00  0.00    +0.002 C 
BRANCH  19  20
ATOM     20  C   UNL     1       3.526   0.303   0.229  0.00  0.00    +0.000 C 
BRANCH  20  21
ATOM     21  C   UNL     1       4.233  -0.991  -0.183  0.00  0.00    +0.000 C 
BRANCH  21  22
ATOM     22  C   UNL     1       5.716  -1.084   0.183  0.00  0.00    +0.000 C 
ATOM     23  C   UNL     1       6.356  -2.409  -0.200  0.00  0.00    +0.000 C 
ENDBRANCH  21  22
ENDBRANCH  20  21
ENDBRANCH  19  20
ENDBRANCH  18  19
ENDBRANCH  13  18
ENDBRANCH   1  13
TORSDOF 8
