REMARK  Name = 6852147
REMARK  9 active torsions:
REMARK  status: ('A' for Active; 'I' for Inactive)
REMARK    1  A    between atoms: S_1  and  C_4
REMARK    2  A    between atoms: S_1  and  N_18
REMARK    3  A    between atoms: C_7  and  C_10
REMARK    4  A    between atoms: C_15  and  O_16
REMARK    5  A    between atoms: N_18  and  C_20
REMARK    6  A    between atoms: C_20  and  C_21
REMARK    7  A    between atoms: C_20  and  P_24
REMARK    8  A    between atoms: P_24  and  O_26
REMARK    9  A    between atoms: P_24  and  O_28
REMARK                            x       y       z     vdW  Elec       q    Type
REMARK                         _______ _______ _______ _____ _____    ______ ____
ROOT
ATOM      1  S   UNL     1       2.573   2.028   0.160  0.00  0.00    +0.061 S 
ATOM      2  O   UNL     1       2.973   2.118   1.551  0.00  0.00    -0.153 OA
ATOM      3  O   UNL     1       2.689   3.186  -0.706  0.00  0.00    -0.153 OA
ENDROOT
BRANCH   1   4
ATOM      4  C   UNL     1       0.879   1.530   0.117  0.00  0.00    +0.122 C 
ATOM      5  C   UNL     1       0.102   1.868  -0.979  0.00  0.00    +0.020 C 
ATOM      6  C   UNL     1       0.357   0.811   1.179  0.00  0.00    +0.020 C 
ATOM      7  C   UNL     1      -1.777   0.751   0.049  0.00  0.00    +0.000 C 
ATOM      8  C   UNL     1      -1.236   1.475  -1.013  0.00  0.00    +0.001 C 
ATOM      9  C   UNL     1      -0.981   0.419   1.145  0.00  0.00    +0.001 C 
BRANCH   7  10
ATOM     10  C   UNL     1      -3.165   0.343   0.013  0.00  0.00    +0.000 C 
ATOM     11  C   UNL     1      -4.102   1.120  -0.667  0.00  0.00    +0.003 C 
ATOM     12  C   UNL     1      -3.565  -0.827   0.659  0.00  0.00    +0.003 C 
ATOM     13  C   UNL     1      -5.440   0.728  -0.702  0.00  0.00    +0.037 C 
ATOM     14  C   UNL     1      -4.903  -1.219   0.624  0.00  0.00    +0.037 C 
ATOM     15  C   UNL     1      -5.841  -0.442  -0.056  0.00  0.00    +0.139 C 
BRANCH  15  16
ATOM     16  O   UNL     1      -7.146  -0.826  -0.090  0.00  0.00    -0.471 OA
ATOM     17  C   UNL     1      -7.487  -2.032   0.591  0.00  0.00    +0.252 C 
ENDBRANCH  15  16
ENDBRANCH   7  10
ENDBRANCH   1   4
BRANCH   1  18
ATOM     18  N   UNL     1       3.348   0.708  -0.577  0.00  0.00    -0.169 NA
ATOM     19  H   UNL     1       4.339   0.945  -0.612  0.00  0.00    +0.149 HD
BRANCH  18  20
ATOM     20  C   UNL     1       3.272  -0.663  -0.031  0.00  0.00    +0.179 C 
BRANCH  20  21
ATOM     21  C   UNL     1       2.629  -1.625  -1.053  0.00  0.00    +0.028 C 
ATOM     22  C   UNL     1       3.380  -1.712  -2.384  0.00  0.00    +0.002 C 
ATOM     23  C   UNL     1       2.441  -3.030  -0.473  0.00  0.00    +0.002 C 
ENDBRANCH  20  21
BRANCH  20  24
ATOM     24  P   UNL     1       4.956  -1.082   0.444  0.00  0.00    +0.352 P 
ATOM     25  O   UNL     1       5.957  -1.112  -0.674  0.00  0.00    -0.257 OA
BRANCH  24  26
ATOM     26  O   UNL     1       4.797  -2.479   1.242  0.00  0.00    -0.323 OA
ATOM     27  H   UNL     1       5.669  -2.782   1.538  0.00  0.00    +0.220 HD
ENDBRANCH  24  26
BRANCH  24  28
ATOM     28  O   UNL     1       5.290  -0.036   1.631  0.00  0.00    -0.323 OA
ATOM     29  H   UNL     1       6.192  -0.190   1.954  0.00  0.00    +0.220 HD
ENDBRANCH  24  28
ENDBRANCH  20  24
ENDBRANCH  18  20
ENDBRANCH   1  18
TORSDOF 9
