REMARK  Name = 4369435
REMARK  7 active torsions:
REMARK  status: ('A' for Active; 'I' for Inactive)
REMARK    1  A    between atoms: N_2  and  C_25
REMARK    2  A    between atoms: C_5  and  C_13
REMARK    3  A    between atoms: C_7  and  C_19
REMARK    4  A    between atoms: C_25  and  C_26
REMARK    5  A    between atoms: C_26  and  O_27
REMARK    6  A    between atoms: C_26  and  C_29
REMARK    7  A    between atoms: C_29  and  O_30
REMARK                            x       y       z     vdW  Elec       q    Type
REMARK                         _______ _______ _______ _____ _____    ______ ____
ROOT
ATOM      1  N   UNL     1       1.850   2.257   0.080  0.00  0.00    -0.301 N 
ATOM      2  N   UNL     1      -2.564   0.743  -0.099  0.00  0.00    -0.319 N 
ATOM      3  N   UNL     1       0.158   3.974   0.087  0.00  0.00    -0.233 NA
ATOM      4  N   UNL     1      -2.105   3.079  -0.008  0.00  0.00    -0.233 NA
ATOM      5  C   UNL     1       0.576   0.434  -0.017  0.00  0.00    +0.005 C 
ATOM      6  C   UNL     1      -0.272   1.571  -0.004  0.00  0.00    +0.131 C 
ATOM      7  C   UNL     1       1.877   0.887   0.036  0.00  0.00    +0.046 C 
ATOM      8  C   UNL     1       0.551   2.689   0.056  0.00  0.00    +0.117 C 
ATOM      9  C   UNL     1      -1.660   1.790  -0.037  0.00  0.00    +0.113 C 
ATOM     10  C   UNL     1      -1.187   4.071   0.051  0.00  0.00    +0.252 C 
ATOM     11  H   UNL     1       2.642   2.840   0.122  0.00  0.00    +0.153 HD
ATOM     12  H   UNL     1      -2.211  -0.176  -0.120  0.00  0.00    +0.148 HD
ENDROOT
BRANCH   5  13
ATOM     13  C   UNL     1       0.235  -0.962  -0.073  0.00  0.00    -0.002 C 
ATOM     14  C   UNL     1       0.107  -1.597  -1.308  0.00  0.00    -0.000 C 
ATOM     15  C   UNL     1       0.035  -1.678   1.106  0.00  0.00    -0.000 C 
ATOM     16  C   UNL     1      -0.224  -2.951  -1.363  0.00  0.00    -0.000 C 
ATOM     17  C   UNL     1      -0.296  -3.032   1.051  0.00  0.00    -0.000 C 
ATOM     18  C   UNL     1      -0.425  -3.668  -0.183  0.00  0.00    -0.000 C 
ENDBRANCH   5  13
BRANCH   7  19
ATOM     19  C   UNL     1       3.132   0.167   0.048  0.00  0.00    +0.013 C 
ATOM     20  C   UNL     1       3.769  -0.139  -1.152  0.00  0.00    +0.001 C 
ATOM     21  C   UNL     1       3.697  -0.220   1.261  0.00  0.00    +0.001 C 
ATOM     22  C   UNL     1       4.978  -0.834  -1.139  0.00  0.00    +0.000 C 
ATOM     23  C   UNL     1       4.906  -0.915   1.274  0.00  0.00    +0.000 C 
ATOM     24  C   UNL     1       5.547  -1.222   0.074  0.00  0.00    +0.000 C 
ENDBRANCH   7  19
BRANCH   2  25
ATOM     25  C   UNL     1      -3.998   0.923  -0.135  0.00  0.00    +0.120 C 
BRANCH  25  26
ATOM     26  C   UNL     1      -4.726  -0.420  -0.179  0.00  0.00    +0.159 C 
BRANCH  26  27
ATOM     27  O   UNL     1      -4.354  -1.129  -1.361  0.00  0.00    -0.380 OA
ATOM     28  H   UNL     1      -4.536  -0.579  -2.139  0.00  0.00    +0.211 HD
ENDBRANCH  26  27
BRANCH  26  29
ATOM     29  C   UNL     1      -4.432  -1.304   1.030  0.00  0.00    +0.168 C 
BRANCH  29  30
ATOM     30  O   UNL     1      -5.175  -2.513   0.906  0.00  0.00    -0.379 OA
ATOM     31  H   UNL     1      -4.994  -3.083   1.671  0.00  0.00    +0.211 HD
ENDBRANCH  29  30
ENDBRANCH  26  29
ENDBRANCH  25  26
ENDBRANCH   2  25
TORSDOF 7
