REMARK  Name = 10477723
REMARK  8 active torsions:
REMARK  status: ('A' for Active; 'I' for Inactive)
REMARK    1  A    between atoms: C_1  and  C_9
REMARK    2  A    between atoms: C_2  and  N_24
REMARK    3  A    between atoms: N_8  and  C_13
REMARK    4  A    between atoms: C_11  and  C_21
REMARK    5  A    between atoms: C_12  and  C_20
REMARK    6  A    between atoms: C_21  and  C_22
REMARK    7  A    between atoms: N_24  and  C_26
REMARK    8  A    between atoms: C_26  and  C_29
REMARK                            x       y       z     vdW  Elec       q    Type
REMARK                         _______ _______ _______ _____ _____    ______ ____
ROOT
ATOM      1  C   UNL     1      -2.247  -2.551  -0.427  0.00  0.00    +0.067 C 
ATOM      2  C   UNL     1      -3.246  -1.715   0.104  0.00  0.00    +0.049 C 
ATOM      3  C   UNL     1      -2.399  -3.938  -0.422  0.00  0.00    +0.006 C 
ATOM      4  C   UNL     1      -4.402  -2.312   0.639  0.00  0.00    +0.014 C 
ATOM      5  C   UNL     1      -3.552  -4.511   0.114  0.00  0.00    +0.000 C 
ATOM      6  C   UNL     1      -4.554  -3.698   0.644  0.00  0.00    +0.001 C 
ENDROOT
BRANCH   1   9
ATOM      7  O   UNL     1      -1.012  -1.681  -2.196  0.00  0.00    -0.270 OA
ATOM      8  N   UNL     1       0.032  -1.803  -0.098  0.00  0.00    -0.280 N 
ATOM      9  C   UNL     1      -1.030  -1.984  -0.993  0.00  0.00    +0.251 C 
ATOM     10  H   UNL     1      -0.134  -2.093   0.828  0.00  0.00    +0.155 HD
BRANCH   8  13
ATOM     11  C   UNL     1       3.819  -0.189  -0.851  0.00  0.00    -0.018 C 
ATOM     12  C   UNL     1       3.490  -0.628   0.432  0.00  0.00    +0.069 C 
ATOM     13  C   UNL     1       1.314  -1.257  -0.352  0.00  0.00    +0.050 C 
ATOM     14  C   UNL     1       2.885  -0.288  -1.882  0.00  0.00    -0.003 C 
ATOM     15  C   UNL     1       2.228  -1.166   0.683  0.00  0.00    +0.018 C 
ATOM     16  C   UNL     1       1.623  -0.826  -1.631  0.00  0.00    +0.014 C 
BRANCH  12  20
ATOM     17  F   UNL     1       3.995  -1.005   2.740  0.00  0.00    -0.166 F 
ATOM     18  F   UNL     1       5.625  -1.230   1.327  0.00  0.00    -0.166 F 
ATOM     19  F   UNL     1       4.864   0.752   1.797  0.00  0.00    -0.166 F 
ATOM     20  C   UNL     1       4.474  -0.532   1.552  0.00  0.00    +0.418 C 
ENDBRANCH  12  20
BRANCH  11  21
ATOM     21  C   UNL     1       5.164   0.390  -1.143  0.00  0.00    +0.026 C 
BRANCH  21  22
ATOM     22  C   UNL     1       5.197   1.911  -0.939  0.00  0.00    +0.005 C 
ATOM     23  C   UNL     1       6.577   2.489  -1.206  0.00  0.00    +0.000 C 
ENDBRANCH  21  22
ENDBRANCH  11  21
ENDBRANCH   8  13
ENDBRANCH   1   9
BRANCH   2  24
ATOM     24  N   UNL     1      -3.114  -0.332   0.109  0.00  0.00    -0.329 N 
ATOM     25  H   UNL     1      -2.294   0.056  -0.273  0.00  0.00    +0.147 HD
BRANCH  24  26
ATOM     26  C   UNL     1      -4.103   0.567   0.637  0.00  0.00    +0.116 C 
BRANCH  26  29
ATOM     27  O   UNL     1      -2.382   5.798  -0.109  0.00  0.00    -0.270 OA
ATOM     28  N   UNL     1      -2.470   3.906   1.214  0.00  0.00    -0.280 N 
ATOM     29  C   UNL     1      -3.618   1.973   0.480  0.00  0.00    +0.012 C 
ATOM     30  C   UNL     1      -2.891   2.613   1.408  0.00  0.00    +0.061 C 
ATOM     31  C   UNL     1      -3.956   2.673  -0.743  0.00  0.00    +0.003 C 
ATOM     32  C   UNL     1      -3.560   3.934  -0.960  0.00  0.00    +0.058 C 
ATOM     33  C   UNL     1      -2.752   4.641   0.075  0.00  0.00    +0.250 C 
ATOM     34  H   UNL     1      -1.938   4.333   1.924  0.00  0.00    +0.155 HD
ENDBRANCH  26  29
ENDBRANCH  24  26
ENDBRANCH   2  24
TORSDOF 8
