REMARK  Name = 10822243
REMARK  3 active torsions:
REMARK  status: ('A' for Active; 'I' for Inactive)
REMARK    1  A    between atoms: CA_2  and  C_16
REMARK    2  A    between atoms: C_9  and  N_15
REMARK    3  A    between atoms: C_16  and  O_17
REMARK                            x       y       z     vdW  Elec       q    Type
REMARK                         _______ _______ _______ _____ _____    ______ ____
ROOT
ATOM      1  N   UNL     1      -2.353   1.527  -0.403  0.00  0.00    +0.390 N 
ATOM      2  CA  UNL     1      -2.848   0.302   0.234  0.00  0.00    -0.027 C 
ATOM      3  C   UNL     1      -1.997  -0.895  -0.221  0.00  0.00    +0.007 C 
ATOM      4  C   UNL     1      -0.516  -0.627  -0.116  0.00  0.00    -0.030 C 
ATOM      5  C   UNL     1      -0.039   0.692  -0.019  0.00  0.00    -0.046 C 
ATOM      6  C   UNL     1      -1.002   1.849   0.070  0.00  0.00    -0.054 C 
ATOM      7  C   UNL     1       0.394  -1.691  -0.173  0.00  0.00    -0.003 C 
ATOM      8  C   UNL     1       1.341   0.923   0.057  0.00  0.00    +0.017 C 
ATOM      9  C   UNL     1       2.239  -0.143   0.009  0.00  0.00    +0.142 C 
ATOM     10  C   UNL     1       1.766  -1.448  -0.108  0.00  0.00    +0.024 C 
ATOM     11  H1  UNL     1      -2.980   2.299  -0.177  0.00  0.00    -0.084 HD
ATOM     12  H2  UNL     1      -2.320   1.381  -1.412  0.00  0.00    -0.084 HD
ENDROOT
BRANCH   9  15
ATOM     13  O   UNL     1       4.426  -0.871   0.039  0.00  0.00    -0.126 OA
ATOM     14  O   UNL     1       4.041   1.285   0.187  0.00  0.00    -0.126 OA
ATOM     15  N   UNL     1       3.635   0.102   0.082  0.00  0.00    +0.058 N 
ENDBRANCH   9  15
BRANCH   2  16
ATOM     16  C   UNL     1      -4.315   0.089  -0.136  0.00  0.00    +0.116 C 
BRANCH  16  17
ATOM     17  O   UNL     1      -4.770  -1.092   0.497  0.00  0.00    -0.384 OA
ATOM     18  H   UNL     1      -5.702  -1.241   0.271  0.00  0.00    +0.210 HD
ENDBRANCH  16  17
ENDBRANCH   2  16
TORSDOF 3
