REMARK  Name = 16122526
REMARK  10 active torsions:
REMARK  status: ('A' for Active; 'I' for Inactive)
REMARK    1  A    between atoms: S_1  and  C_4
REMARK    2  A    between atoms: S_1  and  N_15
REMARK    3  A    between atoms: C_9  and  O_10
REMARK    4  A    between atoms: O_10  and  C_14
REMARK    5  A    between atoms: N_15  and  C_17
REMARK    6  A    between atoms: C_17  and  C_18
REMARK    7  A    between atoms: C_18  and  O_19
REMARK    8  A    between atoms: O_19  and  P_20
REMARK    9  A    between atoms: P_20  and  O_22
REMARK   10  A    between atoms: P_20  and  O_24
REMARK                            x       y       z     vdW  Elec       q    Type
REMARK                         _______ _______ _______ _____ _____    ______ ____
ROOT
ATOM      1  S   UNL     1       0.777   2.075   0.117  0.00  0.00    +0.060 S 
ATOM      2  O   UNL     1       0.691   3.049   1.196  0.00  0.00    -0.153 OA
ATOM      3  O   UNL     1       1.297   2.490  -1.180  0.00  0.00    -0.153 OA
ENDROOT
BRANCH   1   4
ATOM      4  C   UNL     1      -0.813   1.388  -0.110  0.00  0.00    +0.122 C 
ATOM      5  C   UNL     1      -1.729   1.390   0.942  0.00  0.00    +0.023 C 
ATOM      6  C   UNL     1      -1.167   0.838  -1.342  0.00  0.00    +0.023 C 
ATOM      7  C   UNL     1      -2.999   0.842   0.762  0.00  0.00    +0.039 C 
ATOM      8  C   UNL     1      -2.437   0.290  -1.522  0.00  0.00    +0.039 C 
ATOM      9  C   UNL     1      -3.353   0.292  -0.470  0.00  0.00    +0.147 C 
BRANCH   9  10
ATOM     10  O   UNL     1      -4.592  -0.243  -0.645  0.00  0.00    -0.404 OA
BRANCH  10  14
ATOM     11  F   UNL     1      -3.911  -2.070   0.549  0.00  0.00    -0.133 F 
ATOM     12  F   UNL     1      -5.822  -2.131  -0.509  0.00  0.00    -0.133 F 
ATOM     13  F   UNL     1      -5.633  -0.896   1.284  0.00  0.00    -0.133 F 
ATOM     14  C   UNL     1      -4.981  -1.331   0.185  0.00  0.00    +0.575 C 
ENDBRANCH  10  14
ENDBRANCH   9  10
ENDBRANCH   1   4
BRANCH   1  15
ATOM     15  N   UNL     1       1.683   0.732   0.663  0.00  0.00    -0.177 NA
ATOM     16  H   UNL     1       1.259   0.428   1.540  0.00  0.00    +0.149 HD
BRANCH  15  17
ATOM     17  C   UNL     1       1.808  -0.461  -0.185  0.00  0.00    +0.124 C 
BRANCH  17  18
ATOM     18  C   UNL     1       3.103  -1.206   0.088  0.00  0.00    +0.172 C 
BRANCH  18  19
ATOM     19  O   UNL     1       4.206  -0.359  -0.210  0.00  0.00    -0.272 OA
BRANCH  19  20
ATOM     20  P   UNL     1       5.699  -0.941   0.006  0.00  0.00    +0.473 P 
ATOM     21  O   UNL     1       6.807   0.014  -0.330  0.00  0.00    -0.227 OA
BRANCH  20  22
ATOM     22  O   UNL     1       5.699  -2.323  -0.834  0.00  0.00    -0.303 OA
ATOM     23  H   UNL     1       4.952  -2.873  -0.551  0.00  0.00    +0.222 HD
ENDBRANCH  20  22
BRANCH  20  24
ATOM     24  O   UNL     1       5.670  -1.440   1.544  0.00  0.00    -0.303 OA
ATOM     25  H   UNL     1       4.926  -2.049   1.672  0.00  0.00    +0.222 HD
ENDBRANCH  20  24
ENDBRANCH  19  20
ENDBRANCH  18  19
ENDBRANCH  17  18
ENDBRANCH  15  17
ENDBRANCH   1  15
TORSDOF 10
