REMARK  Name = 44631903
REMARK  1 active torsions:
REMARK  status: ('A' for Active; 'I' for Inactive)
REMARK    1  A    between atoms: C_19  and  C_24
REMARK                            x       y       z     vdW  Elec       q    Type
REMARK                         _______ _______ _______ _____ _____    ______ ____
ROOT
ATOM      1  S   UNL     1       3.618   2.213  -0.126  0.00  0.00    -0.081 S 
ATOM      2  O   UNL     1       6.234   1.081   0.504  0.00  0.00    -0.270 OA
ATOM      3  N   UNL     1       2.718  -1.533   0.286  0.00  0.00    -0.331 N 
ATOM      4  N   UNL     1       5.791  -1.092   0.181  0.00  0.00    -0.300 N 
ATOM      5  N   UNL     1      -2.133   1.143  -0.245  0.00  0.00    -0.406 NA
ATOM      6  C   UNL     1       5.024  -2.292  -0.114  0.00  0.00    +0.091 C 
ATOM      7  C   UNL     1       2.780  -0.180   0.181  0.00  0.00    +0.052 A 
ATOM      8  C   UNL     1       1.571   0.640   0.028  0.00  0.00    +0.008 A 
ATOM      9  C   UNL     1       3.783  -2.385   0.759  0.00  0.00    +0.107 C 
ATOM     10  C   UNL     1       3.954   0.557   0.161  0.00  0.00    +0.096 A 
ATOM     11  C   UNL     1       1.932   1.964  -0.232  0.00  0.00    +0.028 A 
ATOM     12  C   UNL     1       0.143   0.354   0.079  0.00  0.00    +0.098 C 
ATOM     13  C   UNL     1       5.370   0.221   0.295  0.00  0.00    +0.253 C 
ATOM     14  C   UNL     1      -0.805   1.359  -0.243  0.00  0.00    +0.117 C 
ATOM     15  C   UNL     1       4.764  -2.443  -1.611  0.00  0.00    +0.023 C 
ATOM     16  C   UNL     1       0.987   2.958  -0.528  0.00  0.00    +0.009 C 
ATOM     17  C   UNL     1      -0.363   2.627  -0.550  0.00  0.00    +0.029 C 
ATOM     18  C   UNL     1      -0.397  -0.893   0.470  0.00  0.00    -0.012 C 
ATOM     19  C   UNL     1      -2.587  -0.077   0.104  0.00  0.00    +0.132 C 
ATOM     20  C   UNL     1      -1.769  -1.117   0.477  0.00  0.00    +0.028 C 
ATOM     21  H   UNL     1       1.877  -1.969   0.016  0.00  0.00    +0.147 HD
ATOM     22  H   UNL     1       6.755  -1.235   0.321  0.00  0.00    +0.150 HD
ENDROOT
BRANCH  19  24
ATOM     23  N   UNL     1      -5.966  -1.364  -0.799  0.00  0.00    -0.248 NA
ATOM     24  C   UNL     1      -4.023  -0.226   0.080  0.00  0.00    +0.049 C 
ATOM     25  C   UNL     1      -4.840   0.578   0.866  0.00  0.00    +0.005 C 
ATOM     26  C   UNL     1      -4.630  -1.173  -0.729  0.00  0.00    +0.101 C 
ATOM     27  C   UNL     1      -6.220   0.412   0.821  0.00  0.00    +0.015 C 
ATOM     28  C   UNL     1      -6.729  -0.564  -0.021  0.00  0.00    +0.059 C 
ATOM     29  C   UNL     1      -8.205  -0.769  -0.094  0.00  0.00    +0.052 C 
ENDBRANCH  19  24
TORSDOF 1
