REMARK  Name = 44129624
REMARK  6 active torsions:
REMARK  status: ('A' for Active; 'I' for Inactive)
REMARK    1  A    between atoms: C_1  and  O_20
REMARK    2  A    between atoms: C_4  and  C_8
REMARK    3  A    between atoms: C_8  and  C_9
REMARK    4  A    between atoms: C_10  and  C_16
REMARK    5  A    between atoms: O_20  and  C_21
REMARK    6  A    between atoms: C_21  and  C_23
REMARK                            x       y       z     vdW  Elec       q    Type
REMARK                         _______ _______ _______ _____ _____    ______ ____
ROOT
ATOM      1  C   UNL     1      -3.129   1.261   0.122  0.00  0.00    +0.138 C 
ATOM      2  C   UNL     1      -2.242   0.993   1.164  0.00  0.00    +0.037 C 
ATOM      3  C   UNL     1      -2.685   1.933  -1.017  0.00  0.00    +0.037 C 
ATOM      4  C   UNL     1      -0.466   2.068  -0.071  0.00  0.00    +0.039 C 
ATOM      5  C   UNL     1      -0.911   1.396   1.068  0.00  0.00    +0.006 C 
ATOM      6  C   UNL     1      -1.353   2.336  -1.113  0.00  0.00    +0.006 C 
ENDROOT
BRANCH   4   8
ATOM      7  O   UNL     1       1.206   3.686  -0.304  0.00  0.00    -0.287 OA
ATOM      8  C   UNL     1       0.923   2.486  -0.172  0.00  0.00    +0.196 C 
BRANCH   8   9
ATOM      9  C   UNL     1       2.058   1.515  -0.123  0.00  0.00    +0.039 C 
ATOM     10  C   UNL     1       4.176  -0.298  -0.031  0.00  0.00    +0.001 C 
ATOM     11  C   UNL     1       3.292   1.911   0.392  0.00  0.00    +0.003 C 
ATOM     12  C   UNL     1       1.883   0.213  -0.593  0.00  0.00    +0.003 C 
ATOM     13  C   UNL     1       4.351   1.004   0.438  0.00  0.00    +0.000 C 
ATOM     14  C   UNL     1       2.942  -0.693  -0.547  0.00  0.00    +0.000 C 
BRANCH  10  16
ATOM     15  S   UNL     1       6.757  -3.215  -0.647  0.00  0.00    -0.086 S 
ATOM     16  C   UNL     1       5.267  -1.230   0.018  0.00  0.00    +0.007 C 
ATOM     17  C   UNL     1       6.329  -1.262   0.967  0.00  0.00    +0.007 C 
ATOM     18  C   UNL     1       5.377  -2.237  -0.916  0.00  0.00    +0.035 C 
ATOM     19  C   UNL     1       7.211  -2.292   0.722  0.00  0.00    +0.035 C 
ENDBRANCH  10  16
ENDBRANCH   8   9
ENDBRANCH   4   8
BRANCH   1  20
ATOM     20  O   UNL     1      -4.440   0.865   0.216  0.00  0.00    -0.478 OA
BRANCH  20  21
ATOM     21  C   UNL     1      -4.705  -0.299   0.981  0.00  0.00    +0.184 C 
BRANCH  21  23
ATOM     22  N   UNL     1      -6.216  -2.263   1.092  0.00  0.00    +0.388 N 
ATOM     23  C   UNL     1      -5.938  -0.987   0.416  0.00  0.00    -0.017 C 
ATOM     24  C   UNL     1      -5.776  -1.395  -1.040  0.00  0.00    -0.020 C 
ATOM     25  C   UNL     1      -6.771  -2.532  -1.217  0.00  0.00    -0.025 C 
ATOM     26  C   UNL     1      -7.142  -2.963   0.195  0.00  0.00    -0.082 C 
ATOM     27  H   UNL     1      -6.649  -2.101   2.001  0.00  0.00    -0.084 HD
ATOM     28  H   UNL     1      -5.367  -2.800   1.267  0.00  0.00    -0.084 HD
ENDBRANCH  21  23
ENDBRANCH  20  21
ENDBRANCH   1  20
TORSDOF 6
