REMARK  Name = 9823454
REMARK  7 active torsions:
REMARK  status: ('A' for Active; 'I' for Inactive)
REMARK    1  A    between atoms: C_1  and  C_4
REMARK    2  A    between atoms: C_1  and  N_8
REMARK    3  A    between atoms: C_1  and  C_23
REMARK    4  A    between atoms: N_3  and  O_6
REMARK    5  A    between atoms: N_8  and  S_10
REMARK    6  A    between atoms: S_10  and  C_13
REMARK    7  A    between atoms: C_23  and  C_24
REMARK                            x       y       z     vdW  Elec       q    Type
REMARK                         _______ _______ _______ _____ _____    ______ ____
ROOT
ATOM      1  C   UNL     1       2.749   0.748   0.102  0.00  0.00    +0.158 C 
ENDROOT
BRANCH   1   4
ATOM      2  O   UNL     1       5.004   1.289  -0.579  0.00  0.00    -0.272 OA
ATOM      3  N   UNL     1       4.679   0.197   1.429  0.00  0.00    -0.196 N 
ATOM      4  C   UNL     1       4.260   0.787   0.262  0.00  0.00    +0.260 C 
ATOM      5  H   UNL     1       4.046  -0.193   2.075  0.00  0.00    +0.182 HD
BRANCH   3   6
ATOM      6  O   UNL     1       6.064   0.184   1.645  0.00  0.00    -0.295 OA
ATOM      7  H   UNL     1       6.255  -0.252   2.490  0.00  0.00    +0.241 HD
ENDBRANCH   3   6
ENDBRANCH   1   4
BRANCH   1   8
ATOM      8  N   UNL     1       2.497  -0.081  -1.101  0.00  0.00    -0.172 NA
ATOM      9  H   UNL     1       1.635   0.264  -1.522  0.00  0.00    +0.149 HD
BRANCH   8  10
ATOM     10  S   UNL     1       2.330  -1.764  -0.948  0.00  0.00    +0.061 S 
ATOM     11  O   UNL     1       3.008  -2.209   0.255  0.00  0.00    -0.153 OA
ATOM     12  O   UNL     1       2.631  -2.381  -2.226  0.00  0.00    -0.153 OA
BRANCH  10  13
ATOM     13  C   UNL     1       0.591  -1.936  -0.689  0.00  0.00    +0.122 C 
ATOM     14  C   UNL     1       0.094  -1.910   0.603  0.00  0.00    +0.020 C 
ATOM     15  C   UNL     1      -1.286  -2.046   0.826  0.00  0.00    +0.001 C 
ATOM     16  C   UNL     1      -0.241  -2.093  -1.780  0.00  0.00    +0.020 C 
ATOM     17  C   UNL     1      -2.153  -2.208  -0.281  0.00  0.00    +0.000 C 
ATOM     18  C   UNL     1      -1.615  -2.229  -1.577  0.00  0.00    +0.001 C 
ATOM     19  C   UNL     1      -1.824  -2.025   2.123  0.00  0.00    +0.000 C 
ATOM     20  C   UNL     1      -3.533  -2.345  -0.058  0.00  0.00    +0.000 C 
ATOM     21  C   UNL     1      -3.198  -2.162   2.326  0.00  0.00    +0.000 C 
ATOM     22  C   UNL     1      -4.050  -2.321   1.238  0.00  0.00    +0.000 C 
ENDBRANCH  10  13
ENDBRANCH   8  10
ENDBRANCH   1   8
BRANCH   1  23
ATOM     23  C   UNL     1       2.175   2.159  -0.108  0.00  0.00    +0.053 C 
BRANCH  23  24
ATOM     24  C   UNL     1       0.700   2.235   0.101  0.00  0.00    -0.020 C 
ATOM     25  C   UNL     1      -0.169   2.023  -0.970  0.00  0.00    -0.004 C 
ATOM     26  C   UNL     1      -1.560   2.091  -0.789  0.00  0.00    -0.000 C 
ATOM     27  C   UNL     1       0.191   2.517   1.365  0.00  0.00    -0.004 C 
ATOM     28  C   UNL     1      -2.077   2.378   0.497  0.00  0.00    -0.000 C 
ATOM     29  C   UNL     1      -1.188   2.588   1.563  0.00  0.00    -0.000 C 
ATOM     30  C   UNL     1      -2.448   1.881  -1.856  0.00  0.00    -0.000 C 
ATOM     31  C   UNL     1      -3.468   2.446   0.678  0.00  0.00    -0.000 C 
ATOM     32  C   UNL     1      -3.828   1.952  -1.658  0.00  0.00    -0.000 C 
ATOM     33  C   UNL     1      -4.336   2.235  -0.394  0.00  0.00    -0.000 C 
ENDBRANCH  23  24
ENDBRANCH   1  23
TORSDOF 7
