REMARK  Name = 5795340
REMARK  1 active torsions:
REMARK  status: ('A' for Active; 'I' for Inactive)
REMARK    1  A    between atoms: C_13  and  O_15
REMARK                            x       y       z     vdW  Elec       q    Type
REMARK                         _______ _______ _______ _____ _____    ______ ____
ROOT
ATOM      1 BR   UNL     1       2.390  -2.546   0.000  0.00  0.00    -0.043 Br
ATOM      2 BR   UNL     1      -4.192   0.244   0.001  0.00  0.00    -0.043 Br
ATOM      3  O   UNL     1      -0.445  -1.500   0.000  0.00  0.00    -0.420 OA
ATOM      4  O   UNL     1      -2.571  -2.289   0.000  0.00  0.00    -0.244 OA
ATOM      5  C   UNL     1      -0.016   0.895   0.000  0.00  0.00    +0.032 A 
ATOM      6  C   UNL     1      -1.474   1.140   0.000  0.00  0.00    -0.006 A 
ATOM      7  C   UNL     1       0.448  -0.417   0.000  0.00  0.00    +0.157 A 
ATOM      8  C   UNL     1       0.950   1.914   0.000  0.00  0.00    +0.006 C 
ATOM      9  C   UNL     1       1.809  -0.735   0.000  0.00  0.00    +0.103 C 
ATOM     10  C   UNL     1      -2.315   0.084   0.000  0.00  0.00    +0.107 A 
ATOM     11  C   UNL     1      -1.918   2.584  -0.001  0.00  0.00    +0.032 C 
ATOM     12  C   UNL     1       2.318   1.614   0.001  0.00  0.00    +0.037 C 
ATOM     13  C   UNL     1       2.747   0.290   0.000  0.00  0.00    +0.143 C 
ATOM     14  C   UNL     1      -1.818  -1.320   0.000  0.00  0.00    +0.352 A 
ENDROOT
BRANCH  13  15
ATOM     15  O   UNL     1       4.086   0.040  -0.001  0.00  0.00    -0.505 OA
ATOM     16  H   UNL     1       4.398  -0.844  -0.001  0.00  0.00    +0.292 HD
ENDBRANCH  13  15
TORSDOF 1
