REMARK  Name = 5828196
REMARK  4 active torsions:
REMARK  status: ('A' for Active; 'I' for Inactive)
REMARK    1  A    between atoms: C_2  and  C_15
REMARK    2  A    between atoms: C_3  and  C_10
REMARK    3  A    between atoms: C_16  and  S_21
REMARK    4  A    between atoms: S_21  and  N_24
REMARK                            x       y       z     vdW  Elec       q    Type
REMARK                         _______ _______ _______ _____ _____    ______ ____
ROOT
ATOM      1  O   UNL     1      -0.909  -0.972  -0.168  0.00  0.00    -0.453 OA
ATOM      2  C   UNL     1       0.177  -1.730   0.121  0.00  0.00    +0.145 C 
ATOM      3  C   UNL     1      -1.990  -1.786  -0.040  0.00  0.00    +0.146 C 
ATOM      4  C   UNL     1      -0.189  -3.015   0.430  0.00  0.00    +0.041 C 
ATOM      5  C   UNL     1      -1.599  -3.053   0.326  0.00  0.00    +0.041 C 
ENDROOT
BRANCH   3  10
ATOM      6  S   UNL     1      -2.755   1.260   0.435  0.00  0.00    -0.025 S 
ATOM      7  O   UNL     1      -6.024  -0.347  -0.730  0.00  0.00    -0.269 OA
ATOM      8  O   UNL     1      -3.988   3.584   0.639  0.00  0.00    -0.262 OA
ATOM      9  N   UNL     1      -5.216   1.734  -0.074  0.00  0.00    -0.243 N 
ATOM     10  C   UNL     1      -3.308  -1.327  -0.268  0.00  0.00    +0.049 C 
ATOM     11  C   UNL     1      -3.729  -0.057  -0.095  0.00  0.00    +0.090 C 
ATOM     12  C   UNL     1      -5.122   0.382  -0.345  0.00  0.00    +0.258 C 
ATOM     13  C   UNL     1      -4.091   2.401   0.353  0.00  0.00    +0.283 C 
ATOM     14  H   UNL     1      -6.071   2.210  -0.184  0.00  0.00    +0.159 HD
ENDBRANCH   3  10
BRANCH   2  15
ATOM     15  C   UNL     1       1.442  -1.044   0.041  0.00  0.00    +0.035 C 
ATOM     16  C   UNL     1       3.891   0.285  -0.111  0.00  0.00    +0.122 C 
ATOM     17  C   UNL     1       2.626  -1.728   0.318  0.00  0.00    +0.004 C 
ATOM     18  C   UNL     1       1.483   0.305  -0.311  0.00  0.00    +0.004 C 
ATOM     19  C   UNL     1       3.850  -1.064   0.241  0.00  0.00    +0.020 C 
ATOM     20  C   UNL     1       2.707   0.970  -0.387  0.00  0.00    +0.020 C 
BRANCH  16  21
ATOM     21  S   UNL     1       5.423   1.117  -0.208  0.00  0.00    +0.057 S 
ATOM     22  O   UNL     1       6.466   0.131  -0.453  0.00  0.00    -0.153 OA
ATOM     23  O   UNL     1       5.277   2.254  -1.106  0.00  0.00    -0.153 OA
BRANCH  21  24
ATOM     24  N   UNL     1       5.580   1.698   1.391  0.00  0.00    -0.203 NA
ATOM     25  H   UNL     1       6.454   2.217   1.480  0.00  0.00    +0.144 HD
ATOM     26  H   UNL     1       5.584   0.911   2.040  0.00  0.00    +0.144 HD
ENDBRANCH  21  24
ENDBRANCH  16  21
ENDBRANCH   2  15
TORSDOF 4
