REMARK  Name = 24832022
REMARK  5 active torsions:
REMARK  status: ('A' for Active; 'I' for Inactive)
REMARK    1  A    between atoms: C_1  and  C_19
REMARK    2  A    between atoms: C_2  and  C_7
REMARK    3  A    between atoms: C_8  and  C_12
REMARK    4  A    between atoms: C_19  and  N_20
REMARK    5  A    between atoms: N_20  and  N_24
REMARK                            x       y       z     vdW  Elec       q    Type
REMARK                         _______ _______ _______ _____ _____    ______ ____
ROOT
ATOM      1  C   UNL     1      -2.309  -1.581  -0.294  0.00  0.00    +0.003 C 
ATOM      2  C   UNL     1      -1.164  -2.317   0.010  0.00  0.00    +0.039 C 
ATOM      3  C   UNL     1      -3.558  -2.201  -0.291  0.00  0.00    -0.002 C 
ATOM      4  C   UNL     1      -1.268  -3.673   0.319  0.00  0.00    +0.008 C 
ATOM      5  C   UNL     1      -3.662  -3.558   0.017  0.00  0.00    -0.000 C 
ATOM      6  C   UNL     1      -2.517  -4.294   0.322  0.00  0.00    +0.001 C 
ENDROOT
BRANCH   2   7
ATOM      7  C   UNL     1       0.129  -1.704   0.013  0.00  0.00    -0.058 C 
ATOM      8  C   UNL     1       1.215  -1.188   0.016  0.00  0.00    -0.031 C 
BRANCH   8  12
ATOM      9  N   UNL     1       2.507   0.747   0.289  0.00  0.00    -0.324 NA
ATOM     10  N   UNL     1       4.906   0.726   0.056  0.00  0.00    -0.337 NA
ATOM     11  N   UNL     1       3.762   2.709   0.572  0.00  0.00    -0.283 N 
ATOM     12  C   UNL     1       2.507  -0.575   0.018  0.00  0.00    +0.171 C 
ATOM     13  C   UNL     1       4.832  -0.595  -0.207  0.00  0.00    +0.108 C 
ATOM     14  C   UNL     1       3.649  -1.305  -0.240  0.00  0.00    +0.124 C 
ATOM     15  C   UNL     1       6.120  -1.299  -0.474  0.00  0.00    +0.063 C 
ATOM     16  C   UNL     1       3.723   1.326   0.292  0.00  0.00    +0.196 C 
ATOM     17  H   UNL     1       2.927   3.199   0.751  0.00  0.00    +0.156 HD
ATOM     18  H   UNL     1       4.624   3.184   0.587  0.00  0.00    +0.156 HD
ENDBRANCH   8  12
ENDBRANCH   2   7
BRANCH   1  19
ATOM     19  C   UNL     1      -2.236  -0.126  -0.630  0.00  0.00    +0.115 C 
BRANCH  19  20
ATOM     20  N   UNL     1      -2.029   0.724   0.567  0.00  0.00    -0.215 NA
ATOM     21  H   UNL     1      -1.909   0.395   1.487  0.00  0.00    +0.146 HD
BRANCH  20  24
ATOM     22  O   UNL     1      -2.774   4.102  -0.334  0.00  0.00    -0.404 OA
ATOM     23  O   UNL     1      -4.323   2.512   0.288  0.00  0.00    -0.224 OA
ATOM     24  N   UNL     1      -2.032   2.038   0.187  0.00  0.00    -0.163 N 
ATOM     25  C   UNL     1      -0.935   2.750  -0.134  0.00  0.00    +0.129 C 
ATOM     26  C   UNL     1      -3.158   2.824   0.076  0.00  0.00    +0.427 C 
ATOM     27  C   UNL     1      -1.386   3.959  -0.437  0.00  0.00    +0.202 C 
ENDBRANCH  20  24
ENDBRANCH  19  20
ENDBRANCH   1  19
TORSDOF 5
