REMARK  Name = 16122632
REMARK  4 active torsions:
REMARK  status: ('A' for Active; 'I' for Inactive)
REMARK    1  A    between atoms: C_1  and  C_18
REMARK    2  A    between atoms: C_2  and  C_11
REMARK    3  A    between atoms: C_18  and  C_19
REMARK    4  A    between atoms: C_18  and  N_25
REMARK                            x       y       z     vdW  Elec       q    Type
REMARK                         _______ _______ _______ _____ _____    ______ ____
ROOT
ATOM      1  C   UNL     1      -1.579   1.257   0.074  0.00  0.00    -0.039 C 
ATOM      2  C   UNL     1       1.178   0.835   0.039  0.00  0.00    +0.015 C 
ATOM      3  C   UNL     1      -0.990   0.584  -0.996  0.00  0.00    -0.006 C 
ATOM      4  C   UNL     1      -0.790   1.719   1.127  0.00  0.00    -0.006 C 
ATOM      5  C   UNL     1       0.388   0.373  -1.014  0.00  0.00    +0.001 C 
ATOM      6  C   UNL     1       0.589   1.508   1.110  0.00  0.00    +0.001 C 
ENDROOT
BRANCH   2  11
ATOM      7  N   UNL     1       2.702  -1.911  -0.053  0.00  0.00    -0.271 NA
ATOM      8  N   UNL     1       3.414   1.695   0.045  0.00  0.00    -0.247 NA
ATOM      9  N   UNL     1       4.923  -2.095  -0.076  0.00  0.00    -0.307 N 
ATOM     10  N   UNL     1       5.405   0.286  -0.011  0.00  0.00    -0.232 NA
ATOM     11  C   UNL     1       2.597   0.619   0.021  0.00  0.00    +0.077 C 
ATOM     12  C   UNL     1       3.180  -0.632  -0.020  0.00  0.00    +0.150 C 
ATOM     13  C   UNL     1       4.561  -0.773  -0.035  0.00  0.00    +0.123 C 
ATOM     14  C   UNL     1       3.783  -2.752  -0.086  0.00  0.00    +0.163 C 
ATOM     15  C   UNL     1       4.749   1.466   0.028  0.00  0.00    +0.251 C 
ATOM     16  H   UNL     1       1.754  -2.179  -0.053  0.00  0.00    +0.125 HD
ATOM     17  H   UNL     1       5.833  -2.470  -0.094  0.00  0.00    +0.149 HD
ENDBRANCH   2  11
BRANCH   1  18
ATOM     18  C   UNL     1      -3.053   1.483   0.093  0.00  0.00    -0.019 C 
BRANCH  18  19
ATOM     19  C   UNL     1      -3.859   0.179   0.109  0.00  0.00    -0.039 C 
ATOM     20  C   UNL     1      -4.065  -0.498   1.311  0.00  0.00    -0.006 C 
ATOM     21  C   UNL     1      -4.386  -0.331  -1.077  0.00  0.00    -0.006 C 
ATOM     22  C   UNL     1      -4.797  -1.686   1.326  0.00  0.00    -0.000 C 
ATOM     23  C   UNL     1      -5.118  -1.518  -1.062  0.00  0.00    -0.000 C 
ATOM     24  C   UNL     1      -5.324  -2.195   0.139  0.00  0.00    -0.000 C 
ENDBRANCH  18  19
BRANCH  18  25
ATOM     25  N   UNL     1      -3.507   2.388  -0.992  0.00  0.00    +0.387 N 
ATOM     26  H   UNL     1      -2.952   3.244  -0.975  0.00  0.00    -0.088 HD
ATOM     27  H   UNL     1      -4.491   2.618  -0.854  0.00  0.00    -0.088 HD
ATOM     28  H   UNL     1      -3.389   1.924  -1.893  0.00  0.00    -0.088 HD
ENDBRANCH  18  25
ENDBRANCH   1  18
TORSDOF 4
