REMARK  Name = 54727985
REMARK  7 active torsions:
REMARK  status: ('A' for Active; 'I' for Inactive)
REMARK    1  A    between atoms: C_1  and  C_7
REMARK    2  A    between atoms: C_4  and  N_17
REMARK    3  A    between atoms: C_10  and  O_13
REMARK    4  A    between atoms: O_13  and  C_14
REMARK    5  A    between atoms: C_18  and  C_20
REMARK    6  A    between atoms: C_20  and  C_26
REMARK    7  A    between atoms: C_21  and  O_23
REMARK                            x       y       z     vdW  Elec       q    Type
REMARK                         _______ _______ _______ _____ _____    ______ ____
ROOT
ATOM      1  C   UNL     1      -1.358  -0.342   0.026  0.00  0.00    +0.000 C 
ATOM      2  C   UNL     1      -0.445  -1.247   0.567  0.00  0.00    +0.001 C 
ATOM      3  C   UNL     1      -0.904   0.835  -0.569  0.00  0.00    +0.001 C 
ATOM      4  C   UNL     1       1.376   0.201  -0.084  0.00  0.00    +0.051 C 
ATOM      5  C   UNL     1       0.922  -0.976   0.512  0.00  0.00    +0.015 C 
ATOM      6  C   UNL     1       0.463   1.106  -0.625  0.00  0.00    +0.015 C 
ENDROOT
BRANCH   1   7
ATOM      7  C   UNL     1      -2.776  -0.623   0.084  0.00  0.00    +0.003 C 
ATOM      8  C   UNL     1      -3.694   0.425   0.153  0.00  0.00    +0.037 C 
ATOM      9  C   UNL     1      -3.226  -1.944   0.071  0.00  0.00    +0.000 C 
ATOM     10  C   UNL     1      -5.061   0.153   0.209  0.00  0.00    +0.139 C 
ATOM     11  C   UNL     1      -4.593  -2.216   0.127  0.00  0.00    +0.003 C 
ATOM     12  C   UNL     1      -5.510  -1.167   0.196  0.00  0.00    +0.037 C 
BRANCH  10  13
ATOM     13  O   UNL     1      -5.955   1.177   0.276  0.00  0.00    -0.475 OA
BRANCH  13  14
ATOM     14  C   UNL     1      -7.239   0.956  -0.306  0.00  0.00    +0.206 C 
ATOM     15  C   UNL     1      -7.794   2.277  -0.792  0.00  0.00    +0.051 C 
ENDBRANCH  13  14
ENDBRANCH  10  13
ENDBRANCH   1   7
BRANCH   4  17
ATOM     16  O   UNL     1       3.710  -1.410   0.882  0.00  0.00    -0.269 OA
ATOM     17  N   UNL     1       2.764   0.477  -0.140  0.00  0.00    -0.280 N 
ATOM     18  C   UNL     1       3.802  -0.319   0.329  0.00  0.00    +0.262 C 
ATOM     19  H   UNL     1       3.023   1.329  -0.559  0.00  0.00    +0.155 HD
BRANCH  18  20
ATOM     20  C   UNL     1       5.154   0.304   0.093  0.00  0.00    +0.151 C 
ATOM     21  C   UNL     1       6.057  -0.366  -0.651  0.00  0.00    +0.126 C 
ATOM     22  C   UNL     1       7.450   0.107  -0.964  0.00  0.00    +0.072 C 
BRANCH  21  23
ATOM     23  O   UNL     1       5.740  -1.587  -1.227  0.00  0.00    -0.509 OA
ATOM     24  H   UNL     1       4.894  -1.965  -1.089  0.00  0.00    +0.292 HD
ENDBRANCH  21  23
BRANCH  20  26
ATOM     25  N   UNL     1       5.674   2.606   1.157  0.00  0.00    -0.191 NA
ATOM     26  C   UNL     1       5.446   1.574   0.677  0.00  0.00    +0.108 C 
ENDBRANCH  20  26
ENDBRANCH  18  20
ENDBRANCH   4  17
TORSDOF 7
