REMARK  Name = 445460
REMARK  6 active torsions:
REMARK  status: ('A' for Active; 'I' for Inactive)
REMARK    1  A    between atoms: C_1  and  C_14
REMARK    2  A    between atoms: C_1  and  C_18
REMARK    3  A    between atoms: C_1  and  O_31
REMARK    4  A    between atoms: N_17  and  C_21
REMARK    5  A    between atoms: C_26  and  C_28
REMARK    6  A    between atoms: C_28  and  O_29
REMARK                            x       y       z     vdW  Elec       q    Type
REMARK                         _______ _______ _______ _____ _____    ______ ____
ROOT
ATOM      1  C   UNL     1      -0.456   2.698   0.731  0.00  0.00    +0.210 C 
ENDROOT
BRANCH   1  14
ATOM      2  C   UNL     1      -3.333  -0.494  -1.899  0.00  0.00    +0.019 C 
ATOM      3  C   UNL     1      -4.452  -1.571   0.738  0.00  0.00    +0.019 C 
ATOM      4  C   UNL     1      -4.621  -1.339  -1.786  0.00  0.00    +0.004 C 
ATOM      5  C   UNL     1      -4.566  -2.307  -0.616  0.00  0.00    +0.004 C 
ATOM      6  C   UNL     1      -2.895   0.055  -0.535  0.00  0.00    -0.027 C 
ATOM      7  C   UNL     1      -3.408  -0.450   0.686  0.00  0.00    -0.027 C 
ATOM      8  C   UNL     1      -2.188  -1.356  -2.476  0.00  0.00    +0.004 C 
ATOM      9  C   UNL     1      -3.641   0.640  -2.905  0.00  0.00    +0.004 C 
ATOM     10  C   UNL     1      -5.818  -0.959   1.120  0.00  0.00    +0.004 C 
ATOM     11  C   UNL     1      -4.092  -2.647   1.790  0.00  0.00    +0.004 C 
ATOM     12  C   UNL     1      -1.919   1.075  -0.485  0.00  0.00    -0.006 C 
ATOM     13  C   UNL     1      -2.964   0.133   1.895  0.00  0.00    -0.005 C 
ATOM     14  C   UNL     1      -1.484   1.618   0.722  0.00  0.00    +0.013 C 
ATOM     15  C   UNL     1      -2.014   1.151   1.914  0.00  0.00    -0.002 C 
ENDBRANCH   1  14
BRANCH   1  18
ATOM     16  O   UNL     1       1.255   2.816  -0.969  0.00  0.00    -0.272 OA
ATOM     17  N   UNL     1       1.450   1.215   0.740  0.00  0.00    -0.280 N 
ATOM     18  C   UNL     1       0.849   2.264   0.051  0.00  0.00    +0.257 C 
ATOM     19  H   UNL     1       0.980   0.898   1.544  0.00  0.00    +0.155 HD
BRANCH  17  21
ATOM     20  F   UNL     1       2.409  -0.866   2.308  0.00  0.00    -0.203 F 
ATOM     21  C   UNL     1       2.658   0.552   0.419  0.00  0.00    +0.078 C 
ATOM     22  C   UNL     1       3.103  -0.480   1.228  0.00  0.00    +0.154 C 
ATOM     23  C   UNL     1       3.372   0.953  -0.698  0.00  0.00    +0.017 C 
ATOM     24  C   UNL     1       4.295  -1.131   0.910  0.00  0.00    +0.037 C 
ATOM     25  C   UNL     1       4.565   0.303  -1.016  0.00  0.00    +0.008 C 
ATOM     26  C   UNL     1       5.026  -0.739  -0.211  0.00  0.00    +0.078 C 
BRANCH  26  28
ATOM     27  O   UNL     1       6.992  -1.156  -1.510  0.00  0.00    -0.245 OA
ATOM     28  C   UNL     1       6.269  -1.419  -0.543  0.00  0.00    +0.338 C 
BRANCH  28  29
ATOM     29  O   UNL     1       6.574  -2.407   0.342  0.00  0.00    -0.477 OA
ATOM     30  H   UNL     1       6.004  -2.581   1.065  0.00  0.00    +0.295 HD
ENDBRANCH  28  29
ENDBRANCH  26  28
ENDBRANCH  17  21
ENDBRANCH   1  18
BRANCH   1  31
ATOM     31  O   UNL     1      -0.966   3.847   0.055  0.00  0.00    -0.372 OA
ATOM     32  H   UNL     1      -1.792   4.130   0.477  0.00  0.00    +0.211 HD
ENDBRANCH   1  31
TORSDOF 6
