REMARK  Name = 2740174
REMARK  4 active torsions:
REMARK  status: ('A' for Active; 'I' for Inactive)
REMARK    1  A    between atoms: N_2  and  C_17
REMARK    2  A    between atoms: C_8  and  C_12
REMARK    3  A    between atoms: C_17  and  C_18
REMARK    4  A    between atoms: C_18  and  C_19
REMARK                            x       y       z     vdW  Elec       q    Type
REMARK                         _______ _______ _______ _____ _____    ______ ____
ROOT
ATOM      1 CL   UNL     1      -0.926   4.239   0.003  0.00  0.00    -0.099 Cl
ATOM      2  N   UNL     1       0.745   1.745  -0.037  0.00  0.00    -0.309 N 
ATOM      3  N   UNL     1      -1.080   0.246  -0.020  0.00  0.00    -0.326 NA
ATOM      4  N   UNL     1      -3.345   1.069   0.018  0.00  0.00    -0.346 NA
ATOM      5  C   UNL     1      -0.603   1.534  -0.019  0.00  0.00    +0.191 C 
ATOM      6  C   UNL     1      -1.501   2.616   0.001  0.00  0.00    +0.195 C 
ATOM      7  C   UNL     1      -2.849   2.324   0.019  0.00  0.00    +0.122 C 
ATOM      8  C   UNL     1      -2.418   0.092  -0.002  0.00  0.00    +0.157 C 
ATOM      9  C   UNL     1      -3.876   3.410   0.041  0.00  0.00    +0.064 C 
ATOM     10  H   UNL     1       1.063   2.676  -0.036  0.00  0.00    +0.149 HD
ENDROOT
BRANCH   8  12
ATOM     11  N   UNL     1      -4.258  -1.383   0.015  0.00  0.00    -0.232 NA
ATOM     12  C   UNL     1      -2.910  -1.261  -0.004  0.00  0.00    +0.166 C 
ATOM     13  C   UNL     1      -2.038  -2.340  -0.024  0.00  0.00    +0.031 C 
ATOM     14  C   UNL     1      -2.582  -3.620  -0.025  0.00  0.00    +0.004 C 
ATOM     15  C   UNL     1      -4.750  -2.642   0.014  0.00  0.00    +0.100 C 
ATOM     16  C   UNL     1      -3.963  -3.782  -0.005  0.00  0.00    +0.021 C 
ENDBRANCH   8  12
BRANCH   2  17
ATOM     17  C   UNL     1       1.738   0.696  -0.058  0.00  0.00    +0.094 C 
BRANCH  17  18
ATOM     18  C   UNL     1       3.154   1.286  -0.016  0.00  0.00    +0.048 C 
BRANCH  18  19
ATOM     19  C   UNL     1       4.234   0.257   0.001  0.00  0.00    -0.020 C 
ATOM     20  C   UNL     1       4.708  -0.236   1.216  0.00  0.00    -0.004 C 
ATOM     21  C   UNL     1       4.769  -0.212  -1.199  0.00  0.00    -0.004 C 
ATOM     22  C   UNL     1       5.718  -1.199   1.232  0.00  0.00    -0.000 C 
ATOM     23  C   UNL     1       5.779  -1.174  -1.184  0.00  0.00    -0.000 C 
ATOM     24  C   UNL     1       6.253  -1.667   0.032  0.00  0.00    -0.000 C 
ENDBRANCH  18  19
ENDBRANCH  17  18
ENDBRANCH   2  17
TORSDOF 4
