REMARK  Name = 24812718
REMARK  6 active torsions:
REMARK  status: ('A' for Active; 'I' for Inactive)
REMARK    1  A    between atoms: C_1  and  C_10
REMARK    2  A    between atoms: C_4  and  C_21
REMARK    3  A    between atoms: N_9  and  C_12
REMARK    4  A    between atoms: C_12  and  C_13
REMARK    5  A    between atoms: C_13  and  C_14
REMARK    6  A    between atoms: N_20  and  C_25
REMARK                            x       y       z     vdW  Elec       q    Type
REMARK                         _______ _______ _______ _____ _____    ______ ____
ROOT
ATOM      1  C   UNL     1       1.873   2.292   0.219  0.00  0.00    +0.053 C 
ATOM      2  C   UNL     1       0.719   1.563  -0.067  0.00  0.00    +0.009 C 
ATOM      3  C   UNL     1       1.828   3.686   0.247  0.00  0.00    +0.004 C 
ATOM      4  C   UNL     1      -0.480   2.227  -0.324  0.00  0.00    +0.050 C 
ATOM      5  C   UNL     1      -0.525   3.621  -0.295  0.00  0.00    -0.017 C 
ATOM      6  C   UNL     1       0.629   4.351  -0.010  0.00  0.00    -0.004 C 
ATOM      7  C   UNL     1      -1.796   4.358  -0.567  0.00  0.00    +0.031 C 
ENDROOT
BRANCH   1  10
ATOM      8  O   UNL     1       4.214   2.160   0.272  0.00  0.00    -0.270 OA
ATOM      9  N   UNL     1       3.041   0.300   1.012  0.00  0.00    -0.301 N 
ATOM     10  C   UNL     1       3.151   1.585   0.492  0.00  0.00    +0.246 C 
ATOM     11  H   UNL     1       2.142  -0.076   1.154  0.00  0.00    +0.150 HD
BRANCH   9  12
ATOM     12  C   UNL     1       4.185  -0.501   1.351  0.00  0.00    +0.090 C 
BRANCH  12  13
ATOM     13  C   UNL     1       4.662  -1.354   0.180  0.00  0.00    +0.021 C 
BRANCH  13  14
ATOM     14  C   UNL     1       3.594  -2.307  -0.329  0.00  0.00    +0.002 C 
ATOM     15  C   UNL     1       3.171  -3.345   0.705  0.00  0.00    +0.000 C 
ATOM     16  C   UNL     1       4.068  -3.177  -1.489  0.00  0.00    +0.000 C 
ATOM     17  C   UNL     1       2.475  -4.423  -0.120  0.00  0.00    +0.000 C 
ATOM     18  C   UNL     1       3.061  -4.322  -1.529  0.00  0.00    +0.000 C 
ENDBRANCH  13  14
ENDBRANCH  12  13
ENDBRANCH   9  12
ENDBRANCH   1  10
BRANCH   4  21
ATOM     19  O   UNL     1      -2.227   1.584  -1.719  0.00  0.00    -0.270 OA
ATOM     20  N   UNL     1      -2.079   0.552   0.383  0.00  0.00    -0.279 N 
ATOM     21  C   UNL     1      -1.671   1.441  -0.619  0.00  0.00    +0.249 C 
ATOM     22  H   UNL     1      -1.534   0.553   1.204  0.00  0.00    +0.155 HD
BRANCH  20  25
ATOM     23  N   UNL     1      -5.066  -1.277  -0.811  0.00  0.00    -0.228 NA
ATOM     24  N   UNL     1      -6.392  -2.956   0.238  0.00  0.00    -0.343 N 
ATOM     25  C   UNL     1      -3.172  -0.348   0.370  0.00  0.00    +0.070 C 
ATOM     26  C   UNL     1      -3.440  -1.169   1.460  0.00  0.00    +0.019 C 
ATOM     27  C   UNL     1      -4.008  -0.439  -0.732  0.00  0.00    +0.115 C 
ATOM     28  C   UNL     1      -4.520  -2.044   1.415  0.00  0.00    +0.035 C 
ATOM     29  C   UNL     1      -5.295  -2.059   0.267  0.00  0.00    +0.125 C 
ATOM     30  H   UNL     1      -6.970  -3.000  -0.558  0.00  0.00    +0.144 HD
ATOM     31  H   UNL     1      -6.576  -3.534   1.013  0.00  0.00    +0.144 HD
ENDBRANCH  20  25
ENDBRANCH   4  21
TORSDOF 6
