11740318
  -OEChem-10051720543D

 51 55  0     1  0  0  0  0  0999 V2000
    1.6270   -2.1208    0.2621 O   0  0  0  0  0  0  0  0  0  0  0  0
   -5.5197    2.4997   -1.0853 O   0  0  0  0  0  0  0  0  0  0  0  0
   -7.6121    1.5132   -0.4096 O   0  0  0  0  0  0  0  0  0  0  0  0
   -1.8928   -0.9379    0.3498 N   0  0  1  0  0  0  0  0  0  0  0  0
    6.2148    0.9662    0.0485 N   0  0  0  0  0  0  0  0  0  0  0  0
    8.2858    1.5979   -0.4807 N   0  0  0  0  0  0  0  0  0  0  0  0
    0.4350   -1.5326   -0.2472 C   0  0  2  0  0  0  0  0  0  0  0  0
   -0.6160   -1.4493    0.8636 C   0  0  0  0  0  0  0  0  0  0  0  0
   -0.0636   -2.3796   -1.4139 C   0  0  0  0  0  0  0  0  0  0  0  0
   -1.4253   -1.8883   -1.8871 C   0  0  0  0  0  0  0  0  0  0  0  0
   -2.4149   -1.7945   -0.7242 C   0  0  0  0  0  0  0  0  0  0  0  0
   -2.8701   -0.8201    1.4318 C   0  0  0  0  0  0  0  0  0  0  0  0
   -4.1652   -0.2185    0.9547 C   0  0  0  0  0  0  0  0  0  0  0  0
    2.7623   -1.3567    0.2089 C   0  0  0  0  0  0  0  0  0  0  0  0
   -4.1324    0.8999    0.1294 C   0  0  0  0  0  0  0  0  0  0  0  0
   -5.3745   -0.7993    1.3532 C   0  0  0  0  0  0  0  0  0  0  0  0
   -5.3444    1.4153   -0.2818 C   0  0  0  0  0  0  0  0  0  0  0  0
   -6.5880   -0.2576    0.9225 C   0  0  0  0  0  0  0  0  0  0  0  0
   -6.5392    0.8521    0.1040 C   0  0  0  0  0  0  0  0  0  0  0  0
    2.8044   -0.1375    0.8768 C   0  0  0  0  0  0  0  0  0  0  0  0
    3.8630   -1.8071   -0.5121 C   0  0  0  0  0  0  0  0  0  0  0  0
    3.9607    0.6406    0.8228 C   0  0  0  0  0  0  0  0  0  0  0  0
    5.0194   -1.0289   -0.5659 C   0  0  0  0  0  0  0  0  0  0  0  0
    5.0682    0.1949    0.1016 C   0  0  0  0  0  0  0  0  0  0  0  0
   -6.9589    2.5555   -1.1625 C   0  0  0  0  0  0  0  0  0  0  0  0
    6.4107    2.1833    0.6499 C   0  0  0  0  0  0  0  0  0  0  0  0
    7.3745    0.6607   -0.6188 C   0  0  0  0  0  0  0  0  0  0  0  0
    7.6915    2.5497    0.3095 C   0  0  0  0  0  0  0  0  0  0  0  0
    0.6226   -0.5183   -0.6298 H   0  0  0  0  0  0  0  0  0  0  0  0
   -0.7406   -2.4364    1.3302 H   0  0  0  0  0  0  0  0  0  0  0  0
   -0.2382   -0.7890    1.6539 H   0  0  0  0  0  0  0  0  0  0  0  0
   -0.1302   -3.4320   -1.1086 H   0  0  0  0  0  0  0  0  0  0  0  0
    0.6598   -2.3520   -2.2375 H   0  0  0  0  0  0  0  0  0  0  0  0
   -1.3169   -0.9034   -2.3589 H   0  0  0  0  0  0  0  0  0  0  0  0
   -1.8165   -2.5682   -2.6524 H   0  0  0  0  0  0  0  0  0  0  0  0
   -3.3496   -1.4115   -1.1463 H   0  0  0  0  0  0  0  0  0  0  0  0
   -2.6256   -2.8040   -0.3455 H   0  0  0  0  0  0  0  0  0  0  0  0
   -2.4801   -0.1639    2.2210 H   0  0  0  0  0  0  0  0  0  0  0  0
   -3.0503   -1.8007    1.8927 H   0  0  0  0  0  0  0  0  0  0  0  0
   -3.2047    1.3697   -0.1779 H   0  0  0  0  0  0  0  0  0  0  0  0
   -5.3862   -1.6728    1.9996 H   0  0  0  0  0  0  0  0  0  0  0  0
   -7.5314   -0.6979    1.2246 H   0  0  0  0  0  0  0  0  0  0  0  0
    1.9543    0.2185    1.4511 H   0  0  0  0  0  0  0  0  0  0  0  0
    3.8278   -2.7596   -1.0335 H   0  0  0  0  0  0  0  0  0  0  0  0
    3.9401    1.5809    1.3632 H   0  0  0  0  0  0  0  0  0  0  0  0
    5.8471   -1.4281   -1.1420 H   0  0  0  0  0  0  0  0  0  0  0  0
   -7.2575    2.4690   -2.2135 H   0  0  0  0  0  0  0  0  0  0  0  0
   -7.2933    3.5268   -0.7803 H   0  0  0  0  0  0  0  0  0  0  0  0
    5.6783    2.6995    1.2531 H   0  0  0  0  0  0  0  0  0  0  0  0
    7.5341   -0.2401   -1.1947 H   0  0  0  0  0  0  0  0  0  0  0  0
    8.2158    3.4507    0.5928 H   0  0  0  0  0  0  0  0  0  0  0  0
  1  7  1  0  0  0  0
  1 14  1  0  0  0  0
  2 17  1  0  0  0  0
  2 25  1  0  0  0  0
  3 19  1  0  0  0  0
  3 25  1  0  0  0  0
  4  8  1  0  0  0  0
  4 11  1  0  0  0  0
  4 12  1  0  0  0  0
  5 24  1  0  0  0  0
  5 26  1  0  0  0  0
  5 27  1  0  0  0  0
  6 27  2  0  0  0  0
  6 28  1  0  0  0  0
  7  8  1  0  0  0  0
  7  9  1  0  0  0  0
  7 29  1  0  0  0  0
  8 30  1  0  0  0  0
  8 31  1  0  0  0  0
  9 10  1  0  0  0  0
  9 32  1  0  0  0  0
  9 33  1  0  0  0  0
 10 11  1  0  0  0  0
 10 34  1  0  0  0  0
 10 35  1  0  0  0  0
 11 36  1  0  0  0  0
 11 37  1  0  0  0  0
 12 13  1  0  0  0  0
 12 38  1  0  0  0  0
 12 39  1  0  0  0  0
 13 15  2  0  0  0  0
 13 16  1  0  0  0  0
 14 20  2  0  0  0  0
 14 21  1  0  0  0  0
 15 17  1  0  0  0  0
 15 40  1  0  0  0  0
 16 18  2  0  0  0  0
 16 41  1  0  0  0  0
 17 19  2  0  0  0  0
 18 19  1  0  0  0  0
 18 42  1  0  0  0  0
 20 22  1  0  0  0  0
 20 43  1  0  0  0  0
 21 23  2  0  0  0  0
 21 44  1  0  0  0  0
 22 24  2  0  0  0  0
 22 45  1  0  0  0  0
 23 24  1  0  0  0  0
 23 46  1  0  0  0  0
 25 47  1  0  0  0  0
 25 48  1  0  0  0  0
 26 28  2  0  0  0  0
 26 49  1  0  0  0  0
 27 50  1  0  0  0  0
 28 51  1  0  0  0  0
M  END
> <DATABASE_ID>
DB07011

> <DATABASE_NAME>
drugbank

> <ORIGINAL_SOURCE>
PUBCHEM

> <ORIGINAL_SOURCE_URL>
https://pubchem.ncbi.nlm.nih.gov/rest/pug/compound/inchikey/HHOPJGKEAIIIDF-FQEVSTJZSA-N/SDF?record_type=3d

> <SMILES>
[H][C@@]1(CCCN(CC2=CC3=C(OCO3)C=C2)C1)OC1=CC=C(C=C1)N1C=CN=C1

> <INCHI_IDENTIFIER>
InChI=1S/C22H23N3O3/c1-2-20(28-19-6-4-18(5-7-19)25-11-9-23-15-25)14-24(10-1)13-17-3-8-21-22(12-17)27-16-26-21/h3-9,11-12,15,20H,1-2,10,13-14,16H2/t20-/m0/s1

> <INCHI_KEY>
HHOPJGKEAIIIDF-FQEVSTJZSA-N

> <FORMULA>
C22H23N3O3

> <MOLECULAR_WEIGHT>
377.4363

> <EXACT_MASS>
377.173941617

> <JCHEM_ACCEPTOR_COUNT>
5

> <JCHEM_AVERAGE_POLARIZABILITY>
41.32502907963112

> <JCHEM_BIOAVAILABILITY>
1

> <JCHEM_DONOR_COUNT>
0

> <JCHEM_FORMAL_CHARGE>
0

> <JCHEM_GHOSE_FILTER>
1

> <JCHEM_IUPAC>
(3S)-1-(2H-1,3-benzodioxol-5-ylmethyl)-3-[4-(1H-imidazol-1-yl)phenoxy]piperidine

> <ALOGPS_LOGP>
3.16

> <JCHEM_LOGP>
2.8444000000000003

> <ALOGPS_LOGS>
-3.71

> <JCHEM_MDDR_LIKE_RULE>
0

> <JCHEM_NUMBER_OF_RINGS>
5

> <JCHEM_PHYSIOLOGICAL_CHARGE>
1

> <JCHEM_PKA_STRONGEST_BASIC>
8.1624656969795

> <JCHEM_POLAR_SURFACE_AREA>
48.75

> <JCHEM_REFRACTIVITY>
116.07940000000002

> <JCHEM_ROTATABLE_BOND_COUNT>
5

> <JCHEM_RULE_OF_FIVE>
1

> <ALOGPS_SOLUBILITY>
7.37e-02 g/l

> <JCHEM_TRADITIONAL_IUPAC>
(3S)-1-(2H-1,3-benzodioxol-5-ylmethyl)-3-[4-(imidazol-1-yl)phenoxy]piperidine

> <JCHEM_VEBER_RULE>
0

> <DRUGBANK_ID>
DB07011

> <DRUG_GROUPS>
experimental

> <GENERIC_NAME>
(3S)-1-(1,3-BENZODIOXOL-5-YLMETHYL)-3-[4-(1H-IMIDAZOL-1-YL)PHENOXY]PIPERIDINE

$$$$
