REMARK  Name = 16750059
REMARK  4 active torsions:
REMARK  status: ('A' for Active; 'I' for Inactive)
REMARK    1  A    between atoms: C_4  and  C_15
REMARK    2  A    between atoms: C_5  and  N_31
REMARK    3  A    between atoms: C_10  and  C_21
REMARK    4  A    between atoms: C_24  and  S_27
REMARK                            x       y       z     vdW  Elec       q    Type
REMARK                         _______ _______ _______ _____ _____    ______ ____
ROOT
ATOM      1  N   UNL     1       0.899   2.016  -0.284  0.00  0.00    -0.298 N 
ATOM      2  N   UNL     1      -0.809   3.626  -0.228  0.00  0.00    -0.234 NA
ATOM      3  N   UNL     1      -3.070   2.936   0.239  0.00  0.00    -0.248 NA
ATOM      4  C   UNL     1       2.855   0.777  -0.765  0.00  0.00    +0.026 C 
ATOM      5  C   UNL     1       3.245   2.214  -0.381  0.00  0.00    -0.040 C 
ATOM      6  C   UNL     1       1.433   0.657  -0.182  0.00  0.00    +0.094 C 
ATOM      7  C   UNL     1       1.941   2.987  -0.615  0.00  0.00    +0.070 C 
ATOM      8  C   UNL     1      -0.431   2.337  -0.111  0.00  0.00    +0.111 C 
ATOM      9  C   UNL     1      -1.301   1.305   0.176  0.00  0.00    +0.106 C 
ATOM     10  C   UNL     1      -2.622   1.668   0.343  0.00  0.00    +0.063 C 
ATOM     11  C   UNL     1      -2.124   3.852  -0.043  0.00  0.00    +0.251 C 
ENDROOT
BRANCH   4  15
ATOM     12  F   UNL     1       4.136  -1.045  -2.521  0.00  0.00    -0.204 F 
ATOM     13  F   UNL     1       5.213  -1.558   2.817  0.00  0.00    -0.202 F 
ATOM     14  F   UNL     1       6.381  -3.249   1.013  0.00  0.00    -0.202 F 
ATOM     15  C   UNL     1       3.800  -0.302  -0.291  0.00  0.00    +0.007 C 
ATOM     16  C   UNL     1       4.395  -1.165  -1.211  0.00  0.00    +0.138 C 
ATOM     17  C   UNL     1       4.076  -0.435   1.069  0.00  0.00    +0.030 C 
ATOM     18  C   UNL     1       4.948  -1.430   1.510  0.00  0.00    +0.167 C 
ATOM     19  C   UNL     1       5.268  -2.160  -0.771  0.00  0.00    +0.061 C 
ATOM     20  C   UNL     1       5.544  -2.293   0.590  0.00  0.00    +0.170 C 
ENDBRANCH   4  15
BRANCH  10  21
ATOM     21  C   UNL     1      -3.634   0.684   0.646  0.00  0.00    +0.015 C 
ATOM     22  C   UNL     1      -3.872  -0.368  -0.239  0.00  0.00    +0.020 C 
ATOM     23  C   UNL     1      -4.374   0.785   1.823  0.00  0.00    +0.001 C 
ATOM     24  C   UNL     1      -4.851  -1.318   0.053  0.00  0.00    +0.106 C 
ATOM     25  C   UNL     1      -5.591  -1.216   1.231  0.00  0.00    +0.018 C 
ATOM     26  C   UNL     1      -5.353  -0.164   2.116  0.00  0.00    +0.001 C 
BRANCH  24  27
ATOM     27  S   UNL     1      -5.152  -2.632  -1.055  0.00  0.00    +0.010 S 
ATOM     28  O   UNL     1      -6.519  -3.090  -0.849  0.00  0.00    -0.169 OA
ATOM     29  O   UNL     1      -4.716  -2.236  -2.387  0.00  0.00    -0.169 OA
ATOM     30  C   UNL     1      -4.056  -3.925  -0.515  0.00  0.00    +0.182 C 
ENDBRANCH  24  27
ENDBRANCH  10  21
BRANCH   5  31
ATOM     31  N   UNL     1       4.342   2.741  -1.179  0.00  0.00    +0.383 N 
ATOM     32  H   UNL     1       5.187   2.200  -0.994  0.00  0.00    -0.089 HD
ATOM     33  H   UNL     1       4.502   3.718  -0.933  0.00  0.00    -0.089 HD
ATOM     34  H   UNL     1       4.105   2.674  -2.169  0.00  0.00    -0.089 HD
ENDBRANCH   5  31
TORSDOF 4
