REMARK  Name = 6914629
REMARK  6 active torsions:
REMARK  status: ('A' for Active; 'I' for Inactive)
REMARK    1  A    between atoms: N_3  and  C_28
REMARK    2  A    between atoms: C_11  and  C_18
REMARK    3  A    between atoms: C_19  and  C_26
REMARK    4  A    between atoms: C_28  and  C_29
REMARK    5  A    between atoms: C_29  and  C_30
REMARK    6  A    between atoms: C_30  and  O_31
REMARK                            x       y       z     vdW  Elec       q    Type
REMARK                         _______ _______ _______ _____ _____    ______ ____
ROOT
ATOM      1  O   UNL     1       2.764   2.598   0.143  0.00  0.00    -0.473 OA
ATOM      2  O   UNL     1       4.652  -0.276  -0.855  0.00  0.00    -0.271 OA
ATOM      3  N   UNL     1       2.349  -0.105  -0.609  0.00  0.00    -0.253 N 
ATOM      4  C   UNL     1       3.805   1.649   0.333  0.00  0.00    +0.201 C 
ATOM      5  C   UNL     1       1.256   0.742  -0.275  0.00  0.00    +0.088 C 
ATOM      6  C   UNL     1       3.661   0.344  -0.464  0.00  0.00    +0.266 C 
ATOM      7  C   UNL     1       1.506   2.070   0.081  0.00  0.00    +0.152 C 
ATOM      8  C   UNL     1       3.908   1.307   1.829  0.00  0.00    +0.053 C 
ATOM      9  C   UNL     1       5.095   2.362  -0.098  0.00  0.00    +0.053 C 
ATOM     10  C   UNL     1      -0.078   0.308  -0.332  0.00  0.00    +0.015 C 
ATOM     11  C   UNL     1      -1.127   1.185  -0.043  0.00  0.00    -0.007 C 
ATOM     12  C   UNL     1       0.456   2.952   0.354  0.00  0.00    +0.038 C 
ATOM     13  C   UNL     1      -0.861   2.507   0.297  0.00  0.00    -0.000 C 
ENDROOT
BRANCH  11  18
ATOM     14  N   UNL     1      -4.404  -0.266   0.989  0.00  0.00    -0.337 NA
ATOM     15  N   UNL     1      -4.530   0.348  -1.338  0.00  0.00    -0.317 NA
ATOM     16  N   UNL     1      -2.668   1.315  -2.429  0.00  0.00    -0.335 N 
ATOM     17  N   UNL     1      -6.370  -0.612  -0.244  0.00  0.00    -0.283 N 
ATOM     18  C   UNL     1      -2.496   0.718  -0.103  0.00  0.00    +0.138 C 
ATOM     19  C   UNL     1      -3.131   0.181   0.999  0.00  0.00    +0.112 C 
ATOM     20  C   UNL     1      -3.253   0.776  -1.256  0.00  0.00    +0.178 C 
ATOM     21  C   UNL     1      -5.035  -0.154  -0.196  0.00  0.00    +0.196 C 
ATOM     22  H   UNL     1      -3.191   1.366  -3.262  0.00  0.00    +0.144 HD
ATOM     23  H   UNL     1      -1.738   1.639  -2.412  0.00  0.00    +0.144 HD
ATOM     24  H   UNL     1      -6.791  -0.988   0.562  0.00  0.00    +0.156 HD
ATOM     25  H   UNL     1      -6.880  -0.554  -1.084  0.00  0.00    +0.156 HD
BRANCH  19  26
ATOM     26  C   UNL     1      -2.424   0.060   2.311  0.00  0.00    +0.056 C 
ATOM     27  C   UNL     1      -1.696  -1.273   2.453  0.00  0.00    +0.008 C 
ENDBRANCH  19  26
ENDBRANCH  11  18
BRANCH   3  28
ATOM     28  C   UNL     1       2.092  -1.429  -1.164  0.00  0.00    +0.101 C 
BRANCH  28  29
ATOM     29  C   UNL     1       1.943  -2.495  -0.086  0.00  0.00    +0.054 C 
BRANCH  29  30
ATOM     30  C   UNL     1       1.694  -3.884  -0.659  0.00  0.00    +0.144 C 
BRANCH  30  31
ATOM     31  O   UNL     1       1.552  -4.804   0.416  0.00  0.00    -0.351 OA
ATOM     32  C   UNL     1       1.341  -6.128  -0.055  0.00  0.00    +0.174 C 
ENDBRANCH  30  31
ENDBRANCH  29  30
ENDBRANCH  28  29
ENDBRANCH   3  28
TORSDOF 6
