REMARK  Name = 15602701
REMARK  5 active torsions:
REMARK  status: ('A' for Active; 'I' for Inactive)
REMARK    1  A    between atoms: N_5  and  C_12
REMARK    2  A    between atoms: C_6  and  C_22
REMARK    3  A    between atoms: C_13  and  C_21
REMARK    4  A    between atoms: C_22  and  C_23
REMARK    5  A    between atoms: C_23  and  N_24
REMARK                            x       y       z     vdW  Elec       q    Type
REMARK                         _______ _______ _______ _____ _____    ______ ____
ROOT
ATOM      1  S   UNL     1       0.447   0.381   1.178  0.00  0.00    -0.056 S 
ATOM      2  O   UNL     1      -3.304   1.659  -1.242  0.00  0.00    -0.252 OA
ATOM      3  N   UNL     1      -0.409   1.883  -0.744  0.00  0.00    -0.223 NA
ATOM      4  N   UNL     1      -2.045   0.514   0.377  0.00  0.00    -0.248 N 
ATOM      5  N   UNL     1      -4.322   0.138   0.210  0.00  0.00    -0.268 N 
ATOM      6  C   UNL     1       1.554   1.367   0.351  0.00  0.00    +0.031 C 
ATOM      7  C   UNL     1       0.951   2.092  -0.624  0.00  0.00    +0.103 C 
ATOM      8  C   UNL     1      -0.784   1.001   0.155  0.00  0.00    +0.166 C 
ATOM      9  C   UNL     1      -3.236   0.856  -0.318  0.00  0.00    +0.310 C 
ATOM     10  H   UNL     1      -2.137  -0.148   1.101  0.00  0.00    +0.158 HD
ATOM     11  H   UNL     1      -4.115  -0.473   0.954  0.00  0.00    +0.156 HD
ENDROOT
BRANCH   5  12
ATOM     12  C   UNL     1      -5.677   0.185  -0.195  0.00  0.00    +0.052 C 
ATOM     13  C   UNL     1      -7.944  -0.559   0.060  0.00  0.00    +0.073 C 
ATOM     14  C   UNL     1      -6.608  -0.606   0.459  0.00  0.00    +0.019 C 
ATOM     15  C   UNL     1      -6.045   1.022  -1.235  0.00  0.00    +0.015 C 
ATOM     16  C   UNL     1      -8.331   0.279  -0.986  0.00  0.00    +0.004 C 
ATOM     17  C   UNL     1      -7.381   1.069  -1.634  0.00  0.00    +0.001 C 
BRANCH  13  21
ATOM     18  F   UNL     1     -10.225  -1.254   0.259  0.00  0.00    -0.166 F 
ATOM     19  F   UNL     1      -8.703  -2.742   0.675  0.00  0.00    -0.166 F 
ATOM     20  F   UNL     1      -9.053  -1.125   2.086  0.00  0.00    -0.166 F 
ATOM     21  C   UNL     1      -8.960  -1.403   0.753  0.00  0.00    +0.419 C 
ENDBRANCH  13  21
ENDBRANCH   5  12
BRANCH   6  22
ATOM     22  C   UNL     1       3.011   1.351   0.751  0.00  0.00    +0.056 C 
BRANCH  22  23
ATOM     23  C   UNL     1       3.820   0.305  -0.015  0.00  0.00    +0.093 C 
BRANCH  23  24
ATOM     24  N   UNL     1       5.203   0.349   0.358  0.00  0.00    -0.320 N 
ATOM     25  N   UNL     1       8.203   0.338   1.056  0.00  0.00    -0.220 N 
ATOM     26  N   UNL     1       9.521   0.064   1.092  0.00  0.00    -0.178 NA
ATOM     27  N   UNL     1       5.843  -1.340  -1.208  0.00  0.00    -0.232 NA
ATOM     28  N   UNL     1       8.147  -2.104  -1.437  0.00  0.00    -0.245 NA
ATOM     29  C   UNL     1       7.511  -0.401   0.142  0.00  0.00    +0.185 C 
ATOM     30  C   UNL     1       6.183  -0.463  -0.237  0.00  0.00    +0.128 C 
ATOM     31  C   UNL     1       8.454  -1.216  -0.463  0.00  0.00    +0.103 C 
ATOM     32  C   UNL     1       9.669  -0.886   0.162  0.00  0.00    +0.134 C 
ATOM     33  C   UNL     1       7.678   1.342   1.952  0.00  0.00    +0.135 C 
ATOM     34  C   UNL     1       6.832  -2.096  -1.741  0.00  0.00    +0.251 C 
ATOM     35  H   UNL     1       5.479   0.978   1.063  0.00  0.00    +0.148 HD
ENDBRANCH  23  24
ENDBRANCH  22  23
ENDBRANCH   6  22
TORSDOF 5
