REMARK  Name = 11572962
REMARK  4 active torsions:
REMARK  status: ('A' for Active; 'I' for Inactive)
REMARK    1  A    between atoms: C_3  and  C_20
REMARK    2  A    between atoms: C_5  and  C_12
REMARK    3  A    between atoms: C_7  and  C_19
REMARK    4  A    between atoms: C_20  and  N_21
REMARK                            x       y       z     vdW  Elec       q    Type
REMARK                         _______ _______ _______ _____ _____    ______ ____
ROOT
ATOM      1  N   UNL     1       3.290   0.878  -0.141  0.00  0.00    -0.285 N 
ATOM      2  N   UNL     1       3.787  -1.280   0.047  0.00  0.00    -0.251 NA
ATOM      3  C   UNL     1       0.768   0.696  -0.037  0.00  0.00    -0.029 C 
ATOM      4  C   UNL     1       2.084   0.233  -0.038  0.00  0.00    +0.057 C 
ATOM      5  C   UNL     1      -0.238  -0.267   0.088  0.00  0.00    +0.002 C 
ATOM      6  C   UNL     1       2.421  -1.113   0.078  0.00  0.00    +0.074 C 
ATOM      7  C   UNL     1       0.069  -1.625   0.206  0.00  0.00    +0.052 C 
ATOM      8  C   UNL     1       1.397  -2.067   0.203  0.00  0.00    +0.083 C 
ATOM      9  C   UNL     1       4.276  -0.067  -0.085  0.00  0.00    +0.220 C 
ATOM     10  C   UNL     1       3.515   2.298  -0.283  0.00  0.00    +0.114 C 
ENDROOT
BRANCH   5  12
ATOM     11 CL   UNL     1      -1.689  -0.103  -2.629  0.00  0.00    -0.082 Cl
ATOM     12  C   UNL     1      -1.628   0.167   0.094  0.00  0.00    +0.011 C 
ATOM     13  C   UNL     1      -2.365   0.271  -1.082  0.00  0.00    +0.058 C 
ATOM     14  C   UNL     1      -2.211   0.477   1.320  0.00  0.00    +0.001 C 
ATOM     15  C   UNL     1      -3.695   0.688  -1.032  0.00  0.00    +0.011 C 
ATOM     16  C   UNL     1      -3.541   0.894   1.370  0.00  0.00    +0.000 C 
ATOM     17  C   UNL     1      -4.283   1.000   0.194  0.00  0.00    +0.001 C 
ENDBRANCH   5  12
BRANCH   7  19
ATOM     18  N   UNL     1      -1.789  -3.415   0.440  0.00  0.00    -0.191 NA
ATOM     19  C   UNL     1      -0.960  -2.616   0.336  0.00  0.00    +0.096 C 
ENDBRANCH   7  19
BRANCH   3  20
ATOM     20  C   UNL     1       0.435   2.148  -0.164  0.00  0.00    -0.057 C 
BRANCH  20  21
ATOM     21  N   UNL     1       0.358   2.802   1.117  0.00  0.00    +0.383 N 
ATOM     22  H   UNL     1       0.129   3.787   0.982  0.00  0.00    -0.089 HD
ATOM     23  H   UNL     1       1.257   2.724   1.592  0.00  0.00    -0.089 HD
ATOM     24  H   UNL     1      -0.365   2.359   1.682  0.00  0.00    -0.089 HD
ENDBRANCH  20  21
ENDBRANCH   3  20
TORSDOF 4
