REMARK  Name = 263366
REMARK  3 active torsions:
REMARK  status: ('A' for Active; 'I' for Inactive)
REMARK    1  A    between atoms: C_1  and  C_7
REMARK    2  A    between atoms: C_2  and  C_13
REMARK    3  A    between atoms: C_13  and  N_14
REMARK                            x       y       z     vdW  Elec       q    Type
REMARK                         _______ _______ _______ _____ _____    ______ ____
ROOT
ATOM      1  C   UNL     1       0.608   0.431  -0.013  0.00  0.00    -0.006 C 
ATOM      2  C   UNL     1       1.397  -0.675   0.312  0.00  0.00    -0.044 C 
ATOM      3  C   UNL     1       1.216   1.642  -0.348  0.00  0.00    -0.000 C 
ATOM      4  C   UNL     1       2.787  -0.569   0.301  0.00  0.00    -0.006 C 
ATOM      5  C   UNL     1       2.606   1.748  -0.359  0.00  0.00    -0.000 C 
ATOM      6  C   UNL     1       3.392   0.642  -0.035  0.00  0.00    -0.000 C 
ENDROOT
BRANCH   1   7
ATOM      7  C   UNL     1      -0.836   0.347  -0.009  0.00  0.00    -0.000 C 
ATOM      8  C   UNL     1      -1.517  -0.022  -1.169  0.00  0.00    -0.000 C 
ATOM      9  C   UNL     1      -1.548   0.637   1.155  0.00  0.00    -0.000 C 
ATOM     10  C   UNL     1      -2.909  -0.103  -1.165  0.00  0.00    -0.000 C 
ATOM     11  C   UNL     1      -2.941   0.556   1.159  0.00  0.00    -0.000 C 
ATOM     12  C   UNL     1      -3.621   0.186  -0.001  0.00  0.00    -0.000 C 
ENDBRANCH   1   7
BRANCH   2  13
ATOM     13  C   UNL     1       0.784  -1.989   0.675  0.00  0.00    -0.059 C 
BRANCH  13  14
ATOM     14  N   UNL     1       0.583  -2.830  -0.505  0.00  0.00    +0.383 N 
ATOM     15  H   UNL     1       0.165  -3.717  -0.223  0.00  0.00    -0.089 HD
ATOM     16  H   UNL     1       1.481  -3.006  -0.955  0.00  0.00    -0.089 HD
ATOM     17  H   UNL     1      -0.038  -2.355  -1.160  0.00  0.00    -0.089 HD
ENDBRANCH  13  14
ENDBRANCH   2  13
TORSDOF 3
