REMARK  Name = 1948
REMARK  7 active torsions:
REMARK  status: ('A' for Active; 'I' for Inactive)
REMARK    1  A    between atoms: C_1  and  N_7
REMARK    2  A    between atoms: C_4  and  S_19
REMARK    3  A    between atoms: C_8  and  C_13
REMARK    4  A    between atoms: S_19  and  N_22
REMARK    5  A    between atoms: N_22  and  C_24
REMARK    6  A    between atoms: C_24  and  C_26
REMARK    7  A    between atoms: C_26  and  O_27
REMARK                            x       y       z     vdW  Elec       q    Type
REMARK                         _______ _______ _______ _____ _____    ______ ____
ROOT
ATOM      1  C   UNL     1       0.257  -0.503   0.104  0.00  0.00    +0.048 C 
ATOM      2  C   UNL     1       0.830  -1.053  -1.059  0.00  0.00    +0.016 C 
ATOM      3  C   UNL     1       1.094  -0.278   1.214  0.00  0.00    +0.016 C 
ATOM      4  C   UNL     1       3.000  -1.134   0.001  0.00  0.00    +0.122 C 
ATOM      5  C   UNL     1       2.189  -1.366  -1.110  0.00  0.00    +0.021 C 
ATOM      6  C   UNL     1       2.453  -0.591   1.163  0.00  0.00    +0.021 C 
ENDROOT
BRANCH   1   7
ATOM      7  N   UNL     1      -1.107  -0.190   0.156  0.00  0.00    -0.307 N 
ATOM      8  C   UNL     1      -3.889   0.601   0.270  0.00  0.00    +0.026 C 
ATOM      9  C   UNL     1      -3.107   0.589  -1.053  0.00  0.00    +0.026 C 
ATOM     10  C   UNL     1      -3.314  -0.465   1.214  0.00  0.00    +0.026 C 
ATOM     11  C   UNL     1      -1.611   0.791  -0.814  0.00  0.00    +0.091 C 
ATOM     12  C   UNL     1      -1.815  -0.263   1.439  0.00  0.00    +0.091 C 
BRANCH   8  13
ATOM     13  C   UNL     1      -5.380   0.428   0.053  0.00  0.00    -0.022 C 
ATOM     14  C   UNL     1      -6.189   1.548  -0.132  0.00  0.00    -0.004 C 
ATOM     15  C   UNL     1      -5.937  -0.849   0.040  0.00  0.00    -0.004 C 
ATOM     16  C   UNL     1      -7.561   1.389  -0.331  0.00  0.00    -0.000 C 
ATOM     17  C   UNL     1      -7.308  -1.008  -0.159  0.00  0.00    -0.000 C 
ATOM     18  C   UNL     1      -8.120   0.112  -0.344  0.00  0.00    -0.000 C 
ENDBRANCH   8  13
ENDBRANCH   1   7
BRANCH   4  19
ATOM     19  S   UNL     1       4.700  -1.526  -0.063  0.00  0.00    +0.061 S 
ATOM     20  O   UNL     1       5.178  -1.763   1.293  0.00  0.00    -0.153 OA
ATOM     21  O   UNL     1       4.881  -2.559  -1.074  0.00  0.00    -0.153 OA
BRANCH  19  22
ATOM     22  N   UNL     1       5.391  -0.073  -0.639  0.00  0.00    -0.168 NA
ATOM     23  H   UNL     1       4.993   0.098  -1.563  0.00  0.00    +0.149 HD
BRANCH  22  24
ATOM     24  C   UNL     1       5.229   1.170   0.129  0.00  0.00    +0.200 C 
BRANCH  24  26
ATOM     25  O   UNL     1       7.386   1.776  -0.817  0.00  0.00    -0.249 OA
ATOM     26  C   UNL     1       6.431   2.035  -0.099  0.00  0.00    +0.332 C 
BRANCH  26  27
ATOM     27  O   UNL     1       6.319   3.183   0.617  0.00  0.00    -0.479 OA
ATOM     28  H   UNL     1       5.563   3.329   1.152  0.00  0.00    +0.295 HD
ENDBRANCH  26  27
ENDBRANCH  24  26
ENDBRANCH  22  24
ENDBRANCH  19  22
ENDBRANCH   4  19
TORSDOF 7
