REMARK  Name = 448934
REMARK  5 active torsions:
REMARK  status: ('A' for Active; 'I' for Inactive)
REMARK    1  A    between atoms: C_1  and  N_4
REMARK    2  A    between atoms: C_1  and  C_17
REMARK    3  A    between atoms: C_1  and  C_20
REMARK    4  A    between atoms: C_10  and  S_13
REMARK    5  A    between atoms: C_20  and  C_26
REMARK                            x       y       z     vdW  Elec       q    Type
REMARK                         _______ _______ _______ _____ _____    ______ ____
ROOT
ATOM      1  C   UNL     1      -0.616   1.699   0.283  0.00  0.00    +0.154 C 
ENDROOT
BRANCH   1   4
ATOM      2  S   UNL     1       4.840  -1.329   1.037  0.00  0.00    -0.024 S 
ATOM      3  O   UNL     1       1.665   1.096  -1.330  0.00  0.00    -0.252 OA
ATOM      4  N   UNL     1       0.554   0.963   0.691  0.00  0.00    -0.282 N 
ATOM      5  N   UNL     1       2.619  -0.022   0.506  0.00  0.00    -0.247 N 
ATOM      6  N   UNL     1       4.284  -0.268  -1.228  0.00  0.00    -0.125 NA
ATOM      7  N   UNL     1       5.532  -0.846  -1.383  0.00  0.00    -0.133 NA
ATOM      8  C   UNL     1       1.635   0.709  -0.165  0.00  0.00    +0.306 C 
ATOM      9  C   UNL     1       3.835  -0.456  -0.025  0.00  0.00    +0.190 A 
ATOM     10  C   UNL     1       5.939  -1.432  -0.277  0.00  0.00    +0.157 A 
ATOM     11  H   UNL     1       0.597   0.624   1.614  0.00  0.00    +0.151 HD
ATOM     12  H   UNL     1       2.437  -0.254   1.446  0.00  0.00    +0.158 HD
BRANCH  10  13
ATOM     13  S   UNL     1       7.479  -2.246  -0.173  0.00  0.00    -0.114 S 
ATOM     14  H   UNL     1       7.639  -2.757   1.077  0.00  0.00    +0.109 HD
ENDBRANCH  10  13
ENDBRANCH   1   4
BRANCH   1  17
ATOM     15  O   UNL     1       0.363   3.590   1.441  0.00  0.00    -0.273 OA
ATOM     16  N   UNL     1      -0.868   3.973  -0.491  0.00  0.00    -0.301 N 
ATOM     17  C   UNL     1      -0.320   3.177   0.506  0.00  0.00    +0.241 C 
ATOM     18  C   UNL     1      -0.695   5.407  -0.546  0.00  0.00    +0.111 C 
ATOM     19  H   UNL     1      -1.400   3.539  -1.196  0.00  0.00    +0.150 HD
ENDBRANCH   1  17
BRANCH   1  20
ATOM     20  C   UNL     1      -1.865   1.281   1.067  0.00  0.00    +0.060 C 
BRANCH  20  26
ATOM     21  F   UNL     1      -3.836   1.218  -0.951  0.00  0.00    -0.202 F 
ATOM     22  F   UNL     1      -1.121  -1.258   2.055  0.00  0.00    -0.202 F 
ATOM     23  F   UNL     1      -2.221  -3.575   1.131  0.00  0.00    -0.199 F 
ATOM     24  F   UNL     1      -4.926  -1.105  -1.870  0.00  0.00    -0.199 F 
ATOM     25  F   UNL     1      -4.123  -3.503  -0.832  0.00  0.00    -0.199 F 
ATOM     26  C   UNL     1      -2.471  -0.004   0.559  0.00  0.00    +0.039 A 
ATOM     27  C   UNL     1      -3.435   0.047  -0.436  0.00  0.00    +0.168 A 
ATOM     28  C   UNL     1      -2.054  -1.213   1.094  0.00  0.00    +0.168 A 
ATOM     29  C   UNL     1      -2.614  -2.400   0.622  0.00  0.00    +0.197 A 
ATOM     30  C   UNL     1      -3.995  -1.140  -0.908  0.00  0.00    +0.197 A 
ATOM     31  C   UNL     1      -3.585  -2.363  -0.379  0.00  0.00    +0.199 A 
ENDBRANCH  20  26
ENDBRANCH   1  20
TORSDOF 5
