REMARK  Name = 24851688
REMARK  1 active torsions:
REMARK  status: ('A' for Active; 'I' for Inactive)
REMARK    1  A    between atoms: C_8  and  C_27
REMARK                            x       y       z     vdW  Elec       q    Type
REMARK                         _______ _______ _______ _____ _____    ______ ____
ROOT
ATOM      1 CL   UNL     1      -4.727   1.888   0.275  0.00  0.00    -0.080 Cl
ATOM      2 CL   UNL     1      -6.086  -0.859   1.174  0.00  0.00    -0.081 Cl
ATOM      3  O   UNL     1       0.812   2.827  -1.341  0.00  0.00    -0.269 OA
ATOM      4  N   UNL     1       2.026   0.939  -0.830  0.00  0.00    -0.302 N 
ATOM      5  N   UNL     1       4.754  -0.208   1.342  0.00  0.00    +0.386 N 
ATOM      6  N   UNL     1      -1.597   1.413  -0.349  0.00  0.00    -0.321 N 
ATOM      7  C   UNL     1       2.160  -0.366  -0.117  0.00  0.00    +0.070 C 
ATOM      8  C   UNL     1       0.887  -1.260  -0.374  0.00  0.00    +0.131 C 
ATOM      9  C   UNL     1       2.288  -0.092   1.409  0.00  0.00    -0.003 C 
ATOM     10  C   UNL     1       3.454  -1.082  -0.580  0.00  0.00    -0.003 C 
ATOM     11  C   UNL     1       3.607   0.591   1.784  0.00  0.00    -0.076 C 
ATOM     12  C   UNL     1       4.739  -0.387  -0.113  0.00  0.00    -0.076 C 
ATOM     13  C   UNL     1      -0.347  -0.422  -0.246  0.00  0.00    +0.015 A 
ATOM     14  C   UNL     1      -0.328   0.932  -0.522  0.00  0.00    +0.111 A 
ATOM     15  C   UNL     1       0.842   1.670  -0.929  0.00  0.00    +0.261 C 
ATOM     16  C   UNL     1      -1.673  -0.770   0.137  0.00  0.00    +0.015 A 
ATOM     17  C   UNL     1      -2.435   0.400   0.063  0.00  0.00    +0.071 A 
ATOM     18  C   UNL     1       6.007   0.414   1.769  0.00  0.00    -0.101 C 
ATOM     19  C   UNL     1      -2.306  -1.966   0.533  0.00  0.00    +0.002 C 
ATOM     20  C   UNL     1      -1.959   2.801  -0.556  0.00  0.00    +0.131 C 
ATOM     21  C   UNL     1      -3.800   0.431   0.372  0.00  0.00    +0.084 C 
ATOM     22  C   UNL     1      -3.670  -1.948   0.845  0.00  0.00    +0.012 C 
ATOM     23  C   UNL     1      -4.403  -0.766   0.765  0.00  0.00    +0.070 C 
ATOM     24  H   UNL     1       2.830   1.309  -1.261  0.00  0.00    +0.150 HD
ATOM     25  H   UNL     1       4.685  -1.129   1.775  0.00  0.00    -0.080 HD
ENDROOT
BRANCH   8  27
ATOM     26  N   UNL     1       0.874  -2.325  -2.787  0.00  0.00    -0.196 NA
ATOM     27  C   UNL     1       0.880  -1.857  -1.725  0.00  0.00    +0.078 C 
ENDBRANCH   8  27
TORSDOF 1
