REMARK  Name = 24798721
REMARK  5 active torsions:
REMARK  status: ('A' for Active; 'I' for Inactive)
REMARK    1  A    between atoms: N_1  and  C_14
REMARK    2  A    between atoms: C_2  and  C_7
REMARK    3  A    between atoms: C_3  and  N_24
REMARK    4  A    between atoms: C_17  and  O_20
REMARK    5  A    between atoms: C_19  and  O_22
REMARK                            x       y       z     vdW  Elec       q    Type
REMARK                         _______ _______ _______ _____ _____    ______ ____
ROOT
ATOM      1  N   UNL     1      -0.488   0.799  -0.306  0.00  0.00    -0.307 N 
ATOM      2  C   UNL     1       1.915   0.885   0.266  0.00  0.00    +0.022 C 
ATOM      3  C   UNL     1       2.098   2.116  -0.655  0.00  0.00    -0.058 C 
ATOM      4  C   UNL     1       0.738  -0.005  -0.189  0.00  0.00    +0.093 C 
ATOM      5  C   UNL     1       0.768   2.881  -0.727  0.00  0.00    -0.000 C 
ATOM      6  C   UNL     1      -0.410   2.001  -1.147  0.00  0.00    +0.089 C 
ENDROOT
BRANCH   2   7
ATOM      7  C   UNL     1       3.222   0.138   0.494  0.00  0.00    -0.023 C 
ATOM      8  C   UNL     1       3.541  -0.967  -0.295  0.00  0.00    -0.009 C 
ATOM      9  C   UNL     1       4.100   0.559   1.493  0.00  0.00    -0.004 C 
ATOM     10  C   UNL     1       4.739  -1.650  -0.087  0.00  0.00    -0.022 C 
ATOM     11  C   UNL     1       5.298  -0.125   1.702  0.00  0.00    -0.001 C 
ATOM     12  C   UNL     1       5.617  -1.229   0.912  0.00  0.00    -0.004 C 
ATOM     13  C   UNL     1       5.082  -2.830  -0.931  0.00  0.00    +0.031 C 
ENDBRANCH   2   7
BRANCH   1  14
ATOM     14  C   UNL     1      -1.734   0.169  -0.200  0.00  0.00    +0.051 C 
ATOM     15  C   UNL     1      -2.826   0.866   0.317  0.00  0.00    +0.055 C 
ATOM     16  C   UNL     1      -1.883  -1.156  -0.611  0.00  0.00    +0.018 C 
ATOM     17  C   UNL     1      -4.067   0.238   0.422  0.00  0.00    +0.174 C 
ATOM     18  C   UNL     1      -3.124  -1.784  -0.505  0.00  0.00    +0.041 C 
ATOM     19  C   UNL     1      -4.216  -1.087   0.012  0.00  0.00    +0.172 C 
BRANCH  17  20
ATOM     20  O   UNL     1      -5.127   0.929   0.929  0.00  0.00    -0.468 OA
ATOM     21  C   UNL     1      -4.890   2.278   1.325  0.00  0.00    +0.253 C 
ENDBRANCH  17  20
BRANCH  19  22
ATOM     22  O   UNL     1      -5.423  -1.711   0.110  0.00  0.00    -0.468 OA
ATOM     23  C   UNL     1      -5.491  -3.065  -0.332  0.00  0.00    +0.253 C 
ENDBRANCH  19  22
ENDBRANCH   1  14
BRANCH   3  24
ATOM     24  N   UNL     1       2.562   1.751  -1.996  0.00  0.00    +0.382 N 
ATOM     25  H   UNL     1       3.444   1.245  -1.925  0.00  0.00    -0.089 HD
ATOM     26  H   UNL     1       2.699   2.597  -2.550  0.00  0.00    -0.089 HD
ATOM     27  H   UNL     1       1.865   1.159  -2.448  0.00  0.00    -0.089 HD
ENDBRANCH   3  24
TORSDOF 5
