REMARK  Name = 25218427
REMARK  4 active torsions:
REMARK  status: ('A' for Active; 'I' for Inactive)
REMARK    1  A    between atoms: C_7  and  O_13
REMARK    2  A    between atoms: O_13  and  C_14
REMARK    3  A    between atoms: C_17  and  C_23
REMARK    4  A    between atoms: C_18  and  C_21
REMARK                            x       y       z     vdW  Elec       q    Type
REMARK                         _______ _______ _______ _____ _____    ______ ____
ROOT
ATOM      1  F   UNL     1      -0.143   1.910  -1.705  0.00  0.00    -0.201 F 
ATOM      2  N   UNL     1      -4.054  -0.853   1.382  0.00  0.00    -0.280 N 
ATOM      3  N   UNL     1      -4.561  -0.644   0.151  0.00  0.00    -0.173 NA
ATOM      4  C   UNL     1      -2.458   0.189   0.368  0.00  0.00    +0.069 A 
ATOM      5  C   UNL     1      -2.791  -0.372   1.568  0.00  0.00    +0.056 A 
ATOM      6  C   UNL     1      -3.588   0.007  -0.512  0.00  0.00    +0.105 A 
ATOM      7  C   UNL     1      -1.253   0.812   0.071  0.00  0.00    +0.175 C 
ATOM      8  C   UNL     1      -3.549   0.484  -1.835  0.00  0.00    +0.023 C 
ATOM      9  C   UNL     1      -1.242   1.279  -1.258  0.00  0.00    +0.175 C 
ATOM     10  C   UNL     1      -2.091  -0.518   2.856  0.00  0.00    +0.052 C 
ATOM     11  C   UNL     1      -2.335   1.124  -2.168  0.00  0.00    +0.034 C 
ATOM     12  H   UNL     1      -4.556  -1.316   2.091  0.00  0.00    +0.189 HD
ENDROOT
BRANCH   7  13
ATOM     13  O   UNL     1      -0.204   0.971   0.917  0.00  0.00    -0.451 OA
BRANCH  13  14
ATOM     14  C   UNL     1       1.010   0.406   0.557  0.00  0.00    +0.147 C 
ATOM     15  C   UNL     1       1.053  -0.896   0.059  0.00  0.00    +0.048 C 
ATOM     16  C   UNL     1       2.188   1.140   0.692  0.00  0.00    +0.048 C 
ATOM     17  C   UNL     1       2.274  -1.464  -0.305  0.00  0.00    +0.072 C 
ATOM     18  C   UNL     1       3.409   0.572   0.329  0.00  0.00    +0.072 C 
ATOM     19  C   UNL     1       3.452  -0.730  -0.170  0.00  0.00    +0.021 C 
BRANCH  18  21
ATOM     20  N   UNL     1       5.597   1.935   0.580  0.00  0.00    -0.191 NA
ATOM     21  C   UNL     1       4.617   1.325   0.467  0.00  0.00    +0.101 C 
ENDBRANCH  18  21
BRANCH  17  23
ATOM     22  N   UNL     1       2.353  -3.881  -1.230  0.00  0.00    -0.191 NA
ATOM     23  C   UNL     1       2.318  -2.798  -0.815  0.00  0.00    +0.101 C 
ENDBRANCH  17  23
ENDBRANCH  13  14
ENDBRANCH   7  13
TORSDOF 4
