REMARK  Name = 46937106
REMARK  6 active torsions:
REMARK  status: ('A' for Active; 'I' for Inactive)
REMARK    1  A    between atoms: C_1  and  S_13
REMARK    2  A    between atoms: C_2  and  C_7
REMARK    3  A    between atoms: S_13  and  N_16
REMARK    4  A    between atoms: N_16  and  C_18
REMARK    5  A    between atoms: C_18  and  C_20
REMARK    6  A    between atoms: C_20  and  N_22
REMARK                            x       y       z     vdW  Elec       q    Type
REMARK                         _______ _______ _______ _____ _____    ______ ____
ROOT
ATOM      1  C   UNL     1       0.621  -1.326   0.106  0.00  0.00    +0.122 C 
ATOM      2  C   UNL     1      -1.983  -0.327   0.018  0.00  0.00    +0.000 C 
ATOM      3  C   UNL     1      -0.195  -1.599  -0.993  0.00  0.00    +0.020 C 
ATOM      4  C   UNL     1       0.134  -0.553   1.161  0.00  0.00    +0.020 C 
ATOM      5  C   UNL     1      -1.496  -1.099  -1.036  0.00  0.00    +0.001 C 
ATOM      6  C   UNL     1      -1.167  -0.054   1.117  0.00  0.00    +0.001 C 
ENDROOT
BRANCH   2   7
ATOM      7  C   UNL     1      -3.333   0.192  -0.028  0.00  0.00    +0.000 C 
ATOM      8  C   UNL     1      -3.580   1.441  -0.597  0.00  0.00    +0.000 C 
ATOM      9  C   UNL     1      -4.386  -0.557   0.496  0.00  0.00    +0.000 C 
ATOM     10  C   UNL     1      -4.882   1.941  -0.641  0.00  0.00    +0.000 C 
ATOM     11  C   UNL     1      -5.687  -0.057   0.452  0.00  0.00    +0.000 C 
ATOM     12  C   UNL     1      -5.935   1.192  -0.117  0.00  0.00    +0.000 C 
ENDBRANCH   2   7
BRANCH   1  13
ATOM     13  S   UNL     1       2.250  -1.951   0.161  0.00  0.00    +0.061 S 
ATOM     14  O   UNL     1       2.665  -2.057   1.554  0.00  0.00    -0.153 OA
ATOM     15  O   UNL     1       2.302  -3.132  -0.691  0.00  0.00    -0.153 OA
BRANCH  13  16
ATOM     16  N   UNL     1       3.148  -0.702  -0.584  0.00  0.00    -0.170 NA
ATOM     17  H   UNL     1       2.795  -0.612  -1.536  0.00  0.00    +0.149 HD
BRANCH  16  18
ATOM     18  C   UNL     1       3.149   0.647  -0.001  0.00  0.00    +0.180 C 
BRANCH  18  20
ATOM     19  O   UNL     1       5.367   0.792  -0.949  0.00  0.00    -0.269 OA
ATOM     20  C   UNL     1       4.459   1.319  -0.317  0.00  0.00    +0.288 C 
BRANCH  20  22
ATOM     21  O   UNL     1       3.809   3.199   0.762  0.00  0.00    -0.071 OA
ATOM     22  N   UNL     1       4.739   2.691   0.127  0.00  0.00    -0.027 NA
ENDBRANCH  20  22
ENDBRANCH  18  20
ENDBRANCH  16  18
ENDBRANCH  13  16
ENDBRANCH   1  13
TORSDOF 6
