REMARK  Name = 10258
REMARK  2 active torsions:
REMARK  status: ('A' for Active; 'I' for Inactive)
REMARK    1  A    between atoms: C_4  and  O_11
REMARK    2  A    between atoms: O_11  and  S_12
REMARK                            x       y       z     vdW  Elec       q    Type
REMARK                         _______ _______ _______ _____ _____    ______ ____
ROOT
ATOM      1  N   UNL     1       0.919   1.924   0.002  0.00  0.00    -0.309 N 
ATOM      2  C   UNL     1       1.019  -0.305   0.002  0.00  0.00    +0.052 C 
ATOM      3  C   UNL     1       1.792   0.859   0.001  0.00  0.00    +0.051 C 
ATOM      4  C   UNL     1      -0.345   0.099   0.005  0.00  0.00    +0.191 C 
ATOM      5  C   UNL     1      -0.374   1.475   0.005  0.00  0.00    +0.102 C 
ATOM      6  C   UNL     1       1.674  -1.553   0.001  0.00  0.00    +0.004 C 
ATOM      7  C   UNL     1       3.191   0.837  -0.003  0.00  0.00    +0.015 C 
ATOM      8  C   UNL     1       3.073  -1.590  -0.002  0.00  0.00    +0.000 C 
ATOM      9  C   UNL     1       3.818  -0.413  -0.004  0.00  0.00    +0.001 C 
ATOM     10  H   UNL     1       1.187   2.871   0.002  0.00  0.00    +0.152 HD
ENDROOT
BRANCH   4  11
ATOM     11  O   UNL     1      -1.435  -0.682   0.007  0.00  0.00    -0.321 OA
BRANCH  11  12
ATOM     12  S   UNL     1      -2.990  -0.151   0.010  0.00  0.00    +0.282 S 
ATOM     13  O   UNL     1      -3.848  -1.527  -0.167  0.00  0.00    -0.105 OA
ATOM     14  O   UNL     1      -3.203   0.648  -1.183  0.00  0.00    -0.105 OA
ATOM     15  O   UNL     1      -3.289   0.379   1.327  0.00  0.00    -0.012 OA
ENDBRANCH  11  12
ENDBRANCH   4  11
TORSDOF 2
