REMARK  Name = 9543437
REMARK  4 active torsions:
REMARK  status: ('A' for Active; 'I' for Inactive)
REMARK    1  A    between atoms: C_3  and  C_16
REMARK    2  A    between atoms: C_4  and  C_9
REMARK    3  A    between atoms: C_5  and  C_21
REMARK    4  A    between atoms: C_24  and  S_27
REMARK                            x       y       z     vdW  Elec       q    Type
REMARK                         _______ _______ _______ _____ _____    ______ ____
ROOT
ATOM      1  N   UNL     1       0.298   1.132  -0.010  0.00  0.00    -0.315 N 
ATOM      2  N   UNL     1       0.170  -1.061  -0.339  0.00  0.00    -0.315 N 
ATOM      3  C   UNL     1      -1.035   0.838  -0.059  0.00  0.00    +0.059 C 
ATOM      4  C   UNL     1      -1.089  -0.521  -0.263  0.00  0.00    +0.059 C 
ATOM      5  C   UNL     1       0.982  -0.039  -0.183  0.00  0.00    +0.168 C 
ATOM      6  H   UNL     1       0.694   2.023   0.125  0.00  0.00    +0.149 HD
ATOM      7  H   UNL     1       0.412  -2.005  -0.479  0.00  0.00    +0.149 HD
ENDROOT
BRANCH   4   9
ATOM      8  I   UNL     1      -4.920  -3.448   2.322  0.00  0.00    -0.043 I 
ATOM      9  C   UNL     1      -2.286  -1.298  -0.384  0.00  0.00    +0.015 C 
ATOM     10  C   UNL     1      -2.877  -1.859   0.751  0.00  0.00    +0.007 C 
ATOM     11  C   UNL     1      -2.867  -1.499  -1.638  0.00  0.00    +0.001 C 
ATOM     12  C   UNL     1      -4.043  -2.616   0.632  0.00  0.00    +0.030 C 
ATOM     13  C   UNL     1      -4.033  -2.256  -1.757  0.00  0.00    +0.000 C 
ATOM     14  C   UNL     1      -4.620  -2.814  -0.622  0.00  0.00    +0.006 C 
ENDBRANCH   4   9
BRANCH   3  16
ATOM     15  N   UNL     1      -4.041   3.794   0.374  0.00  0.00    -0.242 NA
ATOM     16  C   UNL     1      -2.059   1.842   0.088  0.00  0.00    +0.017 C 
ATOM     17  C   UNL     1      -2.560   2.150   1.348  0.00  0.00    +0.022 C 
ATOM     18  C   UNL     1      -2.549   2.510  -1.030  0.00  0.00    +0.022 C 
ATOM     19  C   UNL     1      -3.541   3.124   1.437  0.00  0.00    +0.099 C 
ATOM     20  C   UNL     1      -3.530   3.468  -0.835  0.00  0.00    +0.099 C 
ENDBRANCH   3  16
BRANCH   5  21
ATOM     21  C   UNL     1       2.424  -0.091  -0.186  0.00  0.00    +0.014 C 
ATOM     22  C   UNL     1       3.082  -1.239   0.256  0.00  0.00    -0.000 C 
ATOM     23  C   UNL     1       3.160   1.008  -0.628  0.00  0.00    -0.000 C 
ATOM     24  C   UNL     1       5.212  -0.189  -0.189  0.00  0.00    +0.056 C 
ATOM     25  C   UNL     1       4.476  -1.288   0.254  0.00  0.00    +0.008 C 
ATOM     26  C   UNL     1       4.554   0.959  -0.630  0.00  0.00    +0.008 C 
BRANCH  24  27
ATOM     27  S   UNL     1       7.004  -0.252  -0.191  0.00  0.00    +0.066 S 
ATOM     28  O   UNL     1       7.393  -1.500   0.552  0.00  0.00    -0.251 OA
ATOM     29  C   UNL     1       7.293   1.144   0.929  0.00  0.00    +0.111 C 
ENDBRANCH  24  27
ENDBRANCH   5  21
TORSDOF 4
