REMARK  Name = 763808
REMARK  4 active torsions:
REMARK  status: ('A' for Active; 'I' for Inactive)
REMARK    1  A    between atoms: C_2  and  C_9
REMARK    2  A    between atoms: C_5  and  N_19
REMARK    3  A    between atoms: C_11  and  C_14
REMARK    4  A    between atoms: C_14  and  O_15
REMARK                            x       y       z     vdW  Elec       q    Type
REMARK                         _______ _______ _______ _____ _____    ______ ____
ROOT
ATOM      1 CL   UNL     1       0.269   2.595   0.589  0.00  0.00    -0.082 Cl
ATOM      2  C   UNL     1       0.324   0.050  -0.417  0.00  0.00    +0.045 C 
ATOM      3  C   UNL     1       1.035   1.106   0.153  0.00  0.00    +0.062 C 
ATOM      4  C   UNL     1       0.982  -1.134  -0.752  0.00  0.00    +0.006 C 
ATOM      5  C   UNL     1       3.062  -0.205   0.054  0.00  0.00    +0.144 C 
ATOM      6  C   UNL     1       2.404   0.978   0.388  0.00  0.00    +0.036 C 
ATOM      7  C   UNL     1       2.351  -1.261  -0.517  0.00  0.00    +0.024 C 
ENDROOT
BRANCH   2   9
ATOM      8  O   UNL     1      -1.893  -0.274   0.334  0.00  0.00    -0.447 OA
ATOM      9  C   UNL     1      -1.096   0.139  -0.681  0.00  0.00    +0.146 C 
ATOM     10  C   UNL     1      -1.833   0.557  -1.754  0.00  0.00    +0.041 C 
ATOM     11  C   UNL     1      -3.171  -0.116  -0.100  0.00  0.00    +0.220 C 
ATOM     12  C   UNL     1      -3.188   0.392  -1.378  0.00  0.00    +0.047 C 
BRANCH  11  14
ATOM     13  O   UNL     1      -4.100  -0.940   1.945  0.00  0.00    -0.242 OA
ATOM     14  C   UNL     1      -4.224  -0.481   0.785  0.00  0.00    +0.373 C 
BRANCH  14  15
ATOM     15  O   UNL     1      -5.478  -0.285   0.261  0.00  0.00    -0.475 OA
ATOM     16  H   UNL     1      -5.575   0.058  -0.606  0.00  0.00    +0.296 HD
ENDBRANCH  14  15
ENDBRANCH  11  14
ENDBRANCH   2   9
BRANCH   5  19
ATOM     17  O   UNL     1       5.026  -1.410  -0.013  0.00  0.00    -0.126 OA
ATOM     18  O   UNL     1       5.076   0.625   0.808  0.00  0.00    -0.126 OA
ATOM     19  N   UNL     1       4.455  -0.336   0.295  0.00  0.00    +0.058 N 
ENDBRANCH   5  19
TORSDOF 4
