REMARK  Name = 16122643
REMARK  4 active torsions:
REMARK  status: ('A' for Active; 'I' for Inactive)
REMARK    1  A    between atoms: N_2  and  C_14
REMARK    2  A    between atoms: C_10  and  C_25
REMARK    3  A    between atoms: C_15  and  O_20
REMARK    4  A    between atoms: C_18  and  O_22
REMARK                            x       y       z     vdW  Elec       q    Type
REMARK                         _______ _______ _______ _____ _____    ______ ____
ROOT
ATOM      1  O   UNL     1       0.465   1.244  -0.157  0.00  0.00    -0.252 OA
ATOM      2  N   UNL     1      -0.698  -0.774   0.092  0.00  0.00    -0.266 N 
ATOM      3  N   UNL     1       1.610  -0.776   0.121  0.00  0.00    -0.256 N 
ATOM      4  N   UNL     1       3.249   0.927  -0.080  0.00  0.00    -0.251 NA
ATOM      5  N   UNL     1       5.237  -1.032   0.198  0.00  0.00    -0.255 NA
ATOM      6  C   UNL     1       0.465   0.028   0.002  0.00  0.00    +0.309 C 
ATOM      7  C   UNL     1       2.965  -0.371   0.084  0.00  0.00    +0.132 C 
ATOM      8  C   UNL     1       3.925  -1.339   0.221  0.00  0.00    +0.186 C 
ATOM      9  C   UNL     1       4.562   1.234  -0.102  0.00  0.00    +0.182 C 
ATOM     10  C   UNL     1       5.538   0.271   0.034  0.00  0.00    +0.147 C 
ATOM     11  H   UNL     1      -0.544  -1.737   0.220  0.00  0.00    +0.157 HD
ATOM     12  H   UNL     1       1.450  -1.739   0.245  0.00  0.00    +0.158 HD
ENDROOT
BRANCH   2  14
ATOM     13 CL   UNL     1      -4.023   3.057  -0.449  0.00  0.00    -0.079 Cl
ATOM     14  C   UNL     1      -2.036  -0.378   0.024  0.00  0.00    +0.087 C 
ATOM     15  C   UNL     1      -3.062  -1.316   0.134  0.00  0.00    +0.155 C 
ATOM     16  C   UNL     1      -2.342   0.972  -0.156  0.00  0.00    +0.032 C 
ATOM     17  C   UNL     1      -4.393  -0.906   0.064  0.00  0.00    +0.076 C 
ATOM     18  C   UNL     1      -4.699   0.443  -0.116  0.00  0.00    +0.152 C 
ATOM     19  C   UNL     1      -3.673   1.382  -0.226  0.00  0.00    +0.093 C 
BRANCH  15  20
ATOM     20  O   UNL     1      -2.785  -2.639   0.310  0.00  0.00    -0.470 OA
ATOM     21  C   UNL     1      -2.638  -3.432  -0.866  0.00  0.00    +0.253 C 
ENDBRANCH  15  20
BRANCH  18  22
ATOM     22  O   UNL     1      -6.009   0.816  -0.181  0.00  0.00    -0.470 OA
ATOM     23  C   UNL     1      -6.646   1.158   1.047  0.00  0.00    +0.253 C 
ENDBRANCH  18  22
ENDBRANCH   2  14
BRANCH  10  25
ATOM     24  N   UNL     1       8.064   0.845  -0.011  0.00  0.00    -0.190 NA
ATOM     25  C   UNL     1       6.926   0.587   0.009  0.00  0.00    +0.117 C 
ENDBRANCH  10  25
TORSDOF 4
