REMARK  Name = 10219702
REMARK  0 active torsions:
REMARK  status: ('A' for Active; 'I' for Inactive)
REMARK                            x       y       z     vdW  Elec       q    Type
REMARK                         _______ _______ _______ _____ _____    ______ ____
ROOT
ATOM      1  S   UNL     1      -3.179   0.373  -0.486  0.00  0.00    -0.134 S 
ATOM      2  O   UNL     1       0.760   2.598   0.126  0.00  0.00    -0.210 OA
ATOM      3  N   UNL     1       0.924  -1.369  -0.042  0.00  0.00    -0.294 N 
ATOM      4  N   UNL     1       2.045   0.705   0.005  0.00  0.00    -0.322 NA
ATOM      5  C   UNL     1      -0.323  -0.791  -0.013  0.00  0.00    +0.037 C 
ATOM      6  C   UNL     1      -1.497  -1.739  -0.014  0.00  0.00    +0.053 C 
ATOM      7  C   UNL     1      -0.445   0.552   0.022  0.00  0.00    +0.093 C 
ATOM      8  C   UNL     1      -2.822  -1.138   0.443  0.00  0.00    +0.064 C 
ATOM      9  C   UNL     1      -1.730   1.332   0.029  0.00  0.00    +0.098 C 
ATOM     10  C   UNL     1       0.832   1.373   0.055  0.00  0.00    +0.203 C 
ATOM     11  C   UNL     1       2.054  -0.595  -0.037  0.00  0.00    +0.174 C 
ATOM     12  C   UNL     1       3.382  -1.302  -0.088  0.00  0.00    +0.085 C 
ATOM     13  H   UNL     1       1.005  -2.350  -0.067  0.00  0.00    +0.154 HD
ENDROOT
TORSDOF 0
