REMARK  Name = 23647652
REMARK  4 active torsions:
REMARK  status: ('A' for Active; 'I' for Inactive)
REMARK    1  A    between atoms: C_2  and  C_16
REMARK    2  A    between atoms: C_4  and  C_10
REMARK    3  A    between atoms: C_17  and  S_22
REMARK    4  A    between atoms: S_22  and  N_25
REMARK                            x       y       z     vdW  Elec       q    Type
REMARK                         _______ _______ _______ _____ _____    ______ ____
ROOT
ATOM      1  O   UNL     1      -1.140   1.049  -0.162  0.00  0.00    -0.453 OA
ATOM      2  C   UNL     1      -0.077   1.819   0.188  0.00  0.00    +0.145 C 
ATOM      3  C   UNL     1      -0.497   3.051   0.630  0.00  0.00    +0.041 C 
ATOM      4  C   UNL     1      -2.252   1.798   0.058  0.00  0.00    +0.147 C 
ATOM      5  C   UNL     1      -1.910   3.038   0.546  0.00  0.00    +0.041 C 
ENDROOT
BRANCH   4  10
ATOM      6  S   UNL     1      -2.933  -1.291   0.386  0.00  0.00    -0.027 S 
ATOM      7  O   UNL     1      -6.222   0.267  -0.722  0.00  0.00    -0.209 OA
ATOM      8  N   UNL     1      -5.407  -1.832  -0.169  0.00  0.00    -0.311 NA
ATOM      9  N   UNL     1      -4.074  -3.701   0.484  0.00  0.00    -0.327 N 
ATOM     10  C   UNL     1      -3.553   1.308  -0.200  0.00  0.00    +0.057 C 
ATOM     11  C   UNL     1      -3.933   0.018  -0.087  0.00  0.00    +0.131 C 
ATOM     12  C   UNL     1      -5.309  -0.467  -0.366  0.00  0.00    +0.213 C 
ATOM     13  C   UNL     1      -4.296  -2.385   0.211  0.00  0.00    +0.222 C 
ATOM     14  H   UNL     1      -3.180  -4.001   0.766  0.00  0.00    +0.145 HD
ATOM     15  H   UNL     1      -4.808  -4.352   0.400  0.00  0.00    +0.145 HD
ENDBRANCH   4  10
BRANCH   2  16
ATOM     16  C   UNL     1       1.216   1.199   0.027  0.00  0.00    +0.035 C 
ATOM     17  C   UNL     1       3.714  -0.004  -0.280  0.00  0.00    +0.122 C 
ATOM     18  C   UNL     1       2.374   1.902   0.358  0.00  0.00    +0.004 C 
ATOM     19  C   UNL     1       1.307  -0.106  -0.457  0.00  0.00    +0.004 C 
ATOM     20  C   UNL     1       3.623   1.301   0.205  0.00  0.00    +0.020 C 
ATOM     21  C   UNL     1       2.556  -0.707  -0.611  0.00  0.00    +0.020 C 
BRANCH  17  22
ATOM     22  S   UNL     1       5.278  -0.755  -0.476  0.00  0.00    +0.060 S 
ATOM     23  O   UNL     1       5.175  -1.794  -1.492  0.00  0.00    -0.153 OA
ATOM     24  O   UNL     1       6.263   0.306  -0.638  0.00  0.00    -0.153 OA
BRANCH  22  25
ATOM     25  N   UNL     1       5.523  -1.498   1.044  0.00  0.00    -0.178 NA
ATOM     26  C   UNL     1       4.576  -2.516   1.522  0.00  0.00    +0.110 C 
ATOM     27  H   UNL     1       5.531  -0.753   1.739  0.00  0.00    +0.149 HD
ENDBRANCH  22  25
ENDBRANCH  17  22
ENDBRANCH   2  16
TORSDOF 4
