REMARK  Name = 3758
REMARK  2 active torsions:
REMARK  status: ('A' for Active; 'I' for Inactive)
REMARK    1  A    between atoms: N_3  and  C_15
REMARK    2  A    between atoms: C_15  and  C_16
REMARK                            x       y       z     vdW  Elec       q    Type
REMARK                         _______ _______ _______ _____ _____    ______ ____
ROOT
ATOM      1  O   UNL     1       0.750  -2.496  -0.605  0.00  0.00    -0.246 OA
ATOM      2  O   UNL     1      -3.275  -0.417   0.630  0.00  0.00    -0.265 OA
ATOM      3  N   UNL     1       0.673  -0.170  -0.585  0.00  0.00    -0.269 N 
ATOM      4  N   UNL     1      -1.270  -1.485   0.015  0.00  0.00    -0.246 N 
ATOM      5  N   UNL     1      -1.831   2.155   0.181  0.00  0.00    -0.310 N 
ATOM      6  N   UNL     1       0.297   2.259  -0.474  0.00  0.00    -0.302 N 
ATOM      7  C   UNL     1      -0.103   0.956  -0.349  0.00  0.00    +0.132 A 
ATOM      8  C   UNL     1      -1.408   0.864   0.052  0.00  0.00    +0.133 A 
ATOM      9  C   UNL     1       0.107  -1.458  -0.409  0.00  0.00    +0.335 A 
ATOM     10  C   UNL     1      -2.103  -0.363   0.269  0.00  0.00    +0.280 A 
ATOM     11  C   UNL     1      -1.850  -2.812   0.197  0.00  0.00    +0.138 C 
ATOM     12  C   UNL     1      -0.770   2.959  -0.146  0.00  0.00    +0.183 C 
ATOM     13  H   UNL     1      -2.728   2.453   0.456  0.00  0.00    +0.149 HD
ATOM     14  H   UNL     1       1.181   2.597  -0.746  0.00  0.00    +0.150 HD
ENDROOT
BRANCH   3  15
ATOM     15  C   UNL     1       2.059  -0.021  -1.011  0.00  0.00    +0.112 C 
BRANCH  15  16
ATOM     16  C   UNL     1       3.030   0.041   0.173  0.00  0.00    +0.023 C 
ATOM     17  C   UNL     1       2.951  -1.253   0.985  0.00  0.00    +0.002 C 
ATOM     18  C   UNL     1       2.742   1.242   1.077  0.00  0.00    +0.002 C 
ENDBRANCH  15  16
ENDBRANCH   3  15
TORSDOF 2
