REMARK  Name = 5287976
REMARK  10 active torsions:
REMARK  status: ('A' for Active; 'I' for Inactive)
REMARK    1  A    between atoms: C_1  and  N_2
REMARK    2  A    between atoms: C_1  and  C_6
REMARK    3  A    between atoms: C_1  and  C_13
REMARK    4  A    between atoms: C_6  and  C_7
REMARK    5  A    between atoms: C_13  and  O_14
REMARK    6  A    between atoms: C_13  and  C_16
REMARK    7  A    between atoms: C_16  and  C_17
REMARK    8  A    between atoms: C_17  and  C_18
REMARK    9  A    between atoms: C_17  and  C_22
REMARK   10  A    between atoms: C_22  and  O_23
REMARK                            x       y       z     vdW  Elec       q    Type
REMARK                         _______ _______ _______ _____ _____    ______ ____
ROOT
ATOM      1  C   UNL     1      -0.364  -1.434  -0.662  0.00  0.00    -0.038 C 
ENDROOT
BRANCH   1   2
ATOM      2  N   UNL     1       0.184  -2.590  -1.383  0.00  0.00    +0.383 N 
ATOM      3  H   UNL     1      -0.301  -2.697  -2.273  0.00  0.00    -0.089 HD
ATOM      4  H   UNL     1       0.056  -3.432  -0.822  0.00  0.00    -0.089 HD
ATOM      5  H   UNL     1       1.179  -2.443  -1.553  0.00  0.00    -0.089 HD
ENDBRANCH   1   2
BRANCH   1   6
ATOM      6  C   UNL     1      -1.895  -1.604  -0.595  0.00  0.00    -0.020 C 
BRANCH   6   7
ATOM      7  C   UNL     1      -2.636  -0.419   0.022  0.00  0.00    -0.002 C 
ATOM      8  C   UNL     1      -2.367   0.864  -0.775  0.00  0.00    -0.000 C 
ATOM      9  C   UNL     1      -4.142  -0.706   0.105  0.00  0.00    -0.000 C 
ATOM     10  C   UNL     1      -3.140   2.053  -0.208  0.00  0.00    -0.000 C 
ATOM     11  C   UNL     1      -4.912   0.486   0.671  0.00  0.00    -0.000 C 
ATOM     12  C   UNL     1      -4.635   1.761  -0.119  0.00  0.00    -0.000 C 
ENDBRANCH   6   7
ENDBRANCH   1   6
BRANCH   1  13
ATOM     13  C   UNL     1       0.367  -1.264   0.693  0.00  0.00    +0.091 C 
BRANCH  13  14
ATOM     14  O   UNL     1       0.040  -2.361   1.548  0.00  0.00    -0.387 OA
ATOM     15  H   UNL     1      -0.925  -2.438   1.619  0.00  0.00    +0.210 HD
ENDBRANCH  13  14
BRANCH  13  16
ATOM     16  C   UNL     1       1.902  -1.158   0.591  0.00  0.00    +0.038 C 
BRANCH  16  17
ATOM     17  C   UNL     1       2.372   0.076  -0.217  0.00  0.00    +0.101 C 
BRANCH  17  18
ATOM     18  C   UNL     1       1.838   1.428   0.328  0.00  0.00    +0.011 C 
ATOM     19  C   UNL     1       2.318   1.751   1.746  0.00  0.00    +0.001 C 
ATOM     20  C   UNL     1       2.184   2.586  -0.614  0.00  0.00    +0.001 C 
ENDBRANCH  17  18
BRANCH  17  22
ATOM     21  O   UNL     1       4.649  -0.248   0.605  0.00  0.00    -0.250 OA
ATOM     22  C   UNL     1       3.895   0.133  -0.280  0.00  0.00    +0.313 C 
BRANCH  22  23
ATOM     23  O   UNL     1       4.342   0.647  -1.456  0.00  0.00    -0.480 OA
ATOM     24  H   UNL     1       3.729   0.927  -2.108  0.00  0.00    +0.295 HD
ENDBRANCH  22  23
ENDBRANCH  17  22
ENDBRANCH  16  17
ENDBRANCH  13  16
ENDBRANCH   1  13
TORSDOF 10
