REMARK  Name = 42627769
REMARK  10 active torsions:
REMARK  status: ('A' for Active; 'I' for Inactive)
REMARK    1  A    between atoms: C_1  and  C_3
REMARK    2  A    between atoms: C_1  and  N_6
REMARK    3  A    between atoms: C_1  and  C_22
REMARK    4  A    between atoms: C_3  and  O_4
REMARK    5  A    between atoms: N_6  and  S_8
REMARK    6  A    between atoms: S_8  and  C_11
REMARK    7  A    between atoms: C_16  and  O_17
REMARK    8  A    between atoms: O_17  and  C_18
REMARK    9  A    between atoms: C_18  and  C_19
REMARK   10  A    between atoms: C_22  and  C_24
REMARK                            x       y       z     vdW  Elec       q    Type
REMARK                         _______ _______ _______ _____ _____    ______ ____
ROOT
ATOM      1  C   UNL     1       3.281  -0.472  -0.586  0.00  0.00    +0.178 C 
ENDROOT
BRANCH   1   3
ATOM      2  O   UNL     1       5.534   0.341  -0.148  0.00  0.00    -0.249 OA
ATOM      3  C   UNL     1       4.765  -0.321  -0.833  0.00  0.00    +0.330 C 
BRANCH   3   4
ATOM      4  O   UNL     1       5.170  -1.022  -1.925  0.00  0.00    -0.479 OA
ATOM      5  H   UNL     1       4.548  -1.516  -2.422  0.00  0.00    +0.295 HD
ENDBRANCH   3   4
ENDBRANCH   1   3
BRANCH   1   6
ATOM      6  N   UNL     1       2.942   0.403   0.561  0.00  0.00    -0.170 NA
ATOM      7  H   UNL     1       2.137  -0.016   1.025  0.00  0.00    +0.149 HD
BRANCH   6   8
ATOM      8  S   UNL     1       2.559   2.036   0.294  0.00  0.00    +0.061 S 
ATOM      9  O   UNL     1       3.156   2.475  -0.953  0.00  0.00    -0.153 OA
ATOM     10  O   UNL     1       2.797   2.778   1.518  0.00  0.00    -0.153 OA
BRANCH   8  11
ATOM     11  C   UNL     1       0.808   1.967   0.065  0.00  0.00    +0.122 C 
ATOM     12  C   UNL     1       0.279   1.784  -1.212  0.00  0.00    +0.023 C 
ATOM     13  C   UNL     1      -0.045   2.099   1.161  0.00  0.00    +0.023 C 
ATOM     14  C   UNL     1      -1.103   1.732  -1.394  0.00  0.00    +0.038 C 
ATOM     15  C   UNL     1      -1.427   2.047   0.979  0.00  0.00    +0.038 C 
ATOM     16  C   UNL     1      -1.956   1.863  -0.298  0.00  0.00    +0.140 C 
BRANCH  16  17
ATOM     17  O   UNL     1      -3.304   1.813  -0.476  0.00  0.00    -0.461 OA
BRANCH  17  18
ATOM     18  C   UNL     1      -3.788   1.016  -1.556  0.00  0.00    +0.281 C 
BRANCH  18  19
ATOM     19  C   UNL     1      -5.098   0.465  -1.214  0.00  0.00    -0.044 C 
ATOM     20  C   UNL     1      -6.175   0.011  -0.936  0.00  0.00    -0.086 C 
ATOM     21  C   UNL     1      -7.485  -0.542  -0.596  0.00  0.00    +0.090 C 
ENDBRANCH  18  19
ENDBRANCH  17  18
ENDBRANCH  16  17
ENDBRANCH   8  11
ENDBRANCH   6   8
ENDBRANCH   1   6
BRANCH   1  22
ATOM     22  C   UNL     1       2.897  -1.929  -0.252  0.00  0.00    +0.056 C 
BRANCH  22  24
ATOM     23  N   UNL     1      -0.475  -2.937  -1.226  0.00  0.00    -0.312 N 
ATOM     24  C   UNL     1       1.456  -2.217  -0.401  0.00  0.00    -0.004 C 
ATOM     25  C   UNL     1       0.425  -1.877   0.519  0.00  0.00    +0.010 C 
ATOM     26  C   UNL     1      -0.776  -2.340  -0.023  0.00  0.00    +0.048 C 
ATOM     27  C   UNL     1       0.872  -2.868  -1.463  0.00  0.00    +0.058 C 
ATOM     28  C   UNL     1       0.398  -1.217   1.763  0.00  0.00    -0.003 C 
ATOM     29  C   UNL     1      -2.008  -2.175   0.620  0.00  0.00    +0.014 C 
ATOM     30  C   UNL     1      -0.827  -1.045   2.418  0.00  0.00    -0.022 C 
ATOM     31  C   UNL     1      -2.010  -1.518   1.854  0.00  0.00    -0.003 C 
ATOM     32  C   UNL     1      -0.863  -0.348   3.738  0.00  0.00    +0.031 C 
ATOM     33  H   UNL     1      -1.132  -3.354  -1.829  0.00  0.00    +0.152 HD
ENDBRANCH  22  24
ENDBRANCH   1  22
TORSDOF 10
