REMARK  Name = 2763754
REMARK  3 active torsions:
REMARK  status: ('A' for Active; 'I' for Inactive)
REMARK    1  A    between atoms: N_1  and  C_9
REMARK    2  A    between atoms: C_6  and  C_16
REMARK    3  A    between atoms: C_16  and  O_17
REMARK                            x       y       z     vdW  Elec       q    Type
REMARK                         _______ _______ _______ _____ _____    ______ ____
ROOT
ATOM      1  N   UNL     1      -0.489  -0.253  -0.069  0.00  0.00    -0.156 N 
ATOM      2  N   UNL     1      -1.383   0.709   0.224  0.00  0.00    -0.100 NA
ATOM      3  N   UNL     1      -2.425  -1.250  -0.335  0.00  0.00    -0.331 NA
ATOM      4  C   UNL     1      -1.124  -1.416  -0.399  0.00  0.00    +0.195 C 
ATOM      5  C   UNL     1      -0.409  -2.653  -0.770  0.00  0.00    +0.087 C 
ATOM      6  C   UNL     1      -2.534   0.056   0.048  0.00  0.00    +0.181 C 
ENDROOT
BRANCH   1   9
ATOM      7 CL   UNL     1       3.346   3.084  -0.549  0.00  0.00    -0.082 Cl
ATOM      8 CL   UNL     1       4.209  -2.083   0.746  0.00  0.00    -0.082 Cl
ATOM      9  C   UNL     1       0.872  -0.013  -0.015  0.00  0.00    +0.079 C 
ATOM     10  C   UNL     1       1.751  -1.048   0.302  0.00  0.00    +0.028 C 
ATOM     11  C   UNL     1       1.365   1.265  -0.278  0.00  0.00    +0.028 C 
ATOM     12  C   UNL     1       2.738   1.508  -0.224  0.00  0.00    +0.060 C 
ATOM     13  C   UNL     1       3.124  -0.806   0.356  0.00  0.00    +0.060 C 
ATOM     14  C   UNL     1       3.617   0.472   0.093  0.00  0.00    +0.023 C 
ENDBRANCH   1   9
BRANCH   6  16
ATOM     15  O   UNL     1      -3.998   1.873   0.598  0.00  0.00    -0.232 OA
ATOM     16  C   UNL     1      -3.799   0.696   0.252  0.00  0.00    +0.416 C 
BRANCH  16  17
ATOM     17  O   UNL     1      -4.862  -0.139   0.021  0.00  0.00    -0.469 OA
ATOM     18  H   UNL     1      -4.712  -1.027  -0.240  0.00  0.00    +0.296 HD
ENDBRANCH  16  17
ENDBRANCH   6  16
TORSDOF 3
