REMARK  Name = 23653503
REMARK  14 active torsions:
REMARK  status: ('A' for Active; 'I' for Inactive)
REMARK    1  A    between atoms: P_1  and  O_3
REMARK    2  A    between atoms: P_1  and  C_5
REMARK    3  A    between atoms: P_1  and  C_21
REMARK    4  A    between atoms: C_5  and  N_7
REMARK    5  A    between atoms: C_5  and  C_18
REMARK    6  A    between atoms: C_8  and  O_10
REMARK    7  A    between atoms: O_10  and  C_11
REMARK    8  A    between atoms: C_11  and  C_12
REMARK    9  A    between atoms: C_21  and  C_22
REMARK   10  A    between atoms: C_22  and  C_23
REMARK   11  A    between atoms: C_22  and  C_35
REMARK   12  A    between atoms: C_26  and  C_29
REMARK   13  A    between atoms: C_29  and  N_30
REMARK   14  A    between atoms: C_35  and  O_36
REMARK                            x       y       z     vdW  Elec       q    Type
REMARK                         _______ _______ _______ _____ _____    ______ ____
ROOT
ATOM      1  P   UNL     1       1.249   0.976   1.605  0.00  0.00    +0.238 P 
ATOM      2  O   UNL     1       2.700   1.323   1.762  0.00  0.00    -0.288 OA
ENDROOT
BRANCH   1   3
ATOM      3  O   UNL     1       0.325   1.439   2.851  0.00  0.00    -0.342 OA
ATOM      4  H   UNL     1       0.418   2.395   2.984  0.00  0.00    +0.218 HD
ENDBRANCH   1   3
BRANCH   1   5
ATOM      5  C   UNL     1       0.433   1.706   0.184  0.00  0.00    +0.152 C 
BRANCH   5   7
ATOM      6  O   UNL     1      -1.388   0.976  -1.975  0.00  0.00    -0.226 OA
ATOM      7  N   UNL     1      -0.948   1.256   0.286  0.00  0.00    -0.264 N 
ATOM      8  C   UNL     1      -1.735   0.931  -0.799  0.00  0.00    +0.402 C 
ATOM      9  H   UNL     1      -1.344   1.178   1.184  0.00  0.00    +0.153 HD
BRANCH   8  10
ATOM     10  O   UNL     1      -2.973   0.547  -0.370  0.00  0.00    -0.430 OA
BRANCH  10  11
ATOM     11  C   UNL     1      -3.902   0.178  -1.395  0.00  0.00    +0.237 C 
BRANCH  11  12
ATOM     12  C   UNL     1      -5.203  -0.215  -0.759  0.00  0.00    +0.021 C 
ATOM     13  C   UNL     1      -5.421  -1.540  -0.398  0.00  0.00    -0.001 C 
ATOM     14  C   UNL     1      -6.180   0.750  -0.536  0.00  0.00    -0.001 C 
ATOM     15  C   UNL     1      -6.630  -1.905   0.193  0.00  0.00    -0.000 C 
ATOM     16  C   UNL     1      -7.389   0.385   0.056  0.00  0.00    -0.000 C 
ATOM     17  C   UNL     1      -7.614  -0.942   0.420  0.00  0.00    -0.000 C 
ENDBRANCH  11  12
ENDBRANCH  10  11
ENDBRANCH   8  10
ENDBRANCH   5   7
BRANCH   5  18
ATOM     18  C   UNL     1       0.552   3.238   0.046  0.00  0.00    +0.028 C 
ATOM     19  C   UNL     1      -0.034   4.008   1.231  0.00  0.00    +0.002 C 
ATOM     20  C   UNL     1       2.003   3.669  -0.186  0.00  0.00    +0.002 C 
ENDBRANCH   5  18
ENDBRANCH   1   5
BRANCH   1  21
ATOM     21  C   UNL     1       0.943  -0.779   1.527  0.00  0.00    +0.104 C 
BRANCH  21  22
ATOM     22  C   UNL     1       1.486  -1.428   0.247  0.00  0.00    +0.131 C 
BRANCH  22  23
ATOM     23  C   UNL     1       2.992  -1.276   0.101  0.00  0.00    -0.012 C 
ATOM     24  C   UNL     1       3.492  -0.584  -0.984  0.00  0.00    -0.010 C 
ATOM     25  C   UNL     1       3.816  -1.835   1.057  0.00  0.00    -0.004 C 
ATOM     26  C   UNL     1       4.873  -0.445  -1.119  0.00  0.00    -0.045 C 
ATOM     27  C   UNL     1       5.198  -1.696   0.923  0.00  0.00    -0.001 C 
ATOM     28  C   UNL     1       5.726  -1.001  -0.165  0.00  0.00    -0.006 C 
BRANCH  26  29
ATOM     29  C   UNL     1       5.439   0.297  -2.282  0.00  0.00    -0.059 C 
BRANCH  29  30
ATOM     30  N   UNL     1       5.605   1.725  -2.006  0.00  0.00    +0.383 N 
ATOM     31  H   UNL     1       5.993   2.188  -2.828  0.00  0.00    -0.089 HD
ATOM     32  H   UNL     1       6.239   1.847  -1.216  0.00  0.00    -0.089 HD
ATOM     33  H   UNL     1       4.699   2.135  -1.780  0.00  0.00    -0.089 HD
ENDBRANCH  29  30
ENDBRANCH  26  29
ENDBRANCH  22  23
BRANCH  22  35
ATOM     34  O   UNL     1       1.818  -3.843   0.073  0.00  0.00    -0.250 OA
ATOM     35  C   UNL     1       1.060  -2.887   0.175  0.00  0.00    +0.318 C 
BRANCH  35  36
ATOM     36  O   UNL     1      -0.291  -3.030   0.238  0.00  0.00    -0.480 OA
ATOM     37  H   UNL     1      -0.839  -2.273   0.316  0.00  0.00    +0.295 HD
ENDBRANCH  35  36
ENDBRANCH  22  35
ENDBRANCH  21  22
ENDBRANCH   1  21
TORSDOF 14
