REMARK  Name = 11710963
REMARK  3 active torsions:
REMARK  status: ('A' for Active; 'I' for Inactive)
REMARK    1  A    between atoms: C_3  and  C_17
REMARK    2  A    between atoms: C_4  and  N_27
REMARK    3  A    between atoms: C_12  and  S_23
REMARK                            x       y       z     vdW  Elec       q    Type
REMARK                         _______ _______ _______ _____ _____    ______ ____
ROOT
ATOM      1  N   UNL     1      -0.879   0.672   0.233  0.00  0.00    -0.266 N 
ATOM      2  N   UNL     1      -1.411  -1.390  -0.384  0.00  0.00    -0.394 NA
ATOM      3  C   UNL     1       1.903   0.420  -0.339  0.00  0.00    +0.015 C 
ATOM      4  C   UNL     1       1.435   1.443   0.734  0.00  0.00    -0.041 C 
ATOM      5  C   UNL     1       1.040  -0.859  -0.263  0.00  0.00    +0.077 C 
ATOM      6  C   UNL     1      -0.036   1.823   0.499  0.00  0.00    +0.076 C 
ATOM      7  C   UNL     1      -0.416  -0.557  -0.164  0.00  0.00    +0.164 C 
ATOM      8  C   UNL     1      -2.249   0.634   0.256  0.00  0.00    +0.079 C 
ATOM      9  C   UNL     1      -2.556  -0.669  -0.131  0.00  0.00    +0.129 C 
ATOM     10  C   UNL     1      -3.228   1.584   0.562  0.00  0.00    +0.018 C 
ATOM     11  C   UNL     1      -3.902  -1.063  -0.215  0.00  0.00    +0.105 C 
ATOM     12  C   UNL     1      -4.896  -0.126   0.092  0.00  0.00    +0.091 C 
ATOM     13  C   UNL     1      -4.562   1.175   0.473  0.00  0.00    +0.016 C 
ENDROOT
BRANCH   3  17
ATOM     14  F   UNL     1       3.748   0.898  -2.442  0.00  0.00    -0.204 F 
ATOM     15  F   UNL     1       5.703  -1.463   2.087  0.00  0.00    -0.202 F 
ATOM     16  F   UNL     1       7.370  -0.943  -0.017  0.00  0.00    -0.202 F 
ATOM     17  C   UNL     1       3.376   0.054  -0.255  0.00  0.00    +0.006 C 
ATOM     18  C   UNL     1       4.221   0.321  -1.328  0.00  0.00    +0.138 C 
ATOM     19  C   UNL     1       3.871  -0.547   0.899  0.00  0.00    +0.030 C 
ATOM     20  C   UNL     1       5.223  -0.883   0.980  0.00  0.00    +0.167 C 
ATOM     21  C   UNL     1       5.572  -0.016  -1.248  0.00  0.00    +0.061 C 
ATOM     22  C   UNL     1       6.073  -0.618  -0.094  0.00  0.00    +0.170 C 
ENDBRANCH   3  17
BRANCH  12  23
ATOM     23  S   UNL     1      -6.577  -0.593  -0.006  0.00  0.00    +0.007 S 
ATOM     24  O   UNL     1      -6.650  -2.036   0.167  0.00  0.00    -0.169 OA
ATOM     25  O   UNL     1      -7.358   0.280   0.858  0.00  0.00    -0.169 OA
ATOM     26  C   UNL     1      -7.041  -0.217  -1.681  0.00  0.00    +0.181 C 
ENDBRANCH  12  23
BRANCH   4  27
ATOM     27  N   UNL     1       2.227   2.675   0.724  0.00  0.00    +0.383 N 
ATOM     28  H   UNL     1       3.210   2.450   0.879  0.00  0.00    -0.089 HD
ATOM     29  H   UNL     1       1.900   3.295   1.465  0.00  0.00    -0.089 HD
ATOM     30  H   UNL     1       2.122   3.139  -0.178  0.00  0.00    -0.089 HD
ENDBRANCH   4  27
TORSDOF 3
