REMARK  Name = 16741275
REMARK  14 active torsions:
REMARK  status: ('A' for Active; 'I' for Inactive)
REMARK    1  A    between atoms: N_2  and  C_19
REMARK    2  A    between atoms: C_3  and  C_5
REMARK    3  A    between atoms: C_5  and  N_8
REMARK    4  A    between atoms: C_9  and  O_11
REMARK    5  A    between atoms: O_11  and  C_12
REMARK    6  A    between atoms: C_12  and  C_13
REMARK    7  A    between atoms: C_19  and  P_20
REMARK    8  A    between atoms: P_20  and  O_22
REMARK    9  A    between atoms: P_20  and  O_24
REMARK   10  A    between atoms: O_24  and  C_25
REMARK   11  A    between atoms: C_25  and  C_27
REMARK   12  A    between atoms: C_25  and  C_30
REMARK   13  A    between atoms: C_27  and  O_28
REMARK   14  A    between atoms: C_30  and  C_31
REMARK                            x       y       z     vdW  Elec       q    Type
REMARK                         _______ _______ _______ _____ _____    ______ ____
ROOT
ATOM      1  O   UNL     1      -0.088  -0.415   2.950  0.00  0.00    -0.273 OA
ATOM      2  N   UNL     1       1.867   0.113   1.817  0.00  0.00    -0.293 N 
ATOM      3  C   UNL     1       0.544   0.311   2.185  0.00  0.00    +0.241 C 
ATOM      4  H   UNL     1       2.283   0.754   1.195  0.00  0.00    +0.150 HD
ENDROOT
BRANCH   3   5
ATOM      5  C   UNL     1      -0.041   1.572   1.563  0.00  0.00    +0.151 C 
ATOM      6  C   UNL     1       0.175   2.776   2.468  0.00  0.00    +0.031 C 
BRANCH   5   8
ATOM      7  O   UNL     1      -1.280   0.402  -0.788  0.00  0.00    -0.226 OA
ATOM      8  N   UNL     1      -1.443   1.349   1.323  0.00  0.00    -0.264 N 
ATOM      9  C   UNL     1      -1.946   0.783   0.168  0.00  0.00    +0.402 C 
ATOM     10  H   UNL     1      -2.080   1.616   2.024  0.00  0.00    +0.153 HD
BRANCH   9  11
ATOM     11  O   UNL     1      -3.308   0.707   0.244  0.00  0.00    -0.430 OA
BRANCH  11  12
ATOM     12  C   UNL     1      -3.966   0.136  -0.893  0.00  0.00    +0.237 C 
BRANCH  12  13
ATOM     13  C   UNL     1      -5.447   0.127  -0.649  0.00  0.00    +0.021 C 
ATOM     14  C   UNL     1      -6.046  -0.973  -0.036  0.00  0.00    -0.001 C 
ATOM     15  C   UNL     1      -6.224   1.220  -1.034  0.00  0.00    -0.001 C 
ATOM     16  C   UNL     1      -7.422  -0.982   0.191  0.00  0.00    -0.000 C 
ATOM     17  C   UNL     1      -7.600   1.211  -0.807  0.00  0.00    -0.000 C 
ATOM     18  C   UNL     1      -8.199   0.111  -0.194  0.00  0.00    -0.000 C 
ENDBRANCH  12  13
ENDBRANCH  11  12
ENDBRANCH   9  11
ENDBRANCH   5   8
ENDBRANCH   3   5
BRANCH   2  19
ATOM     19  C   UNL     1       2.663  -0.992   2.304  0.00  0.00    +0.207 C 
BRANCH  19  20
ATOM     20  P   UNL     1       2.416  -2.358   1.190  0.00  0.00    +0.360 P 
ATOM     21  O   UNL     1       0.990  -2.818   1.085  0.00  0.00    -0.256 OA
BRANCH  20  22
ATOM     22  O   UNL     1       3.424  -3.491   1.756  0.00  0.00    -0.322 OA
ATOM     23  H   UNL     1       3.359  -4.286   1.205  0.00  0.00    +0.220 HD
ENDBRANCH  20  22
BRANCH  20  24
ATOM     24  O   UNL     1       3.076  -1.914  -0.219  0.00  0.00    -0.284 OA
BRANCH  24  25
ATOM     25  C   UNL     1       2.385  -1.061  -1.113  0.00  0.00    +0.226 C 
BRANCH  25  27
ATOM     26  O   UNL     1       1.266  -3.122  -1.758  0.00  0.00    -0.248 OA
ATOM     27  C   UNL     1       1.385  -1.909  -1.873  0.00  0.00    +0.342 C 
BRANCH  27  28
ATOM     28  O   UNL     1       0.605  -1.165  -2.699  0.00  0.00    -0.479 OA
ATOM     29  H   UNL     1       0.733  -0.238  -2.755  0.00  0.00    +0.295 HD
ENDBRANCH  27  28
ENDBRANCH  25  27
BRANCH  25  30
ATOM     30  C   UNL     1       3.397  -0.429  -2.071  0.00  0.00    +0.068 C 
BRANCH  30  31
ATOM     31  C   UNL     1       4.128   0.730  -1.437  0.00  0.00    -0.019 C 
ATOM     32  C   UNL     1       5.317   0.510  -0.742  0.00  0.00    -0.004 C 
ATOM     33  C   UNL     1       3.614   2.022  -1.546  0.00  0.00    -0.004 C 
ATOM     34  C   UNL     1       5.992   1.581  -0.157  0.00  0.00    -0.000 C 
ATOM     35  C   UNL     1       4.288   3.094  -0.961  0.00  0.00    -0.000 C 
ATOM     36  C   UNL     1       5.477   2.873  -0.266  0.00  0.00    -0.000 C 
ENDBRANCH  30  31
ENDBRANCH  25  30
ENDBRANCH  24  25
ENDBRANCH  20  24
ENDBRANCH  19  20
ENDBRANCH   2  19
TORSDOF 14
