REMARK  Name = 23647659
REMARK  4 active torsions:
REMARK  status: ('A' for Active; 'I' for Inactive)
REMARK    1  A    between atoms: C_2  and  C_17
REMARK    2  A    between atoms: C_3  and  C_10
REMARK    3  A    between atoms: C_18  and  S_23
REMARK    4  A    between atoms: S_23  and  N_26
REMARK                            x       y       z     vdW  Elec       q    Type
REMARK                         _______ _______ _______ _____ _____    ______ ____
ROOT
ATOM      1  O   UNL     1      -0.695  -0.825  -0.219  0.00  0.00    -0.454 OA
ATOM      2  C   UNL     1       0.323  -1.457   0.421  0.00  0.00    +0.145 C 
ATOM      3  C   UNL     1      -1.823  -1.534   0.050  0.00  0.00    +0.143 C 
ATOM      4  C   UNL     1      -0.141  -2.563   1.094  0.00  0.00    +0.041 C 
ATOM      5  C   UNL     1      -1.535  -2.612   0.853  0.00  0.00    +0.040 C 
ENDROOT
BRANCH   3  10
ATOM      6  S   UNL     1      -2.826   1.231   0.865  0.00  0.00    -0.027 S 
ATOM      7  O   UNL     1      -5.648  -0.064  -1.332  0.00  0.00    -0.209 OA
ATOM      8  N   UNL     1      -5.149   1.842  -0.112  0.00  0.00    -0.311 NA
ATOM      9  N   UNL     1      -4.147   3.514   1.267  0.00  0.00    -0.327 N 
ATOM     10  C   UNL     1      -3.087  -1.158  -0.460  0.00  0.00    +0.031 C 
ATOM     11  C   UNL     1      -3.587   0.063  -0.132  0.00  0.00    +0.126 C 
ATOM     12  C   UNL     1      -3.945  -2.046  -1.357  0.00  0.00    +0.036 C 
ATOM     13  C   UNL     1      -4.901   0.574  -0.603  0.00  0.00    +0.212 C 
ATOM     14  C   UNL     1      -4.198   2.305   0.641  0.00  0.00    +0.222 C 
ATOM     15  H   UNL     1      -3.365   3.752   1.816  0.00  0.00    +0.145 HD
ATOM     16  H   UNL     1      -4.893   4.150   1.171  0.00  0.00    +0.145 HD
ENDBRANCH   3  10
BRANCH   2  17
ATOM     17  C   UNL     1       1.624  -0.855   0.260  0.00  0.00    +0.035 C 
ATOM     18  C   UNL     1       4.140   0.308  -0.057  0.00  0.00    +0.122 C 
ATOM     19  C   UNL     1       2.738  -1.425   0.875  0.00  0.00    +0.004 C 
ATOM     20  C   UNL     1       1.768   0.297  -0.513  0.00  0.00    +0.004 C 
ATOM     21  C   UNL     1       3.996  -0.844   0.717  0.00  0.00    +0.020 C 
ATOM     22  C   UNL     1       3.026   0.879  -0.672  0.00  0.00    +0.020 C 
BRANCH  18  23
ATOM     23  S   UNL     1       5.714   1.038  -0.252  0.00  0.00    +0.057 S 
ATOM     24  O   UNL     1       5.530   2.448  -0.568  0.00  0.00    -0.153 OA
ATOM     25  O   UNL     1       6.545   0.654   0.880  0.00  0.00    -0.153 OA
BRANCH  23  26
ATOM     26  N   UNL     1       6.278   0.229  -1.646  0.00  0.00    -0.203 NA
ATOM     27  H   UNL     1       7.212   0.566  -1.881  0.00  0.00    +0.144 HD
ATOM     28  H   UNL     1       5.645   0.412  -2.425  0.00  0.00    +0.144 HD
ENDBRANCH  23  26
ENDBRANCH  18  23
ENDBRANCH   2  17
TORSDOF 4
