REMARK  Name = 10095865
REMARK  6 active torsions:
REMARK  status: ('A' for Active; 'I' for Inactive)
REMARK    1  A    between atoms: N_2  and  C_21
REMARK    2  A    between atoms: C_3  and  N_7
REMARK    3  A    between atoms: N_7  and  S_9
REMARK    4  A    between atoms: S_9  and  C_12
REMARK    5  A    between atoms: C_13  and  C_17
REMARK    6  A    between atoms: C_21  and  C_26
REMARK                            x       y       z     vdW  Elec       q    Type
REMARK                         _______ _______ _______ _____ _____    ______ ____
ROOT
ATOM      1  O   UNL     1      -0.427   0.029   1.667  0.00  0.00    -0.273 OA
ATOM      2  N   UNL     1      -2.577   0.915   1.302  0.00  0.00    -0.272 N 
ATOM      3  C   UNL     1      -0.746   2.163   0.562  0.00  0.00    +0.153 C 
ATOM      4  C   UNL     1      -1.990   3.045   0.575  0.00  0.00    +0.048 C 
ATOM      5  C   UNL     1      -3.146   2.062   0.633  0.00  0.00    +0.096 C 
ATOM      6  C   UNL     1      -1.183   0.901   1.263  0.00  0.00    +0.242 C 
ENDROOT
BRANCH   3   7
ATOM      7  N   UNL     1      -0.374   1.780  -0.811  0.00  0.00    -0.172 NA
ATOM      8  H   UNL     1      -0.516   0.774  -0.894  0.00  0.00    +0.149 HD
BRANCH   7   9
ATOM      9  S   UNL     1       1.230   2.117  -1.341  0.00  0.00    +0.062 S 
ATOM     10  O   UNL     1       1.647   3.376  -0.750  0.00  0.00    -0.153 OA
ATOM     11  O   UNL     1       1.252   1.961  -2.785  0.00  0.00    -0.153 OA
BRANCH   9  12
ATOM     12  C   UNL     1       2.193   0.849  -0.658  0.00  0.00    +0.137 C 
ATOM     13  C   UNL     1       3.525   0.793  -0.870  0.00  0.00    +0.004 C 
ATOM     14  C   UNL     1       4.279   1.794  -1.721  0.00  0.00    +0.033 C 
BRANCH  13  17
ATOM     15 CL   UNL     1       6.271  -2.192   2.788  0.00  0.00    -0.075 Cl
ATOM     16  S   UNL     1       4.830  -0.034   1.345  0.00  0.00    -0.076 S 
ATOM     17  C   UNL     1       4.218  -0.293  -0.215  0.00  0.00    +0.028 C 
ATOM     18  C   UNL     1       4.450  -1.537  -0.703  0.00  0.00    +0.008 C 
ATOM     19  C   UNL     1       5.166  -2.329   0.241  0.00  0.00    +0.018 C 
ATOM     20  C   UNL     1       5.438  -1.634   1.399  0.00  0.00    +0.087 C 
ENDBRANCH  13  17
ENDBRANCH   9  12
ENDBRANCH   7   9
ENDBRANCH   3   7
BRANCH   2  21
ATOM     21  C   UNL     1      -3.409  -0.159   1.799  0.00  0.00    +0.152 C 
ATOM     22  C   UNL     1      -4.350   0.301   2.888  0.00  0.00    +0.031 C 
BRANCH  21  26
ATOM     23  O   UNL     1      -2.097  -2.862  -2.259  0.00  0.00    -0.350 OA
ATOM     24  O   UNL     1      -5.302  -0.165   0.372  0.00  0.00    -0.273 OA
ATOM     25  N   UNL     1      -3.551  -1.571  -0.219  0.00  0.00    -0.273 N 
ATOM     26  C   UNL     1      -4.179  -0.627   0.591  0.00  0.00    +0.244 C 
ATOM     27  C   UNL     1      -2.277  -2.235   0.078  0.00  0.00    +0.126 C 
ATOM     28  C   UNL     1      -4.226  -2.076  -1.414  0.00  0.00    +0.126 C 
ATOM     29  C   UNL     1      -1.396  -2.264  -1.164  0.00  0.00    +0.164 C 
ATOM     30  C   UNL     1      -3.265  -2.107  -2.593  0.00  0.00    +0.164 C 
ENDBRANCH  21  26
ENDBRANCH   2  21
TORSDOF 6
