REMARK  Name = 447653
REMARK  8 active torsions:
REMARK  status: ('A' for Active; 'I' for Inactive)
REMARK    1  A    between atoms: N_2  and  C_20
REMARK    2  A    between atoms: C_4  and  C_11
REMARK    3  A    between atoms: C_19  and  O_25
REMARK    4  A    between atoms: O_25  and  C_26
REMARK    5  A    between atoms: C_26  and  C_27
REMARK    6  A    between atoms: C_27  and  O_28
REMARK    7  A    between atoms: C_27  and  C_30
REMARK    8  A    between atoms: C_30  and  N_31
REMARK                            x       y       z     vdW  Elec       q    Type
REMARK                         _______ _______ _______ _____ _____    ______ ____
ROOT
ATOM      1  N   UNL     1      -1.887  -1.389  -0.256  0.00  0.00    -0.340 NA
ATOM      2  N   UNL     1      -0.409  -3.153   0.201  0.00  0.00    -0.247 N 
ATOM      3  N   UNL     1      -2.631  -3.680  -0.340  0.00  0.00    -0.170 NA
ATOM      4  C   UNL     1      -3.137  -1.016  -0.591  0.00  0.00    +0.148 C 
ATOM      5  C   UNL     1      -4.173  -1.894  -0.814  0.00  0.00    +0.052 C 
ATOM      6  C   UNL     1      -1.706  -2.720  -0.149  0.00  0.00    +0.148 C 
ATOM      7  C   UNL     1      -3.858  -3.230  -0.672  0.00  0.00    +0.114 C 
ATOM      8  H   UNL     1      -0.323  -4.132   0.267  0.00  0.00    +0.165 HD
ENDROOT
BRANCH   4  11
ATOM      9  N   UNL     1      -3.706   1.233   0.326  0.00  0.00    -0.251 N 
ATOM     10  N   UNL     1      -3.463   2.543  -1.470  0.00  0.00    -0.393 NA
ATOM     11  C   UNL     1      -3.327   0.412  -0.705  0.00  0.00    +0.181 C 
ATOM     12  C   UNL     1      -3.776   2.524  -0.191  0.00  0.00    +0.187 C 
ATOM     13  C   UNL     1      -3.184   1.239  -1.794  0.00  0.00    +0.114 C 
ATOM     14  C   UNL     1      -3.985   0.918   1.653  0.00  0.00    +0.068 C 
ATOM     15  C   UNL     1      -4.157   3.562   0.710  0.00  0.00    +0.048 C 
ATOM     16  C   UNL     1      -2.792   0.889  -3.169  0.00  0.00    +0.064 C 
ATOM     17  C   UNL     1      -4.343   1.901   2.495  0.00  0.00    +0.016 C 
ATOM     18  C   UNL     1      -4.428   3.264   1.995  0.00  0.00    +0.005 C 
ENDBRANCH   4  11
BRANCH   2  20
ATOM     19  C   UNL     1       3.156  -1.087   1.015  0.00  0.00    +0.139 C 
ATOM     20  C   UNL     1       0.786  -2.461   0.473  0.00  0.00    +0.058 C 
ATOM     21  C   UNL     1       3.202  -2.367   0.462  0.00  0.00    +0.038 C 
ATOM     22  C   UNL     1       1.926  -0.494   1.298  0.00  0.00    +0.038 C 
ATOM     23  C   UNL     1       2.018  -3.053   0.191  0.00  0.00    +0.018 C 
ATOM     24  C   UNL     1       0.742  -1.180   1.028  0.00  0.00    +0.018 C 
BRANCH  19  25
ATOM     25  O   UNL     1       4.312  -0.418   1.279  0.00  0.00    -0.473 OA
BRANCH  25  26
ATOM     26  C   UNL     1       4.269   1.006   1.203  0.00  0.00    +0.232 C 
BRANCH  26  27
ATOM     27  C   UNL     1       5.649   1.520   0.801  0.00  0.00    +0.133 C 
BRANCH  27  28
ATOM     28  O   UNL     1       6.591   1.141   1.808  0.00  0.00    -0.383 OA
ATOM     29  H   UNL     1       7.473   1.462   1.564  0.00  0.00    +0.210 HD
ENDBRANCH  27  28
BRANCH  27  30
ATOM     30  C   UNL     1       6.135   0.965  -0.540  0.00  0.00    -0.044 C 
BRANCH  30  31
ATOM     31  N   UNL     1       5.266   1.356  -1.642  0.00  0.00    +0.386 N 
ATOM     32  C   UNL     1       5.118   2.812  -1.691  0.00  0.00    -0.101 C 
ATOM     33  C   UNL     1       5.790   0.857  -2.915  0.00  0.00    -0.101 C 
ATOM     34  H   UNL     1       4.348   0.942  -1.483  0.00  0.00    -0.080 HD
ENDBRANCH  30  31
ENDBRANCH  27  30
ENDBRANCH  26  27
ENDBRANCH  25  26
ENDBRANCH  19  25
ENDBRANCH   2  20
TORSDOF 8
