REMARK  Name = 24893974
REMARK  11 active torsions:
REMARK  status: ('A' for Active; 'I' for Inactive)
REMARK    1  A    between atoms: C_1  and  C_4
REMARK    2  A    between atoms: C_1  and  C_20
REMARK    3  A    between atoms: N_3  and  C_6
REMARK    4  A    between atoms: C_7  and  C_14
REMARK    5  A    between atoms: N_13  and  C_16
REMARK    6  A    between atoms: C_16  and  C_17
REMARK    7  A    between atoms: C_17  and  C_18
REMARK    8  A    between atoms: C_20  and  C_21
REMARK    9  A    between atoms: C_21  and  C_22
REMARK   10  A    between atoms: C_22  and  C_23
REMARK   11  A    between atoms: C_23  and  N_24
REMARK                            x       y       z     vdW  Elec       q    Type
REMARK                         _______ _______ _______ _____ _____    ______ ____
ROOT
ATOM      1  C   UNL     1      -4.863  -1.186   1.266  0.00  0.00    +0.085 C 
ENDROOT
BRANCH   1   4
ATOM      2  O   UNL     1      -4.186  -2.543  -0.608  0.00  0.00    -0.275 OA
ATOM      3  N   UNL     1      -2.550  -1.593   0.782  0.00  0.00    -0.284 N 
ATOM      4  C   UNL     1      -3.846  -1.856   0.350  0.00  0.00    +0.226 C 
ATOM      5  H   UNL     1      -2.465  -1.032   1.587  0.00  0.00    +0.155 HD
BRANCH   3   6
ATOM      6  C   UNL     1      -1.339  -2.036   0.198  0.00  0.00    +0.050 C 
ATOM      7  C   UNL     1       1.075  -2.116   0.192  0.00  0.00    +0.055 C 
ATOM      8  C   UNL     1      -0.117  -1.679   0.768  0.00  0.00    +0.019 C 
ATOM      9  C   UNL     1      -1.369  -2.831  -0.948  0.00  0.00    +0.015 C 
ATOM     10  C   UNL     1       1.046  -2.911  -0.954  0.00  0.00    +0.005 C 
ATOM     11  C   UNL     1      -0.176  -3.269  -1.524  0.00  0.00    +0.001 C 
BRANCH   7  14
ATOM     12  O   UNL     1       2.435  -1.516   2.005  0.00  0.00    -0.270 OA
ATOM     13  N   UNL     1       3.456  -1.684  -0.070  0.00  0.00    -0.301 N 
ATOM     14  C   UNL     1       2.350  -1.745   0.786  0.00  0.00    +0.246 C 
ATOM     15  H   UNL     1       3.317  -1.877  -1.025  0.00  0.00    +0.150 HD
BRANCH  13  16
ATOM     16  C   UNL     1       4.791  -1.353   0.373  0.00  0.00    +0.090 C 
BRANCH  16  17
ATOM     17  C   UNL     1       5.069   0.145   0.313  0.00  0.00    +0.021 C 
BRANCH  17  18
ATOM     18  C   UNL     1       6.492   0.498   0.755  0.00  0.00    +0.002 C 
ATOM     19  C   UNL     1       6.759   1.989   0.628  0.00  0.00    +0.000 C 
ENDBRANCH  17  18
ENDBRANCH  16  17
ENDBRANCH  13  16
ENDBRANCH   7  14
ENDBRANCH   3   6
ENDBRANCH   1   4
BRANCH   1  20
ATOM     20  C   UNL     1      -4.726   0.335   1.334  0.00  0.00    +0.010 C 
BRANCH  20  21
ATOM     21  C   UNL     1      -4.911   0.999  -0.035  0.00  0.00    +0.002 C 
BRANCH  21  22
ATOM     22  C   UNL     1      -4.737   2.518   0.060  0.00  0.00    +0.021 C 
BRANCH  22  23
ATOM     23  C   UNL     1      -3.334   2.923   0.503  0.00  0.00    +0.088 C 
BRANCH  23  24
ATOM     24  N   UNL     1      -2.342   2.434  -0.424  0.00  0.00    -0.320 N 
ATOM     25  N   UNL     1      -0.180   1.402  -2.338  0.00  0.00    -0.270 NA
ATOM     26  N   UNL     1      -0.535   2.613   1.117  0.00  0.00    -0.232 NA
ATOM     27  N   UNL     1       1.968   1.195  -1.779  0.00  0.00    -0.307 N 
ATOM     28  N   UNL     1       1.744   1.994   0.506  0.00  0.00    -0.232 NA
ATOM     29  C   UNL     1      -1.000   2.290  -0.111  0.00  0.00    +0.124 C 
ATOM     30  C   UNL     1      -0.093   1.817  -1.039  0.00  0.00    +0.164 C 
ATOM     31  C   UNL     1       1.250   1.679  -0.715  0.00  0.00    +0.125 C 
ATOM     32  C   UNL     1       1.079   1.039  -2.737  0.00  0.00    +0.163 C 
ATOM     33  C   UNL     1       0.789   2.447   1.347  0.00  0.00    +0.252 C 
ATOM     34  H   UNL     1      -2.637   2.188  -1.331  0.00  0.00    +0.148 HD
ATOM     35  H   UNL     1      -0.997   1.369  -2.886  0.00  0.00    +0.126 HD
ATOM     36  H   UNL     1       2.933   1.006  -1.817  0.00  0.00    +0.149 HD
ENDBRANCH  23  24
ENDBRANCH  22  23
ENDBRANCH  21  22
ENDBRANCH  20  21
ENDBRANCH   1  20
TORSDOF 11
