REMARK  Name = 16615
REMARK  0 active torsions:
REMARK  status: ('A' for Active; 'I' for Inactive)
REMARK                            x       y       z     vdW  Elec       q    Type
REMARK                         _______ _______ _______ _____ _____    ______ ____
ROOT
ATOM      1  O   UNL     1      -0.512   2.669   0.020  0.00  0.00    -0.287 OA
ATOM      2  O   UNL     1      -0.512  -2.669  -0.020  0.00  0.00    -0.287 OA
ATOM      3  C   UNL     1       0.746   0.696   0.003  0.00  0.00    +0.042 C 
ATOM      4  C   UNL     1       0.746  -0.696  -0.003  0.00  0.00    +0.042 C 
ATOM      5  C   UNL     1      -1.804   0.673  -0.005  0.00  0.00    +0.016 C 
ATOM      6  C   UNL     1      -1.804  -0.673   0.005  0.00  0.00    +0.016 C 
ATOM      7  C   UNL     1      -0.521   1.442   0.005  0.00  0.00    +0.192 C 
ATOM      8  C   UNL     1      -0.522  -1.442  -0.005  0.00  0.00    +0.192 C 
ATOM      9  C   UNL     1       1.961   1.394   0.006  0.00  0.00    +0.003 C 
ATOM     10  C   UNL     1       1.961  -1.394  -0.006  0.00  0.00    +0.003 C 
ATOM     11  C   UNL     1      -3.038   1.535  -0.045  0.00  0.00    +0.034 C 
ATOM     12  C   UNL     1      -3.038  -1.535   0.045  0.00  0.00    +0.034 C 
ATOM     13  C   UNL     1       3.169   0.696   0.003  0.00  0.00    +0.000 C 
ATOM     14  C   UNL     1       3.169  -0.696  -0.003  0.00  0.00    +0.000 C 
ENDROOT
TORSDOF 0
