REMARK  Name = 46937082
REMARK  9 active torsions:
REMARK  status: ('A' for Active; 'I' for Inactive)
REMARK    1  A    between atoms: C_1  and  S_2
REMARK    2  A    between atoms: C_1  and  C_13
REMARK    3  A    between atoms: S_2  and  C_3
REMARK    4  A    between atoms: C_3  and  C_4
REMARK    5  A    between atoms: C_4  and  N_5
REMARK    6  A    between atoms: C_4  and  C_10
REMARK    7  A    between atoms: C_10  and  O_11
REMARK    8  A    between atoms: C_13  and  C_15
REMARK    9  A    between atoms: C_15  and  C_18
REMARK                            x       y       z     vdW  Elec       q    Type
REMARK                         _______ _______ _______ _____ _____    ______ ____
ROOT
ATOM      1  C   UNK     1      -2.441  -2.417  -0.567  0.00  0.00    +0.066 C 
ENDROOT
BRANCH   1   2
ATOM      2  S   UNK     1      -2.741  -1.205   0.739  0.00  0.00    -0.141 S 
BRANCH   2   3
ATOM      3  C   UNK     1      -3.145   0.221  -0.319  0.00  0.00    +0.047 C 
BRANCH   3   4
ATOM      4  C   UNK     1      -2.917   1.551   0.402  0.00  0.00    +0.047 C 
BRANCH   4   5
ATOM      5  N   UNK     1      -3.653   2.620  -0.275  0.00  0.00    +0.389 N 
ATOM      6  H   UNK     1      -4.644   2.383  -0.308  0.00  0.00    -0.088 HD
ATOM      7  H   UNK     1      -3.298   2.729  -1.225  0.00  0.00    -0.088 HD
ATOM      8  H   UNK     1      -3.529   3.494   0.236  0.00  0.00    -0.088 HD
ENDBRANCH   4   5
BRANCH   4  10
ATOM      9  O   UNK     1      -0.912   2.584  -0.472  0.00  0.00    -0.253 OA
ATOM     10  C   UNK     1      -1.453   1.948   0.426  0.00  0.00    +0.294 C 
BRANCH  10  11
ATOM     11  O   UNK     1      -0.783   1.504   1.519  0.00  0.00    -0.482 OA
ATOM     12  H   UNK     1      -1.236   1.021   2.182  0.00  0.00    +0.295 HD
ENDBRANCH  10  11
ENDBRANCH   4  10
ENDBRANCH   3   4
ENDBRANCH   2   3
ENDBRANCH   1   2
BRANCH   1  13
ATOM     13  C   UNK     1      -1.048  -2.265  -1.173  0.00  0.00    +0.081 C 
BRANCH  13  15
ATOM     14  O   UNK     1       0.212  -3.497   0.478  0.00  0.00    -0.291 OA
ATOM     15  C   UNK     1       0.083  -2.461  -0.171  0.00  0.00    +0.174 C 
BRANCH  15  18
ATOM     16 CL   UNK     1       2.649   1.522  -2.249  0.00  0.00    -0.081 Cl
ATOM     17 CL   UNK     1       4.100   1.937   0.613  0.00  0.00    -0.081 Cl
ATOM     18  C   UNK     1       1.077  -1.366   0.007  0.00  0.00    +0.036 C 
ATOM     19  C   UNK     1       1.383  -0.520  -1.059  0.00  0.00    +0.015 C 
ATOM     20  C   UNK     1       1.702  -1.186   1.241  0.00  0.00    +0.004 C 
ATOM     21  C   UNK     1       2.313   0.506  -0.891  0.00  0.00    +0.068 C 
ATOM     22  C   UNK     1       2.633  -0.161   1.409  0.00  0.00    +0.012 C 
ATOM     23  C   UNK     1       2.939   0.685   0.343  0.00  0.00    +0.068 C 
ENDBRANCH  15  18
ENDBRANCH  13  15
ENDBRANCH   1  13
TORSDOF 9
