REMARK  Name = 101369
REMARK  4 active torsions:
REMARK  status: ('A' for Active; 'I' for Inactive)
REMARK    1  A    between atoms: C_1  and  O_9
REMARK    2  A    between atoms: O_9  and  C_10
REMARK    3  A    between atoms: C_10  and  C_12
REMARK    4  A    between atoms: C_12  and  O_13
REMARK                            x       y       z     vdW  Elec       q    Type
REMARK                         _______ _______ _______ _____ _____    ______ ____
ROOT
ATOM      1  C   UNL     1      -0.585   0.003   0.240  0.00  0.00    +0.131 C 
ATOM      2  C   UNL     1      -1.272   1.207   0.089  0.00  0.00    +0.012 C 
ATOM      3  C   UNL     1      -1.262  -1.209   0.098  0.00  0.00    +0.012 C 
ATOM      4  C   UNL     1      -2.636   1.200  -0.203  0.00  0.00    -0.001 C 
ATOM      5  C   UNL     1      -2.626  -1.216  -0.195  0.00  0.00    -0.001 C 
ATOM      6  C   UNL     1      -3.313  -0.011  -0.346  0.00  0.00    -0.000 C 
ATOM      7  C   UNL     1      -0.566   2.514   0.239  0.00  0.00    +0.034 C 
ATOM      8  C   UNL     1      -0.544  -2.509   0.255  0.00  0.00    +0.034 C 
ENDROOT
BRANCH   1   9
ATOM      9  O   UNL     1       0.748   0.011   0.526  0.00  0.00    -0.464 OA
BRANCH   9  10
ATOM     10  C   UNL     1       1.647   0.011  -0.580  0.00  0.00    +0.314 C 
BRANCH  10  12
ATOM     11  O   UNL     1       3.414   0.021   1.088  0.00  0.00    -0.246 OA
ATOM     12  C   UNL     1       3.066   0.004  -0.083  0.00  0.00    +0.359 C 
BRANCH  12  13
ATOM     13  O   UNL     1       3.929  -0.027  -1.130  0.00  0.00    -0.478 OA
ATOM     14  H   UNL     1       3.600  -0.039  -2.007  0.00  0.00    +0.295 HD
ENDBRANCH  12  13
ENDBRANCH  10  12
ENDBRANCH   9  10
ENDBRANCH   1   9
TORSDOF 4
