REMARK  Name = 3000493
REMARK  5 active torsions:
REMARK  status: ('A' for Active; 'I' for Inactive)
REMARK    1  A    between atoms: C_5  and  C_21
REMARK    2  A    between atoms: C_10  and  O_17
REMARK    3  A    between atoms: C_12  and  O_15
REMARK    4  A    between atoms: O_17  and  C_18
REMARK    5  A    between atoms: C_21  and  S_22
REMARK                            x       y       z     vdW  Elec       q    Type
REMARK                         _______ _______ _______ _____ _____    ______ ____
ROOT
ATOM      1  S   UNL     1      -1.442  -3.424   1.934  0.00  0.00    -0.038 S 
ATOM      2  O   UNL     1      -0.691   2.350   0.040  0.00  0.00    -0.226 OA
ATOM      3  N   UNL     1      -0.475   0.011   0.150  0.00  0.00    -0.219 N 
ATOM      4  N   UNL     1       0.827  -2.272   1.167  0.00  0.00    -0.308 N 
ATOM      5  C   UNL     1      -1.181  -1.290   0.142  0.00  0.00    +0.136 C 
ATOM      6  C   UNL     1       0.962  -0.045   0.186  0.00  0.00    +0.074 C 
ATOM      7  C   UNL     1       1.590  -1.206   0.669  0.00  0.00    +0.063 C 
ATOM      8  C   UNL     1      -0.539  -2.285   1.099  0.00  0.00    +0.081 C 
ATOM      9  C   UNL     1       1.780   1.007  -0.253  0.00  0.00    +0.053 C 
ATOM     10  C   UNL     1      -1.185   1.225   0.043  0.00  0.00    +0.409 C 
ATOM     11  C   UNL     1       2.985  -1.302   0.740  0.00  0.00    +0.019 C 
ATOM     12  C   UNL     1       3.175   0.907  -0.193  0.00  0.00    +0.140 C 
ATOM     13  C   UNL     1       3.776  -0.244   0.305  0.00  0.00    +0.038 C 
ATOM     14  H   UNL     1       1.290  -3.036   1.581  0.00  0.00    +0.152 HD
ENDROOT
BRANCH  12  15
ATOM     15  O   UNL     1       3.947   1.939  -0.632  0.00  0.00    -0.471 OA
ATOM     16  C   UNL     1       5.361   1.771  -0.550  0.00  0.00    +0.252 C 
ENDBRANCH  12  15
BRANCH  10  17
ATOM     17  O   UNL     1      -2.542   1.027  -0.041  0.00  0.00    -0.438 OA
BRANCH  17  18
ATOM     18  C   UNL     1      -3.370   2.055   0.515  0.00  0.00    +0.171 C 
ATOM     19  C   UNL     1      -4.832   1.688   0.305  0.00  0.00    +0.047 C 
ATOM     20  C   UNL     1      -3.035   2.227   1.988  0.00  0.00    +0.047 C 
ENDBRANCH  17  18
ENDBRANCH  10  17
BRANCH   5  21
ATOM     21  C   UNL     1      -1.232  -1.859  -1.280  0.00  0.00    +0.084 C 
BRANCH  21  22
ATOM     22  S   UNL     1      -1.987  -0.660  -2.402  0.00  0.00    -0.137 S 
ATOM     23  C   UNL     1      -1.891  -1.622  -3.931  0.00  0.00    +0.069 C 
ENDBRANCH  21  22
ENDBRANCH   5  21
TORSDOF 5
