REMARK  Name = 11840933
REMARK  11 active torsions:
REMARK  status: ('A' for Active; 'I' for Inactive)
REMARK    1  A    between atoms: C_1  and  C_4
REMARK    2  A    between atoms: C_1  and  N_11
REMARK    3  A    between atoms: C_1  and  C_26
REMARK    4  A    between atoms: N_3  and  C_6
REMARK    5  A    between atoms: C_6  and  C_10
REMARK    6  A    between atoms: N_11  and  C_14
REMARK    7  A    between atoms: C_14  and  C_16
REMARK    8  A    between atoms: C_14  and  C_25
REMARK    9  A    between atoms: C_26  and  S_27
REMARK   10  A    between atoms: S_27  and  C_30
REMARK   11  A    between atoms: C_30  and  C_33
REMARK                            x       y       z     vdW  Elec       q    Type
REMARK                         _______ _______ _______ _____ _____    ______ ____
ROOT
ATOM      1  C   UNL     1      -0.762  -0.556   0.480  0.00  0.00    +0.042 C 
ENDROOT
BRANCH   1   4
ATOM      2  O   UNL     1      -0.684  -2.750   1.509  0.00  0.00    -0.277 OA
ATOM      3  N   UNL     1      -0.807  -2.611  -0.803  0.00  0.00    -0.297 N 
ATOM      4  C   UNL     1      -0.754  -2.081   0.479  0.00  0.00    +0.205 C 
ATOM      5  H   UNL     1      -0.863  -1.995  -1.569  0.00  0.00    +0.150 HD
BRANCH   3   6
ATOM      6  C   UNL     1      -0.784  -4.024  -1.054  0.00  0.00    +0.136 C 
ATOM      7  C   UNL     1      -0.287  -4.524  -2.376  0.00  0.00    +0.035 C 
ATOM      8  C   UNL     1       0.534  -4.732  -1.137  0.00  0.00    +0.035 C 
BRANCH   6  10
ATOM      9  N   UNL     1      -2.765  -5.289   0.048  0.00  0.00    -0.194 NA
ATOM     10  C   UNL     1      -1.879  -4.724  -0.445  0.00  0.00    +0.090 C 
ENDBRANCH   6  10
ENDBRANCH   3   6
ENDBRANCH   1   4
BRANCH   1  11
ATOM     11  N   UNL     1      -1.956  -0.163   1.226  0.00  0.00    +0.401 N 
ATOM     12  H   UNL     1      -1.894  -0.531   2.175  0.00  0.00    -0.083 HD
ATOM     13  H   UNL     1      -2.778  -0.539   0.753  0.00  0.00    -0.083 HD
BRANCH  11  14
ATOM     14  C   UNL     1      -2.073   1.286   1.283  0.00  0.00    +0.059 C 
BRANCH  14  16
ATOM     15  F   UNL     1      -2.439   3.541  -3.852  0.00  0.00    -0.204 F 
ATOM     16  C   UNL     1      -2.172   1.895  -0.102  0.00  0.00    -0.034 C 
ATOM     17  C   UNL     1      -2.846   1.205  -1.093  0.00  0.00    -0.004 C 
ATOM     18  C   UNL     1      -1.585   3.124  -0.340  0.00  0.00    -0.004 C 
ATOM     19  C   UNL     1      -2.937   1.765  -2.367  0.00  0.00    +0.029 C 
ATOM     20  C   UNL     1      -1.676   3.684  -1.614  0.00  0.00    +0.029 C 
ATOM     21  C   UNL     1      -2.352   3.004  -2.628  0.00  0.00    +0.140 C 
ENDBRANCH  14  16
BRANCH  14  25
ATOM     22  F   UNL     1      -3.284   3.041   2.317  0.00  0.00    -0.172 F 
ATOM     23  F   UNL     1      -4.417   1.304   1.661  0.00  0.00    -0.172 F 
ATOM     24  F   UNL     1      -3.136   1.169   3.424  0.00  0.00    -0.172 F 
ATOM     25  C   UNL     1      -3.233   1.695   2.185  0.00  0.00    +0.384 C 
ENDBRANCH  14  25
ENDBRANCH  11  14
ENDBRANCH   1  11
BRANCH   1  26
ATOM     26  C   UNL     1       0.471   0.027   1.163  0.00  0.00    +0.139 C 
BRANCH  26  27
ATOM     27  S   UNL     1       1.967  -0.525   0.400  0.00  0.00    -0.010 S 
ATOM     28  O   UNL     1       2.100  -1.950   0.644  0.00  0.00    -0.173 OA
ATOM     29  O   UNL     1       2.005   0.002  -0.953  0.00  0.00    -0.173 OA
BRANCH  27  30
ATOM     30  C   UNL     1       3.232   0.303   1.335  0.00  0.00    +0.170 C 
BRANCH  30  33
ATOM     31  O   UNL     1       5.849   2.259  -1.567  0.00  0.00    -0.275 OA
ATOM     32  N   UNL     1       4.822   0.433  -0.520  0.00  0.00    -0.304 N 
ATOM     33  C   UNL     1       4.623  -0.047   0.826  0.00  0.00    +0.096 C 
ATOM     34  C   UNL     1       5.729   0.661   1.599  0.00  0.00    +0.031 C 
ATOM     35  C   UNL     1       5.934   1.971   0.844  0.00  0.00    +0.087 C 
ATOM     36  C   UNL     1       5.566   1.607  -0.574  0.00  0.00    +0.223 C 
ATOM     37  H   UNL     1       4.468  -0.023  -1.317  0.00  0.00    +0.149 HD
ENDBRANCH  30  33
ENDBRANCH  27  30
ENDBRANCH  26  27
ENDBRANCH   1  26
TORSDOF 11
