REMARK  Name = 11694089
REMARK  3 active torsions:
REMARK  status: ('A' for Active; 'I' for Inactive)
REMARK    1  A    between atoms: C_1  and  C_4
REMARK    2  A    between atoms: C_2  and  C_12
REMARK    3  A    between atoms: N_11  and  O_14
REMARK                            x       y       z     vdW  Elec       q    Type
REMARK                         _______ _______ _______ _____ _____    ______ ____
ROOT
ATOM      1  C   UNL     1      -0.656  -0.624   0.133  0.00  0.00    +0.005 C 
ATOM      2  C   UNL     1      -1.643   0.280  -0.054  0.00  0.00    +0.060 C 
ENDROOT
BRANCH   1   4
ATOM      3 CL   UNL     1       5.186   0.559  -0.105  0.00  0.00    -0.082 Cl
ATOM      4  C   UNL     1       0.769  -0.335   0.074  0.00  0.00    +0.000 C 
ATOM      5  C   UNL     1       1.222   0.975   0.226  0.00  0.00    +0.001 C 
ATOM      6  C   UNL     1       1.682  -1.369  -0.134  0.00  0.00    +0.001 C 
ATOM      7  C   UNL     1       2.588   1.252   0.171  0.00  0.00    +0.011 C 
ATOM      8  C   UNL     1       3.048  -1.093  -0.189  0.00  0.00    +0.011 C 
ATOM      9  C   UNL     1       3.501   0.218  -0.037  0.00  0.00    +0.058 C 
ENDBRANCH   1   4
BRANCH   2  12
ATOM     10  O   UNL     1      -3.420  -1.283   0.263  0.00  0.00    -0.268 OA
ATOM     11  N   UNL     1      -3.917   0.924  -0.211  0.00  0.00    -0.193 N 
ATOM     12  C   UNL     1      -3.073  -0.132   0.020  0.00  0.00    +0.268 C 
ATOM     13  H   UNL     1      -3.582   1.830  -0.403  0.00  0.00    +0.183 HD
BRANCH  11  14
ATOM     14  O   UNL     1      -5.286   0.629  -0.157  0.00  0.00    -0.295 OA
ATOM     15  H   UNL     1      -5.797   1.435  -0.332  0.00  0.00    +0.241 HD
ENDBRANCH  11  14
ENDBRANCH   2  12
TORSDOF 3
