REMARK  Name = 44129642
REMARK  4 active torsions:
REMARK  status: ('A' for Active; 'I' for Inactive)
REMARK    1  A    between atoms: C_1  and  O_10
REMARK    2  A    between atoms: C_3  and  O_8
REMARK    3  A    between atoms: O_10  and  C_11
REMARK    4  A    between atoms: C_11  and  C_13
REMARK                            x       y       z     vdW  Elec       q    Type
REMARK                         _______ _______ _______ _____ _____    ______ ____
ROOT
ATOM      1  C   UNL     1      -1.231  -0.239   0.340  0.00  0.00    +0.172 C 
ATOM      2  C   UNL     1      -3.379  -1.232  -0.148  0.00  0.00    -0.019 C 
ATOM      3  C   UNL     1      -1.785   1.033   0.190  0.00  0.00    +0.172 C 
ATOM      4  C   UNL     1      -2.029  -1.371   0.171  0.00  0.00    +0.036 C 
ATOM      5  C   UNL     1      -3.933   0.040  -0.297  0.00  0.00    -0.001 C 
ATOM      6  C   UNL     1      -3.136   1.172  -0.128  0.00  0.00    +0.040 C 
ATOM      7  C   UNL     1      -4.231  -2.442  -0.329  0.00  0.00    +0.031 C 
ENDROOT
BRANCH   3   8
ATOM      8  O   UNL     1      -1.016   2.145   0.352  0.00  0.00    -0.468 OA
ATOM      9  C   UNL     1      -1.659   3.407   0.182  0.00  0.00    +0.253 C 
ENDBRANCH   3   8
BRANCH   1  10
ATOM     10  O   UNL     1       0.087  -0.388   0.648  0.00  0.00    -0.466 OA
BRANCH  10  11
ATOM     11  C   UNL     1       0.893  -1.106  -0.284  0.00  0.00    +0.251 C 
BRANCH  11  13
ATOM     12  N   UNL     1       3.195  -1.404   0.433  0.00  0.00    -0.244 NA
ATOM     13  C   UNL     1       2.305  -0.606  -0.198  0.00  0.00    +0.103 C 
ATOM     14  C   UNL     1       2.625   0.621  -0.757  0.00  0.00    +0.018 C 
ATOM     15  C   UNL     1       3.942   1.056  -0.662  0.00  0.00    +0.003 C 
ATOM     16  C   UNL     1       4.886   0.262  -0.020  0.00  0.00    +0.021 C 
ATOM     17  C   UNL     1       4.465  -0.949   0.506  0.00  0.00    +0.099 C 
ENDBRANCH  11  13
ENDBRANCH  10  11
ENDBRANCH   1  10
TORSDOF 4
