REMARK  Name = 25134246
REMARK  5 active torsions:
REMARK  status: ('A' for Active; 'I' for Inactive)
REMARK    1  A    between atoms: C_1  and  N_3
REMARK    2  A    between atoms: C_1  and  C_14
REMARK    3  A    between atoms: C_1  and  C_22
REMARK    4  A    between atoms: C_4  and  C_6
REMARK    5  A    between atoms: N_13  and  C_17
REMARK                            x       y       z     vdW  Elec       q    Type
REMARK                         _______ _______ _______ _____ _____    ______ ____
ROOT
ATOM      1  C   UNL     1      -0.085   0.843  -0.354  0.00  0.00    +0.149 C 
ENDROOT
BRANCH   1   3
ATOM      2  O   UNL     1      -2.001  -1.118  -1.308  0.00  0.00    -0.275 OA
ATOM      3  N   UNL     1      -1.200   0.285   0.369  0.00  0.00    -0.298 N 
ATOM      4  C   UNL     1      -2.066  -0.652  -0.173  0.00  0.00    +0.222 C 
ATOM      5  H   UNL     1      -1.354   0.584   1.294  0.00  0.00    +0.150 HD
BRANCH   4   6
ATOM      6  C   UNL     1      -3.124  -1.084   0.801  0.00  0.00    +0.076 C 
ATOM      7  C   UNL     1      -3.949   0.111   1.282  0.00  0.00    +0.009 C 
ATOM      8  C   UNL     1      -3.985  -2.189   0.188  0.00  0.00    +0.009 C 
ATOM      9  C   UNL     1      -4.965   0.603   0.252  0.00  0.00    +0.000 C 
ATOM     10  C   UNL     1      -4.986  -1.667  -0.841  0.00  0.00    +0.000 C 
ATOM     11  C   UNL     1      -5.834  -0.533  -0.276  0.00  0.00    +0.000 C 
ENDBRANCH   4   6
ENDBRANCH   1   3
BRANCH   1  14
ATOM     12  O   UNL     1       1.276   0.290   1.564  0.00  0.00    -0.273 OA
ATOM     13  N   UNL     1       2.229   0.192  -0.578  0.00  0.00    -0.282 N 
ATOM     14  C   UNL     1       1.205   0.399   0.343  0.00  0.00    +0.244 C 
ATOM     15  H   UNL     1       2.002   0.351  -1.523  0.00  0.00    +0.155 HD
BRANCH  13  17
ATOM     16  N   UNL     1       6.179  -1.037   0.204  0.00  0.00    -0.242 NA
ATOM     17  C   UNL     1       3.557  -0.221  -0.315  0.00  0.00    +0.053 C 
ATOM     18  C   UNL     1       4.459  -0.379  -1.361  0.00  0.00    +0.035 C 
ATOM     19  C   UNL     1       3.965  -0.469   0.991  0.00  0.00    +0.035 C 
ATOM     20  C   UNL     1       5.746  -0.786  -1.051  0.00  0.00    +0.100 C 
ATOM     21  C   UNL     1       5.275  -0.871   1.196  0.00  0.00    +0.100 C 
ENDBRANCH  13  17
ENDBRANCH   1  14
BRANCH   1  22
ATOM     22  C   UNL     1      -0.166   2.377  -0.505  0.00  0.00    +0.027 C 
ATOM     23  C   UNL     1      -0.096   3.118   0.834  0.00  0.00    +0.002 C 
ATOM     24  C   UNL     1      -1.433   2.789  -1.262  0.00  0.00    +0.002 C 
ENDBRANCH   1  22
TORSDOF 5
