REMARK  Name = 9547909
REMARK  3 active torsions:
REMARK  status: ('A' for Active; 'I' for Inactive)
REMARK    1  A    between atoms: C_3  and  C_26
REMARK    2  A    between atoms: C_7  and  N_17
REMARK    3  A    between atoms: N_25  and  S_31
REMARK                            x       y       z     vdW  Elec       q    Type
REMARK                         _______ _______ _______ _____ _____    ______ ____
ROOT
ATOM      1 CL   UNL     1      -4.581  -1.256  -3.355  0.00  0.00    -0.082 Cl
ATOM      2  N   UNL     1       0.392   3.724  -0.282  0.00  0.00    -0.248 NA
ATOM      3  C   UNL     1       0.282   1.376  -0.896  0.00  0.00    +0.063 C 
ATOM      4  C   UNL     1      -0.941   0.663  -1.450  0.00  0.00    -0.016 C 
ATOM      5  C   UNL     1      -0.091   2.497   0.054  0.00  0.00    +0.063 C 
ATOM      6  C   UNL     1      -1.906   0.034  -0.632  0.00  0.00    +0.011 C 
ATOM      7  C   UNL     1      -1.792  -0.054   0.851  0.00  0.00    +0.047 C 
ATOM      8  C   UNL     1      -0.876   2.286   1.192  0.00  0.00    +0.015 C 
ATOM      9  C   UNL     1      -1.120   0.664  -2.850  0.00  0.00    -0.003 C 
ATOM     10  C   UNL     1      -1.361   0.968   1.617  0.00  0.00    +0.016 C 
ATOM     11  C   UNL     1      -3.033  -0.548  -1.254  0.00  0.00    +0.012 C 
ATOM     12  C   UNL     1      -1.142   3.390   2.011  0.00  0.00    +0.003 C 
ATOM     13  C   UNL     1      -2.234   0.070  -3.439  0.00  0.00    +0.011 C 
ATOM     14  C   UNL     1      -3.194  -0.531  -2.639  0.00  0.00    +0.058 C 
ATOM     15  C   UNL     1       0.097   4.762   0.529  0.00  0.00    +0.098 C 
ATOM     16  C   UNL     1      -0.659   4.649   1.679  0.00  0.00    +0.021 C 
ENDROOT
BRANCH   7  17
ATOM     17  N   UNL     1      -2.157  -1.244   1.411  0.00  0.00    -0.312 N 
ATOM     18  N   UNL     1      -3.397  -3.733   2.066  0.00  0.00    +0.386 N 
ATOM     19  C   UNL     1      -1.492  -2.502   1.070  0.00  0.00    +0.067 C 
ATOM     20  C   UNL     1      -3.093  -1.320   2.535  0.00  0.00    +0.067 C 
ATOM     21  C   UNL     1      -2.527  -3.612   0.893  0.00  0.00    -0.060 C 
ATOM     22  C   UNL     1      -4.083  -2.463   2.316  0.00  0.00    -0.060 C 
ATOM     23  H   UNL     1      -2.834  -3.980   2.880  0.00  0.00    -0.084 HD
ATOM     24  H   UNL     1      -4.092  -4.460   1.892  0.00  0.00    -0.084 HD
ENDBRANCH   7  17
BRANCH   3  26
ATOM     25  N   UNL     1       4.040  -0.650  -0.337  0.00  0.00    -0.159 NA
ATOM     26  C   UNL     1       1.332   0.426  -0.326  0.00  0.00    +0.013 C 
ATOM     27  C   UNL     1       1.815  -0.561  -1.397  0.00  0.00    +0.020 C 
ATOM     28  C   UNL     1       2.524   1.207   0.243  0.00  0.00    +0.020 C 
ATOM     29  C   UNL     1       2.910  -1.475  -0.856  0.00  0.00    +0.095 C 
ATOM     30  C   UNL     1       3.609   0.266   0.759  0.00  0.00    +0.095 C 
BRANCH  25  31
ATOM     31  S   UNL     1       5.496  -1.506  -0.044  0.00  0.00    +0.046 S 
ATOM     32  O   UNL     1       6.431  -0.619   0.611  0.00  0.00    -0.157 OA
ATOM     33  O   UNL     1       5.850  -2.241  -1.238  0.00  0.00    -0.157 OA
ATOM     34  C   UNL     1       4.903  -2.666   1.160  0.00  0.00    +0.196 C 
ENDBRANCH  25  31
ENDBRANCH   3  26
TORSDOF 3
