REMARK  Name = 6914609
REMARK  7 active torsions:
REMARK  status: ('A' for Active; 'I' for Inactive)
REMARK    1  A    between atoms: N_1  and  CA_27
REMARK    2  A    between atoms: N_2  and  C_12
REMARK    3  A    between atoms: N_15  and  C_18
REMARK    4  A    between atoms: C_21  and  N_24
REMARK    5  A    between atoms: CA_27  and  CB_28
REMARK    6  A    between atoms: CA_27  and  C_31
REMARK    7  A    between atoms: C_31  and  O_32
REMARK                            x       y       z     vdW  Elec       q    Type
REMARK                         _______ _______ _______ _____ _____    ______ ____
ROOT
ATOM      1  N   UNL     1       0.891  -2.502   0.065  0.00  0.00    -0.258 N 
ATOM      2  N   UNL     1       3.858   1.208   0.013  0.00  0.00    -0.262 N 
ATOM      3  N   UNL     1       2.510  -0.813   0.036  0.00  0.00    -0.311 NA
ATOM      4  N   UNL     1       0.128  -0.288   0.094  0.00  0.00    -0.311 NA
ATOM      5  N   UNL     1       2.244   2.745   0.058  0.00  0.00    -0.240 NA
ATOM      6  C   UNL     1       2.680   0.518   0.038  0.00  0.00    +0.220 C 
ATOM      7  C   ACE A   0       1.188  -1.153   0.066  0.00  0.00    +0.202 C 
ATOM      8  C   UNL     1       1.692   1.489   0.065  0.00  0.00    +0.168 C 
ATOM      9  C   UNL     1       0.373   1.044   0.093  0.00  0.00    +0.219 C 
ATOM     10  C   UNL     1       3.545   2.541   0.027  0.00  0.00    +0.222 C 
ATOM     11  H   UNL     1       1.638  -3.144   0.043  0.00  0.00    +0.160 HD
ATOM     12  N   UNL     1      -0.693   1.960   0.121  0.00  0.00    -0.286 N 
ATOM     13  H   UNL     1      -0.405   2.901   0.117  0.00  0.00    +0.155 HD
ENDROOT
BRANCH  12  15
ATOM     14 CL   UNL     1      -4.726  -0.869   1.552  0.00  0.00    -0.082 Cl
ATOM     15  C   UNL     1      -2.095   1.798   0.154  0.00  0.00    +0.052 C 
ATOM     16  C   UNL     1      -2.920   2.760  -0.427  0.00  0.00    +0.029 C 
ATOM     17  C   UNL     1      -2.652   0.676   0.766  0.00  0.00    +0.026 C 
ATOM     18  C   UNL     1      -4.306   2.600  -0.396  0.00  0.00    +0.044 C 
ATOM     19  C   UNL     1      -4.038   0.516   0.797  0.00  0.00    +0.060 C 
ATOM     20  C   UNL     1      -4.864   1.478   0.216  0.00  0.00    +0.026 C 
BRANCH  18  21
ATOM     21  N   UNL     1      -5.141   3.573  -0.983  0.00  0.00    -0.357 N 
ATOM     22  H   UNL     1      -4.746   4.365  -1.415  0.00  0.00    +0.142 HD
ATOM     23  H   UNL     1      -6.119   3.461  -0.961  0.00  0.00    +0.142 HD
ENDBRANCH  18  21
ENDBRANCH  12  15
BRANCH   2  24
ATOM     24  C   UNL     1       5.188   0.647  -0.019  0.00  0.00    +0.077 C 
ATOM     25  C   UNL     1       5.992   1.010   1.230  0.00  0.00    +0.022 C 
ATOM     26  C   UNL     1       5.936   1.023  -1.300  0.00  0.00    +0.022 C 
ENDBRANCH   2  24
BRANCH   1  27
ATOM     27  CA  UNL     1      -0.464  -3.023   0.096  0.00  0.00    +0.109 C 
BRANCH  27  28
ATOM     28  CB  UNL     1      -1.112  -2.941  -1.306  0.00  0.00    +0.021 C 
ATOM     29  CG1 UNL     1      -0.353  -3.801  -2.323  0.00  0.00    +0.002 C 
ATOM     30  CG2 UNL     1      -2.599  -3.307  -1.322  0.00  0.00    +0.002 C 
ENDBRANCH  27  28
BRANCH  27  31
ATOM     31  C   UNL     1      -0.439  -4.449   0.652  0.00  0.00    +0.157 C 
BRANCH  31  32
ATOM     32  O   UNL     1       0.177  -4.441   1.937  0.00  0.00    -0.380 OA
ATOM     33  H   UNL     1       0.195  -5.343   2.293  0.00  0.00    +0.211 HD
ENDBRANCH  31  32
ENDBRANCH  27  31
ENDBRANCH   1  27
TORSDOF 7
