REMARK  Name = 16040261
REMARK  6 active torsions:
REMARK  status: ('A' for Active; 'I' for Inactive)
REMARK    1  A    between atoms: N_1  and  C_5
REMARK    2  A    between atoms: N_1  and  S_19
REMARK    3  A    between atoms: N_4  and  C_9
REMARK    4  A    between atoms: C_9  and  C_14
REMARK    5  A    between atoms: S_19  and  C_25
REMARK    6  A    between atoms: C_26  and  C_30
REMARK                            x       y       z     vdW  Elec       q    Type
REMARK                         _______ _______ _______ _____ _____    ______ ____
ROOT
ATOM      1  N   UNL     1       0.434   2.824  -1.162  0.00  0.00    -0.168 NA
ATOM      2  H   UNL     1       0.267   1.937  -1.636  0.00  0.00    +0.149 HD
ENDROOT
BRANCH   1   5
ATOM      3  O   UNL     1      -0.373   0.327   0.000  0.00  0.00    -0.273 OA
ATOM      4  N   UNL     1      -2.126   1.624   0.882  0.00  0.00    -0.272 N 
ATOM      5  C   UNL     1      -0.221   2.748   0.149  0.00  0.00    +0.153 C 
ATOM      6  C   UNL     1      -1.388   3.725   0.238  0.00  0.00    +0.048 C 
ATOM      7  C   UNL     1      -2.373   3.021   1.150  0.00  0.00    +0.096 C 
ATOM      8  C   UNL     1      -0.877   1.398   0.303  0.00  0.00    +0.242 C 
BRANCH   4   9
ATOM      9  C   UNL     1      -3.052   0.596   1.305  0.00  0.00    +0.152 C 
ATOM     10  C   UNL     1      -3.976   1.071   2.402  0.00  0.00    +0.031 C 
BRANCH   9  14
ATOM     11  O   UNL     1      -4.381  -3.789  -0.817  0.00  0.00    -0.350 OA
ATOM     12  O   UNL     1      -4.083   1.148  -0.758  0.00  0.00    -0.273 OA
ATOM     13  N   UNL     1      -4.221  -1.071  -0.089  0.00  0.00    -0.273 N 
ATOM     14  C   UNL     1      -3.832   0.258   0.059  0.00  0.00    +0.244 C 
ATOM     15  C   UNL     1      -4.977  -1.486  -1.271  0.00  0.00    +0.126 C 
ATOM     16  C   UNL     1      -4.052  -2.125   0.917  0.00  0.00    +0.126 C 
ATOM     17  C   UNL     1      -4.413  -2.783  -1.833  0.00  0.00    +0.164 C 
ATOM     18  C   UNL     1      -3.531  -3.399   0.265  0.00  0.00    +0.164 C 
ENDBRANCH   9  14
ENDBRANCH   4   9
ENDBRANCH   1   5
BRANCH   1  19
ATOM     19  S   UNL     1       2.124   3.114  -1.204  0.00  0.00    +0.104 S 
ATOM     20  O   UNL     1       2.424   4.307  -0.436  0.00  0.00    -0.149 OA
ATOM     21  O   UNL     1       2.599   2.954  -2.564  0.00  0.00    -0.149 OA
BRANCH  19  25
ATOM     22  N   UNL     1       3.668   1.943   0.761  0.00  0.00    -0.184 N 
ATOM     23  N   UNL     1       2.803   0.537  -0.672  0.00  0.00    -0.312 NA
ATOM     24  N   UNL     1       4.114   0.753   1.190  0.00  0.00    -0.112 NA
ATOM     25  C   UNL     1       2.912   1.767  -0.321  0.00  0.00    +0.334 C 
ATOM     26  C   UNL     1       3.563  -0.064   0.290  0.00  0.00    +0.112 C 
ATOM     27  H   UNL     1       3.868   2.811   1.180  0.00  0.00    +0.179 HD
BRANCH  26  30
ATOM     28 CL   UNL     1       3.539  -5.538  -0.641  0.00  0.00    -0.075 Cl
ATOM     29  S   UNL     1       3.079  -2.609  -0.802  0.00  0.00    -0.064 S 
ATOM     30  C   UNL     1       3.764  -1.524   0.333  0.00  0.00    +0.105 C 
ATOM     31  C   UNL     1       4.520  -2.179   1.280  0.00  0.00    +0.019 C 
ATOM     32  C   UNL     1       4.537  -3.589   1.072  0.00  0.00    +0.019 C 
ATOM     33  C   UNL     1       3.793  -3.958  -0.027  0.00  0.00    +0.088 C 
ENDBRANCH  26  30
ENDBRANCH  19  25
ENDBRANCH   1  19
TORSDOF 6
