REMARK  Name = 6914644
REMARK  5 active torsions:
REMARK  status: ('A' for Active; 'I' for Inactive)
REMARK    1  A    between atoms: S_1  and  C_5
REMARK    2  A    between atoms: S_1  and  N_15
REMARK    3  A    between atoms: C_6  and  N_12
REMARK    4  A    between atoms: C_16  and  C_21
REMARK    5  A    between atoms: C_21  and  O_22
REMARK                            x       y       z     vdW  Elec       q    Type
REMARK                         _______ _______ _______ _____ _____    ______ ____
ROOT
ATOM      1  S   UNL     1       0.504   0.069   1.383  0.00  0.00    +0.065 S 
ATOM      2  O   UNL     1       0.894   1.407   1.788  0.00  0.00    -0.153 OA
ATOM      3  O   UNL     1       0.441  -1.005   2.356  0.00  0.00    -0.153 OA
ENDROOT
BRANCH   1   5
ATOM      4 CL   UNL     1      -5.131   0.423  -1.336  0.00  0.00    -0.083 Cl
ATOM      5  C   UNL     1      -1.082   0.188   0.613  0.00  0.00    +0.135 C 
ATOM      6  C   UNL     1      -1.504   1.375   0.035  0.00  0.00    +0.061 C 
ATOM      7  C   UNL     1      -1.889  -0.941   0.604  0.00  0.00    +0.018 C 
ATOM      8  C   UNL     1      -3.146  -0.879   0.003  0.00  0.00    -0.010 C 
ATOM      9  C   UNL     1      -2.761   1.437  -0.566  0.00  0.00    +0.027 C 
ATOM     10  C   UNL     1      -3.582   0.310  -0.582  0.00  0.00    +0.055 C 
ATOM     11  C   UNL     1      -3.996  -2.109   0.005  0.00  0.00    +0.032 C 
BRANCH   6  12
ATOM     12  N   UNL     1      -0.690   2.530   0.038  0.00  0.00    -0.356 N 
ATOM     13  H   UNL     1       0.200   2.504   0.458  0.00  0.00    +0.142 HD
ATOM     14  H   UNL     1      -1.013   3.361  -0.380  0.00  0.00    +0.142 HD
ENDBRANCH   6  12
ENDBRANCH   1   5
BRANCH   1  15
ATOM     15  N   UNL     1       1.453  -0.422   0.060  0.00  0.00    -0.146 NA
ATOM     16  C   UNL     1       2.934  -0.367   0.204  0.00  0.00    +0.178 C 
ATOM     17  C   UNL     1       3.458  -1.658  -0.415  0.00  0.00    +0.031 C 
ATOM     18  C   UNL     1       1.092  -1.706  -0.602  0.00  0.00    +0.096 C 
ATOM     19  C   UNL     1       2.350  -2.088  -1.363  0.00  0.00    +0.021 C 
BRANCH  16  21
ATOM     20  O   UNL     1       2.598   1.605  -1.142  0.00  0.00    -0.249 OA
ATOM     21  C   UNL     1       3.356   0.843  -0.560  0.00  0.00    +0.330 C 
BRANCH  21  22
ATOM     22  O   UNL     1       4.703   0.987  -0.524  0.00  0.00    -0.479 OA
ATOM     23  H   UNL     1       5.228   0.366  -0.059  0.00  0.00    +0.295 HD
ENDBRANCH  21  22
ENDBRANCH  16  21
ENDBRANCH   1  15
TORSDOF 5
