REMARK  Name = 12087505
REMARK  3 active torsions:
REMARK  status: ('A' for Active; 'I' for Inactive)
REMARK    1  A    between atoms: C_1  and  S_18
REMARK    2  A    between atoms: C_4  and  N_9
REMARK    3  A    between atoms: S_18  and  N_21
REMARK                            x       y       z     vdW  Elec       q    Type
REMARK                         _______ _______ _______ _____ _____    ______ ____
ROOT
ATOM      1  C   UNL     1      -0.125  -2.632  -0.083  0.00  0.00    +0.123 C 
ATOM      2  C   UNL     1      -1.219  -1.783  -0.110  0.00  0.00    +0.035 C 
ATOM      3  C   UNL     1       0.261  -3.347  -1.204  0.00  0.00    +0.020 C 
ATOM      4  C   UNL     1      -1.947  -1.645  -1.292  0.00  0.00    +0.053 C 
ATOM      5  C   UNL     1      -0.466  -3.209  -2.387  0.00  0.00    +0.003 C 
ATOM      6  C   UNL     1      -1.570  -2.357  -2.430  0.00  0.00    +0.015 C 
ENDROOT
BRANCH   4   9
ATOM      7  S   UNL     1      -6.793   2.295  -0.933  0.00  0.00    -0.051 S 
ATOM      8  O   UNL     1      -3.139   0.072   0.837  0.00  0.00    -0.252 OA
ATOM      9  N   UNL     1      -3.051  -0.793  -1.336  0.00  0.00    -0.268 N 
ATOM     10  N   UNL     1      -4.709   0.713  -0.781  0.00  0.00    -0.248 N 
ATOM     11  N   UNL     1      -5.356   1.942   1.187  0.00  0.00    -0.222 NA
ATOM     12  C   UNL     1      -3.592   0.011  -0.302  0.00  0.00    +0.310 C 
ATOM     13  C   UNL     1      -5.505   1.603  -0.057  0.00  0.00    +0.167 C 
ATOM     14  C   UNL     1      -7.229   3.157   0.484  0.00  0.00    +0.059 C 
ATOM     15  C   UNL     1      -6.354   2.843   1.504  0.00  0.00    +0.108 C 
ATOM     16  H   UNL     1      -3.518  -0.745  -2.202  0.00  0.00    +0.156 HD
ATOM     17  H   UNL     1      -4.956   0.562  -1.722  0.00  0.00    +0.158 HD
ENDBRANCH   4   9
BRANCH   1  18
ATOM     18  S   UNL     1       0.795  -2.809   1.414  0.00  0.00    +0.063 S 
ATOM     19  O   UNL     1      -0.077  -2.458   2.514  0.00  0.00    -0.153 OA
ATOM     20  O   UNL     1       1.469  -4.089   1.374  0.00  0.00    -0.153 OA
BRANCH  18  21
ATOM     21  N   UNL     1       1.952  -1.564   1.200  0.00  0.00    -0.152 NA
ATOM     22  N   UNL     1       3.614   0.547   0.292  0.00  0.00    -0.290 N 
ATOM     23  C   UNL     1       2.994  -1.830   0.168  0.00  0.00    +0.117 C 
ATOM     24  C   UNL     1       1.395  -0.190   1.055  0.00  0.00    +0.117 C 
ATOM     25  C   UNL     1       4.133  -0.827   0.325  0.00  0.00    +0.111 C 
ATOM     26  C   UNL     1       2.513   0.836   1.219  0.00  0.00    +0.111 C 
ATOM     27  N   UNL     1       5.833   1.447   0.201  0.00  0.00    -0.229 NA
ATOM     28  C   UNL     1       4.498   1.569  -0.073  0.00  0.00    +0.132 C 
ATOM     29  C   UNL     1       3.981   2.701  -0.716  0.00  0.00    +0.034 C 
ATOM     30  C   UNL     1       4.847   3.725  -1.084  0.00  0.00    +0.004 C 
ATOM     31  C   UNL     1       6.644   2.462  -0.173  0.00  0.00    +0.100 C 
ATOM     32  C   UNL     1       6.205   3.611  -0.812  0.00  0.00    +0.021 C 
ENDBRANCH  18  21
ENDBRANCH   1  18
TORSDOF 3
