REMARK  Name = 75846
REMARK  3 active torsions:
REMARK  status: ('A' for Active; 'I' for Inactive)
REMARK    1  A    between atoms: S_1  and  C_3
REMARK    2  A    between atoms: S_1  and  S_8
REMARK    3  A    between atoms: S_8  and  C_10
REMARK                            x       y       z     vdW  Elec       q    Type
REMARK                         _______ _______ _______ _____ _____    ______ ____
ROOT
ATOM      1  S   UNL     1       0.559  -1.833   0.966  0.00  0.00    -0.051 S 
ENDROOT
BRANCH   1   3
ATOM      2  N   UNL     1       3.741   1.201  -0.306  0.00  0.00    -0.242 NA
ATOM      3  C   UNL     1       1.798  -0.652   0.471  0.00  0.00    +0.039 C 
ATOM      4  C   UNL     1       2.605  -0.908  -0.632  0.00  0.00    +0.028 C 
ATOM      5  C   UNL     1       1.961   0.530   1.185  0.00  0.00    +0.028 C 
ATOM      6  C   UNL     1       3.553   0.042  -0.976  0.00  0.00    +0.099 C 
ATOM      7  C   UNL     1       2.938   1.415   0.760  0.00  0.00    +0.099 C 
ENDBRANCH   1   3
BRANCH   1   8
ATOM      8  S   UNL     1      -0.627  -1.926  -0.714  0.00  0.00    -0.051 S 
BRANCH   8  10
ATOM      9  N   UNL     1      -3.694   1.362   0.135  0.00  0.00    -0.242 NA
ATOM     10  C   UNL     1      -1.822  -0.644  -0.383  0.00  0.00    +0.039 C 
ATOM     11  C   UNL     1      -1.579   0.658  -0.800  0.00  0.00    +0.028 C 
ATOM     12  C   UNL     1      -2.998  -0.948   0.291  0.00  0.00    +0.028 C 
ATOM     13  C   UNL     1      -2.539   1.617  -0.519  0.00  0.00    +0.099 C 
ATOM     14  C   UNL     1      -3.894   0.083   0.524  0.00  0.00    +0.099 C 
ENDBRANCH   8  10
ENDBRANCH   1   8
TORSDOF 3
