REMARK  Name = 6102822
REMARK  5 active torsions:
REMARK  status: ('A' for Active; 'I' for Inactive)
REMARK    1  A    between atoms: N_2  and  S_21
REMARK    2  A    between atoms: C_4  and  C_12
REMARK    3  A    between atoms: C_10  and  O_32
REMARK    4  A    between atoms: C_15  and  N_18
REMARK    5  A    between atoms: S_21  and  C_26
REMARK                            x       y       z     vdW  Elec       q    Type
REMARK                         _______ _______ _______ _____ _____    ______ ____
ROOT
ATOM      1  O   UNL     1      -0.006  -0.362  -1.221  0.00  0.00    -0.413 OA
ATOM      2  N   UNL     1      -2.173  -1.210  -2.050  0.00  0.00    -0.158 N 
ATOM      3  N   UNL     1      -0.481  -2.562  -0.952  0.00  0.00    -0.354 NA
ATOM      4  C   UNL     1       2.232  -0.339  -0.174  0.00  0.00    +0.040 C 
ATOM      5  C   UNL     1       1.055  -0.948  -0.591  0.00  0.00    +0.175 C 
ATOM      6  C   UNL     1       0.760  -2.294  -0.428  0.00  0.00    +0.156 C 
ATOM      7  C   UNL     1       3.159  -1.179   0.451  0.00  0.00    +0.036 C 
ATOM      8  C   UNL     1      -0.879  -1.392  -1.402  0.00  0.00    +0.364 C 
ATOM      9  C   UNL     1       1.701  -3.122   0.201  0.00  0.00    +0.126 C 
ATOM     10  C   UNL     1       2.902  -2.543   0.636  0.00  0.00    +0.123 C 
ATOM     11  H   UNL     1      -2.548  -1.905  -2.639  0.00  0.00    +0.179 HD
ENDROOT
BRANCH   4  12
ATOM     12  C   UNL     1       2.466   1.067  -0.380  0.00  0.00    +0.004 C 
ATOM     13  C   UNL     1       2.076   1.995   0.590  0.00  0.00    +0.014 C 
ATOM     14  C   UNL     1       3.083   1.513  -1.552  0.00  0.00    +0.000 C 
ATOM     15  C   UNL     1       2.303   3.357   0.391  0.00  0.00    +0.042 C 
ATOM     16  C   UNL     1       3.310   2.875  -1.752  0.00  0.00    +0.001 C 
ATOM     17  C   UNL     1       2.920   3.797  -0.780  0.00  0.00    +0.014 C 
BRANCH  15  18
ATOM     18  N   UNL     1       1.909   4.289   1.373  0.00  0.00    -0.357 N 
ATOM     19  H   UNL     1       1.474   3.979   2.199  0.00  0.00    +0.142 HD
ATOM     20  H   UNL     1       2.069   5.250   1.232  0.00  0.00    +0.142 HD
ENDBRANCH  15  18
ENDBRANCH   4  12
BRANCH   2  21
ATOM     21  S   UNL     1      -3.017   0.245  -1.755  0.00  0.00    +0.078 S 
ATOM     22  O   UNL     1      -2.195   1.346  -2.220  0.00  0.00    -0.150 OA
ATOM     23  O   UNL     1      -4.392   0.135  -2.203  0.00  0.00    -0.150 OA
BRANCH  21  26
ATOM     24 CL   UNL     1      -4.774  -1.779   0.055  0.00  0.00    -0.081 Cl
ATOM     25 CL   UNL     1      -1.260   2.602   2.767  0.00  0.00    -0.082 Cl
ATOM     26  C   UNL     1      -3.030   0.324   0.013  0.00  0.00    +0.137 C 
ATOM     27  C   UNL     1      -3.790  -0.553   0.769  0.00  0.00    +0.077 C 
ATOM     28  C   UNL     1      -2.247   1.300   0.613  0.00  0.00    +0.032 C 
ATOM     29  C   UNL     1      -2.226   1.399   2.004  0.00  0.00    +0.059 C 
ATOM     30  C   UNL     1      -3.769  -0.453   2.160  0.00  0.00    +0.014 C 
ATOM     31  C   UNL     1      -2.987   0.523   2.778  0.00  0.00    +0.012 C 
ENDBRANCH  21  26
ENDBRANCH   2  21
BRANCH  10  32
ATOM     32  O   UNL     1       3.835  -3.325   1.252  0.00  0.00    -0.475 OA
ATOM     33  C   UNL     1       3.518  -4.705   1.412  0.00  0.00    +0.252 C 
ENDBRANCH  10  32
TORSDOF 5
