REMARK  Name = 9860102
REMARK  8 active torsions:
REMARK  status: ('A' for Active; 'I' for Inactive)
REMARK    1  A    between atoms: N_1  and  C_12
REMARK    2  A    between atoms: C_2  and  C_21
REMARK    3  A    between atoms: C_3  and  O_8
REMARK    4  A    between atoms: C_5  and  O_10
REMARK    5  A    between atoms: C_12  and  C_13
REMARK    6  A    between atoms: C_13  and  C_14
REMARK    7  A    between atoms: C_14  and  C_15
REMARK    8  A    between atoms: C_21  and  O_22
REMARK                            x       y       z     vdW  Elec       q    Type
REMARK                         _______ _______ _______ _____ _____    ______ ____
ROOT
ATOM      1  N   UNL     1       1.123   0.672  -0.418  0.00  0.00    +0.389 N 
ATOM      2  C   UNL     1       3.421   0.372   0.463  0.00  0.00    +0.038 C 
ATOM      3  C   UNL     1       3.425  -1.091  -0.006  0.00  0.00    +0.135 C 
ATOM      4  C   UNL     1       2.485   1.224  -0.408  0.00  0.00    -0.072 C 
ATOM      5  C   UNL     1       1.994  -1.624  -0.122  0.00  0.00    +0.117 C 
ATOM      6  C   UNL     1       1.115  -0.692  -0.956  0.00  0.00    -0.045 C 
ATOM      7  H   UNL     1       0.787   0.636   0.544  0.00  0.00    -0.080 HD
ENDROOT
BRANCH   3   8
ATOM      8  O   UNL     1       4.145  -1.875   0.944  0.00  0.00    -0.382 OA
ATOM      9  H   UNL     1       5.052  -1.540   1.020  0.00  0.00    +0.210 HD
ENDBRANCH   3   8
BRANCH   5  10
ATOM     10  O   UNL     1       2.009  -2.899  -0.763  0.00  0.00    -0.384 OA
ATOM     11  H   UNL     1       2.561  -3.511  -0.252  0.00  0.00    +0.210 HD
ENDBRANCH   5  10
BRANCH   1  12
ATOM     12  C   UNL     1       0.228   1.532  -1.193  0.00  0.00    -0.077 C 
BRANCH  12  13
ATOM     13  C   UNL     1      -1.194   0.974  -1.173  0.00  0.00    -0.018 C 
BRANCH  13  14
ATOM     14  C   UNL     1      -1.724   0.870   0.259  0.00  0.00    +0.024 C 
BRANCH  14  15
ATOM     15  C   UNL     1      -3.141   0.355   0.293  0.00  0.00    -0.022 C 
ATOM     16  C   UNL     1      -4.194   1.255   0.239  0.00  0.00    -0.004 C 
ATOM     17  C   UNL     1      -3.368  -1.010   0.379  0.00  0.00    -0.004 C 
ATOM     18  C   UNL     1      -5.505   0.779   0.271  0.00  0.00    -0.000 C 
ATOM     19  C   UNL     1      -4.679  -1.487   0.410  0.00  0.00    -0.000 C 
ATOM     20  C   UNL     1      -5.747  -0.592   0.356  0.00  0.00    -0.000 C 
ENDBRANCH  14  15
ENDBRANCH  13  14
ENDBRANCH  12  13
ENDBRANCH   1  12
BRANCH   2  21
ATOM     21  C   UNL     1       4.835   0.959   0.459  0.00  0.00    +0.137 C 
BRANCH  21  22
ATOM     22  O   UNL     1       4.771   2.278   0.965  0.00  0.00    -0.382 OA
ATOM     23  H   UNL     1       5.660   2.666   0.970  0.00  0.00    +0.210 HD
ENDBRANCH  21  22
ENDBRANCH   2  21
TORSDOF 8
