REMARK  Name = 42628060
REMARK  6 active torsions:
REMARK  status: ('A' for Active; 'I' for Inactive)
REMARK    1  A    between atoms: N_2  and  C_6
REMARK    2  A    between atoms: C_3  and  C_19
REMARK    3  A    between atoms: C_9  and  N_13
REMARK    4  A    between atoms: C_19  and  N_20
REMARK    5  A    between atoms: C_21  and  N_27
REMARK    6  A    between atoms: C_28  and  C_32
REMARK                            x       y       z     vdW  Elec       q    Type
REMARK                         _______ _______ _______ _____ _____    ______ ____
ROOT
ATOM      1  O   UNL     1      -0.647   1.817  -0.062  0.00  0.00    -0.277 OA
ATOM      2  N   UNL     1      -1.424  -0.280  -0.779  0.00  0.00    -0.284 N 
ATOM      3  C   UNL     1      -0.462   0.696  -0.525  0.00  0.00    +0.205 C 
ATOM      4  H   UNL     1      -1.095  -1.126  -1.159  0.00  0.00    +0.155 HD
ENDROOT
BRANCH   2   6
ATOM      5  F   UNL     1      -3.128  -2.399  -1.386  0.00  0.00    -0.203 F 
ATOM      6  C   UNL     1      -2.818  -0.196  -0.554  0.00  0.00    +0.078 C 
ATOM      7  C   UNL     1      -3.644  -1.275  -0.869  0.00  0.00    +0.155 C 
ATOM      8  C   UNL     1      -3.367   0.969  -0.018  0.00  0.00    +0.018 C 
ATOM      9  C   UNL     1      -5.567  -0.024  -0.111  0.00  0.00    +0.061 C 
ATOM     10  C   UNL     1      -5.019  -1.189  -0.647  0.00  0.00    +0.046 C 
ATOM     11  C   UNL     1      -4.742   1.055   0.204  0.00  0.00    +0.017 C 
BRANCH   9  13
ATOM     12  O   UNL     1      -7.281  -2.229   0.641  0.00  0.00    -0.269 OA
ATOM     13  N   UNL     1      -6.996   0.066   0.119  0.00  0.00    -0.233 N 
ATOM     14  C   UNL     1      -7.734  -1.101   0.445  0.00  0.00    +0.257 C 
ATOM     15  C   UNL     1      -7.650   1.298   0.043  0.00  0.00    +0.072 C 
ATOM     16  C   UNL     1      -9.210  -0.928   0.621  0.00  0.00    +0.059 C 
ATOM     17  C   UNL     1      -8.966   1.431   0.237  0.00  0.00    +0.017 C 
ATOM     18  C   UNL     1      -9.768   0.281   0.528  0.00  0.00    +0.006 C 
ENDBRANCH   9  13
ENDBRANCH   2   6
BRANCH   3  19
ATOM     19  C   UNL     1       0.916   0.189  -0.915  0.00  0.00    +0.010 C 
BRANCH  19  20
ATOM     20  N   UNL     1       1.919   0.810  -0.063  0.00  0.00    +0.394 N 
ATOM     21  C   UNL     1       4.148   1.090   0.560  0.00  0.00    +0.049 C 
ATOM     22  C   UNL     1       3.341   0.678   1.794  0.00  0.00    -0.005 C 
ATOM     23  C   UNL     1       3.267   0.714  -0.627  0.00  0.00    -0.057 C 
ATOM     24  C   UNL     1       2.014   0.166   1.247  0.00  0.00    -0.075 C 
ATOM     25  H   UNL     1       1.612   1.779   0.015  0.00  0.00    -0.079 HD
BRANCH  21  27
ATOM     26  O   UNL     1       6.522   2.162  -0.647  0.00  0.00    -0.270 OA
ATOM     27  N   UNL     1       5.439   0.462   0.501  0.00  0.00    -0.304 N 
ATOM     28  C   UNL     1       6.537   1.058  -0.107  0.00  0.00    +0.252 C 
ATOM     29  H   UNL     1       5.550  -0.428   0.908  0.00  0.00    +0.150 HD
BRANCH  28  32
ATOM     30 CL   UNL     1      10.251  -2.965   0.680  0.00  0.00    -0.075 Cl
ATOM     31  S   UNL     1       7.805  -1.283   0.620  0.00  0.00    -0.071 S 
ATOM     32  C   UNL     1       7.795   0.267  -0.107  0.00  0.00    +0.084 C 
ATOM     33  C   UNL     1       9.025   0.601  -0.630  0.00  0.00    +0.012 C 
ATOM     34  C   UNL     1       9.988  -0.430  -0.431  0.00  0.00    +0.019 C 
ATOM     35  C   UNL     1       9.458  -1.512   0.236  0.00  0.00    +0.087 C 
ENDBRANCH  28  32
ENDBRANCH  21  27
ENDBRANCH  19  20
ENDBRANCH   3  19
TORSDOF 6
