REMARK  Name = 131704305
REMARK  9 active torsions:
REMARK  status: ('A' for Active; 'I' for Inactive)
REMARK    1  A    between atoms: N_2  and  C_23
REMARK    2  A    between atoms: N_3  and  C_13
REMARK    3  A    between atoms: C_5  and  O_11
REMARK    4  A    between atoms: C_13  and  C_14
REMARK    5  A    between atoms: C_14  and  C_16
REMARK    6  A    between atoms: C_23  and  C_24
REMARK    7  A    between atoms: C_24  and  N_25
REMARK    8  A    between atoms: N_25  and  C_28
REMARK    9  A    between atoms: C_28  and  C_31
REMARK                            x       y       z     vdW  Elec       q    Type
REMARK                         _______ _______ _______ _____ _____    ______ ____
ROOT
ATOM      1 CL   UNL     1      -0.530  -1.356   2.200  0.00  0.00    -0.136 Cl
ATOM      2  N   UNL     1      -0.466  -0.491  -0.260  0.00  0.00    +0.419 N 
ATOM      3  N   UNL     1      -3.887  -0.123  -0.951  0.00  0.00    -0.322 N 
ATOM      4  N   UNL     1      -2.851  -2.004  -0.027  0.00  0.00    -0.261 NA
ATOM      5  C   UNL     1      -1.449  -0.477  -1.348  0.00  0.00    +0.115 C 
ATOM      6  C   UNL     1      -2.786  -0.912  -0.730  0.00  0.00    +0.107 C 
ATOM      7  C   UNL     1      -0.432  -1.772   0.457  0.00  0.00    +0.054 C 
ATOM      8  C   UNL     1      -1.577  -2.720   0.089  0.00  0.00    +0.122 C 
ATOM      9  H   UNL     1      -0.775   0.214   0.410  0.00  0.00    -0.073 HD
ATOM     10  H   UNL     1      -3.789   0.687  -1.502  0.00  0.00    +0.148 HD
ENDROOT
BRANCH   5  11
ATOM     11  O   UNL     1      -1.582   0.804  -1.943  0.00  0.00    -0.398 OA
ATOM     12  H   UNL     1      -0.734   1.071  -2.330  0.00  0.00    +0.208 HD
ENDBRANCH   5  11
BRANCH   3  13
ATOM     13  C   UNL     1      -5.171  -0.438  -0.408  0.00  0.00    +0.086 C 
BRANCH  13  14
ATOM     14  C   UNL     1      -6.214   0.575  -0.866  0.00  0.00    -0.000 C 
BRANCH  14  16
ATOM     15  N   UNL     1      -8.557   1.260  -0.863  0.00  0.00    +0.385 N 
ATOM     16  C   UNL     1      -7.616   0.257  -0.349  0.00  0.00    -0.060 C 
ATOM     17  C   UNL     1      -7.631   0.233   1.186  0.00  0.00    -0.021 C 
ATOM     18  C   UNL     1      -9.040  -0.005   1.721  0.00  0.00    -0.004 C 
ATOM     19  C   UNL     1     -10.020   0.992   1.111  0.00  0.00    -0.023 C 
ATOM     20  C   UNL     1      -9.924   0.999  -0.413  0.00  0.00    -0.082 C 
ATOM     21  H   UNL     1      -8.535   1.243  -1.883  0.00  0.00    -0.084 HD
ATOM     22  H   UNL     1      -8.274   2.174  -0.508  0.00  0.00    -0.084 HD
ENDBRANCH  14  16
ENDBRANCH  13  14
ENDBRANCH   3  13
BRANCH   2  23
ATOM     23  C   UNL     1       0.867  -0.109  -0.725  0.00  0.00    -0.095 C 
BRANCH  23  24
ATOM     24  C   UNL     1       1.717   0.370   0.449  0.00  0.00    -0.104 C 
BRANCH  24  25
ATOM     25  N   UNL     1       3.052   0.734  -0.013  0.00  0.00    +0.385 N 
ATOM     26  H   UNL     1       2.976   1.498  -0.684  0.00  0.00    -0.084 HD
ATOM     27  H   UNL     1       3.480  -0.082  -0.449  0.00  0.00    -0.084 HD
BRANCH  25  28
ATOM     28  C   UNL     1       3.887   1.159   1.101  0.00  0.00    -0.054 C 
BRANCH  28  31
ATOM     29 CL   UNL     1       7.337  -3.282  -0.101  0.00  0.00    -0.082 Cl
ATOM     30  S   UNL     1       7.315   2.937   0.002  0.00  0.00    -0.087 S 
ATOM     31  C   UNL     1       5.274   1.534   0.651  0.00  0.00    -0.037 C 
ATOM     32  C   UNL     1       6.290   0.582   0.303  0.00  0.00    +0.001 C 
ATOM     33  C   UNL     1       7.474   1.222  -0.077  0.00  0.00    +0.029 C 
ATOM     34  C   UNL     1       5.698   2.836   0.532  0.00  0.00    +0.029 C 
ATOM     35  C   UNL     1       6.261  -0.834   0.291  0.00  0.00    +0.012 C 
ATOM     36  C   UNL     1       8.616   0.491  -0.462  0.00  0.00    +0.007 C 
ATOM     37  C   UNL     1       7.391  -1.561  -0.092  0.00  0.00    +0.058 C 
ATOM     38  C   UNL     1       8.555  -0.904  -0.464  0.00  0.00    +0.012 C 
ENDBRANCH  28  31
ENDBRANCH  25  28
ENDBRANCH  24  25
ENDBRANCH  23  24
ENDBRANCH   2  23
TORSDOF 9
