REMARK  Name = 11507920
REMARK  4 active torsions:
REMARK  status: ('A' for Active; 'I' for Inactive)
REMARK    1  A    between atoms: C_1  and  C_8
REMARK    2  A    between atoms: C_2  and  C_17
REMARK    3  A    between atoms: C_17  and  N_18
REMARK    4  A    between atoms: N_18  and  C_21
REMARK                            x       y       z     vdW  Elec       q    Type
REMARK                         _______ _______ _______ _____ _____    ______ ____
ROOT
ATOM      1  C   UNL     1       1.485   1.471   0.034  0.00  0.00    -0.000 C 
ATOM      2  C   UNL     1      -0.887   1.653  -0.384  0.00  0.00    -0.003 C 
ATOM      3  C   UNL     1       0.295   0.913  -0.431  0.00  0.00    -0.003 C 
ATOM      4  C   UNL     1       1.496   2.768   0.545  0.00  0.00    -0.000 C 
ATOM      5  C   UNL     1      -0.877   2.951   0.127  0.00  0.00    -0.003 C 
ATOM      6  C   UNL     1       0.315   3.509   0.591  0.00  0.00    -0.000 C 
ENDROOT
BRANCH   1   8
ATOM      7  N   UNL     1       4.109  -2.745   0.117  0.00  0.00    -0.312 N 
ATOM      8  C   UNL     1       2.712   0.703  -0.016  0.00  0.00    +0.001 C 
ATOM      9  C   UNL     1       3.863  -1.393   0.039  0.00  0.00    +0.048 C 
ATOM     10  C   UNL     1       5.098  -0.759  -0.115  0.00  0.00    +0.015 C 
ATOM     11  C   UNL     1       2.655  -0.689   0.092  0.00  0.00    +0.015 C 
ATOM     12  C   UNL     1       3.930   1.363  -0.170  0.00  0.00    +0.000 C 
ATOM     13  C   UNL     1       5.131   0.646  -0.221  0.00  0.00    +0.001 C 
ATOM     14  C   UNL     1       6.091  -1.778  -0.127  0.00  0.00    +0.017 C 
ATOM     15  C   UNL     1       5.452  -2.987   0.018  0.00  0.00    +0.062 C 
ATOM     16  H   UNL     1       3.418  -3.438   0.228  0.00  0.00    +0.152 HD
ENDBRANCH   1   8
BRANCH   2  17
ATOM     17  C   UNL     1      -2.161   1.058  -0.881  0.00  0.00    +0.114 C 
BRANCH  17  18
ATOM     18  N   UNL     1      -2.880   0.362   0.155  0.00  0.00    -0.327 N 
ATOM     19  H   UNL     1      -2.507   0.372   1.066  0.00  0.00    +0.147 HD
BRANCH  18  21
ATOM     20  N   UNL     1      -5.912  -1.667   0.795  0.00  0.00    -0.228 NA
ATOM     21  C   UNL     1      -4.069  -0.323  -0.057  0.00  0.00    +0.077 C 
ATOM     22  C   UNL     1      -4.753  -0.991   0.961  0.00  0.00    +0.139 C 
ATOM     23  C   UNL     1      -4.645  -0.370  -1.333  0.00  0.00    +0.019 C 
ATOM     24  C   UNL     1      -5.836  -1.056  -1.543  0.00  0.00    +0.022 C 
ATOM     25  C   UNL     1      -6.425  -1.682  -0.456  0.00  0.00    +0.100 C 
ATOM     26  N   UNL     1      -4.189  -0.959   2.261  0.00  0.00    -0.342 N 
ATOM     27  H   UNL     1      -4.642  -1.418   3.005  0.00  0.00    +0.144 HD
ATOM     28  H   UNL     1      -3.346  -0.477   2.421  0.00  0.00    +0.144 HD
ENDBRANCH  18  21
ENDBRANCH  17  18
ENDBRANCH   2  17
TORSDOF 4
