REMARK  Name = 11494891
REMARK  8 active torsions:
REMARK  status: ('A' for Active; 'I' for Inactive)
REMARK    1  A    between atoms: N_5  and  C_25
REMARK    2  A    between atoms: C_10  and  C_18
REMARK    3  A    between atoms: C_18  and  O_19
REMARK    4  A    between atoms: O_19  and  C_20
REMARK    5  A    between atoms: C_20  and  C_22
REMARK    6  A    between atoms: C_22  and  O_23
REMARK    7  A    between atoms: C_25  and  C_27
REMARK    8  A    between atoms: C_27  and  O_28
REMARK                            x       y       z     vdW  Elec       q    Type
REMARK                         _______ _______ _______ _____ _____    ______ ____
ROOT
ATOM      1  S   UNL     1      -1.060   1.639   0.595  0.00  0.00    +0.080 S 
ATOM      2  O   UNL     1      -0.756   2.445  -0.568  0.00  0.00    -0.150 OA
ATOM      3  O   UNL     1      -0.856   2.091   1.954  0.00  0.00    -0.150 OA
ATOM      4  O   UNL     1      -3.608  -1.177   0.104  0.00  0.00    -0.268 OA
ATOM      5  N   UNL     1      -2.609   0.932   0.435  0.00  0.00    -0.145 N 
ATOM      6  C   UNL     1      -0.287   0.089   0.408  0.00  0.00    +0.136 C 
ATOM      7  C   UNL     1      -1.198  -0.959   0.227  0.00  0.00    +0.074 C 
ATOM      8  C   UNL     1      -0.731  -2.279   0.059  0.00  0.00    +0.006 C 
ATOM      9  C   UNL     1      -2.613  -0.489   0.238  0.00  0.00    +0.269 C 
ATOM     10  C   UNL     1       1.078  -0.089   0.436  0.00  0.00    +0.095 C 
ATOM     11  C   UNL     1       0.679  -2.478   0.086  0.00  0.00    +0.000 C 
ATOM     12  C   UNL     1       1.555  -1.386   0.273  0.00  0.00    +0.008 C 
ATOM     13  C   UNL     1      -1.557  -3.410  -0.133  0.00  0.00    +0.000 C 
ATOM     14  C   UNL     1       1.201  -3.772  -0.076  0.00  0.00    +0.000 C 
ATOM     15  C   UNL     1      -1.015  -4.687  -0.292  0.00  0.00    +0.000 C 
ATOM     16  C   UNL     1       0.361  -4.868  -0.264  0.00  0.00    +0.000 C 
ENDROOT
BRANCH  10  18
ATOM     17  O   UNL     1       1.775   2.031   1.276  0.00  0.00    -0.245 OA
ATOM     18  C   UNL     1       2.017   1.005   0.625  0.00  0.00    +0.343 C 
BRANCH  18  19
ATOM     19  O   UNL     1       3.207   0.762  -0.004  0.00  0.00    -0.433 OA
BRANCH  19  20
ATOM     20  C   UNL     1       4.217   1.770   0.111  0.00  0.00    +0.317 C 
BRANCH  20  22
ATOM     21  O   UNL     1       5.594   0.286  -1.233  0.00  0.00    -0.246 OA
ATOM     22  C   UNL     1       5.450   1.342  -0.636  0.00  0.00    +0.359 C 
BRANCH  22  23
ATOM     23  O   UNL     1       6.403   2.305  -0.558  0.00  0.00    -0.478 OA
ATOM     24  H   UNL     1       6.233   3.095  -0.085  0.00  0.00    +0.295 HD
ENDBRANCH  22  23
ENDBRANCH  20  22
ENDBRANCH  19  20
ENDBRANCH  18  19
ENDBRANCH  10  18
BRANCH   5  25
ATOM     25  C   UNL     1      -3.847   1.724   0.496  0.00  0.00    +0.228 C 
BRANCH  25  27
ATOM     26  O   UNL     1      -3.684   1.984  -1.891  0.00  0.00    -0.248 OA
ATOM     27  C   UNL     1      -4.291   2.224  -0.855  0.00  0.00    +0.336 C 
BRANCH  27  28
ATOM     28  O   UNL     1      -5.423   2.965  -0.813  0.00  0.00    -0.479 OA
ATOM     29  H   UNL     1      -5.851   3.120   0.006  0.00  0.00    +0.295 HD
ENDBRANCH  27  28
ENDBRANCH  25  27
ENDBRANCH   5  25
TORSDOF 8
