REMARK  Name = 462919
REMARK  5 active torsions:
REMARK  status: ('A' for Active; 'I' for Inactive)
REMARK    1  A    between atoms: N_2  and  C_6
REMARK    2  A    between atoms: C_3  and  C_17
REMARK    3  A    between atoms: C_5  and  S_11
REMARK    4  A    between atoms: S_11  and  N_14
REMARK    5  A    between atoms: C_18  and  S_23
REMARK                            x       y       z     vdW  Elec       q    Type
REMARK                         _______ _______ _______ _____ _____    ______ ____
ROOT
ATOM      1  O   UNL     1      -1.455   0.230   1.835  0.00  0.00    -0.270 OA
ATOM      2  N   UNL     1      -0.780  -0.219  -0.367  0.00  0.00    -0.280 N 
ATOM      3  C   UNL     1      -1.721  -0.018   0.650  0.00  0.00    +0.250 C 
ATOM      4  H   UNL     1      -1.147  -0.409  -1.261  0.00  0.00    +0.155 HD
ENDROOT
BRANCH   2   6
ATOM      5  C   UNL     1       3.396  -0.119  -0.096  0.00  0.00    +0.122 C 
ATOM      6  C   UNL     1       0.633  -0.185  -0.275  0.00  0.00    +0.051 C 
ATOM      7  C   UNL     1       2.617   0.109   1.039  0.00  0.00    +0.021 C 
ATOM      8  C   UNL     1       2.782  -0.379  -1.322  0.00  0.00    +0.021 C 
ATOM      9  C   UNL     1       1.226   0.075   0.948  0.00  0.00    +0.016 C 
ATOM     10  C   UNL     1       1.391  -0.413  -1.412  0.00  0.00    +0.016 C 
BRANCH   5  11
ATOM     11  S   UNL     1       5.137  -0.076   0.017  0.00  0.00    +0.057 S 
ATOM     12  O   UNL     1       5.516  -0.366   1.393  0.00  0.00    -0.153 OA
ATOM     13  O   UNL     1       5.691  -0.873  -1.069  0.00  0.00    -0.153 OA
BRANCH  11  14
ATOM     14  N   UNL     1       5.444   1.574  -0.303  0.00  0.00    -0.203 NA
ATOM     15  H   UNL     1       6.449   1.746  -0.268  0.00  0.00    +0.144 HD
ATOM     16  H   UNL     1       4.977   2.149   0.398  0.00  0.00    +0.144 HD
ENDBRANCH  11  14
ENDBRANCH   5  11
ENDBRANCH   2   6
BRANCH   3  17
ATOM     17  C   UNL     1      -3.119  -0.144   0.252  0.00  0.00    +0.059 C 
ATOM     18  C   UNL     1      -3.864   0.942  -0.207  0.00  0.00    +0.026 C 
ATOM     19  C   UNL     1      -3.707  -1.405   0.344  0.00  0.00    +0.005 C 
ATOM     20  C   UNL     1      -5.198   0.766  -0.575  0.00  0.00    +0.006 C 
ATOM     21  C   UNL     1      -5.042  -1.581  -0.024  0.00  0.00    +0.000 C 
ATOM     22  C   UNL     1      -5.787  -0.495  -0.483  0.00  0.00    +0.000 C 
BRANCH  18  23
ATOM     23  S   UNL     1      -3.160   2.581  -0.344  0.00  0.00    -0.141 S 
ATOM     24  H   UNL     1      -1.861   2.551   0.057  0.00  0.00    +0.107 HD
ENDBRANCH  18  23
ENDBRANCH   3  17
TORSDOF 5
