REMARK  Name = 67532
REMARK  6 active torsions:
REMARK  status: ('A' for Active; 'I' for Inactive)
REMARK    1  A    between atoms: C_1  and  C_4
REMARK    2  A    between atoms: C_1  and  CA_12
REMARK    3  A    between atoms: C_9  and  O_10
REMARK    4  A    between atoms: CA_12  and  N_13
REMARK    5  A    between atoms: CA_12  and  C_18
REMARK    6  A    between atoms: C_18  and  O_19
REMARK                            x       y       z     vdW  Elec       q    Type
REMARK                         _______ _______ _______ _____ _____    ______ ____
ROOT
ATOM      1  C   UNL     1       1.528   0.879  -1.085  0.00  0.00    +0.015 C 
ENDROOT
BRANCH   1   4
ATOM      2 BR   UNL     1      -2.059  -3.017  -0.453  0.00  0.00    -0.046 Br
ATOM      3 BR   UNL     1      -3.230   2.485   0.709  0.00  0.00    -0.046 Br
ATOM      4  C   UNL     1       0.132   0.495  -0.678  0.00  0.00    -0.023 C 
ATOM      5  C   UNL     1      -0.750   1.478  -0.248  0.00  0.00    +0.005 C 
ATOM      6  C   UNL     1      -0.259  -0.836  -0.738  0.00  0.00    +0.005 C 
ATOM      7  C   UNL     1      -1.554  -1.191  -0.361  0.00  0.00    +0.068 C 
ATOM      8  C   UNL     1      -2.046   1.123   0.129  0.00  0.00    +0.068 C 
ATOM      9  C   UNL     1      -2.447  -0.212   0.072  0.00  0.00    +0.146 C 
BRANCH   9  10
ATOM     10  O   UNL     1      -3.716  -0.559   0.439  0.00  0.00    -0.505 OA
ATOM     11  H   UNL     1      -3.985  -1.456   0.401  0.00  0.00    +0.292 HD
ENDBRANCH   9  10
ENDBRANCH   1   4
BRANCH   1  12
ATOM     12  CA  UNL     1       2.533   0.847   0.076  0.00  0.00    +0.040 C 
BRANCH  12  13
ATOM     13  N   UNL     1       3.854   1.250  -0.410  0.00  0.00    +0.389 N 
ATOM     14  H1  UNL     1       3.801   2.193  -0.796  0.00  0.00    -0.088 HD
ATOM     15  H2  UNL     1       4.163   0.603  -1.135  0.00  0.00    -0.088 HD
ATOM     16  H3  UNL     1       4.520   1.237   0.363  0.00  0.00    -0.088 HD
ENDBRANCH  12  13
BRANCH  12  18
ATOM     17  OXT UNL     1       3.446  -1.412   0.200  0.00  0.00    -0.253 OA
ATOM     18  C   UNL     1       2.683  -0.559   0.635  0.00  0.00    +0.293 C 
BRANCH  18  19
ATOM     19  O   UNL     1       1.885  -0.771   1.714  0.00  0.00    -0.482 OA
ATOM     20  H   UNL     1       1.315  -0.091   2.016  0.00  0.00    +0.295 HD
ENDBRANCH  18  19
ENDBRANCH  12  18
ENDBRANCH   1  12
TORSDOF 6
