REMARK  Name = 11318
REMARK  2 active torsions:
REMARK  status: ('A' for Active; 'I' for Inactive)
REMARK    1  A    between atoms: C_3  and  O_11
REMARK    2  A    between atoms: C_7  and  O_13
REMARK                            x       y       z     vdW  Elec       q    Type
REMARK                         _______ _______ _______ _____ _____    ______ ____
ROOT
ATOM      1  C   UNL     1       0.300  -0.456   0.000  0.00  0.00    +0.037 C 
ATOM      2  C   UNL     1       0.663   0.912   0.000  0.00  0.00    +0.003 C 
ATOM      3  C   UNL     1      -1.060  -0.806   0.000  0.00  0.00    +0.167 C 
ATOM      4  C   UNL     1      -0.345   1.890   0.000  0.00  0.00    +0.003 C 
ATOM      5  C   UNL     1       1.308  -1.434   0.000  0.00  0.00    +0.003 C 
ATOM      6  C   UNL     1       2.023   1.261   0.000  0.00  0.00    +0.000 C 
ATOM      7  C   UNL     1      -2.048   0.179  -0.001  0.00  0.00    +0.167 C 
ATOM      8  C   UNL     1      -1.691   1.524   0.000  0.00  0.00    +0.040 C 
ATOM      9  C   UNL     1       2.654  -1.069   0.000  0.00  0.00    +0.000 C 
ATOM     10  C   UNL     1       3.011   0.276   0.000  0.00  0.00    +0.000 C 
ENDROOT
BRANCH   3  11
ATOM     11  O   UNL     1      -1.446  -2.117   0.000  0.00  0.00    -0.503 OA
ATOM     12  H   UNL     1      -0.800  -2.796   0.000  0.00  0.00    +0.292 HD
ENDBRANCH   3  11
BRANCH   7  13
ATOM     13  O   UNL     1      -3.368  -0.161   0.001  0.00  0.00    -0.503 OA
ATOM     14  H   UNL     1      -3.619  -1.064   0.001  0.00  0.00    +0.292 HD
ENDBRANCH   7  13
TORSDOF 2
