REMARK  Name = 449597
REMARK  4 active torsions:
REMARK  status: ('A' for Active; 'I' for Inactive)
REMARK    1  A    between atoms: N_2  and  C_12
REMARK    2  A    between atoms: N_4  and  C_18
REMARK    3  A    between atoms: C_12  and  C_15
REMARK    4  A    between atoms: C_12  and  C_16
REMARK                            x       y       z     vdW  Elec       q    Type
REMARK                         _______ _______ _______ _____ _____    ______ ____
ROOT
ATOM      1 CL   UNL     1       3.745   2.693   0.043  0.00  0.00    +0.026 Cl
ATOM      2  N   UNL     1      -1.088   1.636   0.034  0.00  0.00    -0.248 N 
ATOM      3  N   UNL     1       0.414  -0.165   0.044  0.00  0.00    -0.247 NA
ATOM      4  N   UNL     1       1.966  -1.924   0.055  0.00  0.00    -0.258 N 
ATOM      5  N   UNL     1       1.210   2.098   0.037  0.00  0.00    -0.249 NA
ATOM      6  N   UNL     1       2.772   0.277   0.048  0.00  0.00    -0.249 NA
ATOM      7  C   UNL     1       0.214   1.177   0.038  0.00  0.00    +0.222 C 
ATOM      8  C   UNL     1       1.704  -0.537   0.049  0.00  0.00    +0.221 C 
ATOM      9  C   UNL     1       2.449   1.580   0.042  0.00  0.00    +0.227 C 
ATOM     10  H   UNL     1      -1.240   2.609   0.031  0.00  0.00    +0.161 HD
ATOM     11  H   UNL     1       2.903  -2.227   0.058  0.00  0.00    +0.160 HD
ENDROOT
BRANCH   2  12
ATOM     12  C   UNL     1      -2.246   0.759   0.033  0.00  0.00    +0.144 C 
ATOM     13  C   UNL     1      -3.501   1.641  -0.005  0.00  0.00    +0.036 C 
BRANCH  12  15
ATOM     14  N   UNL     1      -2.201  -0.772  -2.113  0.00  0.00    -0.194 NA
ATOM     15  C   UNL     1      -2.219  -0.099  -1.168  0.00  0.00    +0.090 C 
ENDBRANCH  12  15
BRANCH  12  16
ATOM     16  C   UNL     1      -2.253  -0.092   1.322  0.00  0.00    +0.033 C 
ATOM     17  C   UNL     1      -3.426  -1.063   1.442  0.00  0.00    +0.003 C 
ENDBRANCH  12  16
ENDBRANCH   2  12
BRANCH   4  18
ATOM     18  C   UNL     1       0.929  -2.908   0.057  0.00  0.00    +0.099 C 
ATOM     19  C   UNL     1       1.531  -4.301   0.041  0.00  0.00    +0.024 C 
ENDBRANCH   4  18
TORSDOF 4
