REMARK  Name = 445951
REMARK  8 active torsions:
REMARK  status: ('A' for Active; 'I' for Inactive)
REMARK    1  A    between atoms: N_1  and  C_20
REMARK    2  A    between atoms: N_3  and  C_13
REMARK    3  A    between atoms: C_19  and  O_25
REMARK    4  A    between atoms: O_25  and  C_26
REMARK    5  A    between atoms: C_26  and  C_27
REMARK    6  A    between atoms: C_27  and  O_28
REMARK    7  A    between atoms: C_27  and  C_30
REMARK    8  A    between atoms: C_30  and  N_31
REMARK                            x       y       z     vdW  Elec       q    Type
REMARK                         _______ _______ _______ _____ _____    ______ ____
ROOT
ATOM      1  N   UNL     1      -0.137  -1.565  -0.676  0.00  0.00    -0.301 N 
ATOM      2  H   UNL     1      -0.390  -2.458  -1.002  0.00  0.00    +0.153 HD
ATOM      3  N   UNL     1      -4.813  -0.599  -0.476  0.00  0.00    -0.298 N 
ATOM      4  N   UNL     1      -0.894   0.681  -0.908  0.00  0.00    -0.233 NA
ATOM      5  N   UNL     1      -3.252   1.168  -0.807  0.00  0.00    -0.233 NA
ATOM      6  C   UNL     1      -1.187  -0.627  -0.723  0.00  0.00    +0.113 C 
ATOM      7  C   UNL     1      -2.478  -1.099  -0.574  0.00  0.00    +0.122 C 
ATOM      8  C   UNL     1      -3.478  -0.149  -0.625  0.00  0.00    +0.113 C 
ATOM      9  C   UNL     1      -1.956   1.509  -0.939  0.00  0.00    +0.252 C 
ATOM     10  H   UNL     1      -4.963  -1.515  -0.805  0.00  0.00    +0.153 HD
ENDROOT
BRANCH   3  13
ATOM     11  F   UNL     1      -7.349  -1.240  -1.422  0.00  0.00    -0.203 F 
ATOM     12  F   UNL     1      -4.652   1.296   1.552  0.00  0.00    -0.203 F 
ATOM     13  C   UNL     1      -5.965   0.009   0.049  0.00  0.00    +0.105 C 
ATOM     14  C   UNL     1      -7.228  -0.331  -0.445  0.00  0.00    +0.156 C 
ATOM     15  C   UNL     1      -5.856   0.960   1.068  0.00  0.00    +0.156 C 
ATOM     16  C   UNL     1      -8.372   0.274   0.076  0.00  0.00    +0.031 C 
ATOM     17  C   UNL     1      -7.000   1.565   1.589  0.00  0.00    +0.031 C 
ATOM     18  C   UNL     1      -8.258   1.223   1.093  0.00  0.00    +0.005 C 
ENDBRANCH   3  13
BRANCH   1  20
ATOM     19  C   UNL     1       3.855  -1.299   0.577  0.00  0.00    +0.139 C 
ATOM     20  C   UNL     1       1.206  -1.475  -0.255  0.00  0.00    +0.049 C 
ATOM     21  C   UNL     1       3.363  -2.507   0.093  0.00  0.00    +0.038 C 
ATOM     22  C   UNL     1       3.034  -0.179   0.648  0.00  0.00    +0.038 C 
ATOM     23  C   UNL     1       2.035  -2.595  -0.325  0.00  0.00    +0.018 C 
ATOM     24  C   UNL     1       1.706  -0.267   0.231  0.00  0.00    +0.018 C 
BRANCH  19  25
ATOM     25  O   UNL     1       5.158  -1.213   0.986  0.00  0.00    -0.473 OA
BRANCH  25  26
ATOM     26  C   UNL     1       5.792   0.055   0.841  0.00  0.00    +0.232 C 
BRANCH  26  27
ATOM     27  C   UNL     1       7.288  -0.163   0.628  0.00  0.00    +0.133 C 
BRANCH  27  28
ATOM     28  O   UNL     1       7.820  -0.828   1.778  0.00  0.00    -0.383 OA
ATOM     29  H   UNL     1       8.771  -0.973   1.657  0.00  0.00    +0.210 HD
ENDBRANCH  27  28
BRANCH  27  30
ATOM     30  C   UNL     1       8.067   1.139   0.426  0.00  0.00    -0.044 C 
BRANCH  30  31
ATOM     31  N   UNL     1       7.567   1.907  -0.706  0.00  0.00    +0.386 N 
ATOM     32  C   UNL     1       7.728   1.154  -1.952  0.00  0.00    -0.101 C 
ATOM     33  C   UNL     1       8.255   3.196  -0.801  0.00  0.00    -0.101 C 
ATOM     34  H   UNL     1       6.573   2.079  -0.557  0.00  0.00    -0.080 HD
ENDBRANCH  30  31
ENDBRANCH  27  30
ENDBRANCH  26  27
ENDBRANCH  25  26
ENDBRANCH  19  25
ENDBRANCH   1  20
TORSDOF 8
