REMARK  Name = 5288544
REMARK  8 active torsions:
REMARK  status: ('A' for Active; 'I' for Inactive)
REMARK    1  A    between atoms: S_1  and  C_3
REMARK    2  A    between atoms: S_1  and  C_11
REMARK    3  A    between atoms: C_4  and  O_9
REMARK    4  A    between atoms: C_11  and  C_12
REMARK    5  A    between atoms: C_12  and  C_13
REMARK    6  A    between atoms: C_14  and  P_15
REMARK    7  A    between atoms: P_15  and  O_17
REMARK    8  A    between atoms: P_15  and  O_19
REMARK                            x       y       z     vdW  Elec       q    Type
REMARK                         _______ _______ _______ _____ _____    ______ ____
ROOT
ATOM      1  S   UNL     1      -1.210  -1.502   1.018  0.00  0.00    -0.110 S 
ENDROOT
BRANCH   1   3
ATOM      2  F   UNL     1      -3.567   2.986   0.383  0.00  0.00    -0.204 F 
ATOM      3  C   UNL     1      -2.555  -0.507   0.383  0.00  0.00    +0.061 C 
ATOM      4  C   UNL     1      -3.598  -1.078  -0.343  0.00  0.00    +0.139 C 
ATOM      5  C   UNL     1      -2.543   0.865   0.630  0.00  0.00    +0.039 C 
ATOM      6  C   UNL     1      -4.632  -0.276  -0.825  0.00  0.00    +0.039 C 
ATOM      7  C   UNL     1      -3.577   1.668   0.148  0.00  0.00    +0.141 C 
ATOM      8  C   UNL     1      -4.622   1.097  -0.579  0.00  0.00    +0.033 C 
BRANCH   4   9
ATOM      9  O   UNL     1      -3.641  -2.416  -0.602  0.00  0.00    -0.505 OA
ATOM     10  H   UNL     1      -2.957  -2.976  -0.289  0.00  0.00    +0.292 HD
ENDBRANCH   4   9
ENDBRANCH   1   3
BRANCH   1  11
ATOM     11  C   UNL     1       0.219  -0.747   0.190  0.00  0.00    +0.067 C 
BRANCH  11  12
ATOM     12  C   UNL     1       1.510  -1.454   0.594  0.00  0.00    +0.038 C 
BRANCH  12  13
ATOM     13  C   UNL     1       2.694  -0.831  -0.088  0.00  0.00    -0.018 C 
ATOM     14  C   UNL     1       3.704  -0.234   0.559  0.00  0.00    +0.083 C 
BRANCH  14  15
ATOM     15  P   UNL     1       5.052   0.477  -0.293  0.00  0.00    +0.359 P 
ATOM     16  O   UNL     1       4.896   1.055  -1.676  0.00  0.00    -0.253 OA
BRANCH  15  17
ATOM     17  O   UNL     1       6.209  -0.664  -0.251  0.00  0.00    -0.321 OA
ATOM     18  H   UNL     1       7.000  -0.340  -0.710  0.00  0.00    +0.220 HD
ENDBRANCH  15  17
BRANCH  15  19
ATOM     19  O   UNL     1       5.660   1.561   0.753  0.00  0.00    -0.321 OA
ATOM     20  H   UNL     1       6.422   2.006   0.351  0.00  0.00    +0.220 HD
ENDBRANCH  15  19
ENDBRANCH  14  15
ENDBRANCH  12  13
ENDBRANCH  11  12
ENDBRANCH   1  11
TORSDOF 8
