REMARK  Name = 9547935
REMARK  3 active torsions:
REMARK  status: ('A' for Active; 'I' for Inactive)
REMARK    1  A    between atoms: N_4  and  N_17
REMARK    2  A    between atoms: C_5  and  C_11
REMARK    3  A    between atoms: N_17  and  C_19
REMARK                            x       y       z     vdW  Elec       q    Type
REMARK                         _______ _______ _______ _____ _____    ______ ____
ROOT
ATOM      1  O   UNL     1      -0.500   0.124  -1.694  0.00  0.00    -0.427 OA
ATOM      2  O   UNL     1       0.055   0.673   1.730  0.00  0.00    -0.269 OA
ATOM      3  O   UNL     1       1.204  -1.288  -2.268  0.00  0.00    -0.224 OA
ATOM      4  N   UNL     1       0.934  -0.435  -0.126  0.00  0.00    -0.118 N 
ATOM      5  C   UNL     1      -0.918   0.854  -0.504  0.00  0.00    +0.228 C 
ATOM      6  C   UNL     1       0.069   0.374   0.546  0.00  0.00    +0.290 C 
ATOM      7  C   UNL     1      -0.656   2.335  -0.792  0.00  0.00    +0.058 C 
ATOM      8  C   UNL     1       0.629  -0.608  -1.432  0.00  0.00    +0.428 C 
ENDROOT
BRANCH   5  11
ATOM      9  F   UNL     1      -1.784  -1.830  -0.153  0.00  0.00    -0.204 F 
ATOM     10  F   UNL     1      -6.229  -0.541   0.831  0.00  0.00    -0.204 F 
ATOM     11  C   UNL     1      -2.346   0.476  -0.146  0.00  0.00    +0.050 C 
ATOM     12  C   UNL     1      -2.699  -0.865   0.011  0.00  0.00    +0.142 C 
ATOM     13  C   UNL     1      -3.307   1.473   0.029  0.00  0.00    +0.004 C 
ATOM     14  C   UNL     1      -4.010  -1.208   0.340  0.00  0.00    +0.059 C 
ATOM     15  C   UNL     1      -4.618   1.130   0.358  0.00  0.00    +0.030 C 
ATOM     16  C   UNL     1      -4.970  -0.211   0.514  0.00  0.00    +0.142 C 
ENDBRANCH   5  11
BRANCH   4  17
ATOM     17  N   UNL     1       1.977  -1.058   0.478  0.00  0.00    -0.251 N 
ATOM     18  H   UNL     1       1.838  -1.911   0.949  0.00  0.00    +0.171 HD
BRANCH  17  19
ATOM     19  C   UNL     1       3.251  -0.479   0.429  0.00  0.00    +0.062 C 
ATOM     20  C   UNL     1       4.362  -1.173   0.923  0.00  0.00    +0.016 C 
ATOM     21  C   UNL     1       3.427   0.799  -0.115  0.00  0.00    +0.016 C 
ATOM     22  C   UNL     1       5.632  -0.596   0.874  0.00  0.00    +0.001 C 
ATOM     23  C   UNL     1       4.697   1.375  -0.164  0.00  0.00    +0.001 C 
ATOM     24  C   UNL     1       5.799   0.677   0.331  0.00  0.00    +0.000 C 
ENDBRANCH  17  19
ENDBRANCH   4  17
TORSDOF 3
