REMARK  Name = 5288514
REMARK  9 active torsions:
REMARK  status: ('A' for Active; 'I' for Inactive)
REMARK    1  A    between atoms: N_2  and  C_5
REMARK    2  A    between atoms: C_3  and  C_22
REMARK    3  A    between atoms: C_10  and  N_12
REMARK    4  A    between atoms: C_13  and  C_15
REMARK    5  A    between atoms: C_15  and  C_16
REMARK    6  A    between atoms: C_16  and  C_17
REMARK    7  A    between atoms: C_17  and  C_19
REMARK    8  A    between atoms: C_19  and  O_20
REMARK    9  A    between atoms: C_22  and  N_25
REMARK                            x       y       z     vdW  Elec       q    Type
REMARK                         _______ _______ _______ _____ _____    ______ ____
ROOT
ATOM      1  O   UNL     1       1.513  -2.483  -0.083  0.00  0.00    -0.277 OA
ATOM      2  N   UNL     1       0.669  -0.407   0.623  0.00  0.00    -0.285 N 
ATOM      3  C   UNL     1       1.659  -1.349   0.360  0.00  0.00    +0.211 C 
ATOM      4  H   UNL     1       0.976   0.457   0.981  0.00  0.00    +0.155 HD
ENDROOT
BRANCH   2   5
ATOM      5  C   UNL     1      -0.727  -0.547   0.437  0.00  0.00    +0.050 C 
ATOM      6  C   UNL     1      -1.247  -1.740  -0.064  0.00  0.00    +0.016 C 
ATOM      7  C   UNL     1      -1.582   0.508   0.754  0.00  0.00    +0.016 C 
ATOM      8  C   UNL     1      -2.623  -1.878  -0.249  0.00  0.00    +0.016 C 
ATOM      9  C   UNL     1      -2.958   0.370   0.570  0.00  0.00    +0.016 C 
ATOM     10  C   UNL     1      -3.478  -0.823   0.069  0.00  0.00    +0.050 C 
BRANCH  10  12
ATOM     11  O   UNL     1      -5.714   1.113   0.590  0.00  0.00    -0.275 OA
ATOM     12  N   UNL     1      -4.854  -0.961  -0.116  0.00  0.00    -0.284 N 
ATOM     13  C   UNL     1      -5.864  -0.019   0.144  0.00  0.00    +0.226 C 
ATOM     14  H   UNL     1      -5.155  -1.827  -0.473  0.00  0.00    +0.155 HD
BRANCH  13  15
ATOM     15  C   UNL     1      -7.238  -0.578  -0.200  0.00  0.00    +0.086 C 
BRANCH  15  16
ATOM     16  C   UNL     1      -8.362   0.422   0.070  0.00  0.00    +0.021 C 
BRANCH  16  17
ATOM     17  C   UNL     1      -9.731  -0.110  -0.340  0.00  0.00    +0.110 C 
BRANCH  17  19
ATOM     18  O   UNL     1     -10.616   2.037   0.320  0.00  0.00    -0.250 OA
ATOM     19  C   UNL     1     -10.817   0.915  -0.125  0.00  0.00    +0.314 C 
BRANCH  19  20
ATOM     20  O   UNL     1     -12.050   0.454  -0.453  0.00  0.00    -0.480 OA
ATOM     21  H   UNL     1     -12.151  -0.414  -0.790  0.00  0.00    +0.295 HD
ENDBRANCH  19  20
ENDBRANCH  17  19
ENDBRANCH  16  17
ENDBRANCH  15  16
ENDBRANCH  13  15
ENDBRANCH  10  12
ENDBRANCH   2   5
BRANCH   3  22
ATOM     22  C   UNL     1       3.019  -0.791   0.701  0.00  0.00    +0.060 C 
BRANCH  22  25
ATOM     23  O   UNL     1       7.805   0.932  -1.026  0.00  0.00    -0.356 OA
ATOM     24  O   UNL     1       3.906  -1.989  -1.073  0.00  0.00    -0.289 OA
ATOM     25  N   UNL     1       3.870  -0.708  -0.529  0.00  0.00    +0.437 N 
ATOM     26  C   UNL     1       5.531   1.271   0.008  0.00  0.00    +0.015 C 
ATOM     27  C   UNL     1       7.025   1.579  -0.019  0.00  0.00    +0.138 C 
ATOM     28  C   UNL     1       8.016   0.495   0.333  0.00  0.00    +0.117 C 
ATOM     29  C   UNL     1       5.317  -0.252  -0.279  0.00  0.00    -0.010 C 
ATOM     30  C   UNL     1       7.612  -0.931   0.554  0.00  0.00    +0.028 C 
ATOM     31  C   UNL     1       6.101  -1.133   0.710  0.00  0.00    -0.013 C 
ATOM     32  C   UNL     1       4.822   2.090  -1.091  0.00  0.00    -0.001 C 
ATOM     33  C   UNL     1       5.045   1.747   1.399  0.00  0.00    +0.001 C 
ATOM     34  C   UNL     1       3.234   0.192  -1.571  0.00  0.00    -0.027 C 
ATOM     35  C   UNL     1       3.362   1.679  -1.275  0.00  0.00    -0.017 C 
ATOM     36  C   UNL     1       9.352   0.895   0.850  0.00  0.00    +0.032 C 
ENDBRANCH  22  25
ENDBRANCH   3  22
TORSDOF 9
