REMARK  Name = 10024590
REMARK  7 active torsions:
REMARK  status: ('A' for Active; 'I' for Inactive)
REMARK    1  A    between atoms: C_5  and  C_12
REMARK    2  A    between atoms: C_8  and  C_17
REMARK    3  A    between atoms: C_12  and  C_16
REMARK    4  A    between atoms: C_17  and  C_18
REMARK    5  A    between atoms: C_18  and  N_19
REMARK    6  A    between atoms: C_18  and  C_23
REMARK    7  A    between atoms: C_23  and  C_27
REMARK                            x       y       z     vdW  Elec       q    Type
REMARK                         _______ _______ _______ _____ _____    ______ ____
ROOT
ATOM      1  O   UNL     1      -2.137   1.175  -1.686  0.00  0.00    -0.275 OA
ATOM      2  O   UNL     1      -4.128  -1.724  -1.910  0.00  0.00    -0.273 OA
ATOM      3  N   UNL     1      -1.699  -0.384  -0.003  0.00  0.00    -0.273 N 
ATOM      4  N   UNL     1      -2.484  -3.015  -0.988  0.00  0.00    -0.303 N 
ATOM      5  C   UNL     1      -3.084  -0.880   0.098  0.00  0.00    +0.160 C 
ATOM      6  C   UNL     1      -0.718  -1.106   0.817  0.00  0.00    +0.096 C 
ATOM      7  C   UNL     1      -0.359  -2.457   0.196  0.00  0.00    +0.043 C 
ATOM      8  C   UNL     1      -1.338   0.553  -0.982  0.00  0.00    +0.224 C 
ATOM      9  C   UNL     1      -1.558  -3.395   0.071  0.00  0.00    +0.091 C 
ATOM     10  C   UNL     1      -3.283  -1.889  -1.028  0.00  0.00    +0.241 C 
ATOM     11  H   UNL     1      -2.547  -3.627  -1.757  0.00  0.00    +0.149 HD
ENDROOT
BRANCH   5  12
ATOM     12  C   UNL     1      -4.147   0.216   0.130  0.00  0.00    +0.132 C 
BRANCH  12  16
ATOM     13  F   UNL     1      -3.914   0.618   2.449  0.00  0.00    -0.170 F 
ATOM     14  F   UNL     1      -4.841   2.171   1.231  0.00  0.00    -0.170 F 
ATOM     15  F   UNL     1      -2.694   1.817   1.090  0.00  0.00    -0.170 F 
ATOM     16  C   UNL     1      -3.892   1.210   1.237  0.00  0.00    +0.400 C 
ENDBRANCH  12  16
ENDBRANCH   5  12
BRANCH   8  17
ATOM     17  C   UNL     1       0.140   0.798  -1.171  0.00  0.00    +0.064 C 
BRANCH  17  18
ATOM     18  C   UNL     1       0.649   1.914  -0.259  0.00  0.00    -0.052 C 
BRANCH  18  19
ATOM     19  N   UNL     1      -0.154   3.110  -0.548  0.00  0.00    +0.382 N 
ATOM     20  H   UNL     1      -1.142   2.899  -0.405  0.00  0.00    -0.089 HD
ATOM     21  H   UNL     1      -0.004   3.394  -1.516  0.00  0.00    -0.089 HD
ATOM     22  H   UNL     1       0.126   3.866   0.076  0.00  0.00    -0.089 HD
ENDBRANCH  18  19
BRANCH  18  23
ATOM     23  C   UNL     1       2.137   2.260  -0.483  0.00  0.00    +0.007 C 
BRANCH  23  27
ATOM     24  F   UNL     1       3.887   1.149  -2.403  0.00  0.00    -0.204 F 
ATOM     25  F   UNL     1       4.063  -0.922   2.656  0.00  0.00    -0.202 F 
ATOM     26  F   UNL     1       5.709  -1.913   0.710  0.00  0.00    -0.202 F 
ATOM     27  C   UNL     1       3.097   1.140  -0.165  0.00  0.00    +0.006 C 
ATOM     28  C   UNL     1       3.926   0.647  -1.161  0.00  0.00    +0.138 C 
ATOM     29  C   UNL     1       3.133   0.623   1.121  0.00  0.00    +0.030 C 
ATOM     30  C   UNL     1       4.019  -0.412   1.418  0.00  0.00    +0.167 C 
ATOM     31  C   UNL     1       4.812  -0.388  -0.864  0.00  0.00    +0.061 C 
ATOM     32  C   UNL     1       4.859  -0.917   0.425  0.00  0.00    +0.170 C 
ENDBRANCH  23  27
ENDBRANCH  18  23
ENDBRANCH  17  18
ENDBRANCH   8  17
TORSDOF 7
