REMARK  Name = 25113145
REMARK  2 active torsions:
REMARK  status: ('A' for Active; 'I' for Inactive)
REMARK    1  A    between atoms: N_3  and  C_13
REMARK    2  A    between atoms: C_18  and  C_20
REMARK                            x       y       z     vdW  Elec       q    Type
REMARK                         _______ _______ _______ _____ _____    ______ ____
ROOT
ATOM      1  O   UNL     1       0.797   2.134   0.211  0.00  0.00    -0.269 OA
ATOM      2  O   UNL     1       0.541  -2.499  -0.237  0.00  0.00    -0.269 OA
ATOM      3  N   UNL     1       0.158  -0.154  -0.011  0.00  0.00    -0.201 N 
ATOM      4  C   UNL     1       2.369   0.414   0.031  0.00  0.00    +0.055 C 
ATOM      5  C   UNL     1       2.293  -0.961  -0.070  0.00  0.00    +0.058 C 
ATOM      6  C   UNL     1       1.008   0.942   0.077  0.00  0.00    +0.259 C 
ATOM      7  C   UNL     1       0.882  -1.337  -0.105  0.00  0.00    +0.259 C 
ATOM      8  C   UNL     1       3.579   1.077   0.083  0.00  0.00    -0.017 C 
ATOM      9  C   UNL     1       3.423  -1.752  -0.130  0.00  0.00    +0.005 C 
ATOM     10  C   UNL     1       4.738   0.298   0.024  0.00  0.00    -0.004 C 
ATOM     11  C   UNL     1       4.661  -1.104  -0.081  0.00  0.00    -0.000 C 
ATOM     12  C   UNL     1       3.679   2.557   0.197  0.00  0.00    +0.031 C 
ENDROOT
BRANCH   3  13
ATOM     13  C   UNL     1      -1.274  -0.075  -0.006  0.00  0.00    +0.061 C 
ATOM     14  C   UNL     1      -2.028  -1.126   0.515  0.00  0.00    +0.016 C 
ATOM     15  C   UNL     1      -1.912   1.052  -0.523  0.00  0.00    +0.016 C 
ATOM     16  C   UNL     1      -3.421  -1.049   0.520  0.00  0.00    +0.012 C 
ATOM     17  C   UNL     1      -3.304   1.129  -0.518  0.00  0.00    +0.012 C 
ATOM     18  C   UNL     1      -4.059   0.078   0.003  0.00  0.00    +0.069 C 
BRANCH  18  20
ATOM     19  N   UNL     1      -6.645   0.220   0.012  0.00  0.00    -0.191 NA
ATOM     20  C   UNL     1      -5.486   0.156   0.008  0.00  0.00    +0.100 C 
ENDBRANCH  18  20
ENDBRANCH   3  13
TORSDOF 2
