REMARK  Name = 448890
REMARK  6 active torsions:
REMARK  status: ('A' for Active; 'I' for Inactive)
REMARK    1  A    between atoms: C_1  and  C_2
REMARK    2  A    between atoms: C_1  and  C_17
REMARK    3  A    between atoms: C_2  and  C_3
REMARK    4  A    between atoms: C_3  and  N_4
REMARK    5  A    between atoms: C_8  and  C_11
REMARK    6  A    between atoms: C_17  and  N_21
REMARK                            x       y       z     vdW  Elec       q    Type
REMARK                         _______ _______ _______ _____ _____    ______ ____
ROOT
ATOM      1  C   UNL     1      -1.286   0.749   0.139  0.00  0.00    +0.022 C 
ENDROOT
BRANCH   1   2
ATOM      2  C   UNL     1       0.189   0.694  -0.273  0.00  0.00    -0.021 C 
BRANCH   2   3
ATOM      3  C   UNL     1       1.105   0.826   0.943  0.00  0.00    -0.077 C 
BRANCH   3   4
ATOM      4  N   UNL     1       2.506   0.780   0.529  0.00  0.00    +0.390 N 
ATOM      5  C   UNL     1       3.401   1.011   1.667  0.00  0.00    -0.072 C 
ATOM      6  C   UNL     1       2.815  -0.502  -0.122  0.00  0.00    -0.051 C 
ATOM      7  C   UNL     1       4.852   1.123   1.175  0.00  0.00    +0.003 C 
ATOM      8  C   UNL     1       5.241   0.012   0.226  0.00  0.00    -0.031 C 
ATOM      9  C   UNL     1       4.283  -0.730  -0.363  0.00  0.00    -0.053 C 
ATOM     10  H   UNL     1       2.658   1.529  -0.147  0.00  0.00    -0.079 HD
BRANCH   8  11
ATOM     11  C   UNL     1       6.682  -0.221  -0.032  0.00  0.00    -0.004 C 
ATOM     12  C   UNL     1       7.140  -1.502  -0.346  0.00  0.00    -0.000 C 
ATOM     13  C   UNL     1       7.587   0.841   0.037  0.00  0.00    -0.000 C 
ATOM     14  C   UNL     1       8.496  -1.721  -0.589  0.00  0.00    -0.000 C 
ATOM     15  C   UNL     1       8.943   0.622  -0.206  0.00  0.00    -0.000 C 
ATOM     16  C   UNL     1       9.398  -0.659  -0.519  0.00  0.00    -0.000 C 
ENDBRANCH   8  11
ENDBRANCH   3   4
ENDBRANCH   2   3
ENDBRANCH   1   2
BRANCH   1  17
ATOM     17  C   UNL     1      -2.232   0.651  -1.054  0.00  0.00    +0.110 C 
BRANCH  17  21
ATOM     18  F   UNL     1      -7.683  -1.553   0.718  0.00  0.00    -0.204 F 
ATOM     19  O   UNL     1      -3.697   3.047  -0.859  0.00  0.00    -0.246 OA
ATOM     20  O   UNL     1      -7.553   0.960   0.445  0.00  0.00    -0.267 OA
ATOM     21  N   UNL     1      -3.636   0.726  -0.658  0.00  0.00    -0.281 N 
ATOM     22  N   UNL     1      -5.598   1.970  -0.212  0.00  0.00    -0.274 N 
ATOM     23  C   UNL     1      -4.338  -0.479  -0.344  0.00  0.00    +0.071 A 
ATOM     24  C   UNL     1      -4.259   1.980  -0.597  0.00  0.00    +0.330 A 
ATOM     25  C   UNL     1      -5.684  -0.427   0.038  0.00  0.00    +0.099 A 
ATOM     26  C   UNL     1      -3.718  -1.739  -0.403  0.00  0.00    +0.018 C 
ATOM     27  C   UNL     1      -6.375   0.872   0.114  0.00  0.00    +0.265 A 
ATOM     28  C   UNL     1      -6.394  -1.594   0.352  0.00  0.00    +0.146 C 
ATOM     29  C   UNL     1      -4.424  -2.904  -0.091  0.00  0.00    +0.004 C 
ATOM     30  C   UNL     1      -5.761  -2.832   0.286  0.00  0.00    +0.030 C 
ATOM     31  H   UNL     1      -6.044   2.847  -0.166  0.00  0.00    +0.173 HD
ENDBRANCH  17  21
ENDBRANCH   1  17
TORSDOF 6
