REMARK  Name = 4630702
REMARK  8 active torsions:
REMARK  status: ('A' for Active; 'I' for Inactive)
REMARK    1  A    between atoms: C_1  and  C_15
REMARK    2  A    between atoms: C_2  and  O_13
REMARK    3  A    between atoms: C_4  and  N_9
REMARK    4  A    between atoms: C_5  and  N_12
REMARK    5  A    between atoms: C_15  and  C_17
REMARK    6  A    between atoms: C_17  and  C_18
REMARK    7  A    between atoms: C_18  and  C_19
REMARK    8  A    between atoms: C_19  and  C_20
REMARK                            x       y       z     vdW  Elec       q    Type
REMARK                         _______ _______ _______ _____ _____    ______ ____
ROOT
ATOM      1  C   UNL     1      -0.090  -0.112  -1.062  0.00  0.00    +0.015 C 
ATOM      2  C   UNL     1      -0.793  -1.192  -0.563  0.00  0.00    +0.152 C 
ATOM      3  C   UNL     1      -0.423   1.190  -0.734  0.00  0.00    +0.023 C 
ATOM      4  C   UNL     1      -1.868  -0.963   0.297  0.00  0.00    +0.178 C 
ATOM      5  C   UNL     1      -1.498   1.419   0.125  0.00  0.00    +0.144 C 
ATOM      6  C   UNL     1      -2.220   0.342   0.641  0.00  0.00    +0.051 C 
ENDROOT
BRANCH   4   9
ATOM      7  O   UNL     1      -3.575  -1.799   1.601  0.00  0.00    -0.126 OA
ATOM      8  O   UNL     1      -2.296  -3.218   0.519  0.00  0.00    -0.126 OA
ATOM      9  N   UNL     1      -2.617  -2.047   0.832  0.00  0.00    +0.061 N 
ENDBRANCH   4   9
BRANCH   5  12
ATOM     10  O   UNL     1      -1.191   3.701   0.004  0.00  0.00    -0.126 OA
ATOM     11  O   UNL     1      -2.826   2.930   1.251  0.00  0.00    -0.126 OA
ATOM     12  N   UNL     1      -1.855   2.747   0.477  0.00  0.00    +0.058 N 
ENDBRANCH   5  12
BRANCH   2  13
ATOM     13  O   UNL     1      -0.442  -2.466  -0.902  0.00  0.00    -0.504 OA
ATOM     14  H   UNL     1       0.281  -2.615  -1.480  0.00  0.00    +0.292 HD
ENDBRANCH   2  13
BRANCH   1  15
ATOM     15  C   UNL     1       1.083  -0.340  -1.999  0.00  0.00    +0.025 C 
ATOM     16  C   UNL     1       0.796   0.267  -3.378  0.00  0.00    +0.005 C 
BRANCH  15  17
ATOM     17  C   UNL     1       2.418   0.202  -1.443  0.00  0.00    +0.004 C 
BRANCH  17  18
ATOM     18  C   UNL     1       2.812  -0.439  -0.106  0.00  0.00    +0.000 C 
BRANCH  18  19
ATOM     19  C   UNL     1       4.132   0.137   0.414  0.00  0.00    +0.000 C 
BRANCH  19  20
ATOM     20  C   UNL     1       4.564  -0.454   1.757  0.00  0.00    +0.000 C 
ATOM     21  C   UNL     1       5.888   0.096   2.266  0.00  0.00    +0.000 C 
ENDBRANCH  19  20
ENDBRANCH  18  19
ENDBRANCH  17  18
ENDBRANCH  15  17
ENDBRANCH   1  15
TORSDOF 8
