REMARK  Name = 5327110
REMARK  7 active torsions:
REMARK  status: ('A' for Active; 'I' for Inactive)
REMARK    1  A    between atoms: C_2  and  C_17
REMARK    2  A    between atoms: C_4  and  O_8
REMARK    3  A    between atoms: O_8  and  C_9
REMARK    4  A    between atoms: C_9  and  C_11
REMARK    5  A    between atoms: C_17  and  N_18
REMARK    6  A    between atoms: N_18  and  S_20
REMARK    7  A    between atoms: S_20  and  C_24
REMARK                            x       y       z     vdW  Elec       q    Type
REMARK                         _______ _______ _______ _____ _____    ______ ____
ROOT
ATOM      1  N   UNL     1       0.677  -1.942   1.790  0.00  0.00    +0.388 N 
ATOM      2  C   UNL     1       0.318  -1.091   0.656  0.00  0.00    -0.042 C 
ATOM      3  C   UNL     1       1.090  -1.738  -0.485  0.00  0.00    +0.007 C 
ATOM      4  C   UNL     1       2.413  -2.122   0.167  0.00  0.00    +0.093 C 
ATOM      5  C   UNL     1       2.112  -2.205   1.662  0.00  0.00    -0.051 C 
ATOM      6  H   UNL     1       0.152  -2.817   1.757  0.00  0.00    -0.084 HD
ATOM      7  H   UNL     1       0.458  -1.492   2.679  0.00  0.00    -0.084 HD
ENDROOT
BRANCH   4   8
ATOM      8  O   UNL     1       3.380  -1.103  -0.057  0.00  0.00    -0.354 OA
BRANCH   8   9
ATOM      9  C   UNL     1       4.627  -1.430   0.539  0.00  0.00    +0.168 C 
BRANCH   9  11
ATOM     10 CL   UNL     1       8.529   3.002  -0.538  0.00  0.00    -0.082 Cl
ATOM     11  C   UNL     1       5.603  -0.322   0.271  0.00  0.00    +0.007 C 
ATOM     12  C   UNL     1       5.707   0.736   1.166  0.00  0.00    -0.001 C 
ATOM     13  C   UNL     1       6.394  -0.364  -0.873  0.00  0.00    -0.001 C 
ATOM     14  C   UNL     1       6.614   1.766   0.916  0.00  0.00    +0.011 C 
ATOM     15  C   UNL     1       7.300   0.666  -1.123  0.00  0.00    +0.011 C 
ATOM     16  C   UNL     1       7.411   1.731  -0.229  0.00  0.00    +0.058 C 
ENDBRANCH   9  11
ENDBRANCH   8   9
ENDBRANCH   4   8
BRANCH   2  17
ATOM     17  C   UNL     1      -1.183  -1.069   0.425  0.00  0.00    +0.070 C 
BRANCH  17  18
ATOM     18  N   UNL     1      -1.482  -0.307  -0.803  0.00  0.00    -0.181 NA
ATOM     19  H   UNL     1      -1.598   0.667  -0.524  0.00  0.00    +0.149 HD
BRANCH  18  20
ATOM     20  S   UNL     1      -2.838  -0.712  -1.748  0.00  0.00    +0.060 S 
ATOM     21  O   UNL     1      -2.782  -2.121  -2.088  0.00  0.00    -0.153 OA
ATOM     22  O   UNL     1      -3.002   0.284  -2.790  0.00  0.00    -0.153 OA
BRANCH  20  24
ATOM     23  N   UNL     1      -5.379   3.304   0.796  0.00  0.00    -0.242 NA
ATOM     24  C   UNL     1      -4.162  -0.481  -0.600  0.00  0.00    +0.122 C 
ATOM     25  C   UNL     1      -4.548   0.786  -0.150  0.00  0.00    +0.022 C 
ATOM     26  C   UNL     1      -4.806  -1.632  -0.161  0.00  0.00    +0.020 C 
ATOM     27  C   UNL     1      -5.615   0.884   0.767  0.00  0.00    +0.020 C 
ATOM     28  C   UNL     1      -5.859  -1.532   0.745  0.00  0.00    +0.001 C 
ATOM     29  C   UNL     1      -3.914   1.958  -0.579  0.00  0.00    +0.022 C 
ATOM     30  C   UNL     1      -6.264  -0.280   1.209  0.00  0.00    +0.002 C 
ATOM     31  C   UNL     1      -5.979   2.161   1.198  0.00  0.00    +0.099 C 
ATOM     32  C   UNL     1      -4.362   3.172  -0.082  0.00  0.00    +0.099 C 
ENDBRANCH  20  24
ENDBRANCH  18  20
ENDBRANCH  17  18
ENDBRANCH   2  17
TORSDOF 7
