REMARK  Name = 24883477
REMARK  6 active torsions:
REMARK  status: ('A' for Active; 'I' for Inactive)
REMARK    1  A    between atoms: N_2  and  C_17
REMARK    2  A    between atoms: C_3  and  C_9
REMARK    3  A    between atoms: C_16  and  C_22
REMARK    4  A    between atoms: C_22  and  O_23
REMARK    5  A    between atoms: C_22  and  C_25
REMARK    6  A    between atoms: C_25  and  O_26
REMARK                            x       y       z     vdW  Elec       q    Type
REMARK                         _______ _______ _______ _____ _____    ______ ____
ROOT
ATOM      1  O   UNL     1       0.025   1.988   0.045  0.00  0.00    -0.268 OA
ATOM      2  N   UNL     1      -0.454  -0.308   0.092  0.00  0.00    -0.279 N 
ATOM      3  C   UNL     1       0.423   0.799   0.042  0.00  0.00    +0.263 C 
ATOM      4  H   UNL     1      -0.018  -1.191   0.084  0.00  0.00    +0.155 HD
ENDROOT
BRANCH   3   9
ATOM      5 CL   UNL     1       7.638  -1.794  -0.073  0.00  0.00    -0.082 Cl
ATOM      6  N   UNL     1       2.795   1.473  -0.032  0.00  0.00    -0.309 N 
ATOM      7  C   UNL     1       3.847  -0.494  -0.012  0.00  0.00    +0.016 C 
ATOM      8  C   UNL     1       4.041   0.889  -0.049  0.00  0.00    +0.048 C 
ATOM      9  C   UNL     1       1.823   0.511   0.013  0.00  0.00    +0.103 C 
ATOM     10  C   UNL     1       2.442  -0.717   0.027  0.00  0.00    +0.020 C 
ATOM     11  C   UNL     1       4.975  -1.338  -0.020  0.00  0.00    +0.013 C 
ATOM     12  C   UNL     1       5.313   1.472  -0.092  0.00  0.00    +0.015 C 
ATOM     13  C   UNL     1       6.253  -0.769  -0.064  0.00  0.00    +0.058 C 
ATOM     14  C   UNL     1       6.417   0.615  -0.100  0.00  0.00    +0.013 C 
ATOM     15  H   UNL     1       2.628   2.443  -0.051  0.00  0.00    +0.152 HD
ENDBRANCH   3   9
BRANCH   2  17
ATOM     16  C   UNL     1      -4.656  -0.382   0.268  0.00  0.00    +0.007 C 
ATOM     17  C   UNL     1      -1.869  -0.333   0.151  0.00  0.00    +0.051 C 
ATOM     18  C   UNL     1      -3.937  -1.578   0.251  0.00  0.00    -0.001 C 
ATOM     19  C   UNL     1      -3.981   0.838   0.225  0.00  0.00    -0.001 C 
ATOM     20  C   UNL     1      -2.544  -1.553   0.193  0.00  0.00    +0.014 C 
ATOM     21  C   UNL     1      -2.588   0.863   0.167  0.00  0.00    +0.014 C 
BRANCH  16  22
ATOM     22  C   UNL     1      -6.146  -0.410   0.331  0.00  0.00    +0.162 C 
BRANCH  22  23
ATOM     23  O   UNL     1      -6.585   0.203   1.550  0.00  0.00    -0.377 OA
ATOM     24  H   UNL     1      -6.169  -0.243   2.304  0.00  0.00    +0.211 HD
ENDBRANCH  22  23
BRANCH  22  25
ATOM     25  C   UNL     1      -6.818   0.314  -0.846  0.00  0.00    +0.171 C 
BRANCH  25  26
ATOM     26  O   UNL     1      -6.416  -0.288  -2.068  0.00  0.00    -0.379 OA
ATOM     27  H   UNL     1      -6.842   0.170  -2.809  0.00  0.00    +0.211 HD
ENDBRANCH  25  26
ENDBRANCH  22  25
ENDBRANCH  16  22
ENDBRANCH   2  17
TORSDOF 6
