REMARK  Name = 5729339
REMARK  4 active torsions:
REMARK  status: ('A' for Active; 'I' for Inactive)
REMARK    1  A    between atoms: C_2  and  C_16
REMARK    2  A    between atoms: C_3  and  C_10
REMARK    3  A    between atoms: C_17  and  S_22
REMARK    4  A    between atoms: S_22  and  N_25
REMARK                            x       y       z     vdW  Elec       q    Type
REMARK                         _______ _______ _______ _____ _____    ______ ____
ROOT
ATOM      1  O   UNL     1       0.905  -0.980   0.000  0.00  0.00    -0.453 OA
ATOM      2  C   UNL     1      -0.200  -1.767  -0.013  0.00  0.00    +0.145 C 
ATOM      3  C   UNL     1       1.973  -1.820   0.013  0.00  0.00    +0.147 C 
ATOM      4  C   UNL     1       0.142  -3.094  -0.009  0.00  0.00    +0.041 C 
ATOM      5  C   UNL     1       1.556  -3.131   0.008  0.00  0.00    +0.041 C 
ENDROOT
BRANCH   3  10
ATOM      6  S   UNL     1       2.723   1.350  -0.032  0.00  0.00    -0.027 S 
ATOM      7  O   UNL     1       6.084  -0.429   0.066  0.00  0.00    -0.209 OA
ATOM      8  N   UNL     1       5.285   1.746   0.009  0.00  0.00    -0.311 NA
ATOM      9  N   UNL     1       3.946   3.722  -0.052  0.00  0.00    -0.327 N 
ATOM     10  C   UNL     1       3.304  -1.343   0.029  0.00  0.00    +0.057 C 
ATOM     11  C   UNL     1       3.728  -0.037   0.013  0.00  0.00    +0.131 C 
ATOM     12  C   UNL     1       5.157   0.369   0.032  0.00  0.00    +0.213 C 
ATOM     13  C   UNL     1       4.149   2.375  -0.024  0.00  0.00    +0.222 C 
ATOM     14  H   UNL     1       3.029   4.080  -0.076  0.00  0.00    +0.145 HD
ATOM     15  H   UNL     1       4.715   4.336  -0.049  0.00  0.00    +0.145 HD
ENDBRANCH   3  10
BRANCH   2  16
ATOM     16  C   UNL     1      -1.456  -1.059  -0.029  0.00  0.00    +0.035 C 
ATOM     17  C   UNL     1      -3.887   0.311  -0.059  0.00  0.00    +0.122 C 
ATOM     18  C   UNL     1      -2.657  -1.769  -0.043  0.00  0.00    +0.004 C 
ATOM     19  C   UNL     1      -1.471   0.336  -0.029  0.00  0.00    +0.004 C 
ATOM     20  C   UNL     1      -3.872  -1.084  -0.058  0.00  0.00    +0.020 C 
ATOM     21  C   UNL     1      -2.686   1.021  -0.044  0.00  0.00    +0.020 C 
BRANCH  17  22
ATOM     22  S   UNL     1      -5.407   1.168  -0.077  0.00  0.00    +0.057 S 
ATOM     23  O   UNL     1      -5.182   2.491  -0.643  0.00  0.00    -0.153 OA
ATOM     24  O   UNL     1      -6.422   0.298  -0.654  0.00  0.00    -0.153 OA
BRANCH  22  25
ATOM     25  N   UNL     1      -5.711   1.329   1.597  0.00  0.00    -0.203 NA
ATOM     26  H   UNL     1      -6.591   1.824   1.737  0.00  0.00    +0.144 HD
ATOM     27  H   UNL     1      -4.952   1.854   2.031  0.00  0.00    +0.144 HD
ENDBRANCH  22  25
ENDBRANCH  17  22
ENDBRANCH   2  16
TORSDOF 4
