REMARK  Name = 446136
REMARK  9 active torsions:
REMARK  status: ('A' for Active; 'I' for Inactive)
REMARK    1  A    between atoms: C_1  and  C_6
REMARK    2  A    between atoms: C_1  and  C_17
REMARK    3  A    between atoms: C_1  and  N_27
REMARK    4  A    between atoms: CA_5  and  C_12
REMARK    5  A    between atoms: C_12  and  O_13
REMARK    6  A    between atoms: N_16  and  C_19
REMARK    7  A    between atoms: C_19  and  C_20
REMARK    8  A    between atoms: C_28  and  C_30
REMARK    9  A    between atoms: C_30  and  C_31
REMARK                            x       y       z     vdW  Elec       q    Type
REMARK                         _______ _______ _______ _____ _____    ______ ____
ROOT
ATOM      1  C   UNL     1       1.176   0.121  -0.330  0.00  0.00    +0.139 C 
ENDROOT
BRANCH   1   6
ATOM      2  S   UNL     1       3.361   1.709  -0.844  0.00  0.00    -0.164 S 
ATOM      3  N   UNL     1       3.392  -0.955  -0.629  0.00  0.00    +0.401 N 
ATOM      4  C   UNL     1       4.842   0.930  -0.104  0.00  0.00    +0.030 C 
ATOM      5  CA  UNL     1       4.261  -0.399   0.412  0.00  0.00    +0.050 C 
ATOM      6  C   UNL     1       2.502   0.118  -1.085  0.00  0.00    +0.016 C 
ATOM      7  C   UNL     1       5.375   1.800   1.035  0.00  0.00    +0.009 C 
ATOM      8  C   UNL     1       5.899   0.783  -1.207  0.00  0.00    +0.009 C 
ATOM      9  H1  UNL     1       2.841  -1.724  -0.247  0.00  0.00    -0.082 HD
ATOM     10  H2  UNL     1       3.947  -1.314  -1.405  0.00  0.00    -0.082 HD
BRANCH   5  12
ATOM     11  OXT UNL     1       5.779  -2.205  -0.110  0.00  0.00    -0.253 OA
ATOM     12  C   UNL     1       5.313  -1.423   0.706  0.00  0.00    +0.294 C 
BRANCH  12  13
ATOM     13  O   UNL     1       5.683  -1.369   2.009  0.00  0.00    -0.482 OA
ATOM     14  H   UNL     1       5.286  -0.744   2.583  0.00  0.00    +0.295 HD
ENDBRANCH  12  13
ENDBRANCH   5  12
ENDBRANCH   1   6
BRANCH   1  17
ATOM     15  O   UNL     1      -0.073   1.387  -1.974  0.00  0.00    -0.273 OA
ATOM     16  N   UNL     1      -0.029   2.140   0.221  0.00  0.00    -0.299 N 
ATOM     17  C   UNL     1       0.286   1.260  -0.805  0.00  0.00    +0.239 C 
ATOM     18  H   UNL     1       0.307   1.949   1.126  0.00  0.00    +0.150 HD
BRANCH  16  19
ATOM     19  C   UNL     1      -0.830   3.324   0.014  0.00  0.00    +0.116 C 
BRANCH  19  20
ATOM     20  C   UNL     1      -2.294   3.053   0.207  0.00  0.00    -0.003 C 
ATOM     21  C   UNL     1      -3.078   2.651  -0.875  0.00  0.00    -0.003 C 
ATOM     22  C   UNL     1      -2.871   3.202   1.468  0.00  0.00    -0.003 C 
ATOM     23  C   UNL     1      -4.438   2.399  -0.696  0.00  0.00    -0.000 C 
ATOM     24  C   UNL     1      -4.231   2.950   1.648  0.00  0.00    -0.000 C 
ATOM     25  C   UNL     1      -5.014   2.548   0.566  0.00  0.00    -0.000 C 
ENDBRANCH  19  20
ENDBRANCH  16  19
ENDBRANCH   1  17
BRANCH   1  27
ATOM     26  O   UNL     1      -0.631  -1.135   1.524  0.00  0.00    -0.275 OA
ATOM     27  N   UNL     1       0.465  -1.114  -0.523  0.00  0.00    -0.299 N 
ATOM     28  C   UNL     1      -0.392  -1.647   0.434  0.00  0.00    +0.227 C 
ATOM     29  H   UNL     1       0.591  -1.602  -1.368  0.00  0.00    +0.150 HD
BRANCH  28  30
ATOM     30  C   UNL     1      -1.011  -2.951  -0.032  0.00  0.00    +0.111 C 
BRANCH  30  31
ATOM     31  C   UNL     1      -2.514  -2.905  -0.105  0.00  0.00    -0.013 C 
ATOM     32  C   UNL     1      -3.277  -3.262   1.007  0.00  0.00    -0.004 C 
ATOM     33  C   UNL     1      -3.144  -2.507  -1.284  0.00  0.00    -0.004 C 
ATOM     34  C   UNL     1      -4.670  -3.219   0.940  0.00  0.00    -0.000 C 
ATOM     35  C   UNL     1      -4.537  -2.464  -1.351  0.00  0.00    -0.000 C 
ATOM     36  C   UNL     1      -5.300  -2.820  -0.239  0.00  0.00    -0.000 C 
ENDBRANCH  30  31
ENDBRANCH  28  30
ENDBRANCH   1  27
TORSDOF 9
