REMARK  Name = 7013169
REMARK  8 active torsions:
REMARK  status: ('A' for Active; 'I' for Inactive)
REMARK    1  A    between atoms: N_3  and  C_16
REMARK    2  A    between atoms: C_10  and  C_13
REMARK    3  A    between atoms: C_13  and  O_14
REMARK    4  A    between atoms: C_16  and  C_18
REMARK    5  A    between atoms: C_16  and  C_21
REMARK    6  A    between atoms: C_18  and  O_19
REMARK    7  A    between atoms: C_21  and  C_22
REMARK    8  A    between atoms: C_27  and  O_28
REMARK                            x       y       z     vdW  Elec       q    Type
REMARK                         _______ _______ _______ _____ _____    ______ ____
ROOT
ATOM      1  O   UNL     1      -0.669   1.647   1.740  0.00  0.00    -0.269 OA
ATOM      2  O   UNL     1       0.401   0.129  -2.506  0.00  0.00    -0.269 OA
ATOM      3  N   UNL     1       0.252   1.073  -0.352  0.00  0.00    -0.213 N 
ATOM      4  C   UNL     1      -1.822   0.317   0.152  0.00  0.00    +0.059 C 
ATOM      5  C   UNL     1      -1.502  -0.137  -1.118  0.00  0.00    +0.058 C 
ATOM      6  C   UNL     1      -0.694   1.103   0.651  0.00  0.00    +0.256 C 
ATOM      7  C   UNL     1      -0.164   0.351  -1.450  0.00  0.00    +0.256 C 
ATOM      8  C   UNL     1      -3.030   0.022   0.751  0.00  0.00    +0.011 C 
ATOM      9  C   UNL     1      -2.372  -0.911  -1.858  0.00  0.00    +0.005 C 
ATOM     10  C   UNL     1      -3.927  -0.762   0.020  0.00  0.00    +0.076 C 
ATOM     11  C   UNL     1      -3.602  -1.224  -1.271  0.00  0.00    +0.007 C 
ENDROOT
BRANCH  10  13
ATOM     12  O   UNL     1      -6.088  -1.789   0.050  0.00  0.00    -0.245 OA
ATOM     13  C   UNL     1      -5.217  -1.106   0.599  0.00  0.00    +0.338 C 
BRANCH  13  14
ATOM     14  O   UNL     1      -5.382  -0.589   1.847  0.00  0.00    -0.477 OA
ATOM     15  H   UNL     1      -4.701  -0.075   2.235  0.00  0.00    +0.295 HD
ENDBRANCH  13  14
ENDBRANCH  10  13
BRANCH   3  16
ATOM     16  C   UNL     1       1.542   1.728  -0.261  0.00  0.00    +0.186 C 
BRANCH  16  18
ATOM     17  O   UNL     1       2.337   4.011  -0.160  0.00  0.00    -0.248 OA
ATOM     18  C   UNL     1       1.384   3.238  -0.164  0.00  0.00    +0.333 C 
BRANCH  18  19
ATOM     19  O   UNL     1       0.103   3.672  -0.077  0.00  0.00    -0.479 OA
ATOM     20  H   UNL     1      -0.602   3.055  -0.083  0.00  0.00    +0.295 HD
ENDBRANCH  18  19
ENDBRANCH  16  18
BRANCH  16  21
ATOM     21  C   UNL     1       2.346   1.207   0.939  0.00  0.00    +0.058 C 
BRANCH  21  22
ATOM     22  C   UNL     1       2.983  -0.136   0.669  0.00  0.00    -0.020 C 
ATOM     23  C   UNL     1       2.280  -1.291   0.970  0.00  0.00    -0.001 C 
ATOM     24  C   UNL     1       4.256  -0.186   0.126  0.00  0.00    -0.001 C 
ATOM     25  C   UNL     1       2.868  -2.532   0.721  0.00  0.00    +0.036 C 
ATOM     26  C   UNL     1       4.844  -1.426  -0.123  0.00  0.00    +0.036 C 
ATOM     27  C   UNL     1       4.150  -2.599   0.174  0.00  0.00    +0.134 C 
BRANCH  27  28
ATOM     28  O   UNL     1       4.723  -3.809  -0.068  0.00  0.00    -0.506 OA
ATOM     29  H   UNL     1       4.257  -4.597   0.132  0.00  0.00    +0.292 HD
ENDBRANCH  27  28
ENDBRANCH  21  22
ENDBRANCH  16  21
ENDBRANCH   3  16
TORSDOF 8
