REMARK  Name = 46937090
REMARK  7 active torsions:
REMARK  status: ('A' for Active; 'I' for Inactive)
REMARK    1  A    between atoms: N_3  and  C_32
REMARK    2  A    between atoms: C_7  and  C_14
REMARK    3  A    between atoms: C_8  and  C_31
REMARK    4  A    between atoms: C_19  and  C_20
REMARK    5  A    between atoms: C_20  and  N_21
REMARK    6  A    between atoms: C_20  and  N_25
REMARK    7  A    between atoms: C_32  and  C_34
REMARK                            x       y       z     vdW  Elec       q    Type
REMARK                         _______ _______ _______ _____ _____    ______ ____
ROOT
ATOM      1  O   UNL     1      -0.424  -0.410   1.640  0.00  0.00    -0.275 OA
ATOM      2  N   UNL     1      -0.405   1.048  -1.792  0.00  0.00    +0.392 N 
ATOM      3  N   UNL     1       1.669   0.577   1.244  0.00  0.00    -0.272 N 
ATOM      4  C   UNL     1       1.026   2.251  -0.241  0.00  0.00    +0.012 C 
ATOM      5  C   UNL     1       0.982   1.541  -1.607  0.00  0.00    -0.055 C 
ATOM      6  C   UNL     1      -0.225   1.733   0.473  0.00  0.00    +0.062 C 
ATOM      7  C   UNL     1      -1.222   1.560  -0.670  0.00  0.00    -0.026 C 
ATOM      8  C   UNL     1       2.185   1.798   0.648  0.00  0.00    +0.141 C 
ATOM      9  C   UNL     1       1.290   2.460  -2.788  0.00  0.00    -0.023 C 
ATOM     10  C   UNL     1      -0.866   1.529  -3.102  0.00  0.00    -0.077 C 
ATOM     11  C   UNL     1       0.278   0.479   1.183  0.00  0.00    +0.224 C 
ATOM     12  C   UNL     1      -0.071   2.794  -3.366  0.00  0.00    -0.025 C 
ATOM     13  H   UNL     1      -0.475   0.031  -1.782  0.00  0.00    -0.079 HD
ENDROOT
BRANCH   7  14
ATOM     14  C   UNL     1      -2.442   0.733  -0.317  0.00  0.00    -0.041 C 
ATOM     15  C   UNL     1      -3.555   1.345   0.260  0.00  0.00    -0.007 C 
ATOM     16  C   UNL     1      -2.451  -0.639  -0.568  0.00  0.00    -0.007 C 
ATOM     17  C   UNL     1      -4.678   0.584   0.585  0.00  0.00    -0.009 C 
ATOM     18  C   UNL     1      -3.574  -1.399  -0.242  0.00  0.00    -0.009 C 
ATOM     19  C   UNL     1      -4.688  -0.788   0.334  0.00  0.00    -0.062 C 
BRANCH  19  20
ATOM     20  C   UNL     1      -5.890  -1.600   0.679  0.00  0.00    -0.114 C 
BRANCH  20  21
ATOM     21  N   UNL     1      -5.603  -2.639   1.683  0.00  0.00    +0.373 N 
ATOM     22  H   UNL     1      -6.455  -3.164   1.882  0.00  0.00    -0.092 HD
ATOM     23  H   UNL     1      -5.266  -2.200   2.540  0.00  0.00    -0.092 HD
ATOM     24  H   UNL     1      -4.890  -3.273   1.322  0.00  0.00    -0.092 HD
ENDBRANCH  20  21
BRANCH  20  25
ATOM     25  N   UNL     1      -6.506  -2.240  -0.495  0.00  0.00    +0.373 N 
ATOM     26  H   UNL     1      -7.320  -2.780  -0.199  0.00  0.00    -0.092 HD
ATOM     27  H   UNL     1      -5.829  -2.861  -0.938  0.00  0.00    -0.092 HD
ATOM     28  H   UNL     1      -6.797  -1.523  -1.159  0.00  0.00    -0.092 HD
ENDBRANCH  20  25
ENDBRANCH  19  20
ENDBRANCH   7  14
BRANCH   8  31
ATOM     29  F   UNL     1       3.526   2.365   2.480  0.00  0.00    -0.197 F 
ATOM     30  F   UNL     1       1.448   3.013   2.507  0.00  0.00    -0.197 F 
ATOM     31  C   UNL     1       2.523   2.839   1.712  0.00  0.00    +0.336 C 
ENDBRANCH   8  31
BRANCH   3  32
ATOM     32  C   UNL     1       2.543  -0.401   1.859  0.00  0.00    +0.120 C 
BRANCH  32  34
ATOM     33  F   UNL     1       4.336  -4.249  -1.839  0.00  0.00    -0.204 F 
ATOM     34  C   UNL     1       3.021  -1.427   0.873  0.00  0.00    -0.002 C 
ATOM     35  C   UNL     1       2.287  -2.596   0.672  0.00  0.00    -0.000 C 
ATOM     36  C   UNL     1       4.199  -1.212   0.158  0.00  0.00    -0.000 C 
ATOM     37  C   UNL     1       2.731  -3.550  -0.244  0.00  0.00    +0.029 C 
ATOM     38  C   UNL     1       4.644  -2.165  -0.758  0.00  0.00    +0.029 C 
ATOM     39  C   UNL     1       3.909  -3.334  -0.959  0.00  0.00    +0.140 C 
ENDBRANCH  32  34
ENDBRANCH   3  32
TORSDOF 7
