REMARK  Name = 6852168
REMARK  5 active torsions:
REMARK  status: ('A' for Active; 'I' for Inactive)
REMARK    1  A    between atoms: N_1  and  C_5
REMARK    2  A    between atoms: N_1  and  S_19
REMARK    3  A    between atoms: N_4  and  C_9
REMARK    4  A    between atoms: C_9  and  C_14
REMARK    5  A    between atoms: S_19  and  C_23
REMARK                            x       y       z     vdW  Elec       q    Type
REMARK                         _______ _______ _______ _____ _____    ______ ____
ROOT
ATOM      1  N   UNL     1      -0.748   1.933  -0.990  0.00  0.00    -0.172 NA
ATOM      2  H   UNL     1      -0.811   0.920  -1.089  0.00  0.00    +0.149 HD
ENDROOT
BRANCH   1   5
ATOM      3  O   UNL     1      -0.247   0.107   1.382  0.00  0.00    -0.273 OA
ATOM      4  N   UNL     1      -2.501   0.783   1.391  0.00  0.00    -0.272 N 
ATOM      5  C   UNL     1      -0.935   2.232   0.441  0.00  0.00    +0.153 C 
ATOM      6  C   UNL     1      -2.239   2.983   0.685  0.00  0.00    +0.048 C 
ATOM      7  C   UNL     1      -3.273   1.888   0.872  0.00  0.00    +0.096 C 
ATOM      8  C   UNL     1      -1.136   0.911   1.140  0.00  0.00    +0.242 C 
BRANCH   4   9
ATOM      9  C   UNL     1      -3.140  -0.384   1.959  0.00  0.00    +0.152 C 
ATOM     10  C   UNL     1      -3.939  -0.057   3.199  0.00  0.00    +0.031 C 
BRANCH   9  14
ATOM     11  O   UNL     1      -2.231  -2.810  -2.375  0.00  0.00    -0.350 OA
ATOM     12  O   UNL     1      -5.224  -0.535   0.838  0.00  0.00    -0.273 OA
ATOM     13  N   UNL     1      -3.463  -1.738  -0.079  0.00  0.00    -0.273 N 
ATOM     14  C   UNL     1      -4.042  -0.889   0.861  0.00  0.00    +0.244 C 
ATOM     15  C   UNL     1      -2.101  -2.279  -0.011  0.00  0.00    +0.126 C 
ATOM     16  C   UNL     1      -4.266  -2.270  -1.180  0.00  0.00    +0.126 C 
ATOM     17  C   UNL     1      -1.427  -2.181  -1.374  0.00  0.00    +0.164 C 
ATOM     18  C   UNL     1      -3.502  -2.166  -2.492  0.00  0.00    +0.164 C 
ENDBRANCH   9  14
ENDBRANCH   4   9
ENDBRANCH   1   5
BRANCH   1  19
ATOM     19  S   UNL     1       0.679   2.416  -1.784  0.00  0.00    +0.061 S 
ATOM     20  O   UNL     1       0.878   3.839  -1.586  0.00  0.00    -0.153 OA
ATOM     21  O   UNL     1       0.688   1.858  -3.123  0.00  0.00    -0.153 OA
BRANCH  19  23
ATOM     22 CL   UNL     1       6.445  -2.609   1.845  0.00  0.00    -0.082 Cl
ATOM     23  C   UNL     1       1.916   1.558  -0.859  0.00  0.00    +0.122 C 
ATOM     24  C   UNL     1       2.292   0.285  -1.252  0.00  0.00    +0.020 C 
ATOM     25  C   UNL     1       2.483   2.173   0.240  0.00  0.00    +0.020 C 
ATOM     26  C   UNL     1       3.274  -0.410  -0.527  0.00  0.00    +0.001 C 
ATOM     27  C   UNL     1       3.867   0.205   0.601  0.00  0.00    +0.001 C 
ATOM     28  C   UNL     1       3.460   1.498   0.971  0.00  0.00    +0.001 C 
ATOM     29  C   UNL     1       3.681  -1.702  -0.898  0.00  0.00    +0.001 C 
ATOM     30  C   UNL     1       4.848  -0.490   1.326  0.00  0.00    +0.011 C 
ATOM     31  C   UNL     1       4.658  -2.378  -0.166  0.00  0.00    +0.011 C 
ATOM     32  C   UNL     1       5.240  -1.773   0.944  0.00  0.00    +0.058 C 
ENDBRANCH  19  23
ENDBRANCH   1  19
TORSDOF 5
