REMARK  Name = 446504
REMARK  9 active torsions:
REMARK  status: ('A' for Active; 'I' for Inactive)
REMARK    1  A    between atoms: N_1  and  S_2
REMARK    2  A    between atoms: N_1  and  C_13
REMARK    3  A    between atoms: N_1  and  C_23
REMARK    4  A    between atoms: S_2  and  C_5
REMARK    5  A    between atoms: C_10  and  O_11
REMARK    6  A    between atoms: C_13  and  C_16
REMARK    7  A    between atoms: C_13  and  C_20
REMARK    8  A    between atoms: N_15  and  O_18
REMARK    9  A    between atoms: C_23  and  C_25
REMARK                            x       y       z     vdW  Elec       q    Type
REMARK                         _______ _______ _______ _____ _____    ______ ____
ROOT
ATOM      1  N   UNL     1       0.752  -0.424  -0.033  0.00  0.00    -0.144 NA
ENDROOT
BRANCH   1   2
ATOM      2  S   UNL     1      -0.252  -1.828   0.038  0.00  0.00    +0.064 S 
ATOM      3  O   UNL     1      -0.101  -2.461   1.335  0.00  0.00    -0.153 OA
ATOM      4  O   UNL     1      -0.073  -2.617  -1.167  0.00  0.00    -0.153 OA
BRANCH   2   5
ATOM      5  C   UNL     1      -1.882  -1.138  -0.024  0.00  0.00    +0.122 C 
ATOM      6  C   UNL     1      -2.750  -1.369   1.027  0.00  0.00    +0.023 C 
ATOM      7  C   UNL     1      -2.252  -0.383  -1.122  0.00  0.00    +0.023 C 
ATOM      8  C   UNL     1      -4.034  -0.826   0.979  0.00  0.00    +0.038 C 
ATOM      9  C   UNL     1      -3.536   0.160  -1.170  0.00  0.00    +0.038 C 
ATOM     10  C   UNL     1      -4.427  -0.061  -0.120  0.00  0.00    +0.139 C 
BRANCH  10  11
ATOM     11  O   UNL     1      -5.679   0.469  -0.167  0.00  0.00    -0.471 OA
ATOM     12  C   UNL     1      -6.538   0.204   0.941  0.00  0.00    +0.252 C 
ENDBRANCH  10  11
ENDBRANCH   2   5
ENDBRANCH   1   2
BRANCH   1  13
ATOM     13  C   UNL     1       2.164  -0.601  -0.439  0.00  0.00    +0.158 C 
BRANCH  13  16
ATOM     14  O   UNL     1       2.536  -2.620   0.845  0.00  0.00    -0.272 OA
ATOM     15  N   UNL     1       3.827  -0.760   1.289  0.00  0.00    -0.196 N 
ATOM     16  C   UNL     1       2.844  -1.450   0.623  0.00  0.00    +0.260 C 
ATOM     17  H   UNL     1       4.042   0.177   1.080  0.00  0.00    +0.182 HD
BRANCH  15  18
ATOM     18  O   UNL     1       4.506  -1.475   2.285  0.00  0.00    -0.295 OA
ATOM     19  H   UNL     1       5.175  -0.904   2.694  0.00  0.00    +0.241 HD
ENDBRANCH  15  18
ENDBRANCH  13  16
BRANCH  13  20
ATOM     20  C   UNL     1       2.287  -1.213  -1.849  0.00  0.00    +0.025 C 
ATOM     21  C   UNL     1       3.736  -1.421  -2.304  0.00  0.00    +0.002 C 
ATOM     22  C   UNL     1       1.532  -0.376  -2.887  0.00  0.00    +0.002 C 
ENDBRANCH  13  20
ENDBRANCH   1  13
BRANCH   1  23
ATOM     23  C   UNL     1       0.602   0.585   1.049  0.00  0.00    +0.124 C 
BRANCH  23  25
ATOM     24  N   UNL     1       1.923   4.112   0.927  0.00  0.00    -0.243 NA
ATOM     25  C   UNL     1       0.866   1.983   0.565  0.00  0.00    +0.015 C 
ATOM     26  C   UNL     1       0.327   2.425  -0.629  0.00  0.00    +0.000 C 
ATOM     27  C   UNL     1       1.647   2.843   1.304  0.00  0.00    +0.096 C 
ATOM     28  C   UNL     1       0.588   3.724  -1.051  0.00  0.00    +0.020 C 
ATOM     29  C   UNL     1       1.385   4.520  -0.244  0.00  0.00    +0.099 C 
ENDBRANCH  23  25
ENDBRANCH   1  23
TORSDOF 9
