REMARK  Name = 24752832
REMARK  4 active torsions:
REMARK  status: ('A' for Active; 'I' for Inactive)
REMARK    1  A    between atoms: C_1  and  N_8
REMARK    2  A    between atoms: C_2  and  N_23
REMARK    3  A    between atoms: C_9  and  C_14
REMARK    4  A    between atoms: C_24  and  C_28
REMARK                            x       y       z     vdW  Elec       q    Type
REMARK                         _______ _______ _______ _____ _____    ______ ____
ROOT
ATOM      1  C   UNL     1       0.563   3.399   0.556  0.00  0.00    +0.090 C 
ATOM      2  C   UNL     1      -0.603   3.265  -0.438  0.00  0.00    +0.090 C 
ATOM      3  C   UNL     1       0.081   3.734   1.971  0.00  0.00    +0.021 C 
ATOM      4  C   UNL     1      -1.498   4.510  -0.406  0.00  0.00    +0.021 C 
ATOM      5  C   UNL     1      -0.793   4.985   1.980  0.00  0.00    +0.002 C 
ATOM      6  C   UNL     1      -1.962   4.870   1.006  0.00  0.00    +0.002 C 
ENDROOT
BRANCH   1   8
ATOM      7  O   UNL     1       2.805   2.877  -1.160  0.00  0.00    -0.267 OA
ATOM      8  N   UNL     1       1.400   2.223   0.565  0.00  0.00    -0.298 N 
ATOM      9  C   UNL     1       2.466   2.061  -0.307  0.00  0.00    +0.282 C 
ATOM     10  H   UNL     1       1.207   1.509   1.215  0.00  0.00    +0.150 HD
BRANCH   9  14
ATOM     11  S   UNL     1       4.557   0.461  -1.217  0.00  0.00    -0.074 S 
ATOM     12  N   UNL     1       5.437  -3.369  -0.194  0.00  0.00    +0.387 N 
ATOM     13  N   UNL     1       2.900  -0.153   0.684  0.00  0.00    -0.399 NA
ATOM     14  C   UNL     1       3.213   0.782  -0.189  0.00  0.00    +0.210 C 
ATOM     15  C   UNL     1       3.784  -1.198   0.535  0.00  0.00    +0.093 C 
ATOM     16  C   UNL     1       4.739  -1.042  -0.447  0.00  0.00    +0.082 C 
ATOM     17  C   UNL     1       3.706  -2.437   1.354  0.00  0.00    +0.032 C 
ATOM     18  C   UNL     1       5.801  -2.045  -0.754  0.00  0.00    -0.059 C 
ATOM     19  C   UNL     1       5.002  -3.268   1.217  0.00  0.00    -0.070 C 
ATOM     20  C   UNL     1       6.558  -4.299  -0.325  0.00  0.00    -0.101 C 
ATOM     21  H   UNL     1       4.647  -3.728  -0.730  0.00  0.00    -0.080 HD
ENDBRANCH   9  14
ENDBRANCH   1   8
BRANCH   2  23
ATOM     22  O   UNL     1      -1.994   1.701  -2.404  0.00  0.00    -0.269 OA
ATOM     23  N   UNL     1      -1.382   2.069  -0.198  0.00  0.00    -0.300 N 
ATOM     24  C   UNL     1      -2.019   1.382  -1.218  0.00  0.00    +0.259 C 
ATOM     25  H   UNL     1      -1.463   1.731   0.724  0.00  0.00    +0.150 HD
BRANCH  24  28
ATOM     26 CL   UNL     1      -5.770  -4.581   1.949  0.00  0.00    -0.082 Cl
ATOM     27  N   UNL     1      -3.493  -0.606  -1.677  0.00  0.00    -0.309 N 
ATOM     28  C   UNL     1      -2.800   0.189  -0.804  0.00  0.00    +0.102 C 
ATOM     29  C   UNL     1      -2.974  -0.322   0.462  0.00  0.00    +0.020 C 
ATOM     30  C   UNL     1      -4.116  -1.628  -0.997  0.00  0.00    +0.048 C 
ATOM     31  C   UNL     1      -3.804  -1.472   0.355  0.00  0.00    +0.016 C 
ATOM     32  C   UNL     1      -4.923  -2.668  -1.471  0.00  0.00    +0.015 C 
ATOM     33  C   UNL     1      -4.323  -2.398   1.282  0.00  0.00    +0.013 C 
ATOM     34  C   UNL     1      -5.132  -3.444   0.823  0.00  0.00    +0.058 C 
ATOM     35  C   UNL     1      -5.426  -3.575  -0.533  0.00  0.00    +0.013 C 
ATOM     36  H   UNL     1      -3.539  -0.467  -2.651  0.00  0.00    +0.152 HD
ENDBRANCH  24  28
ENDBRANCH   2  23
TORSDOF 4
