REMARK  Name = 46937065
REMARK  9 active torsions:
REMARK  status: ('A' for Active; 'I' for Inactive)
REMARK    1  A    between atoms: C_1  and  N_2
REMARK    2  A    between atoms: C_1  and  C_6
REMARK    3  A    between atoms: C_1  and  C_15
REMARK    4  A    between atoms: C_6  and  C_7
REMARK    5  A    between atoms: C_7  and  C_8
REMARK    6  A    between atoms: C_8  and  N_9
REMARK    7  A    between atoms: C_8  and  O_13
REMARK    8  A    between atoms: C_15  and  C_16
REMARK    9  A    between atoms: C_21  and  O_22
REMARK                            x       y       z     vdW  Elec       q    Type
REMARK                         _______ _______ _______ _____ _____    ______ ____
ROOT
ATOM      1  C   UNL     1      -1.007   1.699  -0.213  0.00  0.00    -0.061 C 
ENDROOT
BRANCH   1   2
ATOM      2  N   UNL     1      -1.916   2.834  -0.025  0.00  0.00    +0.382 N 
ATOM      3  H   UNL     1      -2.815   2.626  -0.461  0.00  0.00    -0.089 HD
ATOM      4  H   UNL     1      -1.514   3.667  -0.456  0.00  0.00    -0.089 HD
ATOM      5  H   UNL     1      -2.053   2.999   0.972  0.00  0.00    -0.089 HD
ENDBRANCH   1   2
BRANCH   1   6
ATOM      6  C   UNL     1      -1.670   0.400   0.292  0.00  0.00    -0.021 C 
BRANCH   6   7
ATOM      7  C   UNL     1      -3.045   0.085  -0.322  0.00  0.00    +0.004 C 
BRANCH   7   8
ATOM      8  C   UNL     1      -3.616  -1.238   0.206  0.00  0.00    +0.051 C 
BRANCH   8   9
ATOM      9  N   UNL     1      -4.917  -1.493  -0.403  0.00  0.00    +0.398 N 
ATOM     10  H   UNL     1      -5.291  -2.373  -0.049  0.00  0.00    -0.086 HD
ATOM     11  H   UNL     1      -4.812  -1.551  -1.416  0.00  0.00    -0.086 HD
ATOM     12  H   UNL     1      -5.556  -0.733  -0.171  0.00  0.00    -0.086 HD
ENDBRANCH   8   9
BRANCH   8  13
ATOM     13  O   UNL     1      -2.702  -2.290  -0.080  0.00  0.00    -0.406 OA
ATOM     14  H   UNL     1      -3.059  -3.128   0.252  0.00  0.00    +0.207 HD
ENDBRANCH   8  13
ENDBRANCH   7   8
ENDBRANCH   6   7
ENDBRANCH   1   6
BRANCH   1  15
ATOM     15  C   UNL     1       0.344   2.031   0.451  0.00  0.00    +0.005 C 
BRANCH  15  16
ATOM     16  C   UNL     1       1.398   0.968   0.251  0.00  0.00    -0.024 C 
ATOM     17  C   UNL     1       1.523  -0.073   1.171  0.00  0.00    -0.001 C 
ATOM     18  C   UNL     1       2.248   1.029  -0.854  0.00  0.00    -0.001 C 
ATOM     19  C   UNL     1       2.497  -1.054   0.985  0.00  0.00    +0.036 C 
ATOM     20  C   UNL     1       3.222   0.048  -1.039  0.00  0.00    +0.036 C 
ATOM     21  C   UNL     1       3.346  -0.994  -0.119  0.00  0.00    +0.134 C 
BRANCH  21  22
ATOM     22  O   UNL     1       4.296  -1.952  -0.301  0.00  0.00    -0.506 OA
ATOM     23  H   UNL     1       4.380  -2.651   0.317  0.00  0.00    +0.292 HD
ENDBRANCH  21  22
ENDBRANCH  15  16
ENDBRANCH   1  15
TORSDOF 9
