REMARK  Name = 11464526
REMARK  8 active torsions:
REMARK  status: ('A' for Active; 'I' for Inactive)
REMARK    1  A    between atoms: N_1  and  C_19
REMARK    2  A    between atoms: N_3  and  C_12
REMARK    3  A    between atoms: C_11  and  C_18
REMARK    4  A    between atoms: C_20  and  O_25
REMARK    5  A    between atoms: O_25  and  C_26
REMARK    6  A    between atoms: C_26  and  C_27
REMARK    7  A    between atoms: C_27  and  C_28
REMARK    8  A    between atoms: C_28  and  N_29
REMARK                            x       y       z     vdW  Elec       q    Type
REMARK                         _______ _______ _______ _____ _____    ______ ____
ROOT
ATOM      1  N   UNL     1       1.285  -1.159   0.784  0.00  0.00    -0.284 N 
ATOM      2  H   UNL     1       1.515  -0.379   1.339  0.00  0.00    +0.155 HD
ATOM      3  N   UNL     1      -2.900   0.780   0.884  0.00  0.00    -0.262 N 
ATOM      4  N   UNL     1      -0.780   0.938   1.552  0.00  0.00    -0.240 NA
ATOM      5  N   UNL     1      -2.785  -1.286  -0.389  0.00  0.00    -0.315 NA
ATOM      6  N   UNL     1      -0.528  -2.214  -0.368  0.00  0.00    -0.315 NA
ATOM      7  C   UNL     1      -2.260  -0.310   0.368  0.00  0.00    +0.219 C 
ATOM      8  C   UNL     1      -1.971   1.499   1.586  0.00  0.00    +0.222 C 
ATOM      9  C   UNL     1      -0.947  -0.194   0.794  0.00  0.00    +0.168 C 
ATOM     10  C   UNL     1      -0.066  -1.196   0.398  0.00  0.00    +0.218 C 
ATOM     11  C   UNL     1      -1.839  -2.196  -0.709  0.00  0.00    +0.215 C 
ENDROOT
BRANCH   1  12
ATOM     12  C   UNL     1       2.377  -2.018   0.534  0.00  0.00    +0.085 C 
ATOM     13  C   UNL     1       3.676  -1.514   0.473  0.00  0.00    +0.152 C 
ATOM     14  C   UNL     1       2.148  -3.381   0.350  0.00  0.00    +0.018 C 
ATOM     15  C   UNL     1       4.747  -2.375   0.226  0.00  0.00    +0.038 C 
ATOM     16  C   UNL     1       3.218  -4.241   0.103  0.00  0.00    +0.001 C 
ATOM     17  C   UNL     1       4.517  -3.738   0.041  0.00  0.00    +0.003 C 
BRANCH  13  18
ATOM     18  O   UNL     1       3.922  -0.185   0.651  0.00  0.00    -0.474 OA
BRANCH  18  19
ATOM     19  C   UNL     1       4.544   0.508  -0.429  0.00  0.00    +0.207 C 
BRANCH  19  20
ATOM     20  C   UNL     1       4.063   1.954  -0.422  0.00  0.00    +0.069 C 
BRANCH  20  21
ATOM     21  C   UNL     1       2.552   2.091  -0.609  0.00  0.00    +0.101 C 
BRANCH  21  22
ATOM     22  N   UNL     1       2.074   3.467  -0.547  0.00  0.00    -0.268 N 
ATOM     23  N   UNL     1       1.498   5.486  -1.225  0.00  0.00    -0.225 NA
ATOM     24  C   UNL     1       1.671   4.117   0.574  0.00  0.00    +0.088 C 
ATOM     25  C   UNL     1       1.958   4.314  -1.603  0.00  0.00    +0.168 C 
ATOM     26  C   UNL     1       1.317   5.370   0.131  0.00  0.00    +0.117 C 
ENDBRANCH  21  22
ENDBRANCH  20  21
ENDBRANCH  19  20
ENDBRANCH  18  19
ENDBRANCH  13  18
ENDBRANCH   1  12
BRANCH   3  27
ATOM     27  C   UNL     1      -4.311   1.124   0.723  0.00  0.00    +0.077 C 
ATOM     28  C   UNL     1      -4.721   1.343  -0.743  0.00  0.00    +0.020 C 
ATOM     29  C   UNL     1      -5.291   0.079   1.292  0.00  0.00    +0.020 C 
ATOM     30  C   UNL     1      -6.141   0.801  -0.828  0.00  0.00    +0.002 C 
ATOM     31  C   UNL     1      -6.111  -0.402   0.100  0.00  0.00    +0.002 C 
ENDBRANCH   3  27
BRANCH  11  33
ATOM     32  N   UNL     1      -2.640  -4.178  -2.173  0.00  0.00    -0.178 NA
ATOM     33  C   UNL     1      -2.279  -3.285  -1.514  0.00  0.00    +0.198 C 
ENDBRANCH  11  33
TORSDOF 8
