REMARK  Name = 7595
REMARK  2 active torsions:
REMARK  status: ('A' for Active; 'I' for Inactive)
REMARK    1  A    between atoms: N_2  and  C_7
REMARK    2  A    between atoms: N_3  and  C_13
REMARK                            x       y       z     vdW  Elec       q    Type
REMARK                         _______ _______ _______ _____ _____    ______ ____
ROOT
ATOM      1  O   UNL     1       0.006   1.257   0.000  0.00  0.00    -0.252 OA
ATOM      2  N   UNL     1      -1.157  -0.777   0.000  0.00  0.00    -0.268 N 
ATOM      3  N   UNL     1       1.153  -0.781   0.000  0.00  0.00    -0.268 N 
ATOM      4  C   UNL     1       0.007   0.030   0.000  0.00  0.00    +0.308 C 
ATOM      5  H   UNL     1      -1.002  -1.749   0.001  0.00  0.00    +0.156 HD
ATOM      6  H   UNL     1       0.994  -1.752   0.001  0.00  0.00    +0.156 HD
ENDROOT
BRANCH   2   7
ATOM      7  C   UNL     1      -2.494  -0.377   0.000  0.00  0.00    +0.052 C 
ATOM      8  C   UNL     1      -3.508  -1.335   0.001  0.00  0.00    +0.015 C 
ATOM      9  C   UNL     1      -2.816   0.980  -0.001  0.00  0.00    +0.015 C 
ATOM     10  C   UNL     1      -4.844  -0.935   0.000  0.00  0.00    +0.001 C 
ATOM     11  C   UNL     1      -4.152   1.379  -0.001  0.00  0.00    +0.001 C 
ATOM     12  C   UNL     1      -5.167   0.422   0.000  0.00  0.00    +0.000 C 
ENDBRANCH   2   7
BRANCH   3  13
ATOM     13  C   UNL     1       2.508  -0.374   0.000  0.00  0.00    +0.052 C 
ATOM     14  C   UNL     1       3.505  -1.336  -0.001  0.00  0.00    +0.015 C 
ATOM     15  C   UNL     1       2.810   0.978   0.001  0.00  0.00    +0.015 C 
ATOM     16  C   UNL     1       4.841  -0.935  -0.001  0.00  0.00    +0.001 C 
ATOM     17  C   UNL     1       4.146   1.379   0.001  0.00  0.00    +0.001 C 
ATOM     18  C   UNL     1       5.161   0.423   0.000  0.00  0.00    +0.000 C 
ENDBRANCH   3  13
TORSDOF 2
