REMARK  Name = 9547923
REMARK  3 active torsions:
REMARK  status: ('A' for Active; 'I' for Inactive)
REMARK    1  A    between atoms: N_2  and  S_19
REMARK    2  A    between atoms: C_8  and  C_12
REMARK    3  A    between atoms: S_19  and  C_24
REMARK                            x       y       z     vdW  Elec       q    Type
REMARK                         _______ _______ _______ _____ _____    ______ ____
ROOT
ATOM      1  O   UNL     1       2.232   1.294   2.959  0.00  0.00    -0.269 OA
ATOM      2  N   UNL     1      -1.075   2.543  -0.474  0.00  0.00    -0.151 NA
ATOM      3  N   UNL     1       1.315   1.889   0.919  0.00  0.00    -0.273 N 
ATOM      4  C   UNL     1      -1.060   2.508   1.020  0.00  0.00    +0.117 C 
ATOM      5  C   UNL     1      -0.105   1.570  -1.063  0.00  0.00    +0.117 C 
ATOM      6  C   UNL     1       0.349   2.805   1.524  0.00  0.00    +0.113 C 
ATOM      7  C   UNL     1       1.296   1.884  -0.550  0.00  0.00    +0.113 C 
ATOM      8  C   UNL     1       2.216   1.179   1.732  0.00  0.00    +0.255 C 
ENDROOT
BRANCH   8  12
ATOM      9  S   UNL     1       2.688  -1.350   0.814  0.00  0.00    -0.081 S 
ATOM     10  O   UNL     1       7.064   0.381  -0.623  0.00  0.00    -0.163 OA
ATOM     11  N   UNL     1       6.326  -0.652  -0.588  0.00  0.00    -0.128 N 
ATOM     12  C   UNL     1       3.152   0.279   1.068  0.00  0.00    +0.085 C 
ATOM     13  C   UNL     1       4.412   0.555   0.592  0.00  0.00    +0.032 C 
ATOM     14  C   UNL     1       4.988  -0.599   0.015  0.00  0.00    +0.109 C 
ATOM     15  C   UNL     1       4.181  -1.723   0.053  0.00  0.00    +0.049 C 
ATOM     16  C   UNL     1       4.653  -2.927  -0.492  0.00  0.00    +0.010 C 
ATOM     17  C   UNL     1       6.761  -1.840  -1.114  0.00  0.00    +0.121 C 
ATOM     18  C   UNL     1       5.937  -2.964  -1.067  0.00  0.00    +0.023 C 
ENDBRANCH   8  12
BRANCH   2  19
ATOM     19  S   UNL     1      -2.631   2.551  -1.191  0.00  0.00    +0.076 S 
ATOM     20  O   UNL     1      -2.477   2.415  -2.624  0.00  0.00    -0.152 OA
ATOM     21  O   UNL     1      -3.419   3.612  -0.601  0.00  0.00    -0.152 OA
BRANCH  19  24
ATOM     22 CL   UNL     1      -6.621  -3.766   1.704  0.00  0.00    -0.082 Cl
ATOM     23  N   UNL     1      -3.347  -0.073  -1.422  0.00  0.00    -0.297 N 
ATOM     24  C   UNL     1      -3.466   1.055  -0.676  0.00  0.00    +0.173 C 
ATOM     25  C   UNL     1      -4.257   0.804   0.402  0.00  0.00    +0.036 C 
ATOM     26  C   UNL     1      -4.653  -0.560   0.320  0.00  0.00    +0.017 C 
ATOM     27  C   UNL     1      -4.069  -1.088  -0.834  0.00  0.00    +0.049 C 
ATOM     28  C   UNL     1      -5.455  -1.400   1.118  0.00  0.00    +0.013 C 
ATOM     29  C   UNL     1      -4.247  -2.418  -1.230  0.00  0.00    +0.015 C 
ATOM     30  C   UNL     1      -5.642  -2.733   0.734  0.00  0.00    +0.058 C 
ATOM     31  C   UNL     1      -5.046  -3.232  -0.423  0.00  0.00    +0.013 C 
ATOM     32  H   UNL     1      -2.827  -0.154  -2.254  0.00  0.00    +0.153 HD
ENDBRANCH  19  24
ENDBRANCH   2  19
TORSDOF 3
