REMARK  Name = 6323244
REMARK  11 active torsions:
REMARK  status: ('A' for Active; 'I' for Inactive)
REMARK    1  A    between atoms: C_1  and  O_2
REMARK    2  A    between atoms: C_1  and  C_4
REMARK    3  A    between atoms: C_1  and  C_16
REMARK    4  A    between atoms: C_4  and  N_5
REMARK    5  A    between atoms: C_4  and  C_9
REMARK    6  A    between atoms: C_9  and  C_10
REMARK    7  A    between atoms: C_16  and  C_17
REMARK    8  A    between atoms: C_17  and  C_19
REMARK    9  A    between atoms: C_17  and  C_22
REMARK   10  A    between atoms: C_19  and  O_20
REMARK   11  A    between atoms: C_22  and  C_23
REMARK                            x       y       z     vdW  Elec       q    Type
REMARK                         _______ _______ _______ _____ _____    ______ ____
ROOT
ATOM      1  C   UNL     1       0.299   0.870   0.363  0.00  0.00    +0.091 C 
ENDROOT
BRANCH   1   2
ATOM      2  O   UNL     1       0.354   0.593   1.764  0.00  0.00    -0.387 OA
ATOM      3  H   UNL     1      -0.163   1.257   2.246  0.00  0.00    +0.210 HD
ENDBRANCH   1   2
BRANCH   1   4
ATOM      4  C   UNL     1      -1.184   0.955  -0.073  0.00  0.00    -0.038 C 
BRANCH   4   5
ATOM      5  N   UNL     1      -1.262   1.441  -1.453  0.00  0.00    +0.383 N 
ATOM      6  H   UNL     1      -2.239   1.497  -1.739  0.00  0.00    -0.089 HD
ATOM      7  H   UNL     1      -0.763   0.798  -2.068  0.00  0.00    -0.089 HD
ATOM      8  H   UNL     1      -0.837   2.367  -1.512  0.00  0.00    -0.089 HD
ENDBRANCH   4   5
BRANCH   4   9
ATOM      9  C   UNL     1      -1.942  -0.378   0.085  0.00  0.00    -0.020 C 
BRANCH   9  10
ATOM     10  C   UNL     1      -3.415  -0.290  -0.311  0.00  0.00    -0.002 C 
ATOM     11  C   UNL     1      -4.115  -1.638  -0.095  0.00  0.00    -0.000 C 
ATOM     12  C   UNL     1      -4.121   0.825   0.472  0.00  0.00    -0.000 C 
ATOM     13  C   UNL     1      -5.602  -1.562  -0.434  0.00  0.00    -0.000 C 
ATOM     14  C   UNL     1      -5.608   0.897   0.132  0.00  0.00    -0.000 C 
ATOM     15  C   UNL     1      -6.299  -0.447   0.340  0.00  0.00    -0.000 C 
ENDBRANCH   9  10
ENDBRANCH   4   9
ENDBRANCH   1   4
BRANCH   1  16
ATOM     16  C   UNL     1       1.127  -0.198  -0.378  0.00  0.00    +0.038 C 
BRANCH  16  17
ATOM     17  C   UNL     1       2.591  -0.302   0.110  0.00  0.00    +0.101 C 
BRANCH  17  19
ATOM     18  O   UNL     1       3.386   1.682  -1.069  0.00  0.00    -0.250 OA
ATOM     19  C   UNL     1       3.245   1.062  -0.025  0.00  0.00    +0.313 C 
BRANCH  19  20
ATOM     20  O   UNL     1       3.685   1.507   1.179  0.00  0.00    -0.480 OA
ATOM     21  H   UNL     1       3.549   0.989   1.949  0.00  0.00    +0.295 HD
ENDBRANCH  19  20
ENDBRANCH  17  19
BRANCH  17  22
ATOM     22  C   UNL     1       3.355  -1.355  -0.722  0.00  0.00    +0.011 C 
BRANCH  22  23
ATOM     23  C   UNL     1       4.861  -1.473  -0.396  0.00  0.00    +0.001 C 
ATOM     24  C   UNL     1       5.614  -0.148  -0.505  0.00  0.00    +0.000 C 
ATOM     25  C   UNL     1       5.034  -2.040   1.018  0.00  0.00    +0.000 C 
ENDBRANCH  22  23
ENDBRANCH  17  22
ENDBRANCH  16  17
ENDBRANCH   1  16
TORSDOF 11
