REMARK  Name = 6420159
REMARK  9 active torsions:
REMARK  status: ('A' for Active; 'I' for Inactive)
REMARK    1  A    between atoms: C_1  and  N_3
REMARK    2  A    between atoms: C_1  and  C_15
REMARK    3  A    between atoms: C_1  and  C_29
REMARK    4  A    between atoms: N_14  and  C_17
REMARK    5  A    between atoms: C_17  and  C_18
REMARK    6  A    between atoms: C_18  and  N_19
REMARK    7  A    between atoms: N_19  and  C_21
REMARK    8  A    between atoms: C_26  and  O_27
REMARK    9  A    between atoms: C_29  and  C_30
REMARK                            x       y       z     vdW  Elec       q    Type
REMARK                         _______ _______ _______ _____ _____    ______ ____
ROOT
ATOM      1  C   UNL     1      -2.338  -0.906  -0.013  0.00  0.00    +0.151 C 
ENDROOT
BRANCH   1   3
ATOM      2  O   UNL     1      -0.083   1.831  -0.943  0.00  0.00    -0.414 OA
ATOM      3  N   UNL     1      -1.654   0.175  -0.691  0.00  0.00    -0.271 N 
ATOM      4  N   UNL     1      -0.014   0.665   1.000  0.00  0.00    -0.356 NA
ATOM      5  C   UNL     1      -0.578   0.857  -0.151  0.00  0.00    +0.345 C 
ATOM      6  C   UNL     1       0.942   2.329  -0.190  0.00  0.00    +0.175 C 
ATOM      7  C   UNL     1       0.981   1.613   0.998  0.00  0.00    +0.152 C 
ATOM      8  C   UNL     1       1.809   3.363  -0.519  0.00  0.00    +0.040 C 
ATOM      9  C   UNL     1       1.956   1.936   1.952  0.00  0.00    +0.088 C 
ATOM     10  C   UNL     1       2.776   3.673   0.443  0.00  0.00    -0.001 C 
ATOM     11  C   UNL     1       2.850   2.975   1.655  0.00  0.00    -0.018 C 
ATOM     12  H   UNL     1      -1.972   0.439  -1.584  0.00  0.00    +0.153 HD
ENDBRANCH   1   3
BRANCH   1  15
ATOM     13  O   UNL     1      -1.230  -2.688  -1.223  0.00  0.00    -0.273 OA
ATOM     14  N   UNL     1      -1.089  -2.658   1.091  0.00  0.00    -0.301 N 
ATOM     15  C   UNL     1      -1.497  -2.169  -0.141  0.00  0.00    +0.240 C 
ATOM     16  H   UNL     1      -1.351  -2.174   1.907  0.00  0.00    +0.150 HD
BRANCH  14  17
ATOM     17  C   UNL     1      -0.291  -3.854   1.215  0.00  0.00    +0.111 C 
BRANCH  17  18
ATOM     18  C   UNL     1       1.200  -3.557   1.182  0.00  0.00    +0.109 C 
BRANCH  18  19
ATOM     19  N   UNL     1       1.562  -2.932  -0.068  0.00  0.00    -0.331 N 
ATOM     20  H   UNL     1       1.040  -3.162  -0.871  0.00  0.00    +0.147 HD
BRANCH  19  21
ATOM     21  C   UNL     1       2.603  -2.027  -0.203  0.00  0.00    +0.045 C 
ATOM     22  C   UNL     1       3.632  -1.962   0.755  0.00  0.00    +0.017 C 
ATOM     23  C   UNL     1       2.658  -1.148  -1.300  0.00  0.00    +0.017 C 
ATOM     24  C   UNL     1       4.679  -1.050   0.620  0.00  0.00    +0.038 C 
ATOM     25  C   UNL     1       3.705  -0.236  -1.435  0.00  0.00    +0.038 C 
ATOM     26  C   UNL     1       4.715  -0.187  -0.475  0.00  0.00    +0.139 C 
BRANCH  26  27
ATOM     27  O   UNL     1       5.737   0.702  -0.608  0.00  0.00    -0.471 OA
ATOM     28  C   UNL     1       5.713   1.554  -1.752  0.00  0.00    +0.252 C 
ENDBRANCH  26  27
ENDBRANCH  19  21
ENDBRANCH  18  19
ENDBRANCH  17  18
ENDBRANCH  14  17
ENDBRANCH   1  15
BRANCH   1  29
ATOM     29  C   UNL     1      -3.720  -1.131  -0.629  0.00  0.00    +0.029 C 
BRANCH  29  30
ATOM     30  C   UNL     1      -4.606   0.110  -0.546  0.00  0.00    +0.002 C 
ATOM     31  C   UNL     1      -4.792   0.547   0.913  0.00  0.00    +0.000 C 
ATOM     32  C   UNL     1      -5.963  -0.146  -1.216  0.00  0.00    +0.000 C 
ATOM     33  C   UNL     1      -5.718   1.756   1.026  0.00  0.00    +0.000 C 
ATOM     34  C   UNL     1      -6.887   1.063  -1.099  0.00  0.00    +0.000 C 
ATOM     35  C   UNL     1      -7.062   1.500   0.352  0.00  0.00    +0.000 C 
ENDBRANCH  29  30
ENDBRANCH   1  29
TORSDOF 9
