REMARK  Name = 9600414
REMARK  4 active torsions:
REMARK  status: ('A' for Active; 'I' for Inactive)
REMARK    1  A    between atoms: C_4  and  S_14
REMARK    2  A    between atoms: C_5  and  C_22
REMARK    3  A    between atoms: S_14  and  C_16
REMARK    4  A    between atoms: C_22  and  C_23
REMARK                            x       y       z     vdW  Elec       q    Type
REMARK                         _______ _______ _______ _____ _____    ______ ____
ROOT
ATOM      1 CL   UNL     1      -3.131  -3.329   1.282  0.00  0.00    -0.082 Cl
ATOM      2  O   UNL     1       3.763  -0.410  -1.490  0.00  0.00    -0.268 OA
ATOM      3  N   UNL     1       2.078  -1.889  -1.077  0.00  0.00    -0.321 N 
ATOM      4  C   UNL     1       0.730   0.111   0.353  0.00  0.00    +0.058 A 
ATOM      5  C   UNL     1       1.927   0.407  -0.201  0.00  0.00    +0.042 A 
ATOM      6  C   UNL     1       0.135  -1.239   0.213  0.00  0.00    +0.024 A 
ATOM      7  C   UNL     1       0.840  -2.209  -0.509  0.00  0.00    +0.059 A 
ATOM      8  C   UNL     1       2.671  -0.653  -0.976  0.00  0.00    +0.254 A 
ATOM      9  C   UNL     1      -1.103  -1.612   0.763  0.00  0.00    +0.013 C 
ATOM     10  C   UNL     1       0.338  -3.505  -0.681  0.00  0.00    +0.018 C 
ATOM     11  C   UNL     1      -1.610  -2.905   0.594  0.00  0.00    +0.058 C 
ATOM     12  C   UNL     1      -0.890  -3.851  -0.128  0.00  0.00    +0.013 C 
ATOM     13  H   UNL     1       2.553  -2.591  -1.580  0.00  0.00    +0.169 HD
ENDROOT
BRANCH   4  14
ATOM     14  S   UNL     1      -0.173   1.360   1.281  0.00  0.00    +0.064 S 
ATOM     15  O   UNL     1      -0.518   0.708   2.582  0.00  0.00    -0.251 OA
BRANCH  14  16
ATOM     16  C   UNL     1      -1.667   1.361   0.223  0.00  0.00    +0.084 C 
ATOM     17  C   UNL     1      -2.701   2.338   0.784  0.00  0.00    +0.014 C 
ATOM     18  C   UNL     1      -1.286   1.713  -1.216  0.00  0.00    +0.014 C 
ATOM     19  C   UNL     1      -3.932   2.422  -0.116  0.00  0.00    +0.001 C 
ATOM     20  C   UNL     1      -2.518   1.798  -2.113  0.00  0.00    +0.001 C 
ATOM     21  C   UNL     1      -3.556   2.767  -1.554  0.00  0.00    +0.000 C 
ENDBRANCH  14  16
ENDBRANCH   4  14
BRANCH   5  22
ATOM     22  C   UNL     1       2.667   1.721  -0.152  0.00  0.00    +0.032 C 
BRANCH  22  23
ATOM     23  C   UNL     1       3.590   1.790   1.055  0.00  0.00    +0.005 C 
ATOM     24  C   UNL     1       4.347   3.109   1.083  0.00  0.00    +0.000 C 
ENDBRANCH  22  23
ENDBRANCH   5  22
TORSDOF 4
