REMARK  Name = 2398
REMARK  6 active torsions:
REMARK  status: ('A' for Active; 'I' for Inactive)
REMARK    1  A    between atoms: C_4  and  C_20
REMARK    2  A    between atoms: C_5  and  C_10
REMARK    3  A    between atoms: N_19  and  C_28
REMARK    4  A    between atoms: C_28  and  C_29
REMARK    5  A    between atoms: C_29  and  C_30
REMARK    6  A    between atoms: C_30  and  N_31
REMARK                            x       y       z     vdW  Elec       q    Type
REMARK                         _______ _______ _______ _____ _____    ______ ____
ROOT
ATOM      1  O   UNL     1      -0.254   4.120  -0.325  0.00  0.00    -0.270 OA
ATOM      2  O   UNL     1      -3.995   1.752  -1.488  0.00  0.00    -0.270 OA
ATOM      3  N   UNL     1      -2.323   3.273  -0.956  0.00  0.00    -0.248 N 
ATOM      4  C   UNL     1      -0.674   1.757  -0.522  0.00  0.00    +0.059 C 
ATOM      5  C   UNL     1      -1.777   1.060  -0.853  0.00  0.00    +0.059 C 
ATOM      6  C   UNL     1      -1.014   3.202  -0.580  0.00  0.00    +0.252 C 
ATOM      7  C   UNL     1      -2.860   2.034  -1.142  0.00  0.00    +0.252 C 
ATOM      8  H   UNL     1      -2.818   4.116  -1.077  0.00  0.00    +0.158 HD
ENDROOT
BRANCH   5  10
ATOM      9  N   UNL     1      -2.036  -2.392  -1.832  0.00  0.00    -0.312 N 
ATOM     10  C   UNL     1      -1.963  -0.353  -0.958  0.00  0.00    +0.020 C 
ATOM     11  C   UNL     1      -2.375  -1.259   0.059  0.00  0.00    +0.015 C 
ATOM     12  C   UNL     1      -2.413  -2.531  -0.515  0.00  0.00    +0.048 C 
ATOM     13  C   UNL     1      -1.762  -1.080  -2.109  0.00  0.00    +0.062 C 
ATOM     14  C   UNL     1      -2.721  -1.118   1.418  0.00  0.00    +0.001 C 
ATOM     15  C   UNL     1      -2.780  -3.674   0.204  0.00  0.00    +0.015 C 
ATOM     16  C   UNL     1      -3.090  -2.253   2.150  0.00  0.00    +0.000 C 
ATOM     17  C   UNL     1      -3.119  -3.510   1.550  0.00  0.00    +0.001 C 
ATOM     18  H   UNL     1      -1.972  -3.130  -2.481  0.00  0.00    +0.152 HD
ENDBRANCH   5  10
BRANCH   4  20
ATOM     19  N   UNL     1       2.730   0.600  -0.314  0.00  0.00    -0.286 N 
ATOM     20  C   UNL     1       0.622   1.284  -0.146  0.00  0.00    +0.021 C 
ATOM     21  C   UNL     1       1.102   0.984   1.162  0.00  0.00    +0.015 C 
ATOM     22  C   UNL     1       2.425   0.557   1.027  0.00  0.00    +0.052 C 
ATOM     23  C   UNL     1       1.649   1.038  -1.031  0.00  0.00    +0.066 C 
ATOM     24  C   UNL     1       0.533   1.035   2.450  0.00  0.00    +0.001 C 
ATOM     25  C   UNL     1       3.211   0.178   2.121  0.00  0.00    +0.015 C 
ATOM     26  C   UNL     1       1.308   0.658   3.553  0.00  0.00    +0.000 C 
ATOM     27  C   UNL     1       2.626   0.237   3.389  0.00  0.00    +0.001 C 
BRANCH  19  28
ATOM     28  C   UNL     1       4.004   0.240  -0.899  0.00  0.00    +0.093 C 
BRANCH  28  29
ATOM     29  C   UNL     1       4.066  -1.240  -1.277  0.00  0.00    -0.002 C 
BRANCH  29  30
ATOM     30  C   UNL     1       5.423  -1.595  -1.880  0.00  0.00    -0.084 C 
BRANCH  30  31
ATOM     31  N   UNL     1       5.458  -3.004  -2.253  0.00  0.00    +0.380 N 
ATOM     32  H   UNL     1       6.369  -3.227  -2.654  0.00  0.00    -0.089 HD
ATOM     33  H   UNL     1       4.729  -3.192  -2.941  0.00  0.00    -0.089 HD
ATOM     34  H   UNL     1       5.301  -3.579  -1.426  0.00  0.00    -0.089 HD
ENDBRANCH  30  31
ENDBRANCH  29  30
ENDBRANCH  28  29
ENDBRANCH  19  28
ENDBRANCH   4  20
TORSDOF 6
