REMARK  Name = 6540267
REMARK  6 active torsions:
REMARK  status: ('A' for Active; 'I' for Inactive)
REMARK    1  A    between atoms: N_1  and  C_24
REMARK    2  A    between atoms: C_2  and  C_12
REMARK    3  A    between atoms: N_11  and  C_15
REMARK    4  A    between atoms: N_14  and  C_21
REMARK    5  A    between atoms: C_24  and  C_25
REMARK    6  A    between atoms: C_28  and  O_31
REMARK                            x       y       z     vdW  Elec       q    Type
REMARK                         _______ _______ _______ _____ _____    ______ ____
ROOT
ATOM      1  N   UNL     1      -2.291   0.677   0.761  0.00  0.00    -0.279 N 
ATOM      2  C   UNL     1      -1.135   1.370   0.781  0.00  0.00    +0.106 C 
ATOM      3  C   UNL     1      -3.183   1.325  -0.062  0.00  0.00    +0.052 C 
ATOM      4  C   UNL     1      -1.225   2.467  -0.005  0.00  0.00    +0.021 C 
ATOM      5  C   UNL     1      -2.536   2.459  -0.558  0.00  0.00    +0.015 C 
ATOM      6  C   UNL     1      -4.501   0.999  -0.402  0.00  0.00    +0.015 C 
ATOM      7  C   UNL     1      -3.236   3.310  -1.436  0.00  0.00    +0.001 C 
ATOM      8  C   UNL     1      -5.176   1.857  -1.275  0.00  0.00    +0.001 C 
ATOM      9  C   UNL     1      -4.555   2.996  -1.785  0.00  0.00    +0.000 C 
ENDROOT
BRANCH   2  12
ATOM     10  O   UNL     1      -0.062   0.351   2.631  0.00  0.00    -0.269 OA
ATOM     11  N   UNL     1       1.276   1.324   1.037  0.00  0.00    -0.302 N 
ATOM     12  C   UNL     1       0.038   0.958   1.563  0.00  0.00    +0.260 C 
ATOM     13  H   UNL     1       1.304   1.808   0.180  0.00  0.00    +0.150 HD
BRANCH  11  15
ATOM     14  N   UNL     1       4.643   0.670  -0.294  0.00  0.00    +0.388 N 
ATOM     15  C   UNL     1       2.519   1.016   1.708  0.00  0.00    +0.068 C 
ATOM     16  C   UNL     1       3.045  -0.359   1.293  0.00  0.00    -0.003 C 
ATOM     17  C   UNL     1       3.575   2.089   1.431  0.00  0.00    -0.003 C 
ATOM     18  C   UNL     1       3.604  -0.357  -0.134  0.00  0.00    -0.076 C 
ATOM     19  C   UNL     1       4.116   2.010   0.000  0.00  0.00    -0.076 C 
ATOM     20  H   UNL     1       5.386   0.471   0.375  0.00  0.00    -0.080 HD
BRANCH  14  21
ATOM     21  C   UNL     1       5.202   0.625  -1.645  0.00  0.00    -0.058 C 
ATOM     22  C   UNL     1       6.310   1.667  -1.770  0.00  0.00    -0.023 C 
ATOM     23  C   UNL     1       5.728  -0.774  -1.954  0.00  0.00    -0.023 C 
ENDBRANCH  14  21
ENDBRANCH  11  15
ENDBRANCH   2  12
BRANCH   1  24
ATOM     24  C   UNL     1      -2.566  -0.550   1.479  0.00  0.00    +0.122 C 
BRANCH  24  25
ATOM     25  C   UNL     1      -2.204  -1.746   0.657  0.00  0.00    +0.001 C 
ATOM     26  C   UNL     1      -0.921  -2.280   0.738  0.00  0.00    +0.034 C 
ATOM     27  C   UNL     1      -3.153  -2.320  -0.186  0.00  0.00    -0.002 C 
ATOM     28  C   UNL     1      -0.583  -3.396  -0.029  0.00  0.00    +0.138 C 
ATOM     29  C   UNL     1      -2.815  -3.435  -0.953  0.00  0.00    +0.003 C 
ATOM     30  C   UNL     1      -1.530  -3.973  -0.874  0.00  0.00    +0.037 C 
BRANCH  28  31
ATOM     31  O   UNL     1       0.670  -3.920   0.047  0.00  0.00    -0.471 OA
ATOM     32  C   UNL     1       0.948  -5.060  -0.765  0.00  0.00    +0.252 C 
ENDBRANCH  28  31
ENDBRANCH  24  25
ENDBRANCH   1  24
TORSDOF 6
