REMARK  Name = 9934347
REMARK  5 active torsions:
REMARK  status: ('A' for Active; 'I' for Inactive)
REMARK    1  A    between atoms: N_2  and  C_16
REMARK    2  A    between atoms: N_3  and  C_26
REMARK    3  A    between atoms: C_12  and  N_19
REMARK    4  A    between atoms: C_15  and  O_24
REMARK    5  A    between atoms: C_27  and  C_34
REMARK                            x       y       z     vdW  Elec       q    Type
REMARK                         _______ _______ _______ _____ _____    ______ ____
ROOT
ATOM      1 CL   UNL     1      -5.184  -2.719   0.055  0.00  0.00    -0.076 Cl
ATOM      2  N   UNL     1       0.603  -2.888  -0.461  0.00  0.00    -0.244 N 
ATOM      3  N   UNL     1      -3.313  -0.342   0.152  0.00  0.00    -0.286 N 
ATOM      4  N   UNL     1      -1.344  -1.613  -0.155  0.00  0.00    -0.321 NA
ATOM      5  N   UNL     1      -1.459  -4.008  -0.405  0.00  0.00    -0.169 NA
ATOM      6  C   UNL     1      -0.798  -2.834  -0.334  0.00  0.00    +0.150 C 
ATOM      7  C   UNL     1      -2.688  -1.598  -0.038  0.00  0.00    +0.209 C 
ATOM      8  C   UNL     1      -3.475  -2.730  -0.093  0.00  0.00    +0.122 C 
ATOM      9  C   UNL     1      -2.799  -3.919  -0.280  0.00  0.00    +0.127 C 
ATOM     10  H   UNL     1       0.953  -3.799  -0.591  0.00  0.00    +0.165 HD
ATOM     11  H   UNL     1      -4.224  -0.291  -0.218  0.00  0.00    +0.155 HD
ENDROOT
BRANCH   2  16
ATOM     12  C   UNL     1       3.580   0.116  -0.403  0.00  0.00    +0.051 C 
ATOM     13  C   UNL     1       3.864  -1.190   0.044  0.00  0.00    +0.053 C 
ATOM     14  C   UNL     1       2.278   0.387  -0.868  0.00  0.00    +0.016 C 
ATOM     15  C   UNL     1       2.886  -2.184   0.027  0.00  0.00    +0.154 C 
ATOM     16  C   UNL     1       1.603  -1.892  -0.438  0.00  0.00    +0.092 C 
ATOM     17  C   UNL     1       1.300  -0.606  -0.886  0.00  0.00    +0.020 C 
BRANCH  12  19
ATOM     18  O   UNL     1       6.567   3.058  -0.082  0.00  0.00    -0.350 OA
ATOM     19  N   UNL     1       4.561   1.113  -0.386  0.00  0.00    -0.303 N 
ATOM     20  C   UNL     1       5.974   0.752  -0.547  0.00  0.00    +0.123 C 
ATOM     21  C   UNL     1       4.312   2.318   0.417  0.00  0.00    +0.123 C 
ATOM     22  C   UNL     1       6.771   1.975  -0.988  0.00  0.00    +0.164 C 
ATOM     23  C   UNL     1       5.196   3.457  -0.077  0.00  0.00    +0.164 C 
ENDBRANCH  12  19
BRANCH  15  24
ATOM     24  O   UNL     1       3.202  -3.434   0.468  0.00  0.00    -0.470 OA
ATOM     25  C   UNL     1       3.001  -3.701   1.854  0.00  0.00    +0.253 C 
ENDBRANCH  15  24
ENDBRANCH   2  16
BRANCH   3  26
ATOM     26  C   UNL     1      -2.885   0.847   0.766  0.00  0.00    +0.054 C 
ATOM     27  C   UNL     1      -3.349   2.094   0.334  0.00  0.00    +0.067 C 
ATOM     28  C   UNL     1      -1.978   0.782   1.829  0.00  0.00    +0.015 C 
ATOM     29  C   UNL     1      -2.912   3.262   0.958  0.00  0.00    +0.006 C 
ATOM     30  C   UNL     1      -1.540   1.951   2.453  0.00  0.00    +0.001 C 
ATOM     31  C   UNL     1      -2.008   3.191   2.018  0.00  0.00    +0.000 C 
BRANCH  27  34
ATOM     32  O   UNL     1      -4.310   1.347  -1.670  0.00  0.00    -0.270 OA
ATOM     33  N   UNL     1      -5.176   3.288  -0.743  0.00  0.00    -0.299 N 
ATOM     34  C   UNL     1      -4.295   2.203  -0.770  0.00  0.00    +0.247 C 
ATOM     35  C   UNL     1      -6.185   3.519  -1.751  0.00  0.00    +0.111 C 
ATOM     36  H   UNL     1      -5.106   3.927   0.002  0.00  0.00    +0.150 HD
ENDBRANCH  27  34
ENDBRANCH   3  26
TORSDOF 5
