44141864
  -OEChem-12231916143D

 48 51  0     1  0  0  0  0  0999 V2000
   -3.0064   -0.4494    0.4220 O   0  0  0  0  0  0  0  0  0  0  0  0
   -3.2953    2.0594   -0.5123 O   0  0  0  0  0  0  0  0  0  0  0  0
   -1.1813    3.8385   -0.4644 O   0  0  0  0  0  0  0  0  0  0  0  0
    4.8057   -0.9585   -0.1538 N   0  0  0  0  0  0  0  0  0  0  0  0
    3.0525   -0.7019   -1.7870 N   0  0  0  0  0  0  0  0  0  0  0  0
    4.4414   -0.3194    2.1006 N   0  0  0  0  0  0  0  0  0  0  0  0
    5.1425   -1.5811   -2.3911 N   0  0  0  0  0  0  0  0  0  0  0  0
   -3.0997   -2.6204   -0.5597 C   0  0  0  0  0  0  0  0  0  0  0  0
   -4.5162   -2.8010   -1.0204 C   0  0  0  0  0  0  0  0  0  0  0  0
   -3.7504   -3.9700   -0.4737 C   0  0  0  0  0  0  0  0  0  0  0  0
   -2.8294   -1.8523    0.7073 C   0  0  1  0  0  0  0  0  0  0  0  0
   -1.5307   -2.2275    1.3728 C   0  0  0  0  0  0  0  0  0  0  0  0
   -1.9111    0.3681    0.4658 C   0  0  0  0  0  0  0  0  0  0  0  0
   -0.5124   -1.3753    1.5058 C   0  0  0  0  0  0  0  0  0  0  0  0
   -0.6749   -0.0293    0.9815 C   0  0  0  0  0  0  0  0  0  0  0  0
    0.3873    0.8818    1.0049 C   0  0  0  0  0  0  0  0  0  0  0  0
   -2.0866    1.6678   -0.0158 C   0  0  0  0  0  0  0  0  0  0  0  0
    1.7367    0.5204    1.5412 C   0  0  0  0  0  0  0  0  0  0  0  0
    0.2124    2.1772    0.5156 C   0  0  0  0  0  0  0  0  0  0  0  0
   -1.0239    2.5700    0.0065 C   0  0  0  0  0  0  0  0  0  0  0  0
    2.6742   -0.0507    0.4993 C   0  0  0  0  0  0  0  0  0  0  0  0
    3.9665   -0.4501    0.7724 C   0  0  0  0  0  0  0  0  0  0  0  0
   -3.5150    1.8630   -1.9070 C   0  0  0  0  0  0  0  0  0  0  0  0
    2.2671   -0.2013   -0.8107 C   0  0  0  0  0  0  0  0  0  0  0  0
   -0.0441    4.6975   -0.4051 C   0  0  0  0  0  0  0  0  0  0  0  0
    4.2912   -1.0552   -1.3946 C   0  0  0  0  0  0  0  0  0  0  0  0
   -2.3443   -2.4650   -1.3211 H   0  0  0  0  0  0  0  0  0  0  0  0
   -4.7060   -2.7765   -2.0866 H   0  0  0  0  0  0  0  0  0  0  0  0
   -5.3170   -2.3953   -0.4147 H   0  0  0  0  0  0  0  0  0  0  0  0
   -4.0395   -4.3508    0.4981 H   0  0  0  0  0  0  0  0  0  0  0  0
   -3.4249   -4.7309   -1.1724 H   0  0  0  0  0  0  0  0  0  0  0  0
   -3.6168   -2.0837    1.4371 H   0  0  0  0  0  0  0  0  0  0  0  0
   -1.4279   -3.2421    1.7478 H   0  0  0  0  0  0  0  0  0  0  0  0
    0.3986   -1.7135    1.9785 H   0  0  0  0  0  0  0  0  0  0  0  0
    2.2015    1.4323    1.9432 H   0  0  0  0  0  0  0  0  0  0  0  0
    1.6651   -0.1490    2.4045 H   0  0  0  0  0  0  0  0  0  0  0  0
    1.0720    2.8380    0.5534 H   0  0  0  0  0  0  0  0  0  0  0  0
    1.2834    0.0670   -1.1762 H   0  0  0  0  0  0  0  0  0  0  0  0
   -4.5199    2.2197   -2.1490 H   0  0  0  0  0  0  0  0  0  0  0  0
   -3.4511    0.8003   -2.1619 H   0  0  0  0  0  0  0  0  0  0  0  0
   -2.7903    2.4340   -2.4959 H   0  0  0  0  0  0  0  0  0  0  0  0
   -0.3492    5.6637   -0.8206 H   0  0  0  0  0  0  0  0  0  0  0  0
    0.7747    4.3278   -1.0319 H   0  0  0  0  0  0  0  0  0  0  0  0
    0.2697    4.8820    0.6280 H   0  0  0  0  0  0  0  0  0  0  0  0
    4.0873    0.4353    2.6743 H   0  0  0  0  0  0  0  0  0  0  0  0
    5.3909   -0.6284    2.2714 H   0  0  0  0  0  0  0  0  0  0  0  0
    4.8017   -1.6725   -3.3381 H   0  0  0  0  0  0  0  0  0  0  0  0
    6.0823   -1.8599   -2.1454 H   0  0  0  0  0  0  0  0  0  0  0  0
  1 11  1  0  0  0  0
  1 13  1  0  0  0  0
  2 17  1  0  0  0  0
  2 23  1  0  0  0  0
  3 20  1  0  0  0  0
  3 25  1  0  0  0  0
  4 22  2  0  0  0  0
  4 26  1  0  0  0  0
  5 24  1  0  0  0  0
  5 26  2  0  0  0  0
  6 22  1  0  0  0  0
  6 45  1  0  0  0  0
  6 46  1  0  0  0  0
  7 26  1  0  0  0  0
  7 47  1  0  0  0  0
  7 48  1  0  0  0  0
  8  9  1  0  0  0  0
  8 10  1  0  0  0  0
  8 11  1  0  0  0  0
  8 27  1  0  0  0  0
  9 10  1  0  0  0  0
  9 28  1  0  0  0  0
  9 29  1  0  0  0  0
 10 30  1  0  0  0  0
 10 31  1  0  0  0  0
 11 12  1  0  0  0  0
 11 32  1  0  0  0  0
 12 14  2  0  0  0  0
 12 33  1  0  0  0  0
 13 15  2  0  0  0  0
 13 17  1  0  0  0  0
 14 15  1  0  0  0  0
 14 34  1  0  0  0  0
 15 16  1  0  0  0  0
 16 18  1  0  0  0  0
 16 19  2  0  0  0  0
 17 20  2  0  0  0  0
 18 21  1  0  0  0  0
 18 35  1  0  0  0  0
 18 36  1  0  0  0  0
 19 20  1  0  0  0  0
 19 37  1  0  0  0  0
 21 22  1  0  0  0  0
 21 24  2  0  0  0  0
 23 39  1  0  0  0  0
 23 40  1  0  0  0  0
 23 41  1  0  0  0  0
 24 38  1  0  0  0  0
 25 42  1  0  0  0  0
 25 43  1  0  0  0  0
 25 44  1  0  0  0  0
M  END
> <DATABASE_ID>
DB07938

> <DATABASE_NAME>
drugbank

> <ORIGINAL_SOURCE>
PUBCHEM

> <ORIGINAL_SOURCE_URL>
https://pubchem.ncbi.nlm.nih.gov/rest/pug/compound/inchikey/HWJPWWYTGBZDEG-CQSZACIVSA-N/SDF?record_type=3d

> <SMILES>
[H][C@]1(OC2=C(C=C1)C(CC1=CN=C(N)N=C1N)=CC(OC)=C2OC)C1CC1

> <INCHI_IDENTIFIER>
InChI=1S/C19H22N4O3/c1-24-15-8-11(7-12-9-22-19(21)23-18(12)20)13-5-6-14(10-3-4-10)26-16(13)17(15)25-2/h5-6,8-10,14H,3-4,7H2,1-2H3,(H4,20,21,22,23)/t14-/m1/s1

> <INCHI_KEY>
HWJPWWYTGBZDEG-CQSZACIVSA-N

> <FORMULA>
C19H22N4O3

> <MOLECULAR_WEIGHT>
354.403

> <EXACT_MASS>
354.16919059

> <JCHEM_ACCEPTOR_COUNT>
7

> <JCHEM_ATOM_COUNT>
48

> <JCHEM_AVERAGE_NEUTRAL_MICROSPECIES_CHARGE>
0.9341218081337462

> <JCHEM_AVERAGE_POLARIZABILITY>
37.730009577591204

> <JCHEM_BIOAVAILABILITY>
1

> <JCHEM_DONOR_COUNT>
2

> <JCHEM_FORMAL_CHARGE>
0

> <JCHEM_GHOSE_FILTER>
1

> <JCHEM_IUPAC>
5-{[(2S)-2-cyclopropyl-7,8-dimethoxy-2H-chromen-5-yl]methyl}pyrimidine-2,4-diamine

> <ALOGPS_LOGP>
2.35

> <JCHEM_LOGP>
2.4853946479999998

> <ALOGPS_LOGS>
-3.40

> <JCHEM_MDDR_LIKE_RULE>
0

> <JCHEM_NEUTRAL_CHARGE>
1

> <JCHEM_NUMBER_OF_RINGS>
4

> <JCHEM_PHYSIOLOGICAL_CHARGE>
1

> <JCHEM_PKA_STRONGEST_ACIDIC>
17.32292783046178

> <JCHEM_PKA_STRONGEST_BASIC>
7.153362557172137

> <JCHEM_POLAR_SURFACE_AREA>
105.51

> <JCHEM_REFRACTIVITY>
101.9948

> <JCHEM_ROTATABLE_BOND_COUNT>
5

> <JCHEM_RULE_OF_FIVE>
1

> <ALOGPS_SOLUBILITY>
1.42e-01 g/l

> <JCHEM_TRADITIONAL_IUPAC>
darolutamide

> <JCHEM_VEBER_RULE>
0

> <DRUGBANK_ID>
DB07938

> <DRUG_GROUPS>
experimental

> <GENERIC_NAME>
(S)-iclaprim

$$$$
