REMARK  Name = 445480
REMARK  5 active torsions:
REMARK  status: ('A' for Active; 'I' for Inactive)
REMARK    1  A    between atoms: N_2  and  C_21
REMARK    2  A    between atoms: C_3  and  N_7
REMARK    3  A    between atoms: N_7  and  S_9
REMARK    4  A    between atoms: S_9  and  C_14
REMARK    5  A    between atoms: C_21  and  C_24
REMARK                            x       y       z     vdW  Elec       q    Type
REMARK                         _______ _______ _______ _____ _____    ______ ____
ROOT
ATOM      1  O   UNL     1      -0.727  -3.334  -0.226  0.00  0.00    -0.273 OA
ATOM      2  N   UNL     1      -1.030  -1.285  -1.340  0.00  0.00    -0.274 N 
ATOM      3  C   UNL     1       0.914  -1.547  -0.082  0.00  0.00    +0.153 C 
ATOM      4  C   UNL     1       1.099  -0.405  -1.074  0.00  0.00    +0.048 C 
ATOM      5  C   UNL     1      -0.321  -0.032  -1.456  0.00  0.00    +0.096 C 
ATOM      6  C   UNL     1      -0.361  -2.211  -0.540  0.00  0.00    +0.242 C 
ENDROOT
BRANCH   3   7
ATOM      7  N   UNL     1       2.021  -2.506  -0.168  0.00  0.00    -0.171 NA
ATOM      8  H   UNL     1       1.628  -3.437  -0.026  0.00  0.00    +0.149 HD
BRANCH   7   9
ATOM      9  S   UNL     1       3.327  -2.332   0.929  0.00  0.00    +0.066 S 
ATOM     10  O   UNL     1       4.372  -3.277   0.582  0.00  0.00    -0.152 OA
ATOM     11  O   UNL     1       2.805  -2.249   2.279  0.00  0.00    -0.152 OA
BRANCH   9  14
ATOM     12  S   UNL     1       4.857  -0.571  -0.826  0.00  0.00    -0.066 S 
ATOM     13  N   UNL     1       4.929   2.726   1.238  0.00  0.00    -0.243 NA
ATOM     14  C   UNL     1       4.038  -0.710   0.650  0.00  0.00    +0.153 C 
ATOM     15  C   UNL     1       4.041   0.417   1.397  0.00  0.00    +0.046 C 
ATOM     16  C   UNL     1       4.749   1.470   0.744  0.00  0.00    +0.089 C 
ATOM     17  C   UNL     1       5.255   1.068  -0.493  0.00  0.00    +0.048 C 
ATOM     18  C   UNL     1       5.981   1.972  -1.282  0.00  0.00    +0.010 C 
ATOM     19  C   UNL     1       6.168   3.254  -0.783  0.00  0.00    +0.021 C 
ATOM     20  C   UNL     1       5.632   3.567   0.453  0.00  0.00    +0.099 C 
ENDBRANCH   9  14
ENDBRANCH   7   9
ENDBRANCH   3   7
BRANCH   2  21
ATOM     21  C   UNL     1      -2.349  -1.464  -1.907  0.00  0.00    +0.120 C 
BRANCH  21  24
ATOM     22  N   UNL     1      -6.184   2.690   0.626  0.00  0.00    -0.230 NA
ATOM     23  N   UNL     1      -4.694   3.079  -1.155  0.00  0.00    -0.343 N 
ATOM     24  C   UNL     1      -3.402  -0.950  -0.965  0.00  0.00    -0.002 C 
ATOM     25  C   UNL     1      -3.808   0.375  -1.048  0.00  0.00    +0.000 C 
ATOM     26  C   UNL     1      -3.953  -1.806  -0.023  0.00  0.00    -0.003 C 
ATOM     27  C   UNL     1      -4.790   0.863  -0.170  0.00  0.00    +0.031 C 
ATOM     28  C   UNL     1      -5.359   0.003   0.793  0.00  0.00    +0.004 C 
ATOM     29  C   UNL     1      -4.929  -1.333   0.855  0.00  0.00    -0.000 C 
ATOM     30  C   UNL     1      -5.242   2.183  -0.201  0.00  0.00    +0.125 C 
ATOM     31  C   UNL     1      -6.336   0.508   1.659  0.00  0.00    +0.021 C 
ATOM     32  C   UNL     1      -6.706   1.838   1.534  0.00  0.00    +0.100 C 
ATOM     33  H   UNL     1      -5.003   4.013  -1.188  0.00  0.00    +0.144 HD
ATOM     34  H   UNL     1      -4.004   2.766  -1.784  0.00  0.00    +0.144 HD
ENDBRANCH  21  24
ENDBRANCH   2  21
TORSDOF 5
