REMARK  Name = 16040279
REMARK  5 active torsions:
REMARK  status: ('A' for Active; 'I' for Inactive)
REMARK    1  A    between atoms: N_2  and  C_21
REMARK    2  A    between atoms: C_3  and  C_11
REMARK    3  A    between atoms: C_4  and  N_17
REMARK    4  A    between atoms: C_21  and  C_22
REMARK    5  A    between atoms: C_22  and  C_25
REMARK                            x       y       z     vdW  Elec       q    Type
REMARK                         _______ _______ _______ _____ _____    ______ ____
ROOT
ATOM      1  O   UNL     1      -0.086   2.593  -0.116  0.00  0.00    -0.275 OA
ATOM      2  N   UNL     1      -0.297   0.322  -0.546  0.00  0.00    -0.281 N 
ATOM      3  C   UNL     1       2.441  -0.042   0.247  0.00  0.00    +0.015 C 
ATOM      4  C   UNL     1       1.772  -1.097  -0.652  0.00  0.00    -0.041 C 
ATOM      5  C   UNL     1       0.261  -1.025  -0.443  0.00  0.00    +0.072 C 
ATOM      6  C   UNL     1       1.930   1.341  -0.166  0.00  0.00    +0.088 C 
ATOM      7  C   UNL     1       0.421   1.475  -0.240  0.00  0.00    +0.226 C 
ENDROOT
BRANCH   3  11
ATOM      8  F   UNL     1       4.030  -0.488   2.556  0.00  0.00    -0.204 F 
ATOM      9  F   UNL     1       6.677   0.311  -2.163  0.00  0.00    -0.202 F 
ATOM     10  F   UNL     1       8.083  -0.130   0.140  0.00  0.00    -0.202 F 
ATOM     11  C   UNL     1       3.961  -0.066   0.221  0.00  0.00    +0.006 C 
ATOM     12  C   UNL     1       4.672  -0.291   1.396  0.00  0.00    +0.138 C 
ATOM     13  C   UNL     1       4.632   0.138  -0.981  0.00  0.00    +0.030 C 
ATOM     14  C   UNL     1       6.027   0.116  -1.009  0.00  0.00    +0.167 C 
ATOM     15  C   UNL     1       6.067  -0.312   1.369  0.00  0.00    +0.061 C 
ATOM     16  C   UNL     1       6.744  -0.109   0.166  0.00  0.00    +0.170 C 
ENDBRANCH   3  11
BRANCH   4  17
ATOM     17  N   UNL     1       2.218  -2.455  -0.332  0.00  0.00    +0.383 N 
ATOM     18  H   UNL     1       3.227  -2.522  -0.466  0.00  0.00    -0.089 HD
ATOM     19  H   UNL     1       1.748  -3.121  -0.947  0.00  0.00    -0.089 HD
ATOM     20  H   UNL     1       1.989  -2.669   0.639  0.00  0.00    -0.089 HD
ENDBRANCH   4  17
BRANCH   2  21
ATOM     21  C   UNL     1      -1.741   0.400  -0.725  0.00  0.00    +0.098 C 
BRANCH  21  22
ATOM     22  C   UNL     1      -2.505   0.197   0.582  0.00  0.00    +0.048 C 
BRANCH  22  25
ATOM     23  O   UNL     1      -6.907  -1.856  -0.305  0.00  0.00    -0.435 OA
ATOM     24  O   UNL     1      -8.059   0.251  -0.106  0.00  0.00    -0.435 OA
ATOM     25  C   UNL     1      -4.002   0.248   0.403  0.00  0.00    -0.017 C 
ATOM     26  C   UNL     1      -4.691  -0.925   0.126  0.00  0.00    +0.036 C 
ATOM     27  C   UNL     1      -4.657   1.477   0.520  0.00  0.00    -0.001 C 
ATOM     28  C   UNL     1      -6.059  -0.828  -0.030  0.00  0.00    +0.176 C 
ATOM     29  C   UNL     1      -6.717   0.376   0.083  0.00  0.00    +0.176 C 
ATOM     30  C   UNL     1      -6.043   1.548   0.358  0.00  0.00    +0.040 C 
ATOM     31  C   UNL     1      -8.172  -1.165  -0.351  0.00  0.00    +0.429 C 
ENDBRANCH  22  25
ENDBRANCH  21  22
ENDBRANCH   2  21
TORSDOF 5
