REMARK  Name = 6540277
REMARK  8 active torsions:
REMARK  status: ('A' for Active; 'I' for Inactive)
REMARK    1  A    between atoms: N_1  and  C_22
REMARK    2  A    between atoms: C_2  and  O_8
REMARK    3  A    between atoms: O_8  and  C_9
REMARK    4  A    between atoms: C_9  and  C_10
REMARK    5  A    between atoms: C_9  and  C_16
REMARK    6  A    between atoms: C_22  and  C_23
REMARK    7  A    between atoms: C_23  and  C_24
REMARK    8  A    between atoms: C_24  and  C_29
REMARK                            x       y       z     vdW  Elec       q    Type
REMARK                         _______ _______ _______ _____ _____    ______ ____
ROOT
ATOM      1  N   UNL     1       1.901  -1.558  -0.341  0.00  0.00    +0.387 N 
ATOM      2  C   UNL     1      -0.899  -1.453   0.527  0.00  0.00    +0.112 C 
ATOM      3  C   UNL     1      -0.362  -2.563  -0.375  0.00  0.00    +0.007 C 
ATOM      4  C   UNL     1       0.229  -0.793   1.317  0.00  0.00    +0.007 C 
ATOM      5  C   UNL     1       0.845  -2.107  -1.202  0.00  0.00    -0.075 C 
ATOM      6  C   UNL     1       1.413  -0.404   0.427  0.00  0.00    -0.075 C 
ATOM      7  H   UNL     1       2.175  -2.283   0.322  0.00  0.00    -0.080 HD
ENDROOT
BRANCH   2   8
ATOM      8  O   UNL     1      -1.589  -0.478  -0.252  0.00  0.00    -0.350 OA
BRANCH   8   9
ATOM      9  C   UNL     1      -2.651   0.117   0.481  0.00  0.00    +0.160 C 
BRANCH   9  10
ATOM     10  C   UNL     1      -2.815   1.567   0.074  0.00  0.00    +0.009 C 
ATOM     11  C   UNL     1      -3.289   2.478   1.001  0.00  0.00    -0.002 C 
ATOM     12  C   UNL     1      -2.486   1.948  -1.215  0.00  0.00    -0.002 C 
ATOM     13  C   UNL     1      -3.440   3.813   0.627  0.00  0.00    -0.000 C 
ATOM     14  C   UNL     1      -2.636   3.283  -1.589  0.00  0.00    -0.000 C 
ATOM     15  C   UNL     1      -3.113   4.216  -0.668  0.00  0.00    -0.000 C 
ENDBRANCH   9  10
BRANCH   9  16
ATOM     16  C   UNL     1      -3.936  -0.679   0.356  0.00  0.00    +0.009 C 
ATOM     17  C   UNL     1      -4.840  -0.663   1.402  0.00  0.00    -0.002 C 
ATOM     18  C   UNL     1      -4.171  -1.399  -0.800  0.00  0.00    -0.002 C 
ATOM     19  C   UNL     1      -6.022  -1.396   1.288  0.00  0.00    -0.000 C 
ATOM     20  C   UNL     1      -5.353  -2.131  -0.914  0.00  0.00    -0.000 C 
ATOM     21  C   UNL     1      -6.279  -2.129   0.130  0.00  0.00    -0.000 C 
ENDBRANCH   9  16
ENDBRANCH   8   9
ENDBRANCH   2   8
BRANCH   1  22
ATOM     22  C   UNL     1       3.069  -1.185  -1.139  0.00  0.00    -0.076 C 
BRANCH  22  23
ATOM     23  C   UNL     1       4.208  -0.727  -0.230  0.00  0.00    -0.007 C 
BRANCH  23  24
ATOM     24  C   UNL     1       5.450  -0.352  -1.046  0.00  0.00    +0.100 C 
BRANCH  24  29
ATOM     25  N   UNL     1       7.472  -0.687   0.316  0.00  0.00    -0.114 NA
ATOM     26  N   UNL     1       6.714   1.439   0.128  0.00  0.00    -0.091 NA
ATOM     27  N   UNL     1       8.209   0.216   0.978  0.00  0.00    -0.140 N 
ATOM     28  N   UNL     1       7.797   1.489   0.894  0.00  0.00    -0.022 NA
ATOM     29  C   UNL     1       6.573   0.138  -0.180  0.00  0.00    +0.050 C 
ATOM     30  H   UNL     1       9.007  -0.040   1.495  0.00  0.00    +0.197 HD
ENDBRANCH  24  29
ENDBRANCH  23  24
ENDBRANCH  22  23
ENDBRANCH   1  22
TORSDOF 8
