REMARK  Name = 16086422
REMARK  11 active torsions:
REMARK  status: ('A' for Active; 'I' for Inactive)
REMARK    1  A    between atoms: C_1  and  C_19
REMARK    2  A    between atoms: C_3  and  C_7
REMARK    3  A    between atoms: C_9  and  C_13
REMARK    4  A    between atoms: C_19  and  C_20
REMARK    5  A    between atoms: C_20  and  P_21
REMARK    6  A    between atoms: C_20  and  P_27
REMARK    7  A    between atoms: C_20  and  O_33
REMARK    8  A    between atoms: P_21  and  O_23
REMARK    9  A    between atoms: P_21  and  O_25
REMARK   10  A    between atoms: P_27  and  O_29
REMARK   11  A    between atoms: P_27  and  O_31
REMARK                            x       y       z     vdW  Elec       q    Type
REMARK                         _______ _______ _______ _____ _____    ______ ____
ROOT
ATOM      1  C   UNL     1      -2.007  -1.620   0.396  0.00  0.00    -0.019 C 
ATOM      2  C   UNL     1      -0.648  -1.358   0.491  0.00  0.00    -0.004 C 
ATOM      3  C   UNL     1       0.265  -2.299   0.016  0.00  0.00    -0.000 C 
ATOM      4  C   UNL     1      -2.473  -2.800  -0.163  0.00  0.00    -0.004 C 
ATOM      5  C   UNL     1      -0.190  -3.490  -0.548  0.00  0.00    -0.000 C 
ATOM      6  C   UNL     1      -1.559  -3.741  -0.638  0.00  0.00    -0.000 C 
ENDROOT
BRANCH   3   7
ATOM      7  C   UNL     1       1.686  -2.040   0.110  0.00  0.00    -0.000 C 
ATOM      8  C   UNL     1       2.161  -0.729   0.059  0.00  0.00    -0.000 C 
ATOM      9  C   UNL     1       3.530  -0.480   0.148  0.00  0.00    -0.000 C 
ATOM     10  C   UNL     1       2.580  -3.101   0.250  0.00  0.00    -0.000 C 
ATOM     11  C   UNL     1       4.425  -1.542   0.288  0.00  0.00    +0.000 C 
ATOM     12  C   UNL     1       3.950  -2.852   0.339  0.00  0.00    -0.000 C 
BRANCH   9  13
ATOM     13  C   UNL     1       4.025   0.878   0.095  0.00  0.00    +0.000 C 
ATOM     14  C   UNL     1       4.172   1.614   1.271  0.00  0.00    +0.000 C 
ATOM     15  C   UNL     1       4.355   1.453  -1.133  0.00  0.00    +0.000 C 
ATOM     16  C   UNL     1       4.649   2.924   1.220  0.00  0.00    +0.000 C 
ATOM     17  C   UNL     1       4.832   2.763  -1.184  0.00  0.00    +0.000 C 
ATOM     18  C   UNL     1       4.979   3.498  -0.007  0.00  0.00    +0.000 C 
ENDBRANCH   9  13
ENDBRANCH   3   7
BRANCH   1  19
ATOM     19  C   UNL     1      -2.995  -0.603   0.909  0.00  0.00    +0.077 C 
BRANCH  19  20
ATOM     20  C   UNL     1      -3.482   0.469  -0.098  0.00  0.00    +0.279 C 
BRANCH  20  21
ATOM     21  P   UNL     1      -4.915   1.341   0.682  0.00  0.00    +0.372 P 
ATOM     22  O   UNL     1      -6.079   0.456   1.020  0.00  0.00    -0.255 OA
BRANCH  21  23
ATOM     23  O   UNL     1      -5.247   2.545  -0.343  0.00  0.00    -0.322 OA
ATOM     24  H   UNL     1      -5.997   3.060  -0.005  0.00  0.00    +0.220 HD
ENDBRANCH  21  23
BRANCH  21  25
ATOM     25  O   UNL     1      -4.237   2.097   1.940  0.00  0.00    -0.322 OA
ATOM     26  H   UNL     1      -4.916   2.592   2.424  0.00  0.00    +0.220 HD
ENDBRANCH  21  25
ENDBRANCH  20  21
BRANCH  20  27
ATOM     27  P   UNL     1      -2.124   1.409  -0.876  0.00  0.00    +0.372 P 
ATOM     28  O   UNL     1      -1.143   0.591  -1.663  0.00  0.00    -0.255 OA
BRANCH  27  29
ATOM     29  O   UNL     1      -2.886   2.546  -1.736  0.00  0.00    -0.322 OA
ATOM     30  H   UNL     1      -2.233   3.100  -2.190  0.00  0.00    +0.220 HD
ENDBRANCH  27  29
BRANCH  27  31
ATOM     31  O   UNL     1      -1.496   2.244   0.356  0.00  0.00    -0.322 OA
ATOM     32  H   UNL     1      -0.755   2.783   0.038  0.00  0.00    +0.220 HD
ENDBRANCH  27  31
ENDBRANCH  20  27
BRANCH  20  33
ATOM     33  O   UNL     1      -4.125  -0.171  -1.201  0.00  0.00    -0.366 OA
ATOM     34  H   UNL     1      -4.430   0.500  -1.832  0.00  0.00    +0.212 HD
ENDBRANCH  20  33
ENDBRANCH  19  20
ENDBRANCH   1  19
TORSDOF 11
