REMARK  Name = 4112111
REMARK  10 active torsions:
REMARK  status: ('A' for Active; 'I' for Inactive)
REMARK    1  A    between atoms: C_1  and  C_2
REMARK    2  A    between atoms: C_1  and  C_9
REMARK    3  A    between atoms: C_2  and  C_3
REMARK    4  A    between atoms: C_3  and  C_4
REMARK    5  A    between atoms: C_4  and  N_6
REMARK    6  A    between atoms: C_9  and  C_10
REMARK    7  A    between atoms: C_10  and  C_11
REMARK    8  A    between atoms: C_11  and  C_12
REMARK    9  A    between atoms: C_12  and  C_13
REMARK   10  A    between atoms: C_13  and  C_14
REMARK                            x       y       z     vdW  Elec       q    Type
REMARK                         _______ _______ _______ _____ _____    ______ ____
ROOT
ATOM      1  C   UNL     1       0.447   0.317  -0.056  0.00  0.00    -0.000 C 
ENDROOT
BRANCH   1   2
ATOM      2  C   UNL     1       1.674  -0.591  -0.168  0.00  0.00    -0.002 C 
BRANCH   2   3
ATOM      3  C   UNL     1       2.998   0.167  -0.066  0.00  0.00    -0.017 C 
BRANCH   3   4
ATOM      4  C   UNL     1       4.214  -0.744  -0.103  0.00  0.00    -0.028 C 
BRANCH   4   6
ATOM      5  O   UNL     1       5.268   1.009   1.041  0.00  0.00    -0.290 OA
ATOM      6  N   UNL     1       5.454   0.048   0.071  0.00  0.00    +0.428 N 
ATOM      7  C   UNL     1       6.594  -0.846   0.494  0.00  0.00    -0.045 C 
ATOM      8  C   UNL     1       5.825   0.736  -1.219  0.00  0.00    -0.045 C 
ENDBRANCH   4   6
ENDBRANCH   3   4
ENDBRANCH   2   3
ENDBRANCH   1   2
BRANCH   1   9
ATOM      9  C   UNL     1      -0.849  -0.496  -0.095  0.00  0.00    -0.000 C 
BRANCH   9  10
ATOM     10  C   UNL     1      -2.078   0.413  -0.014  0.00  0.00    -0.000 C 
BRANCH  10  11
ATOM     11  C   UNL     1      -3.373  -0.400  -0.087  0.00  0.00    +0.000 C 
BRANCH  11  12
ATOM     12  C   UNL     1      -4.637   0.458   0.013  0.00  0.00    +0.000 C 
BRANCH  12  13
ATOM     13  C   UNL     1      -5.930  -0.360   0.014  0.00  0.00    +0.000 C 
BRANCH  13  14
ATOM     14  C   UNL     1      -7.159   0.546   0.103  0.00  0.00    +0.000 C 
ATOM     15  C   UNL     1      -8.448  -0.258   0.073  0.00  0.00    +0.000 C 
ENDBRANCH  13  14
ENDBRANCH  12  13
ENDBRANCH  11  12
ENDBRANCH  10  11
ENDBRANCH   9  10
ENDBRANCH   1   9
TORSDOF 10
