REMARK  Name = 448271
REMARK  16 active torsions:
REMARK  status: ('A' for Active; 'I' for Inactive)
REMARK    1  A    between atoms: O_1  and  C_3
REMARK    2  A    between atoms: O_1  and  C_12
REMARK    3  A    between atoms: C_3  and  C_4
REMARK    4  A    between atoms: C_4  and  C_5
REMARK    5  A    between atoms: C_5  and  C_6
REMARK    6  A    between atoms: C_6  and  C_7
REMARK    7  A    between atoms: C_7  and  C_8
REMARK    8  A    between atoms: C_8  and  C_9
REMARK    9  A    between atoms: C_9  and  C_10
REMARK   10  A    between atoms: C_12  and  C_13
REMARK   11  A    between atoms: C_13  and  O_14
REMARK   12  A    between atoms: C_13  and  C_20
REMARK   13  A    between atoms: O_14  and  C_16
REMARK   14  A    between atoms: C_16  and  C_17
REMARK   15  A    between atoms: C_17  and  C_18
REMARK   16  A    between atoms: C_20  and  O_21
REMARK                            x       y       z     vdW  Elec       q    Type
REMARK                         _______ _______ _______ _____ _____    ______ ____
ROOT
ATOM      1  O   UNL     1       2.755  -1.125   0.756  0.00  0.00    -0.444 OA
ENDROOT
BRANCH   1   3
ATOM      2  O   UNL     1       2.831  -2.470  -1.119  0.00  0.00    -0.250 OA
ATOM      3  C   UNL     1       2.500  -2.257   0.040  0.00  0.00    +0.317 C 
BRANCH   3   4
ATOM      4  C   UNL     1       1.738  -3.245   0.888  0.00  0.00    +0.110 C 
BRANCH   4   5
ATOM      5  C   UNL     1       0.375  -2.715   1.323  0.00  0.00    +0.012 C 
BRANCH   5   6
ATOM      6  C   UNL     1      -0.524  -2.365   0.132  0.00  0.00    +0.001 C 
BRANCH   6   7
ATOM      7  C   UNL     1      -1.870  -1.807   0.601  0.00  0.00    +0.000 C 
BRANCH   7   8
ATOM      8  C   UNL     1      -2.806  -1.428  -0.550  0.00  0.00    +0.000 C 
BRANCH   8   9
ATOM      9  C   UNL     1      -4.142  -0.847  -0.082  0.00  0.00    +0.000 C 
BRANCH   9  10
ATOM     10  C   UNL     1      -5.064  -0.554  -1.267  0.00  0.00    +0.000 C 
ATOM     11  C   UNL     1      -6.408  -0.013  -0.806  0.00  0.00    +0.000 C 
ENDBRANCH   9  10
ENDBRANCH   8   9
ENDBRANCH   7   8
ENDBRANCH   6   7
ENDBRANCH   5   6
ENDBRANCH   4   5
ENDBRANCH   3   4
ENDBRANCH   1   3
BRANCH   1  12
ATOM     12  C   UNL     1       3.479  -0.106   0.059  0.00  0.00    +0.254 C 
BRANCH  12  13
ATOM     13  C   UNL     1       2.505   0.829  -0.649  0.00  0.00    +0.241 C 
BRANCH  13  14
ATOM     14  O   UNL     1       1.665   1.444   0.331  0.00  0.00    -0.446 OA
BRANCH  14  16
ATOM     15  O   UNL     1      -0.043   1.582  -1.214  0.00  0.00    -0.250 OA
ATOM     16  C   UNL     1       0.407   1.770  -0.092  0.00  0.00    +0.317 C 
BRANCH  16  17
ATOM     17  C   UNL     1      -0.346   2.407   1.054  0.00  0.00    +0.110 C 
BRANCH  17  18
ATOM     18  C   UNL     1      -1.758   2.825   0.648  0.00  0.00    +0.012 C 
ATOM     19  C   UNL     1      -2.516   3.433   1.817  0.00  0.00    +0.001 C 
ENDBRANCH  17  18
ENDBRANCH  16  17
ENDBRANCH  14  16
ENDBRANCH  13  14
BRANCH  13  20
ATOM     20  C   UNL     1       3.238   1.933  -1.400  0.00  0.00    +0.185 C 
BRANCH  20  21
ATOM     21  O   UNL     1       3.984   2.708  -0.468  0.00  0.00    -0.378 OA
ATOM     22  H   UNL     1       4.455   3.414  -0.938  0.00  0.00    +0.211 HD
ENDBRANCH  20  21
ENDBRANCH  13  20
ENDBRANCH  12  13
ENDBRANCH   1  12
TORSDOF 16
