REMARK  Name = 23647358
REMARK  11 active torsions:
REMARK  status: ('A' for Active; 'I' for Inactive)
REMARK    1  A    between atoms: CA_1  and  N_3
REMARK    2  A    between atoms: CA_1  and  C_16
REMARK    3  A    between atoms: CA_1  and  CB_24
REMARK    4  A    between atoms: C_4  and  C_7
REMARK    5  A    between atoms: C_8  and  C_10
REMARK    6  A    between atoms: C_10  and  O_11
REMARK    7  A    between atoms: O_11  and  C_12
REMARK    8  A    between atoms: N_15  and  CA_18
REMARK    9  A    between atoms: CA_18  and  C_21
REMARK   10  A    between atoms: C_21  and  O_22
REMARK   11  A    between atoms: CB_24  and  CG1_26
REMARK                            x       y       z     vdW  Elec       q    Type
REMARK                         _______ _______ _______ _____ _____    ______ ____
ROOT
ATOM      1  CA  UNL     1       0.932   0.377  -1.003  0.00  0.00    +0.149 C 
ENDROOT
BRANCH   1   3
ATOM      2  O   UNL     1      -0.558  -1.859  -2.101  0.00  0.00    -0.272 OA
ATOM      3  N   UNL     1      -0.471   0.094  -0.837  0.00  0.00    -0.296 N 
ATOM      4  C   ACE A   0      -1.098  -1.005  -1.403  0.00  0.00    +0.253 C 
ATOM      5  H   UNL     1      -1.011   0.713  -0.294  0.00  0.00    +0.150 HD
BRANCH   4   7
ATOM      6  O   UNL     1      -2.917  -2.351  -0.541  0.00  0.00    -0.333 OA
ATOM      7  C   UNL     1      -2.560  -1.075  -1.050  0.00  0.00    +0.229 C 
ATOM      8  C   UNL     1      -2.942  -1.246   0.372  0.00  0.00    +0.250 C 
BRANCH   8  10
ATOM      9  O   UNL     1      -5.092  -1.704   1.205  0.00  0.00    -0.247 OA
ATOM     10  C   UNL     1      -4.298  -0.873   0.788  0.00  0.00    +0.347 C 
BRANCH  10  11
ATOM     11  O   UNL     1      -4.514   0.463   0.644  0.00  0.00    -0.447 OA
BRANCH  11  12
ATOM     12  C   UNL     1      -5.815   0.920   1.027  0.00  0.00    +0.209 C 
ATOM     13  C   UNL     1      -5.896   2.416   0.809  0.00  0.00    +0.051 C 
ENDBRANCH  11  12
ENDBRANCH  10  11
ENDBRANCH   8  10
ENDBRANCH   4   7
ENDBRANCH   1   3
BRANCH   1  16
ATOM     14  O   UNL     1       1.154  -1.064   0.936  0.00  0.00    -0.273 OA
ATOM     15  N   UNL     1       3.078  -0.340  -0.143  0.00  0.00    -0.295 N 
ATOM     16  C   UNL     1       1.706  -0.416   0.049  0.00  0.00    +0.241 C 
ATOM     17  H   UNL     1       3.417   0.209  -0.886  0.00  0.00    +0.150 HD
BRANCH  15  18
ATOM     18  CA  UNL     1       4.035  -1.027   0.695  0.00  0.00    +0.171 C 
ATOM     19  CB  UNL     1       4.327  -2.415   0.146  0.00  0.00    +0.033 C 
BRANCH  18  21
ATOM     20  OXT UNL     1       6.249  -0.594   1.563  0.00  0.00    -0.248 OA
ATOM     21  C   UNL     1       5.324  -0.235   0.843  0.00  0.00    +0.332 C 
BRANCH  21  22
ATOM     22  O   UNL     1       5.370   0.911   0.122  0.00  0.00    -0.479 OA
ATOM     23  H   UNL     1       4.644   1.154  -0.418  0.00  0.00    +0.295 HD
ENDBRANCH  21  22
ENDBRANCH  18  21
ENDBRANCH  15  18
ENDBRANCH   1  16
BRANCH   1  24
ATOM     24  CB  UNL     1       1.253   1.891  -0.958  0.00  0.00    +0.027 C 
ATOM     25  CG2 UNL     1       0.517   2.621  -2.089  0.00  0.00    +0.002 C 
BRANCH  24  26
ATOM     26  CG1 UNL     1       0.940   2.514   0.420  0.00  0.00    +0.002 C 
ATOM     27  CD1 UNL     1       1.276   3.997   0.507  0.00  0.00    +0.000 C 
ENDBRANCH  24  26
ENDBRANCH   1  24
TORSDOF 11
