REMARK  Name = 24963033
REMARK  8 active torsions:
REMARK  status: ('A' for Active; 'I' for Inactive)
REMARK    1  A    between atoms: N_2  and  C_19
REMARK    2  A    between atoms: C_4  and  C_11
REMARK    3  A    between atoms: N_9  and  C_15
REMARK    4  A    between atoms: C_18  and  S_24
REMARK    5  A    between atoms: S_24  and  N_27
REMARK    6  A    between atoms: N_27  and  C_29
REMARK    7  A    between atoms: C_29  and  C_30
REMARK    8  A    between atoms: C_30  and  O_31
REMARK                            x       y       z     vdW  Elec       q    Type
REMARK                         _______ _______ _______ _____ _____    ______ ____
ROOT
ATOM      1  N   UNL     1       2.141  -1.106  -0.237  0.00  0.00    -0.336 NA
ATOM      2  N   UNL     1       0.867  -2.998   0.300  0.00  0.00    -0.247 N 
ATOM      3  N   UNL     1       3.200  -3.159   0.453  0.00  0.00    -0.170 NA
ATOM      4  C   UNL     1       3.368  -0.557  -0.354  0.00  0.00    +0.161 C 
ATOM      5  C   UNL     1       4.540  -1.235  -0.090  0.00  0.00    +0.056 C 
ATOM      6  C   UNL     1       2.131  -2.392   0.166  0.00  0.00    +0.149 C 
ATOM      7  C   UNL     1       4.394  -2.546   0.314  0.00  0.00    +0.114 C 
ATOM      8  H   UNL     1       0.908  -3.937   0.596  0.00  0.00    +0.165 HD
ENDROOT
BRANCH   4  11
ATOM      9  N   UNL     1       3.330   1.891   0.057  0.00  0.00    -0.274 N 
ATOM     10  N   UNL     1       3.409   2.730  -1.998  0.00  0.00    -0.232 NA
ATOM     11  C   UNL     1       3.374   0.816  -0.785  0.00  0.00    +0.103 C 
ATOM     12  C   UNL     1       3.353   3.018  -0.716  0.00  0.00    +0.113 C 
ATOM     13  C   UNL     1       3.422   1.359  -2.047  0.00  0.00    +0.117 C 
ATOM     14  C   UNL     1       3.318   4.375  -0.133  0.00  0.00    +0.069 C 
BRANCH   9  15
ATOM     15  C   UNL     1       3.271   1.851   1.501  0.00  0.00    +0.078 C 
ATOM     16  C   UNL     1       4.514   1.185   2.098  0.00  0.00    +0.022 C 
ATOM     17  C   UNL     1       1.995   1.164   1.994  0.00  0.00    +0.022 C 
ENDBRANCH   9  15
ENDBRANCH   4  11
BRANCH   2  19
ATOM     18  C   UNL     1      -3.044  -1.593  -0.312  0.00  0.00    +0.122 C 
ATOM     19  C   UNL     1      -0.446  -2.526   0.095  0.00  0.00    +0.058 C 
ATOM     20  C   UNL     1      -2.799  -2.581   0.641  0.00  0.00    +0.021 C 
ATOM     21  C   UNL     1      -1.990  -1.071  -1.062  0.00  0.00    +0.021 C 
ATOM     22  C   UNL     1      -1.500  -3.048   0.845  0.00  0.00    +0.017 C 
ATOM     23  C   UNL     1      -0.691  -1.538  -0.859  0.00  0.00    +0.017 C 
BRANCH  18  24
ATOM     24  S   UNL     1      -4.669  -1.010  -0.568  0.00  0.00    +0.060 S 
ATOM     25  O   UNL     1      -4.770  -0.480  -1.922  0.00  0.00    -0.153 OA
ATOM     26  O   UNL     1      -5.589  -2.057  -0.142  0.00  0.00    -0.153 OA
BRANCH  24  27
ATOM     27  N   UNL     1      -4.773   0.290   0.537  0.00  0.00    -0.177 NA
ATOM     28  H   UNL     1      -4.640  -0.104   1.468  0.00  0.00    +0.149 HD
BRANCH  27  29
ATOM     29  C   UNL     1      -3.848   1.426   0.419  0.00  0.00    +0.123 C 
BRANCH  29  30
ATOM     30  C   UNL     1      -4.511   2.680   0.960  0.00  0.00    +0.161 C 
BRANCH  30  31
ATOM     31  O   UNL     1      -5.671   2.970   0.190  0.00  0.00    -0.350 OA
ATOM     32  C   UNL     1      -6.325   4.143   0.656  0.00  0.00    +0.174 C 
ENDBRANCH  30  31
ENDBRANCH  29  30
ENDBRANCH  27  29
ENDBRANCH  24  27
ENDBRANCH  18  24
ENDBRANCH   2  19
TORSDOF 8
