14368760
  -OEChem-10051721013D

 37 37  0     0  0  0  0  0  0999 V2000
   -0.2717    0.0274   -1.0196 O   0  0  0  0  0  0  0  0  0  0  0  0
   -5.9507    0.5590    0.7942 O   0  0  0  0  0  0  0  0  0  0  0  0
   -4.7588    2.3122   -0.0257 O   0  0  0  0  0  0  0  0  0  0  0  0
    4.5330    0.5461   -0.1076 C   0  0  0  0  0  0  0  0  0  0  0  0
    3.3451   -0.4185   -0.1015 C   0  0  0  0  0  0  0  0  0  0  0  0
    5.8413   -0.0964    0.3623 C   0  0  0  0  0  0  0  0  0  0  0  0
    2.0737    0.2667   -0.6004 C   0  0  0  0  0  0  0  0  0  0  0  0
    7.0431    0.8461    0.2864 C   0  0  0  0  0  0  0  0  0  0  0  0
    0.8763   -0.6721   -0.5591 C   0  0  0  0  0  0  0  0  0  0  0  0
    8.3275    0.1404    0.6946 C   0  0  0  0  0  0  0  0  0  0  0  0
   -1.4821   -0.3696   -0.5135 C   0  0  0  0  0  0  0  0  0  0  0  0
   -2.5096    0.5572   -0.3809 C   0  0  0  0  0  0  0  0  0  0  0  0
   -1.6687   -1.6946   -0.1368 C   0  0  0  0  0  0  0  0  0  0  0  0
   -3.7410    0.1531    0.1354 C   0  0  0  0  0  0  0  0  0  0  0  0
   -2.9001   -2.0986    0.3792 C   0  0  0  0  0  0  0  0  0  0  0  0
   -3.9361   -1.1748    0.5153 C   0  0  0  0  0  0  0  0  0  0  0  0
   -4.8213    1.1164    0.2777 C   0  0  0  0  0  0  0  0  0  0  0  0
    4.3070    1.4071    0.5336 H   0  0  0  0  0  0  0  0  0  0  0  0
    4.6724    0.9363   -1.1236 H   0  0  0  0  0  0  0  0  0  0  0  0
    3.1891   -0.7956    0.9163 H   0  0  0  0  0  0  0  0  0  0  0  0
    3.5704   -1.2836   -0.7365 H   0  0  0  0  0  0  0  0  0  0  0  0
    6.0413   -0.9828   -0.2527 H   0  0  0  0  0  0  0  0  0  0  0  0
    5.7191   -0.4488    1.3939 H   0  0  0  0  0  0  0  0  0  0  0  0
    2.2155    0.6319   -1.6253 H   0  0  0  0  0  0  0  0  0  0  0  0
    1.8583    1.1547    0.0073 H   0  0  0  0  0  0  0  0  0  0  0  0
    6.8782    1.7103    0.9400 H   0  0  0  0  0  0  0  0  0  0  0  0
    7.1525    1.2274   -0.7354 H   0  0  0  0  0  0  0  0  0  0  0  0
    0.7544   -1.0129    0.4774 H   0  0  0  0  0  0  0  0  0  0  0  0
    1.0549   -1.5370   -1.2086 H   0  0  0  0  0  0  0  0  0  0  0  0
    8.2613   -0.2305    1.7224 H   0  0  0  0  0  0  0  0  0  0  0  0
    9.1742    0.8316    0.6366 H   0  0  0  0  0  0  0  0  0  0  0  0
    8.5360   -0.7081    0.0353 H   0  0  0  0  0  0  0  0  0  0  0  0
   -2.3413    1.5882   -0.6812 H   0  0  0  0  0  0  0  0  0  0  0  0
   -0.8984   -2.4507   -0.2528 H   0  0  0  0  0  0  0  0  0  0  0  0
   -3.0541   -3.1341    0.6690 H   0  0  0  0  0  0  0  0  0  0  0  0
   -4.8785   -1.5325    0.9202 H   0  0  0  0  0  0  0  0  0  0  0  0
   -6.6732    1.2164    0.8857 H   0  0  0  0  0  0  0  0  0  0  0  0
  1  9  1  0  0  0  0
  1 11  1  0  0  0  0
  2 17  1  0  0  0  0
  2 37  1  0  0  0  0
  3 17  2  0  0  0  0
  4  5  1  0  0  0  0
  4  6  1  0  0  0  0
  4 18  1  0  0  0  0
  4 19  1  0  0  0  0
  5  7  1  0  0  0  0
  5 20  1  0  0  0  0
  5 21  1  0  0  0  0
  6  8  1  0  0  0  0
  6 22  1  0  0  0  0
  6 23  1  0  0  0  0
  7  9  1  0  0  0  0
  7 24  1  0  0  0  0
  7 25  1  0  0  0  0
  8 10  1  0  0  0  0
  8 26  1  0  0  0  0
  8 27  1  0  0  0  0
  9 28  1  0  0  0  0
  9 29  1  0  0  0  0
 10 30  1  0  0  0  0
 10 31  1  0  0  0  0
 10 32  1  0  0  0  0
 11 12  1  0  0  0  0
 11 13  2  0  0  0  0
 12 14  2  0  0  0  0
 12 33  1  0  0  0  0
 13 15  1  0  0  0  0
 13 34  1  0  0  0  0
 14 16  1  0  0  0  0
 14 17  1  0  0  0  0
 15 16  2  0  0  0  0
 15 35  1  0  0  0  0
 16 36  1  0  0  0  0
M  END
> <DATABASE_ID>
DB07355

> <DATABASE_NAME>
drugbank

> <ORIGINAL_SOURCE>
PUBCHEM

> <ORIGINAL_SOURCE_URL>
https://pubchem.ncbi.nlm.nih.gov/rest/pug/compound/inchikey/FOFZVIUYGPBWLV-UHFFFAOYSA-N/SDF?record_type=3d

> <SMILES>
CCCCCCCOC1=CC=CC(=C1)C(O)=O

> <INCHI_IDENTIFIER>
InChI=1S/C14H20O3/c1-2-3-4-5-6-10-17-13-9-7-8-12(11-13)14(15)16/h7-9,11H,2-6,10H2,1H3,(H,15,16)

> <INCHI_KEY>
FOFZVIUYGPBWLV-UHFFFAOYSA-N

> <FORMULA>
C14H20O3

> <MOLECULAR_WEIGHT>
236.3068

> <EXACT_MASS>
236.141244506

> <JCHEM_ACCEPTOR_COUNT>
3

> <JCHEM_AVERAGE_POLARIZABILITY>
27.599463759256935

> <JCHEM_BIOAVAILABILITY>
1

> <JCHEM_DONOR_COUNT>
1

> <JCHEM_FORMAL_CHARGE>
0

> <JCHEM_GHOSE_FILTER>
1

> <JCHEM_IUPAC>
3-(heptyloxy)benzoic acid

> <ALOGPS_LOGP>
4.44

> <JCHEM_LOGP>
4.1307624679999995

> <ALOGPS_LOGS>
-4.13

> <JCHEM_MDDR_LIKE_RULE>
0

> <JCHEM_NUMBER_OF_RINGS>
1

> <JCHEM_PHYSIOLOGICAL_CHARGE>
-1

> <JCHEM_PKA_STRONGEST_ACIDIC>
3.8385627591653027

> <JCHEM_PKA_STRONGEST_BASIC>
-4.850097196843326

> <JCHEM_POLAR_SURFACE_AREA>
46.53

> <JCHEM_REFRACTIVITY>
67.454

> <JCHEM_ROTATABLE_BOND_COUNT>
8

> <JCHEM_RULE_OF_FIVE>
1

> <ALOGPS_SOLUBILITY>
1.74e-02 g/l

> <JCHEM_TRADITIONAL_IUPAC>
3-(heptyloxy)benzoic acid

> <JCHEM_VEBER_RULE>
0

> <DRUGBANK_ID>
DB07355

> <DRUG_GROUPS>
experimental

> <GENERIC_NAME>
3-(heptyloxy)benzoic acid

$$$$
