REMARK  Name = 449080
REMARK  5 active torsions:
REMARK  status: ('A' for Active; 'I' for Inactive)
REMARK    1  A    between atoms: C_1  and  C_4
REMARK    2  A    between atoms: C_1  and  C_12
REMARK    3  A    between atoms: C_1  and  N_15
REMARK    4  A    between atoms: N_15  and  C_17
REMARK    5  A    between atoms: C_18  and  C_25
REMARK                            x       y       z     vdW  Elec       q    Type
REMARK                         _______ _______ _______ _____ _____    ______ ____
ROOT
ATOM      1  C   UNL     1       0.997   0.159  -1.164  0.00  0.00    +0.171 C 
ENDROOT
BRANCH   1   4
ATOM      2 CL   UNL     1       1.328   3.032  -0.187  0.00  0.00    -0.082 Cl
ATOM      3 CL   UNL     1       1.951  -2.366   0.260  0.00  0.00    -0.082 Cl
ATOM      4  C   UNL     1       1.705   0.350   0.158  0.00  0.00    +0.025 C 
ATOM      5  C   UNL     1       1.887   1.633   0.657  0.00  0.00    +0.057 C 
ATOM      6  C   UNL     1       2.163  -0.759   0.855  0.00  0.00    +0.057 C 
ATOM      7  C   UNL     1       2.541   1.810   1.876  0.00  0.00    +0.011 C 
ATOM      8  C   UNL     1       2.817  -0.583   2.074  0.00  0.00    +0.011 C 
ATOM      9  C   UNL     1       3.006   0.702   2.585  0.00  0.00    +0.002 C 
ENDBRANCH   1   4
BRANCH   1  12
ATOM     10  O   UNL     1       1.607  -1.631  -2.683  0.00  0.00    -0.273 OA
ATOM     11  N   UNL     1       3.035   0.155  -2.467  0.00  0.00    -0.327 N 
ATOM     12  C   UNL     1       1.883  -0.545  -2.178  0.00  0.00    +0.242 C 
ATOM     13  H   UNL     1       3.683  -0.209  -3.112  0.00  0.00    +0.145 HD
ATOM     14  H   UNL     1       3.209   1.019  -2.028  0.00  0.00    +0.145 HD
ENDBRANCH   1  12
BRANCH   1  15
ATOM     15  N   UNL     1      -0.201  -0.600  -0.987  0.00  0.00    -0.324 N 
ATOM     16  H   UNL     1      -0.188  -1.559  -1.208  0.00  0.00    +0.147 HD
BRANCH  15  17
ATOM     17  C   UNL     1      -1.403  -0.033  -0.507  0.00  0.00    +0.048 C 
ATOM     18  C   UNL     1      -2.313  -0.797   0.224  0.00  0.00    +0.048 C 
ATOM     19  C   UNL     1      -1.674   1.308  -0.774  0.00  0.00    +0.010 C 
ATOM     20  C   UNL     1      -2.856   1.887  -0.310  0.00  0.00    -0.021 C 
ATOM     21  C   UNL     1      -3.495  -0.219   0.688  0.00  0.00    +0.004 C 
ATOM     22  C   UNL     1      -3.766   1.123   0.421  0.00  0.00    -0.004 C 
ATOM     23  C   UNL     1      -3.146   3.322  -0.595  0.00  0.00    +0.031 C 
BRANCH  18  25
ATOM     24  O   UNL     1      -1.391  -2.915  -0.253  0.00  0.00    -0.291 OA
ATOM     25  C   UNL     1      -2.060  -2.202   0.519  0.00  0.00    +0.175 C 
ATOM     26  C   UNL     1      -2.615  -2.829   1.790  0.00  0.00    +0.077 C 
ENDBRANCH  18  25
ENDBRANCH  15  17
ENDBRANCH   1  15
TORSDOF 5
