REMARK  Name = 448729
REMARK  3 active torsions:
REMARK  status: ('A' for Active; 'I' for Inactive)
REMARK    1  A    between atoms: C_4  and  O_17
REMARK    2  A    between atoms: C_5  and  C_14
REMARK    3  A    between atoms: O_17  and  C_18
REMARK                            x       y       z     vdW  Elec       q    Type
REMARK                         _______ _______ _______ _____ _____    ______ ____
ROOT
ATOM      1 CL   UNL     1       3.036  -3.918  -0.617  0.00  0.00    -0.082 Cl
ATOM      2  O   UNL     1       0.984   3.694   0.672  0.00  0.00    -0.267 OA
ATOM      3  N   UNL     1       2.233   1.778   0.703  0.00  0.00    -0.321 N 
ATOM      4  C   UNL     1       0.101   0.433  -0.508  0.00  0.00    +0.140 A 
ATOM      5  C   UNL     1      -0.032   1.742  -0.229  0.00  0.00    +0.067 A 
ATOM      6  C   UNL     1       1.355  -0.291  -0.216  0.00  0.00    +0.050 A 
ATOM      7  C   UNL     1       2.395   0.416   0.403  0.00  0.00    +0.062 A 
ATOM      8  C   UNL     1       1.093   2.496   0.415  0.00  0.00    +0.256 A 
ATOM      9  C   UNL     1       1.578  -1.639  -0.536  0.00  0.00    +0.016 C 
ATOM     10  C   UNL     1       3.610  -0.202   0.720  0.00  0.00    +0.018 C 
ATOM     11  C   UNL     1       2.792  -2.259  -0.223  0.00  0.00    +0.058 C 
ATOM     12  C   UNL     1       3.805  -1.543   0.407  0.00  0.00    +0.013 C 
ATOM     13  H   UNL     1       2.977   2.247   1.145  0.00  0.00    +0.169 HD
ENDROOT
BRANCH   5  14
ATOM     14  C   UNL     1      -1.270   2.544  -0.514  0.00  0.00    +0.030 C 
ATOM     15  C   UNL     1      -1.852   3.092   0.783  0.00  0.00    +0.005 C 
ATOM     16  C   UNL     1      -0.968   3.670  -1.497  0.00  0.00    +0.005 C 
ENDBRANCH   5  14
BRANCH   4  17
ATOM     17  O   UNL     1      -0.944  -0.251  -1.105  0.00  0.00    -0.479 OA
BRANCH  17  18
ATOM     18  C   UNL     1      -1.793  -0.830  -0.120  0.00  0.00    +0.166 C 
ATOM     19  C   UNL     1      -3.199  -0.244  -0.246  0.00  0.00    +0.044 C 
ATOM     20  C   UNL     1      -1.801  -2.350  -0.279  0.00  0.00    +0.044 C 
ATOM     21  C   UNL     1      -4.171  -0.904   0.725  0.00  0.00    +0.004 C 
ATOM     22  C   UNL     1      -2.774  -3.010   0.693  0.00  0.00    +0.004 C 
ATOM     23  C   UNL     1      -4.178  -2.423   0.569  0.00  0.00    +0.000 C 
ENDBRANCH  17  18
ENDBRANCH   4  17
TORSDOF 3
