REMARK  Name = 1701
REMARK  4 active torsions:
REMARK  status: ('A' for Active; 'I' for Inactive)
REMARK    1  A    between atoms: C_1  and  C_11
REMARK    2  A    between atoms: C_4  and  S_7
REMARK    3  A    between atoms: C_11  and  C_12
REMARK    4  A    between atoms: C_12  and  N_13
REMARK                            x       y       z     vdW  Elec       q    Type
REMARK                         _______ _______ _______ _____ _____    ______ ____
ROOT
ATOM      1  C   UNL     1      -1.555   0.006  -0.418  0.00  0.00    -0.024 C 
ATOM      2  C   UNL     1      -0.863   1.212  -0.312  0.00  0.00    -0.003 C 
ATOM      3  C   UNL     1      -0.867  -1.204  -0.319  0.00  0.00    -0.003 C 
ATOM      4  C   UNL     1       1.205   0.000  -0.008  0.00  0.00    +0.138 C 
ATOM      5  C   UNL     1       0.517   1.209  -0.107  0.00  0.00    +0.021 C 
ATOM      6  C   UNL     1       0.513  -1.207  -0.114  0.00  0.00    +0.021 C 
ENDROOT
BRANCH   4   7
ATOM      7  S   UNL     1       2.931  -0.003   0.250  0.00  0.00    +0.148 S 
ATOM      8  F   UNL     1       3.626   0.000  -1.179  0.00  0.00    -0.056 F 
ATOM      9  O   UNL     1       3.293   1.266   0.851  0.00  0.00    -0.138 OA
ATOM     10  O   UNL     1       3.290  -1.276   0.844  0.00  0.00    -0.138 OA
ENDBRANCH   4   7
BRANCH   1  11
ATOM     11  C   UNL     1      -3.030   0.009  -0.638  0.00  0.00    +0.002 C 
BRANCH  11  12
ATOM     12  C   UNL     1      -3.809   0.006   0.686  0.00  0.00    -0.081 C 
BRANCH  12  13
ATOM     13  N   UNL     1      -5.250  -0.018   0.463  0.00  0.00    +0.381 N 
ATOM     14  H   UNL     1      -5.734  -0.019   1.361  0.00  0.00    -0.089 HD
ATOM     15  H   UNL     1      -5.500  -0.858  -0.058  0.00  0.00    -0.089 HD
ATOM     16  H   UNL     1      -5.526   0.807  -0.070  0.00  0.00    -0.089 HD
ENDBRANCH  12  13
ENDBRANCH  11  12
ENDBRANCH   1  11
TORSDOF 4
