REMARK  Name = 9842606
REMARK  3 active torsions:
REMARK  status: ('A' for Active; 'I' for Inactive)
REMARK    1  A    between atoms: N_2  and  C_12
REMARK    2  A    between atoms: C_13  and  O_17
REMARK    3  A    between atoms: C_14  and  O_19
REMARK                            x       y       z     vdW  Elec       q    Type
REMARK                         _______ _______ _______ _____ _____    ______ ____
ROOT
ATOM      1  I   UNL     1      -2.664  -3.374   0.445  0.00  0.00    -0.045 I 
ATOM      2  N   UNL     1       0.074  -0.242  -0.225  0.00  0.00    -0.250 N 
ATOM      3  N   UNL     1      -1.092   1.863  -0.394  0.00  0.00    -0.233 NA
ATOM      4  N   UNL     1      -3.503   1.643  -0.138  0.00  0.00    -0.234 NA
ATOM      5  C   UNL     1      -1.061   0.530  -0.221  0.00  0.00    +0.122 C 
ATOM      6  C   UNL     1      -0.274  -1.555  -0.019  0.00  0.00    +0.070 C 
ATOM      7  C   UNL     1      -2.151  -0.304  -0.008  0.00  0.00    +0.136 C 
ATOM      8  C   UNL     1      -1.644  -1.623   0.118  0.00  0.00    +0.036 C 
ATOM      9  C   UNL     1      -3.405   0.303   0.029  0.00  0.00    +0.110 C 
ATOM     10  C   UNL     1      -2.356   2.330  -0.337  0.00  0.00    +0.252 C 
ATOM     11  N   UNL     1      -4.584  -0.436   0.237  0.00  0.00    -0.346 N 
ATOM     12  H   UNL     1      -5.455   0.022   0.259  0.00  0.00    +0.143 HD
ATOM     13  H   UNL     1      -4.537  -1.412   0.362  0.00  0.00    +0.143 HD
ENDROOT
BRANCH   2  15
ATOM     14  O   UNL     1       2.217  -0.755  -1.105  0.00  0.00    -0.335 OA
ATOM     15  C   UNL     1       1.439   0.243  -0.417  0.00  0.00    +0.227 C 
ATOM     16  C   UNL     1       2.179   0.540   0.878  0.00  0.00    +0.187 C 
ATOM     17  C   UNL     1       3.623   0.384   0.442  0.00  0.00    +0.168 C 
ATOM     18  C   UNL     1       3.544  -0.789  -0.530  0.00  0.00    +0.146 C 
ATOM     19  C   UNL     1       3.740  -2.137   0.148  0.00  0.00    +0.035 C 
BRANCH  16  20
ATOM     20  O   UNL     1       1.886   1.832   1.369  0.00  0.00    -0.378 OA
ATOM     21  H   UNL     1       0.953   1.874   1.631  0.00  0.00    +0.211 HD
ENDBRANCH  16  20
BRANCH  17  22
ATOM     22  O   UNL     1       4.033   1.549  -0.273  0.00  0.00    -0.379 OA
ATOM     23  H   UNL     1       4.086   2.301   0.337  0.00  0.00    +0.211 HD
ENDBRANCH  17  22
ENDBRANCH   2  15
TORSDOF 3
