REMARK  Name = 11368987
REMARK  3 active torsions:
REMARK  status: ('A' for Active; 'I' for Inactive)
REMARK    1  A    between atoms: N_2  and  C_11
REMARK    2  A    between atoms: C_9  and  O_19
REMARK    3  A    between atoms: C_16  and  O_17
REMARK                            x       y       z     vdW  Elec       q    Type
REMARK                         _______ _______ _______ _____ _____    ______ ____
ROOT
ATOM      1 CL   UNL     1      -0.010  -2.540   0.000  0.00  0.00    -0.061 Cl
ATOM      2  N   UNL     1       0.232   0.134   0.000  0.00  0.00    -0.219 N 
ATOM      3  N   UNL     1      -0.394   1.327   0.000  0.00  0.00    -0.164 NA
ATOM      4  C   UNL     1      -1.857  -0.411   0.000  0.00  0.00    +0.051 A 
ATOM      5  C   UNL     1      -1.704   1.024   0.000  0.00  0.00    +0.104 A 
ATOM      6  C   UNL     1      -0.600  -0.948   0.000  0.00  0.00    +0.141 A 
ATOM      7  C   UNL     1      -3.045  -1.130   0.000  0.00  0.00    +0.041 C 
ATOM      8  C   UNL     1      -2.833   1.864   0.000  0.00  0.00    +0.024 C 
ATOM      9  C   UNL     1      -4.157  -0.266   0.000  0.00  0.00    +0.134 C 
ATOM     10  C   UNL     1      -4.058   1.162   0.000  0.00  0.00    +0.038 C 
ENDROOT
BRANCH   2  11
ATOM     11  C   UNL     1       1.629   0.113   0.000  0.00  0.00    +0.084 C 
ATOM     12  C   UNL     1       2.312   0.103  -1.208  0.00  0.00    +0.022 C 
ATOM     13  C   UNL     1       2.312   0.103   1.208  0.00  0.00    +0.022 C 
ATOM     14  C   UNL     1       3.707   0.082  -1.208  0.00  0.00    +0.038 C 
ATOM     15  C   UNL     1       3.707   0.082   1.208  0.00  0.00    +0.038 C 
ATOM     16  C   UNL     1       4.404   0.072   0.000  0.00  0.00    +0.134 C 
BRANCH  16  17
ATOM     17  O   UNL     1       5.765   0.051   0.000  0.00  0.00    -0.506 OA
ATOM     18  H   UNL     1       6.233   0.044  -0.812  0.00  0.00    +0.292 HD
ENDBRANCH  16  17
ENDBRANCH   2  11
BRANCH   9  19
ATOM     19  O   UNL     1      -5.409  -0.823   0.000  0.00  0.00    -0.506 OA
ATOM     20  H   UNL     1      -5.508  -1.754   0.000  0.00  0.00    +0.292 HD
ENDBRANCH   9  19
TORSDOF 3
