REMARK  Name = 1881
REMARK  3 active torsions:
REMARK  status: ('A' for Active; 'I' for Inactive)
REMARK    1  A    between atoms: N_1  and  C_20
REMARK    2  A    between atoms: C_20  and  C_21
REMARK    3  A    between atoms: C_20  and  C_23
REMARK                            x       y       z     vdW  Elec       q    Type
REMARK                         _______ _______ _______ _____ _____    ______ ____
ROOT
ATOM      1  N   UNL     1       2.129  -0.271   0.000  0.00  0.00    -0.288 N 
ATOM      2  N   UNL     1      -3.100   1.442   0.000  0.00  0.00    -0.332 NA
ATOM      3  N   UNL     1      -3.782  -0.873   0.000  0.00  0.00    -0.317 NA
ATOM      4  N   UNL     1      -2.221  -2.601   0.000  0.00  0.00    -0.335 N 
ATOM      5  N   UNL     1      -5.370   0.849   0.001  0.00  0.00    -0.283 N 
ATOM      6  C   UNL     1       0.896   0.340  -0.001  0.00  0.00    +0.048 C 
ATOM      7  C   UNL     1      -0.068  -0.669  -0.001  0.00  0.00    +0.007 C 
ATOM      8  C   UNL     1       1.982  -1.631   0.000  0.00  0.00    +0.065 C 
ATOM      9  C   UNL     1       0.635  -1.910  -0.001  0.00  0.00    +0.014 C 
ATOM     10  C   UNL     1      -1.439  -0.284   0.000  0.00  0.00    +0.144 C 
ATOM     11  C   UNL     1       0.561   1.695   0.000  0.00  0.00    +0.017 C 
ATOM     12  C   UNL     1      -1.808   1.074   0.000  0.00  0.00    +0.134 C 
ATOM     13  C   UNL     1      -0.799   2.031   0.000  0.00  0.00    +0.031 C 
ATOM     14  C   UNL     1      -2.480  -1.214   0.000  0.00  0.00    +0.178 C 
ATOM     15  C   UNL     1      -4.016   0.450   0.000  0.00  0.00    +0.197 C 
ATOM     16  H   UNL     1      -2.969  -3.241   0.000  0.00  0.00    +0.144 HD
ATOM     17  H   UNL     1      -1.293  -2.928   0.000  0.00  0.00    +0.144 HD
ATOM     18  H   UNL     1      -5.602   1.806   0.001  0.00  0.00    +0.156 HD
ATOM     19  H   UNL     1      -6.083   0.170   0.001  0.00  0.00    +0.156 HD
ENDROOT
BRANCH   1  20
ATOM     20  C   UNL     1       3.405   0.412   0.000  0.00  0.00    +0.077 C 
BRANCH  20  21
ATOM     21  C   UNL     1       4.233   0.113   1.270  0.00  0.00    +0.020 C 
ATOM     22  C   UNL     1       3.503   0.466   2.560  0.00  0.00    +0.002 C 
ENDBRANCH  20  21
BRANCH  20  23
ATOM     23  C   UNL     1       4.234   0.113  -1.269  0.00  0.00    +0.020 C 
ATOM     24  C   UNL     1       3.504   0.467  -2.559  0.00  0.00    +0.002 C 
ENDBRANCH  20  23
ENDBRANCH   1  20
TORSDOF 3
