23653531
  -OEChem-10051721063D

 55 56  0     0  0  0  0  0  0999 V2000
    5.1565   -0.3817    0.5174 O   0  0  0  0  0  0  0  0  0  0  0  0
   -2.2318    2.7926   -0.6771 O   0  0  0  0  0  0  0  0  0  0  0  0
   -5.5733   -1.5014    0.2151 O   0  0  0  0  0  0  0  0  0  0  0  0
   -0.9428   -1.9783    0.5298 O   0  0  0  0  0  0  0  0  0  0  0  0
   -1.1315    0.2933   -0.0263 N   0  0  0  0  0  0  0  0  0  0  0  0
    8.0409    0.4381   -1.6206 N   0  0  0  0  0  0  0  0  0  0  0  0
    3.7989   -0.5018    0.4609 C   0  0  0  0  0  0  0  0  0  0  0  0
    3.2199   -1.7305    0.1436 C   0  0  0  0  0  0  0  0  0  0  0  0
    2.9895    0.6042    0.7206 C   0  0  0  0  0  0  0  0  0  0  0  0
    1.0223   -0.7472    0.3457 C   0  0  0  0  0  0  0  0  0  0  0  0
    1.8317   -1.8532    0.0859 C   0  0  0  0  0  0  0  0  0  0  0  0
    1.6012    0.4815    0.6631 C   0  0  0  0  0  0  0  0  0  0  0  0
   -0.4250   -0.8764    0.2861 C   0  0  0  0  0  0  0  0  0  0  0  0
   -2.5323    0.4762   -0.1306 C   0  0  0  0  0  0  0  0  0  0  0  0
    4.0697   -2.9259   -0.1369 C   0  0  0  0  0  0  0  0  0  0  0  0
    3.5906    1.9276    1.0621 C   0  0  0  0  0  0  0  0  0  0  0  0
   -3.0448    1.7215   -0.4540 C   0  0  0  0  0  0  0  0  0  0  0  0
    5.8238   -0.0178   -0.6884 C   0  0  0  0  0  0  0  0  0  0  0  0
   -3.3624   -0.6095    0.0956 C   0  0  0  0  0  0  0  0  0  0  0  0
   -4.7440   -0.4448   -0.0041 C   0  0  0  0  0  0  0  0  0  0  0  0
   -4.4263    1.8862   -0.5539 C   0  0  0  0  0  0  0  0  0  0  0  0
   -5.2760    0.8030   -0.3289 C   0  0  0  0  0  0  0  0  0  0  0  0
    7.3150    0.0845   -0.4098 C   0  0  0  0  0  0  0  0  0  0  0  0
   -2.4013    3.9228    0.1755 C   0  0  0  0  0  0  0  0  0  0  0  0
   -5.0710   -2.7982   -0.1037 C   0  0  0  0  0  0  0  0  0  0  0  0
   -1.0701    4.6266    0.3317 C   0  0  0  0  0  0  0  0  0  0  0  0
   -6.2276   -3.6917   -0.4986 C   0  0  0  0  0  0  0  0  0  0  0  0
    1.3863   -2.8121   -0.1695 H   0  0  0  0  0  0  0  0  0  0  0  0
    0.9989    1.3523    0.9064 H   0  0  0  0  0  0  0  0  0  0  0  0
    3.5068   -3.8562   -0.0019 H   0  0  0  0  0  0  0  0  0  0  0  0
    4.9238   -2.9755    0.5466 H   0  0  0  0  0  0  0  0  0  0  0  0
    4.4359   -2.8974   -1.1678 H   0  0  0  0  0  0  0  0  0  0  0  0
    2.8739    2.5700    1.5857 H   0  0  0  0  0  0  0  0  0  0  0  0
    3.9085    2.4457    0.1521 H   0  0  0  0  0  0  0  0  0  0  0  0
    4.4517    1.8126    1.7289 H   0  0  0  0  0  0  0  0  0  0  0  0
   -0.6028    1.1321   -0.2500 H   0  0  0  0  0  0  0  0  0  0  0  0
    5.4411    0.9438   -1.0509 H   0  0  0  0  0  0  0  0  0  0  0  0
    5.6338   -0.7753   -1.4581 H   0  0  0  0  0  0  0  0  0  0  0  0
   -2.9946   -1.5762    0.3924 H   0  0  0  0  0  0  0  0  0  0  0  0
   -4.8554    2.8498   -0.8143 H   0  0  0  0  0  0  0  0  0  0  0  0
   -6.3512    0.9367   -0.4101 H   0  0  0  0  0  0  0  0  0  0  0  0
    7.4974    0.8370    0.3655 H   0  0  0  0  0  0  0  0  0  0  0  0
    7.6874   -0.8670   -0.0131 H   0  0  0  0  0  0  0  0  0  0  0  0
   -3.1312    4.6028   -0.2769 H   0  0  0  0  0  0  0  0  0  0  0  0
   -2.7660    3.6196    1.1648 H   0  0  0  0  0  0  0  0  0  0  0  0
   -4.5666   -3.2161    0.7746 H   0  0  0  0  0  0  0  0  0  0  0  0
   -4.3750   -2.7706   -0.9518 H   0  0  0  0  0  0  0  0  0  0  0  0
    7.8985   -0.2801   -2.3296 H   0  0  0  0  0  0  0  0  0  0  0  0
    9.0409    0.4514   -1.4243 H   0  0  0  0  0  0  0  0  0  0  0  0
   -1.1659    5.5075    0.9726 H   0  0  0  0  0  0  0  0  0  0  0  0
   -0.3264    3.9511    0.7676 H   0  0  0  0  0  0  0  0  0  0  0  0
   -0.6823    4.9394   -0.6434 H   0  0  0  0  0  0  0  0  0  0  0  0
   -6.7526   -3.2816   -1.3677 H   0  0  0  0  0  0  0  0  0  0  0  0
   -6.9594   -3.7563    0.3135 H   0  0  0  0  0  0  0  0  0  0  0  0
   -5.8793   -4.6999   -0.7399 H   0  0  0  0  0  0  0  0  0  0  0  0
  1  7  1  0  0  0  0
  1 18  1  0  0  0  0
  2 17  1  0  0  0  0
  2 24  1  0  0  0  0
  3 20  1  0  0  0  0
  3 25  1  0  0  0  0
  4 13  2  0  0  0  0
  5 13  1  0  0  0  0
  5 14  1  0  0  0  0
  5 36  1  0  0  0  0
  6 23  1  0  0  0  0
  6 48  1  0  0  0  0
  6 49  1  0  0  0  0
  7  8  2  0  0  0  0
  7  9  1  0  0  0  0
  8 11  1  0  0  0  0
  8 15  1  0  0  0  0
  9 12  2  0  0  0  0
  9 16  1  0  0  0  0
 10 11  2  0  0  0  0
 10 12  1  0  0  0  0
 10 13  1  0  0  0  0
 11 28  1  0  0  0  0
 12 29  1  0  0  0  0
 14 17  2  0  0  0  0
 14 19  1  0  0  0  0
 15 30  1  0  0  0  0
 15 31  1  0  0  0  0
 15 32  1  0  0  0  0
 16 33  1  0  0  0  0
 16 34  1  0  0  0  0
 16 35  1  0  0  0  0
 17 21  1  0  0  0  0
 18 23  1  0  0  0  0
 18 37  1  0  0  0  0
 18 38  1  0  0  0  0
 19 20  2  0  0  0  0
 19 39  1  0  0  0  0
 20 22  1  0  0  0  0
 21 22  2  0  0  0  0
 21 40  1  0  0  0  0
 22 41  1  0  0  0  0
 23 42  1  0  0  0  0
 23 43  1  0  0  0  0
 24 26  1  0  0  0  0
 24 44  1  0  0  0  0
 24 45  1  0  0  0  0
 25 27  1  0  0  0  0
 25 46  1  0  0  0  0
 25 47  1  0  0  0  0
 26 50  1  0  0  0  0
 26 51  1  0  0  0  0
 26 52  1  0  0  0  0
 27 53  1  0  0  0  0
 27 54  1  0  0  0  0
 27 55  1  0  0  0  0
M  END
> <DATABASE_ID>
DB07625

> <DATABASE_NAME>
drugbank

> <ORIGINAL_SOURCE>
PUBCHEM

> <ORIGINAL_SOURCE_URL>
https://pubchem.ncbi.nlm.nih.gov/rest/pug/compound/inchikey/PHTPPZCTHZHCQD-UHFFFAOYSA-N/SDF?record_type=3d

> <SMILES>
CCOC1=CC=C(OCC)C(NC(=O)C2=CC(C)=C(OCCN)C(C)=C2)=C1

> <INCHI_IDENTIFIER>
InChI=1S/C21H28N2O4/c1-5-25-17-7-8-19(26-6-2)18(13-17)23-21(24)16-11-14(3)20(15(4)12-16)27-10-9-22/h7-8,11-13H,5-6,9-10,22H2,1-4H3,(H,23,24)

> <INCHI_KEY>
PHTPPZCTHZHCQD-UHFFFAOYSA-N

> <FORMULA>
C21H28N2O4

> <MOLECULAR_WEIGHT>
372.458

> <EXACT_MASS>
372.204907394

> <JCHEM_ACCEPTOR_COUNT>
5

> <JCHEM_AVERAGE_POLARIZABILITY>
41.26331463887925

> <JCHEM_BIOAVAILABILITY>
1

> <JCHEM_DONOR_COUNT>
2

> <JCHEM_FORMAL_CHARGE>
0

> <JCHEM_GHOSE_FILTER>
1

> <JCHEM_IUPAC>
4-(2-aminoethoxy)-N-(2,5-diethoxyphenyl)-3,5-dimethylbenzamide

> <ALOGPS_LOGP>
3.06

> <JCHEM_LOGP>
3.4250600579566943

> <ALOGPS_LOGS>
-4.94

> <JCHEM_MDDR_LIKE_RULE>
0

> <JCHEM_NUMBER_OF_RINGS>
2

> <JCHEM_PHYSIOLOGICAL_CHARGE>
1

> <JCHEM_PKA_STRONGEST_ACIDIC>
11.05604392195007

> <JCHEM_PKA_STRONGEST_BASIC>
9.272310531324319

> <JCHEM_POLAR_SURFACE_AREA>
82.81

> <JCHEM_REFRACTIVITY>
108.51049999999998

> <JCHEM_ROTATABLE_BOND_COUNT>
9

> <JCHEM_RULE_OF_FIVE>
1

> <ALOGPS_SOLUBILITY>
4.27e-03 g/l

> <JCHEM_TRADITIONAL_IUPAC>
4-(2-aminoethoxy)-N-(2,5-diethoxyphenyl)-3,5-dimethylbenzamide

> <JCHEM_VEBER_RULE>
0

> <DRUGBANK_ID>
DB07625

> <DRUG_GROUPS>
experimental

> <GENERIC_NAME>
4-(2-aminoethoxy)-N-(2,5-diethoxyphenyl)-3,5-dimethylbenzamide

$$$$
