REMARK  Name = 24778473
REMARK  2 active torsions:
REMARK  status: ('A' for Active; 'I' for Inactive)
REMARK    1  A    between atoms: C_11  and  C_22
REMARK    2  A    between atoms: C_17  and  N_29
REMARK                            x       y       z     vdW  Elec       q    Type
REMARK                         _______ _______ _______ _____ _____    ______ ____
ROOT
ATOM      1  O   UNL     1       1.623   2.678  -0.005  0.00  0.00    -0.270 OA
ATOM      2  O   UNL     1      -2.972   2.486   0.112  0.00  0.00    -0.270 OA
ATOM      3  N   UNL     1       1.055  -2.559   0.111  0.00  0.00    -0.353 N 
ATOM      4  N   UNL     1      -0.689   2.960   0.048  0.00  0.00    -0.248 N 
ATOM      5  C   UNL     1       0.870  -0.331   0.073  0.00  0.00    +0.022 A 
ATOM      6  C   UNL     1       0.100   0.839   0.069  0.00  0.00    +0.060 C 
ATOM      7  C   UNL     1       0.143  -1.532   0.113  0.00  0.00    +0.057 A 
ATOM      8  C   UNL     1       2.262  -0.680   0.048  0.00  0.00    +0.018 A 
ATOM      9  C   UNL     1      -1.293   0.787   0.103  0.00  0.00    +0.058 C 
ATOM     10  C   UNL     1       2.339  -2.075   0.072  0.00  0.00    +0.057 A 
ATOM     11  C   UNL     1      -1.995  -0.396   0.143  0.00  0.00    +0.007 C 
ATOM     12  C   UNL     1      -1.268  -1.589   0.148  0.00  0.00    +0.017 C 
ATOM     13  C   UNL     1       0.488   2.248   0.033  0.00  0.00    +0.252 C 
ATOM     14  C   UNL     1      -1.801   2.157   0.090  0.00  0.00    +0.252 C 
ATOM     15  C   UNL     1       3.474   0.043   0.007  0.00  0.00    +0.016 C 
ATOM     16  C   UNL     1       3.553  -2.774   0.058  0.00  0.00    +0.018 C 
ATOM     17  C   UNL     1       4.696  -0.641  -0.008  0.00  0.00    +0.051 C 
ATOM     18  C   UNL     1       4.733  -2.031   0.017  0.00  0.00    +0.016 C 
ATOM     19  H   UNL     1       0.819  -3.514   0.134  0.00  0.00    +0.166 HD
ATOM     20  H   UNL     1      -0.730   3.943   0.030  0.00  0.00    +0.158 HD
ENDROOT
BRANCH  11  22
ATOM     21 CL   UNL     1      -3.476  -0.499  -2.559  0.00  0.00    -0.082 Cl
ATOM     22  C   UNL     1      -3.441  -0.447   0.177  0.00  0.00    +0.011 C 
ATOM     23  C   UNL     1      -4.203  -0.497  -0.990  0.00  0.00    +0.058 C 
ATOM     24  C   UNL     1      -4.070  -0.448   1.422  0.00  0.00    +0.001 C 
ATOM     25  C   UNL     1      -5.595  -0.547  -0.913  0.00  0.00    +0.011 C 
ATOM     26  C   UNL     1      -5.462  -0.497   1.499  0.00  0.00    +0.000 C 
ATOM     27  C   UNL     1      -6.224  -0.547   0.332  0.00  0.00    +0.001 C 
ENDBRANCH  11  22
BRANCH  17  29
ATOM     28  O   UNL     1       5.210   2.348  -0.075  0.00  0.00    -0.265 OA
ATOM     29  N   UNL     1       5.890   0.081  -0.048  0.00  0.00    -0.277 N 
ATOM     30  C   UNL     1       6.053   1.462  -0.077  0.00  0.00    +0.303 C 
ATOM     31  H   UNL     1       6.717  -0.452  -0.056  0.00  0.00    +0.155 HD
ENDBRANCH  17  29
TORSDOF 2
