9797919
  -OEChem-10051720593D

 40 42  0     0  0  0  0  0  0999 V2000
   -6.2772   -2.3878   -0.0392 Cl  0  0  0  0  0  0  0  0  0  0  0  0
   -0.8318    1.2882   -1.8754 O   0  0  0  0  0  0  0  0  0  0  0  0
    1.8606    0.4593    0.0256 N   0  0  0  0  0  0  0  0  0  0  0  0
   -1.5398    1.1166    0.3550 N   0  0  0  0  0  0  0  0  0  0  0  0
    3.0178   -4.4016   -0.1641 N   0  0  0  0  0  0  0  0  0  0  0  0
    1.6507    1.8555    0.0757 C   0  0  0  0  0  0  0  0  0  0  0  0
    0.4141    2.4064   -0.2603 C   0  0  0  0  0  0  0  0  0  0  0  0
    3.1095   -0.1486    0.3610 C   0  0  0  0  0  0  0  0  0  0  0  0
    3.0766   -1.6383    0.1770 C   0  0  0  0  0  0  0  0  0  0  0  0
    2.7006    2.6857    0.4682 C   0  0  0  0  0  0  0  0  0  0  0  0
    0.2275    3.7876   -0.2041 C   0  0  0  0  0  0  0  0  0  0  0  0
   -0.7029    1.5664   -0.6739 C   0  0  0  0  0  0  0  0  0  0  0  0
    2.5139    4.0669    0.5244 C   0  0  0  0  0  0  0  0  0  0  0  0
    1.2774    4.6179    0.1882 C   0  0  0  0  0  0  0  0  0  0  0  0
   -2.6765    0.2765    0.2604 C   0  0  0  0  0  0  0  0  0  0  0  0
    3.4313   -2.1883   -1.0441 C   0  0  0  0  0  0  0  0  0  0  0  0
    2.6929   -2.4530    1.2296 C   0  0  0  0  0  0  0  0  0  0  0  0
   -3.0659   -0.1969   -0.9809 C   0  0  0  0  0  0  0  0  0  0  0  0
   -3.3717   -0.0525    1.4112 C   0  0  0  0  0  0  0  0  0  0  0  0
    3.3856   -3.5679   -1.1629 C   0  0  0  0  0  0  0  0  0  0  0  0
    2.6801   -3.8210    1.0090 C   0  0  0  0  0  0  0  0  0  0  0  0
   -4.1847   -1.0246   -1.0740 C   0  0  0  0  0  0  0  0  0  0  0  0
   -4.4907   -0.8802    1.3181 C   0  0  0  0  0  0  0  0  0  0  0  0
   -4.8972   -1.3663    0.0755 C   0  0  0  0  0  0  0  0  0  0  0  0
    3.3787    0.0692    1.4031 H   0  0  0  0  0  0  0  0  0  0  0  0
    3.9190    0.2549   -0.2618 H   0  0  0  0  0  0  0  0  0  0  0  0
    1.0803   -0.1256   -0.2515 H   0  0  0  0  0  0  0  0  0  0  0  0
    3.6798    2.3049    0.7412 H   0  0  0  0  0  0  0  0  0  0  0  0
   -0.7314    4.2293   -0.4635 H   0  0  0  0  0  0  0  0  0  0  0  0
    3.3308    4.7140    0.8304 H   0  0  0  0  0  0  0  0  0  0  0  0
    1.1321    5.6934    0.2322 H   0  0  0  0  0  0  0  0  0  0  0  0
   -1.3099    1.4227    1.2985 H   0  0  0  0  0  0  0  0  0  0  0  0
    3.7335   -1.5735   -1.8847 H   0  0  0  0  0  0  0  0  0  0  0  0
    2.4086   -2.0486    2.1947 H   0  0  0  0  0  0  0  0  0  0  0  0
   -2.5688    0.0209   -1.9141 H   0  0  0  0  0  0  0  0  0  0  0  0
   -3.0632    0.3206    2.3838 H   0  0  0  0  0  0  0  0  0  0  0  0
    3.6517   -4.0543   -2.0956 H   0  0  0  0  0  0  0  0  0  0  0  0
    2.3874   -4.5076    1.7965 H   0  0  0  0  0  0  0  0  0  0  0  0
   -4.4909   -1.3969   -2.0484 H   0  0  0  0  0  0  0  0  0  0  0  0
   -5.0361   -1.1382    2.2222 H   0  0  0  0  0  0  0  0  0  0  0  0
  1 24  1  0  0  0  0
  2 12  2  0  0  0  0
  3  6  1  0  0  0  0
  3  8  1  0  0  0  0
  3 27  1  0  0  0  0
  4 12  1  0  0  0  0
  4 15  1  0  0  0  0
  4 32  1  0  0  0  0
  5 20  2  0  0  0  0
  5 21  1  0  0  0  0
  6  7  1  0  0  0  0
  6 10  2  0  0  0  0
  7 11  2  0  0  0  0
  7 12  1  0  0  0  0
  8  9  1  0  0  0  0
  8 25  1  0  0  0  0
  8 26  1  0  0  0  0
  9 16  2  0  0  0  0
  9 17  1  0  0  0  0
 10 13  1  0  0  0  0
 10 28  1  0  0  0  0
 11 14  1  0  0  0  0
 11 29  1  0  0  0  0
 13 14  2  0  0  0  0
 13 30  1  0  0  0  0
 14 31  1  0  0  0  0
 15 18  2  0  0  0  0
 15 19  1  0  0  0  0
 16 20  1  0  0  0  0
 16 33  1  0  0  0  0
 17 21  2  0  0  0  0
 17 34  1  0  0  0  0
 18 22  1  0  0  0  0
 18 35  1  0  0  0  0
 19 23  2  0  0  0  0
 19 36  1  0  0  0  0
 20 37  1  0  0  0  0
 21 38  1  0  0  0  0
 22 24  2  0  0  0  0
 22 39  1  0  0  0  0
 23 24  1  0  0  0  0
 23 40  1  0  0  0  0
M  END
> <DATABASE_ID>
DB07288

> <DATABASE_NAME>
drugbank

> <ORIGINAL_SOURCE>
PUBCHEM

> <ORIGINAL_SOURCE_URL>
https://pubchem.ncbi.nlm.nih.gov/rest/pug/compound/inchikey/GGPZCOONYBPZEW-UHFFFAOYSA-N/SDF?record_type=3d

> <SMILES>
ClC1=CC=C(NC(=O)C2=C(NCC3=CC=NC=C3)C=CC=C2)C=C1

> <INCHI_IDENTIFIER>
InChI=1S/C19H16ClN3O/c20-15-5-7-16(8-6-15)23-19(24)17-3-1-2-4-18(17)22-13-14-9-11-21-12-10-14/h1-12,22H,13H2,(H,23,24)

> <INCHI_KEY>
GGPZCOONYBPZEW-UHFFFAOYSA-N

> <FORMULA>
C19H16ClN3O

> <MOLECULAR_WEIGHT>
337.803

> <EXACT_MASS>
337.098189856

> <JCHEM_ACCEPTOR_COUNT>
3

> <JCHEM_AVERAGE_POLARIZABILITY>
35.142670631966666

> <JCHEM_BIOAVAILABILITY>
1

> <JCHEM_DONOR_COUNT>
2

> <JCHEM_FORMAL_CHARGE>
0

> <JCHEM_GHOSE_FILTER>
1

> <JCHEM_IUPAC>
N-(4-chlorophenyl)-2-[(pyridin-4-ylmethyl)amino]benzamide

> <ALOGPS_LOGP>
3.50

> <JCHEM_LOGP>
4.298754115666666

> <ALOGPS_LOGS>
-4.84

> <JCHEM_MDDR_LIKE_RULE>
0

> <JCHEM_NUMBER_OF_RINGS>
3

> <JCHEM_PHYSIOLOGICAL_CHARGE>
0

> <JCHEM_PKA>
16.964794129155194

> <JCHEM_PKA_STRONGEST_ACIDIC>
11.88159490289593

> <JCHEM_PKA_STRONGEST_BASIC>
5.020756961824671

> <JCHEM_POLAR_SURFACE_AREA>
54.02

> <JCHEM_REFRACTIVITY>
99.0458

> <JCHEM_ROTATABLE_BOND_COUNT>
5

> <JCHEM_RULE_OF_FIVE>
1

> <ALOGPS_SOLUBILITY>
4.91e-03 g/l

> <JCHEM_TRADITIONAL_IUPAC>
N-(4-chlorophenyl)-2-[(pyridin-4-ylmethyl)amino]benzamide

> <JCHEM_VEBER_RULE>
0

> <DRUGBANK_ID>
DB07288

> <DRUG_GROUPS>
experimental

> <GENERIC_NAME>
N-(4-chlorophenyl)-2-[(pyridin-4-ylmethyl)amino]benzamide

$$$$
