REMARK  Name = 16741245
REMARK  7 active torsions:
REMARK  status: ('A' for Active; 'I' for Inactive)
REMARK    1  A    between atoms: C_2  and  S_20
REMARK    2  A    between atoms: C_3  and  N_9
REMARK    3  A    between atoms: C_10  and  C_12
REMARK    4  A    between atoms: C_12  and  C_17
REMARK    5  A    between atoms: C_12  and  O_18
REMARK    6  A    between atoms: S_20  and  C_23
REMARK    7  A    between atoms: C_26  and  C_31
REMARK                            x       y       z     vdW  Elec       q    Type
REMARK                         _______ _______ _______ _____ _____    ______ ____
ROOT
ATOM      1 CL   UNL     1       2.217   1.038  -2.876  0.00  0.00    -0.081 Cl
ATOM      2  C   UNL     1      -0.326   2.082   0.020  0.00  0.00    +0.111 C 
ATOM      3  C   UNL     1       2.199   0.948  -0.147  0.00  0.00    +0.061 C 
ATOM      4  C   UNL     1       0.259   1.863  -1.227  0.00  0.00    +0.031 C 
ATOM      5  C   UNL     1       0.360   1.731   1.183  0.00  0.00    +0.020 C 
ATOM      6  C   UNL     1       1.529   1.292  -1.311  0.00  0.00    +0.072 C 
ATOM      7  C   UNL     1       1.629   1.160   1.099  0.00  0.00    +0.017 C 
ENDROOT
BRANCH   3   9
ATOM      8  O   UNL     1       4.003   0.053   2.064  0.00  0.00    -0.272 OA
ATOM      9  N   UNL     1       3.489   0.367  -0.198  0.00  0.00    -0.281 N 
ATOM     10  C   UNL     1       4.285  -0.030   0.870  0.00  0.00    +0.259 C 
ATOM     11  H   UNL     1       3.867   0.229  -1.096  0.00  0.00    +0.155 HD
BRANCH  10  12
ATOM     12  C   UNL     1       5.633  -0.622   0.420  0.00  0.00    +0.245 C 
ATOM     13  C   UNL     1       6.447   0.392  -0.384  0.00  0.00    +0.048 C 
BRANCH  12  17
ATOM     14  F   UNL     1       4.700  -1.753  -1.460  0.00  0.00    -0.167 F 
ATOM     15  F   UNL     1       4.825  -2.852   0.415  0.00  0.00    -0.167 F 
ATOM     16  F   UNL     1       6.636  -2.443  -0.728  0.00  0.00    -0.167 F 
ATOM     17  C   UNL     1       5.447  -1.923  -0.348  0.00  0.00    +0.427 C 
ENDBRANCH  12  17
BRANCH  12  18
ATOM     18  O   UNL     1       6.369  -0.941   1.601  0.00  0.00    -0.372 OA
ATOM     19  H   UNL     1       5.870  -1.585   2.128  0.00  0.00    +0.211 HD
ENDBRANCH  12  18
ENDBRANCH  10  12
ENDBRANCH   3   9
BRANCH   2  20
ATOM     20  S   UNL     1      -1.915   2.797   0.126  0.00  0.00    +0.027 S 
ATOM     21  O   UNL     1      -2.173   3.568  -1.083  0.00  0.00    -0.164 OA
ATOM     22  O   UNL     1      -1.986   3.448   1.427  0.00  0.00    -0.164 OA
BRANCH  20  23
ATOM     23  C   UNL     1      -3.119   1.496   0.106  0.00  0.00    +0.110 C 
ATOM     24  C   UNL     1      -3.625   1.070  -1.107  0.00  0.00    +0.019 C 
ATOM     25  C   UNL     1      -3.525   0.939   1.304  0.00  0.00    +0.019 C 
ATOM     26  C   UNL     1      -4.998  -0.529   0.074  0.00  0.00    +0.054 C 
ATOM     27  C   UNL     1      -4.574   0.048  -1.123  0.00  0.00    +0.006 C 
ATOM     28  C   UNL     1      -4.473  -0.084   1.287  0.00  0.00    +0.006 C 
BRANCH  26  31
ATOM     29  O   UNL     1      -7.175  -1.261   0.138  0.00  0.00    -0.270 OA
ATOM     30  N   UNL     1      -5.547  -2.929  -0.034  0.00  0.00    -0.273 N 
ATOM     31  C   UNL     1      -5.986  -1.596   0.057  0.00  0.00    +0.249 C 
ATOM     32  C   UNL     1      -4.131  -3.278  -0.127  0.00  0.00    +0.115 C 
ATOM     33  C   UNL     1      -6.474  -4.052  -0.040  0.00  0.00    +0.115 C 
ENDBRANCH  26  31
ENDBRANCH  20  23
ENDBRANCH   2  20
TORSDOF 7
