REMARK  Name = 54682555
REMARK  3 active torsions:
REMARK  status: ('A' for Active; 'I' for Inactive)
REMARK    1  A    between atoms: C_4  and  C_19
REMARK    2  A    between atoms: C_5  and  C_9
REMARK    3  A    between atoms: C_6  and  O_25
REMARK                            x       y       z     vdW  Elec       q    Type
REMARK                         _______ _______ _______ _____ _____    ______ ____
ROOT
ATOM      1  O   UNL     1      -0.212   0.360  -0.993  0.00  0.00    -0.418 OA
ATOM      2  O   UNL     1       1.509  -0.034  -2.458  0.00  0.00    -0.244 OA
ATOM      3  C   UNL     1      -0.224   0.551   0.384  0.00  0.00    +0.182 C 
ATOM      4  C   UNL     1       1.960   0.205  -0.114  0.00  0.00    +0.113 C 
ATOM      5  C   UNL     1      -1.361   0.790   1.046  0.00  0.00    +0.041 C 
ATOM      6  C   UNL     1       1.107   0.446   0.880  0.00  0.00    +0.175 C 
ATOM      7  C   UNL     1       1.106   0.153  -1.320  0.00  0.00    +0.349 C 
ENDROOT
BRANCH   5   9
ATOM      8  C   UNL     1      -3.552  -0.220   0.327  0.00  0.00    +0.000 C 
ATOM      9  C   UNL     1      -2.696   0.885   0.458  0.00  0.00    +0.003 C 
ATOM     10  C   UNL     1      -4.829  -0.040  -0.255  0.00  0.00    +0.000 C 
ATOM     11  C   UNL     1      -3.093   2.150   0.021  0.00  0.00    +0.000 C 
ATOM     12  C   UNL     1      -3.169  -1.499   0.761  0.00  0.00    +0.000 C 
ATOM     13  C   UNL     1      -5.213   1.239  -0.689  0.00  0.00    +0.000 C 
ATOM     14  C   UNL     1      -5.686  -1.146  -0.387  0.00  0.00    +0.000 C 
ATOM     15  C   UNL     1      -4.349   2.326  -0.551  0.00  0.00    +0.000 C 
ATOM     16  C   UNL     1      -4.032  -2.586   0.623  0.00  0.00    +0.000 C 
ATOM     17  C   UNL     1      -5.288  -2.410   0.050  0.00  0.00    +0.000 C 
ENDBRANCH   5   9
BRANCH   4  19
ATOM     18 CL   UNL     1       7.873  -0.611   0.095  0.00  0.00    -0.082 Cl
ATOM     19  C   UNL     1       3.407   0.005  -0.063  0.00  0.00    +0.009 C 
ATOM     20  C   UNL     1       4.233   1.012   0.437  0.00  0.00    +0.001 C 
ATOM     21  C   UNL     1       3.962  -1.192  -0.514  0.00  0.00    +0.001 C 
ATOM     22  C   UNL     1       5.614   0.822   0.486  0.00  0.00    +0.011 C 
ATOM     23  C   UNL     1       5.343  -1.383  -0.465  0.00  0.00    +0.011 C 
ATOM     24  C   UNL     1       6.169  -0.376   0.035  0.00  0.00    +0.058 C 
ENDBRANCH   4  19
BRANCH   6  25
ATOM     25  O   UNL     1       1.419   0.552   2.205  0.00  0.00    -0.503 OA
ATOM     26  H   UNL     1       0.744   0.724   2.833  0.00  0.00    +0.292 HD
ENDBRANCH   6  25
TORSDOF 3
