REMARK  Name = 1757
REMARK  10 active torsions:
REMARK  status: ('A' for Active; 'I' for Inactive)
REMARK    1  A    between atoms: C_1  and  C_2
REMARK    2  A    between atoms: C_1  and  C_15
REMARK    3  A    between atoms: C_7  and  O_8
REMARK    4  A    between atoms: O_8  and  P_9
REMARK    5  A    between atoms: P_9  and  O_11
REMARK    6  A    between atoms: P_9  and  O_13
REMARK    7  A    between atoms: C_20  and  O_21
REMARK    8  A    between atoms: O_21  and  P_22
REMARK    9  A    between atoms: P_22  and  O_24
REMARK   10  A    between atoms: P_22  and  O_26
REMARK                            x       y       z     vdW  Elec       q    Type
REMARK                         _______ _______ _______ _____ _____    ______ ____
ROOT
ATOM      1  C   UNL     1      -0.001  -2.416  -0.001  0.00  0.00    +0.053 C 
ENDROOT
BRANCH   1   2
ATOM      2  C   UNL     1      -1.229  -1.603  -0.232  0.00  0.00    -0.018 C 
ATOM      3  C   UNL     1      -1.580  -1.223  -1.527  0.00  0.00    -0.001 C 
ATOM      4  C   UNL     1      -2.028  -1.223   0.847  0.00  0.00    -0.001 C 
ATOM      5  C   UNL     1      -2.729  -0.462  -1.744  0.00  0.00    +0.037 C 
ATOM      6  C   UNL     1      -3.177  -0.463   0.631  0.00  0.00    +0.037 C 
ATOM      7  C   UNL     1      -3.528  -0.083  -0.665  0.00  0.00    +0.149 C 
BRANCH   7   8
ATOM      8  O   UNL     1      -4.649   0.660  -0.876  0.00  0.00    -0.403 OA
BRANCH   8   9
ATOM      9  P   UNL     1      -5.663   1.169   0.278  0.00  0.00    +0.528 P 
ATOM     10  O   UNL     1      -6.311   0.082   1.087  0.00  0.00    -0.216 OA
BRANCH   9  11
ATOM     11  O   UNL     1      -4.797   2.246   1.118  0.00  0.00    -0.293 OA
ATOM     12  H   UNL     1      -4.422   2.903   0.511  0.00  0.00    +0.223 HD
ENDBRANCH   9  11
BRANCH   9  13
ATOM     13  O   UNL     1      -6.701   2.100  -0.543  0.00  0.00    -0.293 OA
ATOM     14  H   UNL     1      -6.209   2.774  -1.038  0.00  0.00    +0.223 HD
ENDBRANCH   9  13
ENDBRANCH   8   9
ENDBRANCH   7   8
ENDBRANCH   1   2
BRANCH   1  15
ATOM     15  C   UNL     1       1.248  -1.590   0.235  0.00  0.00    -0.018 C 
ATOM     16  C   UNL     1       1.579  -1.223   1.526  0.00  0.00    -0.001 C 
ATOM     17  C   UNL     1       2.026  -1.223  -0.848  0.00  0.00    -0.001 C 
ATOM     18  C   UNL     1       2.728  -0.463   1.743  0.00  0.00    +0.037 C 
ATOM     19  C   UNL     1       3.175  -0.462  -0.631  0.00  0.00    +0.037 C 
ATOM     20  C   UNL     1       3.526  -0.082   0.664  0.00  0.00    +0.149 C 
BRANCH  20  21
ATOM     21  O   UNL     1       4.647   0.660   0.876  0.00  0.00    -0.403 OA
BRANCH  21  22
ATOM     22  P   UNL     1       5.661   1.169  -0.278  0.00  0.00    +0.528 P 
ATOM     23  O   UNL     1       6.309   0.083  -1.087  0.00  0.00    -0.216 OA
BRANCH  22  24
ATOM     24  O   UNL     1       4.795   2.247  -1.117  0.00  0.00    -0.293 OA
ATOM     25  H   UNL     1       4.420   2.904  -0.510  0.00  0.00    +0.223 HD
ENDBRANCH  22  24
BRANCH  22  26
ATOM     26  O   UNL     1       6.699   2.100   0.543  0.00  0.00    -0.293 OA
ATOM     27  H   UNL     1       6.207   2.774   1.038  0.00  0.00    +0.223 HD
ENDBRANCH  22  26
ENDBRANCH  21  22
ENDBRANCH  20  21
ENDBRANCH   1  15
TORSDOF 10
