REMARK  Name = 15991559
REMARK  9 active torsions:
REMARK  status: ('A' for Active; 'I' for Inactive)
REMARK    1  A    between atoms: C_3  and  C_24
REMARK    2  A    between atoms: C_3  and  C_31
REMARK    3  A    between atoms: C_5  and  C_28
REMARK    4  A    between atoms: C_6  and  C_20
REMARK    5  A    between atoms: C_7  and  C_8
REMARK    6  A    between atoms: C_11  and  C_14
REMARK    7  A    between atoms: C_24  and  O_25
REMARK    8  A    between atoms: C_28  and  O_29
REMARK    9  A    between atoms: C_31  and  C_32
REMARK                            x       y       z     vdW  Elec       q    Type
REMARK                         _______ _______ _______ _____ _____    ______ ____
ROOT
ATOM      1  O   UNL     1       0.482   2.477  -0.973  0.00  0.00    -0.270 OA
ATOM      2  N   UNL     1       1.049   0.525   0.188  0.00  0.00    -0.265 N 
ATOM      3  C   UNL     1       2.505   0.744   0.199  0.00  0.00    +0.150 C 
ATOM      4  C   UNL     1       3.034  -0.232   1.266  0.00  0.00    +0.042 C 
ATOM      5  C   UNL     1       2.029  -1.381   1.295  0.00  0.00    +0.125 C 
ATOM      6  C   UNL     1       0.692  -0.707   0.931  0.00  0.00    +0.133 C 
ATOM      7  C   UNL     1       0.161   1.459  -0.360  0.00  0.00    +0.250 C 
ENDROOT
BRANCH   7   8
ATOM      8  C   UNL     1      -1.286   1.235  -0.202  0.00  0.00    +0.054 C 
ATOM      9  C   UNL     1      -1.982   0.509  -1.164  0.00  0.00    +0.004 C 
ATOM     10  C   UNL     1      -1.949   1.753   0.907  0.00  0.00    +0.004 C 
ATOM     11  C   UNL     1      -4.022   0.814   0.094  0.00  0.00    -0.023 C 
ATOM     12  C   UNL     1      -3.353   0.298  -1.015  0.00  0.00    -0.004 C 
ATOM     13  C   UNL     1      -3.320   1.542   1.056  0.00  0.00    -0.004 C 
BRANCH  11  14
ATOM     14  C   UNL     1      -5.487   0.588   0.254  0.00  0.00    +0.019 C 
ATOM     15  C   UNL     1      -6.266   1.939   0.304  0.00  0.00    +0.004 C 
ATOM     16  C   UNL     1      -5.800  -0.184   1.573  0.00  0.00    +0.004 C 
ATOM     17  C   UNL     1      -6.166  -0.242  -0.885  0.00  0.00    +0.004 C 
ENDBRANCH  11  14
ENDBRANCH   7   8
BRANCH   6  20
ATOM     18  S   UNL     1      -1.397  -2.540   1.089  0.00  0.00    -0.069 S 
ATOM     19  N   UNL     1      -0.293  -1.759  -1.114  0.00  0.00    -0.239 NA
ATOM     20  C   UNL     1      -0.266  -1.620   0.189  0.00  0.00    +0.107 C 
ATOM     21  C   UNL     1      -1.990  -3.193  -0.382  0.00  0.00    +0.057 C 
ATOM     22  C   UNL     1      -1.284  -2.663  -1.442  0.00  0.00    +0.106 C 
ENDBRANCH   6  20
BRANCH   3  24
ATOM     23  O   UNL     1       3.791  -0.528  -1.413  0.00  0.00    -0.249 OA
ATOM     24  C   UNL     1       3.037   0.401  -1.167  0.00  0.00    +0.330 C 
BRANCH  24  25
ATOM     25  O   UNL     1       2.566   1.268  -2.096  0.00  0.00    -0.479 OA
ATOM     26  H   UNL     1       1.989   1.961  -1.840  0.00  0.00    +0.295 HD
ENDBRANCH  24  25
ENDBRANCH   3  24
BRANCH   5  28
ATOM     27  O   UNL     1       2.186  -2.605  -0.788  0.00  0.00    -0.250 OA
ATOM     28  C   UNL     1       2.478  -2.497   0.394  0.00  0.00    +0.315 C 
BRANCH  28  29
ATOM     29  O   UNL     1       3.255  -3.377   1.071  0.00  0.00    -0.480 OA
ATOM     30  H   UNL     1       3.441  -3.235   1.979  0.00  0.00    +0.295 HD
ENDBRANCH  28  29
ENDBRANCH   5  28
BRANCH   3  31
ATOM     31  C   UNL     1       2.941   2.169   0.552  0.00  0.00    +0.029 C 
BRANCH  31  32
ATOM     32  C   UNL     1       4.465   2.331   0.658  0.00  0.00    +0.002 C 
ATOM     33  C   UNL     1       5.084   1.389   1.692  0.00  0.00    +0.000 C 
ATOM     34  C   UNL     1       5.104   2.087  -0.712  0.00  0.00    +0.000 C 
ENDBRANCH  31  32
ENDBRANCH   3  31
TORSDOF 9
