REMARK  Name = 24894158
REMARK  7 active torsions:
REMARK  status: ('A' for Active; 'I' for Inactive)
REMARK    1  A    between atoms: C_5  and  N_22
REMARK    2  A    between atoms: C_12  and  C_15
REMARK    3  A    between atoms: C_23  and  C_25
REMARK    4  A    between atoms: C_25  and  C_27
REMARK    5  A    between atoms: C_25  and  C_33
REMARK    6  A    between atoms: C_33  and  C_34
REMARK    7  A    between atoms: C_34  and  N_35
REMARK                            x       y       z     vdW  Elec       q    Type
REMARK                         _______ _______ _______ _____ _____    ______ ____
ROOT
ATOM      1  O   UNL     1      -5.642   0.822  -0.596  0.00  0.00    -0.270 OA
ATOM      2  N   UNL     1      -2.746   3.914  -0.398  0.00  0.00    -0.275 N 
ATOM      3  N   UNL     1      -3.616   2.890  -0.427  0.00  0.00    -0.157 NA
ATOM      4  N   UNL     1      -3.353   0.541  -0.123  0.00  0.00    -0.264 N 
ATOM      5  C   UNL     1       0.890   2.198   0.395  0.00  0.00    +0.050 C 
ATOM      6  C   UNL     1      -1.489   2.163   0.005  0.00  0.00    +0.052 A 
ATOM      7  C   UNL     1      -1.453   3.545  -0.143  0.00  0.00    +0.077 A 
ATOM      8  C   UNL     1      -0.299   1.468   0.278  0.00  0.00    +0.019 C 
ATOM      9  C   UNL     1       0.898   3.586   0.242  0.00  0.00    +0.016 C 
ATOM     10  C   UNL     1      -2.847   1.826  -0.183  0.00  0.00    +0.155 A 
ATOM     11  C   UNL     1      -0.278   4.292  -0.031  0.00  0.00    +0.020 C 
ATOM     12  C   UNL     1      -4.679   0.112  -0.325  0.00  0.00    +0.251 C 
ATOM     13  H   UNL     1      -3.016   4.849  -0.547  0.00  0.00    +0.189 HD
ATOM     14  H   UNL     1      -2.701  -0.166   0.087  0.00  0.00    +0.157 HD
ENDROOT
BRANCH  12  15
ATOM     15  C   UNL     1      -4.908  -1.353  -0.220  0.00  0.00    +0.054 C 
ATOM     16  C   UNL     1      -5.962  -1.946  -0.916  0.00  0.00    +0.005 C 
ATOM     17  C   UNL     1      -4.069  -2.135   0.575  0.00  0.00    +0.005 C 
ATOM     18  C   UNL     1      -6.176  -3.321  -0.817  0.00  0.00    +0.000 C 
ATOM     19  C   UNL     1      -4.284  -3.510   0.673  0.00  0.00    +0.000 C 
ATOM     20  C   UNL     1      -5.338  -4.103  -0.023  0.00  0.00    +0.000 C 
ENDBRANCH  12  15
BRANCH   5  22
ATOM     21  O   UNL     1       1.420  -0.723   0.819  0.00  0.00    -0.274 OA
ATOM     22  N   UNL     1       2.100   1.519   0.670  0.00  0.00    -0.284 N 
ATOM     23  C   UNL     1       2.283   0.150   0.852  0.00  0.00    +0.230 C 
ATOM     24  H   UNL     1       2.906   2.079   0.741  0.00  0.00    +0.155 HD
BRANCH  23  25
ATOM     25  C   UNL     1       3.756  -0.185   1.133  0.00  0.00    +0.097 C 
BRANCH  25  27
ATOM     26 CL   UNL     1       4.355  -3.057  -3.190  0.00  0.00    -0.082 Cl
ATOM     27  C   UNL     1       4.497  -0.437  -0.170  0.00  0.00    -0.013 C 
ATOM     28  C   UNL     1       4.127  -1.505  -0.987  0.00  0.00    +0.008 C 
ATOM     29  C   UNL     1       5.548   0.399  -0.547  0.00  0.00    -0.004 C 
ATOM     30  C   UNL     1       4.809  -1.738  -2.182  0.00  0.00    +0.057 C 
ATOM     31  C   UNL     1       6.229   0.167  -1.742  0.00  0.00    +0.001 C 
ATOM     32  C   UNL     1       5.860  -0.901  -2.559  0.00  0.00    +0.011 C 
ENDBRANCH  25  27
BRANCH  25  33
ATOM     33  C   UNL     1       3.861  -1.369   2.120  0.00  0.00    -0.010 C 
BRANCH  33  34
ATOM     34  C   UNL     1       3.183  -1.081   3.463  0.00  0.00    -0.085 C 
BRANCH  34  35
ATOM     35  N   UNL     1       3.326  -2.226   4.355  0.00  0.00    +0.380 N 
ATOM     36  H   UNL     1       2.871  -2.023   5.245  0.00  0.00    -0.089 HD
ATOM     37  H   UNL     1       4.317  -2.411   4.514  0.00  0.00    -0.089 HD
ATOM     38  H   UNL     1       2.891  -3.045   3.930  0.00  0.00    -0.089 HD
ENDBRANCH  34  35
ENDBRANCH  33  34
ENDBRANCH  25  33
ENDBRANCH  23  25
ENDBRANCH   5  22
TORSDOF 7
