REMARK  Name = 445713
REMARK  14 active torsions:
REMARK  status: ('A' for Active; 'I' for Inactive)
REMARK    1  A    between atoms: C_1  and  C_4
REMARK    2  A    between atoms: C_2  and  C_15
REMARK    3  A    between atoms: C_4  and  C_5
REMARK    4  A    between atoms: C_5  and  C_7
REMARK    5  A    between atoms: C_6  and  C_9
REMARK    6  A    between atoms: C_9  and  C_10
REMARK    7  A    between atoms: C_10  and  C_11
REMARK    8  A    between atoms: C_15  and  O_16
REMARK    9  A    between atoms: O_16  and  P_17
REMARK   10  A    between atoms: P_17  and  O_19
REMARK   11  A    between atoms: P_17  and  O_21
REMARK   12  A    between atoms: O_21  and  P_22
REMARK   13  A    between atoms: P_22  and  O_24
REMARK   14  A    between atoms: P_22  and  O_26
REMARK                            x       y       z     vdW  Elec       q    Type
REMARK                         _______ _______ _______ _____ _____    ______ ____
ROOT
ATOM      1  C   UNL     1      -0.713   2.268  -1.090  0.00  0.00    -0.045 C 
ATOM      2  C   UNL     1       0.449   1.802  -0.594  0.00  0.00    -0.002 C 
ATOM      3  C   UNL     1      -1.306   1.662  -2.335  0.00  0.00    +0.026 C 
ENDROOT
BRANCH   1   4
ATOM      4  C   UNL     1      -1.526   3.382  -0.468  0.00  0.00    +0.026 C 
BRANCH   4   5
ATOM      5  C   UNL     1      -2.907   2.899  -0.010  0.00  0.00    +0.030 C 
BRANCH   5   7
ATOM      6  C   UNL     1      -3.653   0.733   1.157  0.00  0.00    -0.048 C 
ATOM      7  C   UNL     1      -2.791   1.747   0.950  0.00  0.00    -0.034 C 
ATOM      8  C   UNL     1      -4.933   0.668   0.360  0.00  0.00    +0.026 C 
BRANCH   6   9
ATOM      9  C   UNL     1      -3.481  -0.364   2.188  0.00  0.00    +0.026 C 
BRANCH   9  10
ATOM     10  C   UNL     1      -3.533  -1.785   1.610  0.00  0.00    +0.030 C 
BRANCH  10  11
ATOM     11  C   UNL     1      -2.378  -2.084   0.695  0.00  0.00    -0.034 C 
ATOM     12  C   UNL     1      -2.414  -2.448  -0.602  0.00  0.00    -0.048 C 
ATOM     13  C   UNL     1      -3.732  -2.607  -1.312  0.00  0.00    +0.026 C 
ATOM     14  C   UNL     1      -1.215  -2.733  -1.460  0.00  0.00    +0.026 C 
ENDBRANCH  10  11
ENDBRANCH   9  10
ENDBRANCH   6   9
ENDBRANCH   5   7
ENDBRANCH   4   5
ENDBRANCH   1   4
BRANCH   2  15
ATOM     15  C   UNL     1       1.286   0.693  -1.144  0.00  0.00    +0.179 C 
BRANCH  15  16
ATOM     16  O   UNL     1       1.426  -0.309  -0.144  0.00  0.00    -0.268 OA
BRANCH  16  17
ATOM     17  P   UNL     1       2.634  -1.377  -0.239  0.00  0.00    +0.484 P 
ATOM     18  O   UNL     1       2.670  -2.381   0.876  0.00  0.00    -0.227 OA
BRANCH  17  19
ATOM     19  O   UNL     1       2.489  -2.024  -1.715  0.00  0.00    -0.302 OA
ATOM     20  H   UNL     1       2.473  -1.317  -2.378  0.00  0.00    +0.222 HD
ENDBRANCH  17  19
BRANCH  17  21
ATOM     21  O   UNL     1       3.969  -0.474  -0.361  0.00  0.00    -0.186 OA
BRANCH  21  22
ATOM     22  P   UNL     1       4.665   0.537   0.691  0.00  0.00    +0.481 P 
ATOM     23  O   UNL     1       3.801   1.687   1.119  0.00  0.00    -0.227 OA
BRANCH  22  24
ATOM     24  O   UNL     1       5.155  -0.440   1.881  0.00  0.00    -0.302 OA
ATOM     25  H   UNL     1       5.704  -1.149   1.511  0.00  0.00    +0.222 HD
ENDBRANCH  22  24
BRANCH  22  26
ATOM     26  O   UNL     1       6.040   0.949  -0.051  0.00  0.00    -0.302 OA
ATOM     27  H   UNL     1       6.531   0.147  -0.291  0.00  0.00    +0.222 HD
ENDBRANCH  22  26
ENDBRANCH  21  22
ENDBRANCH  17  21
ENDBRANCH  16  17
ENDBRANCH  15  16
ENDBRANCH   2  15
TORSDOF 14
