REMARK  Name = 6470990
REMARK  3 active torsions:
REMARK  status: ('A' for Active; 'I' for Inactive)
REMARK    1  A    between atoms: C_1  and  N_14
REMARK    2  A    between atoms: C_2  and  C_11
REMARK    3  A    between atoms: C_15  and  C_18
REMARK                            x       y       z     vdW  Elec       q    Type
REMARK                         _______ _______ _______ _____ _____    ______ ____
ROOT
ATOM      1  C   UNL     1      -0.622   0.712  -0.060  0.00  0.00    +0.051 C 
ATOM      2  C   UNL     1      -3.017   0.405   0.004  0.00  0.00    +0.067 C 
ATOM      3  C   UNL     1      -1.729  -0.132   0.015  0.00  0.00    +0.025 C 
ATOM      4  C   UNL     1      -0.801   2.093  -0.148  0.00  0.00    +0.015 C 
ATOM      5  C   UNL     1      -3.197   1.785  -0.084  0.00  0.00    +0.010 C 
ATOM      6  C   UNL     1      -2.089   2.629  -0.160  0.00  0.00    +0.002 C 
ENDROOT
BRANCH   2  11
ATOM      7  N   UNL     1      -5.418  -0.025   0.076  0.00  0.00    -0.110 NA
ATOM      8  N   UNL     1      -4.036  -1.817   0.170  0.00  0.00    -0.087 NA
ATOM      9  N   UNL     1      -6.054  -1.201   0.167  0.00  0.00    -0.140 N 
ATOM     10  N   UNL     1      -5.275  -2.291   0.225  0.00  0.00    -0.022 NA
ATOM     11  C   UNL     1      -4.158  -0.464   0.082  0.00  0.00    +0.074 C 
ATOM     12  H   UNL     1      -7.037  -1.262   0.189  0.00  0.00    +0.197 HD
ENDBRANCH   2  11
BRANCH   1  14
ATOM     13  O   UNL     1       2.005   2.078  -0.197  0.00  0.00    -0.270 OA
ATOM     14  N   UNL     1       0.667   0.176  -0.048  0.00  0.00    -0.280 N 
ATOM     15  C   UNL     1       1.900   0.856  -0.114  0.00  0.00    +0.250 C 
ATOM     16  H   UNL     1       0.721  -0.805   0.015  0.00  0.00    +0.155 HD
BRANCH  15  18
ATOM     17  F   UNL     1       6.584   0.122   0.835  0.00  0.00    -0.204 F 
ATOM     18  C   UNL     1       3.091  -0.010  -0.121  0.00  0.00    +0.056 C 
ATOM     19  C   UNL     1       4.290   0.481   0.370  0.00  0.00    +0.034 C 
ATOM     20  C   UNL     1       2.990  -1.300  -0.618  0.00  0.00    +0.005 C 
ATOM     21  C   UNL     1       5.418  -0.339   0.364  0.00  0.00    +0.140 C 
ATOM     22  C   UNL     1       4.118  -2.120  -0.624  0.00  0.00    +0.002 C 
ATOM     23  C   UNL     1       5.332  -1.640  -0.133  0.00  0.00    +0.030 C 
ENDBRANCH  15  18
ENDBRANCH   1  14
TORSDOF 3
