REMARK  Name = 46937094
REMARK  6 active torsions:
REMARK  status: ('A' for Active; 'I' for Inactive)
REMARK    1  A    between atoms: C_3  and  C_10
REMARK    2  A    between atoms: C_7  and  C_22
REMARK    3  A    between atoms: N_9  and  C_12
REMARK    4  A    between atoms: C_22  and  N_25
REMARK    5  A    between atoms: C_26  and  C_28
REMARK    6  A    between atoms: C_28  and  N_29
REMARK                            x       y       z     vdW  Elec       q    Type
REMARK                         _______ _______ _______ _____ _____    ______ ____
ROOT
ATOM      1  O   UNL     1      -2.169   1.034  -0.474  0.00  0.00    -0.273 OA
ATOM      2  N   UNL     1      -2.242  -1.181   0.192  0.00  0.00    -0.272 N 
ATOM      3  C   UNL     1      -1.084  -1.128   1.075  0.00  0.00    +0.152 C 
ATOM      4  C   UNL     1      -1.174  -2.400   1.909  0.00  0.00    +0.031 C 
ATOM      5  C   UNL     1      -1.893  -3.380   0.985  0.00  0.00    +0.024 C 
ATOM      6  C   UNL     1      -2.877  -2.496   0.235  0.00  0.00    +0.094 C 
ATOM      7  C   UNL     1      -2.734  -0.061  -0.460  0.00  0.00    +0.244 C 
ENDROOT
BRANCH   3  10
ATOM      8  O   UNL     1       0.130  -1.673  -0.891  0.00  0.00    -0.273 OA
ATOM      9  N   UNL     1       1.180  -0.433   0.810  0.00  0.00    -0.283 N 
ATOM     10  C   UNL     1       0.136  -1.119   0.203  0.00  0.00    +0.244 C 
ATOM     11  H   UNL     1       0.994  -0.056   1.700  0.00  0.00    +0.155 HD
BRANCH   9  12
ATOM     12  C   UNL     1       2.481  -0.215   0.298  0.00  0.00    +0.050 C 
ATOM     13  C   UNL     1       3.415   0.499   1.048  0.00  0.00    +0.015 C 
ATOM     14  C   UNL     1       2.827  -0.714  -0.955  0.00  0.00    +0.015 C 
ATOM     15  C   UNL     1       4.710   0.724   0.553  0.00  0.00    +0.001 C 
ATOM     16  C   UNL     1       5.063   0.216  -0.720  0.00  0.00    +0.000 C 
ATOM     17  C   UNL     1       4.109  -0.500  -1.462  0.00  0.00    +0.001 C 
ATOM     18  C   UNL     1       5.664   1.440   1.294  0.00  0.00    +0.000 C 
ATOM     19  C   UNL     1       6.358   0.441  -1.215  0.00  0.00    +0.000 C 
ATOM     20  C   UNL     1       6.946   1.654   0.788  0.00  0.00    +0.000 C 
ATOM     21  C   UNL     1       7.292   1.155  -0.465  0.00  0.00    +0.000 C 
ENDBRANCH   9  12
ENDBRANCH   3  10
BRANCH   7  22
ATOM     22  C   UNL     1      -4.038  -0.255  -1.191  0.00  0.00    +0.149 C 
ATOM     23  C   UNL     1      -3.792  -0.631  -2.633  0.00  0.00    +0.031 C 
BRANCH  22  25
ATOM     24  O   UNL     1      -5.705   0.627   1.004  0.00  0.00    -0.277 OA
ATOM     25  N   UNL     1      -4.709   1.003  -1.063  0.00  0.00    -0.300 N 
ATOM     26  C   UNL     1      -5.498   1.352   0.033  0.00  0.00    +0.201 C 
ATOM     27  H   UNL     1      -4.608   1.660  -1.790  0.00  0.00    +0.150 HD
BRANCH  26  28
ATOM     28  C   UNL     1      -6.110   2.731  -0.113  0.00  0.00    +0.001 C 
BRANCH  28  29
ATOM     29  N   UNL     1      -6.283   3.308   1.212  0.00  0.00    +0.386 N 
ATOM     30  H   UNL     1      -6.695   4.238   1.127  0.00  0.00    -0.089 HD
ATOM     31  H   UNL     1      -5.376   3.380   1.673  0.00  0.00    -0.089 HD
ATOM     32  H   UNL     1      -6.900   2.713   1.765  0.00  0.00    -0.089 HD
ENDBRANCH  28  29
ENDBRANCH  26  28
ENDBRANCH  22  25
ENDBRANCH   7  22
TORSDOF 6
