REMARK  Name = 448258
REMARK  4 active torsions:
REMARK  status: ('A' for Active; 'I' for Inactive)
REMARK    1  A    between atoms: N_2  and  N_13
REMARK    2  A    between atoms: N_2  and  C_27
REMARK    3  A    between atoms: C_3  and  C_4
REMARK    4  A    between atoms: C_14  and  C_18
REMARK                            x       y       z     vdW  Elec       q    Type
REMARK                         _______ _______ _______ _____ _____    ______ ____
ROOT
ATOM      1  O   UNL     1      -4.386  -0.525  -0.427  0.00  0.00    -0.268 OA
ATOM      2  N   UNL     1      -2.316  -1.417   0.137  0.00  0.00    -0.208 N 
ATOM      3  C   UNL     1      -3.205  -0.381  -0.115  0.00  0.00    +0.264 C 
ENDROOT
BRANCH   3   4
ATOM      4  C   UNL     1      -2.707   1.001   0.011  0.00  0.00    +0.054 C 
ATOM      5  C   UNL     1      -2.159   1.626  -1.096  0.00  0.00    +0.000 C 
ATOM      6  C   UNL     1      -2.800   1.645   1.233  0.00  0.00    +0.000 C 
ATOM      7  C   UNL     1      -1.689   2.934  -0.977  0.00  0.00    -0.022 C 
ATOM      8  C   UNL     1      -2.329   2.953   1.352  0.00  0.00    -0.022 C 
ATOM      9  C   UNL     1      -1.774   3.598   0.247  0.00  0.00    -0.009 C 
ATOM     10  C   UNL     1      -1.095   3.624  -2.159  0.00  0.00    +0.031 C 
ATOM     11  C   UNL     1      -2.422   3.663   2.661  0.00  0.00    +0.031 C 
ENDBRANCH   3   4
BRANCH   2  13
ATOM     12  O   UNL     1      -0.250  -1.226  -1.710  0.00  0.00    -0.269 OA
ATOM     13  N   UNL     1      -0.991  -1.215   0.487  0.00  0.00    -0.227 N 
ATOM     14  C   UNL     1      -0.004  -1.129  -0.497  0.00  0.00    +0.261 C 
ATOM     15  H   UNL     1      -0.744  -1.131   1.436  0.00  0.00    +0.173 HD
BRANCH  14  18
ATOM     16  O   UNL     1       4.455   0.640  -1.177  0.00  0.00    -0.469 OA
ATOM     17  O   UNL     1       5.201  -0.308   1.442  0.00  0.00    -0.468 OA
ATOM     18  C   UNL     1       1.359  -0.904  -0.034  0.00  0.00    +0.054 C 
ATOM     19  C   UNL     1       2.285  -0.216  -0.820  0.00  0.00    +0.020 C 
ATOM     20  C   UNL     1       3.585  -0.024  -0.351  0.00  0.00    +0.168 C 
ATOM     21  C   UNL     1       3.950  -0.494   0.913  0.00  0.00    +0.172 C 
ATOM     22  C   UNL     1       1.732  -1.397   1.217  0.00  0.00    +0.008 C 
ATOM     23  C   UNL     1       3.028  -1.193   1.692  0.00  0.00    +0.040 C 
ATOM     24  C   UNL     1       5.814   0.477  -0.762  0.00  0.00    +0.253 C 
ATOM     25  C   UNL     1       1.888   0.303  -2.166  0.00  0.00    +0.034 C 
ATOM     26  C   UNL     1       5.936   0.694   0.734  0.00  0.00    +0.253 C 
ENDBRANCH  14  18
ENDBRANCH   2  13
BRANCH   2  27
ATOM     27  C   UNL     1      -2.681  -2.817   0.061  0.00  0.00    +0.079 C 
ATOM     28  C   UNL     1      -3.161  -3.139  -1.359  0.00  0.00    +0.022 C 
ATOM     29  C   UNL     1      -1.457  -3.673   0.401  0.00  0.00    +0.022 C 
ATOM     30  C   UNL     1      -3.808  -3.102   1.061  0.00  0.00    +0.022 C 
ENDBRANCH   2  27
TORSDOF 4
