6102821
  -OEChem-10051721003D

 46 49  0     0  0  0  0  0  0999 V2000
   -5.2772    0.2808    0.4417 Cl  0  0  0  0  0  0  0  0  0  0  0  0
   -0.6210    1.9583   -3.3538 Cl  0  0  0  0  0  0  0  0  0  0  0  0
   -2.6497    1.7379    1.6385 S   0  0  0  0  0  0  0  0  0  0  0  0
   -0.2539   -0.1752    1.1888 O   0  0  0  0  0  0  0  0  0  0  0  0
    1.6424   -4.8707   -0.8104 O   0  0  0  0  0  0  0  0  0  0  0  0
   -1.4164    2.4827    1.8054 O   0  0  0  0  0  0  0  0  0  0  0  0
   -3.9113    2.2937    2.0907 O   0  0  0  0  0  0  0  0  0  0  0  0
    4.8550    3.2045   -0.1983 O   0  0  0  0  0  0  0  0  0  0  0  0
   -2.4477    0.1495    2.2766 N   0  0  0  0  0  0  0  0  0  0  0  0
   -1.6345   -1.9609    1.3942 N   0  0  0  0  0  0  0  0  0  0  0  0
    4.1504    1.3052    0.9329 N   0  0  0  0  0  0  0  0  0  0  0  0
    0.3730   -1.2572    0.6401 C   0  0  0  0  0  0  0  0  0  0  0  0
    1.6313   -1.2968    0.0521 C   0  0  0  0  0  0  0  0  0  0  0  0
   -0.4745   -2.3479    0.7678 C   0  0  0  0  0  0  0  0  0  0  0  0
   -1.4460   -0.6785    1.6155 C   0  0  0  0  0  0  0  0  0  0  0  0
    2.0338   -2.5459   -0.4329 C   0  0  0  0  0  0  0  0  0  0  0  0
    2.4541   -0.1191   -0.0447 C   0  0  0  0  0  0  0  0  0  0  0  0
   -0.0558   -3.5926    0.2763 C   0  0  0  0  0  0  0  0  0  0  0  0
    1.2091   -3.6724   -0.3243 C   0  0  0  0  0  0  0  0  0  0  0  0
   -2.8342    1.3867   -0.0859 C   0  0  0  0  0  0  0  0  0  0  0  0
    2.3793    0.7243   -1.1502 C   0  0  0  0  0  0  0  0  0  0  0  0
    3.3501    0.2160    0.9607 C   0  0  0  0  0  0  0  0  0  0  0  0
   -3.9689    0.7609   -0.5779 C   0  0  0  0  0  0  0  0  0  0  0  0
   -1.7974    1.7606   -0.9281 C   0  0  0  0  0  0  0  0  0  0  0  0
    3.1867    1.8545   -1.2152 C   0  0  0  0  0  0  0  0  0  0  0  0
   -1.8989    1.5020   -2.2951 C   0  0  0  0  0  0  0  0  0  0  0  0
   -4.0703    0.5025   -1.9450 C   0  0  0  0  0  0  0  0  0  0  0  0
    4.0477    2.0981   -0.1572 C   0  0  0  0  0  0  0  0  0  0  0  0
   -3.0352    0.8729   -2.8035 C   0  0  0  0  0  0  0  0  0  0  0  0
    0.7604   -5.9818   -0.6718 C   0  0  0  0  0  0  0  0  0  0  0  0
    5.7196    3.4078    0.9130 C   0  0  0  0  0  0  0  0  0  0  0  0
    3.0088   -2.6517   -0.9068 H   0  0  0  0  0  0  0  0  0  0  0  0
   -0.7375   -4.4252    0.3898 H   0  0  0  0  0  0  0  0  0  0  0  0
   -3.2896   -0.3530    2.5838 H   0  0  0  0  0  0  0  0  0  0  0  0
    1.7023    0.5054   -1.9709 H   0  0  0  0  0  0  0  0  0  0  0  0
    3.4590   -0.3973    1.8508 H   0  0  0  0  0  0  0  0  0  0  0  0
   -0.9031    2.2486   -0.5519 H   0  0  0  0  0  0  0  0  0  0  0  0
    3.1397    2.5186   -2.0714 H   0  0  0  0  0  0  0  0  0  0  0  0
   -4.9487    0.0128   -2.3576 H   0  0  0  0  0  0  0  0  0  0  0  0
   -3.1275    0.6648   -3.8664 H   0  0  0  0  0  0  0  0  0  0  0  0
    1.2630   -6.8499   -1.1110 H   0  0  0  0  0  0  0  0  0  0  0  0
   -0.1674   -5.8333   -1.2348 H   0  0  0  0  0  0  0  0  0  0  0  0
    0.5747   -6.2210    0.3808 H   0  0  0  0  0  0  0  0  0  0  0  0
    6.4300    2.5805    1.0145 H   0  0  0  0  0  0  0  0  0  0  0  0
    5.1470    3.5461    1.8362 H   0  0  0  0  0  0  0  0  0  0  0  0
    6.2917    4.3225    0.7313 H   0  0  0  0  0  0  0  0  0  0  0  0
  1 23  1  0  0  0  0
  2 26  1  0  0  0  0
  3  6  2  0  0  0  0
  3  7  2  0  0  0  0
  3  9  1  0  0  0  0
  3 20  1  0  0  0  0
  4 12  1  0  0  0  0
  4 15  1  0  0  0  0
  5 19  1  0  0  0  0
  5 30  1  0  0  0  0
  8 28  1  0  0  0  0
  8 31  1  0  0  0  0
  9 15  1  0  0  0  0
  9 34  1  0  0  0  0
 10 14  1  0  0  0  0
 10 15  2  0  0  0  0
 11 22  1  0  0  0  0
 11 28  2  0  0  0  0
 12 13  2  0  0  0  0
 12 14  1  0  0  0  0
 13 16  1  0  0  0  0
 13 17  1  0  0  0  0
 14 18  2  0  0  0  0
 16 19  2  0  0  0  0
 16 32  1  0  0  0  0
 17 21  1  0  0  0  0
 17 22  2  0  0  0  0
 18 19  1  0  0  0  0
 18 33  1  0  0  0  0
 20 23  2  0  0  0  0
 20 24  1  0  0  0  0
 21 25  2  0  0  0  0
 21 35  1  0  0  0  0
 22 36  1  0  0  0  0
 23 27  1  0  0  0  0
 24 26  2  0  0  0  0
 24 37  1  0  0  0  0
 25 28  1  0  0  0  0
 25 38  1  0  0  0  0
 26 29  1  0  0  0  0
 27 29  2  0  0  0  0
 27 39  1  0  0  0  0
 29 40  1  0  0  0  0
 30 41  1  0  0  0  0
 30 42  1  0  0  0  0
 30 43  1  0  0  0  0
 31 44  1  0  0  0  0
 31 45  1  0  0  0  0
 31 46  1  0  0  0  0
M  END
> <DATABASE_ID>
DB07321

> <DATABASE_NAME>
drugbank

> <ORIGINAL_SOURCE>
PUBCHEM

> <ORIGINAL_SOURCE_URL>
https://pubchem.ncbi.nlm.nih.gov/rest/pug/compound/inchikey/KOKQLKWXOFRTHE-UHFFFAOYSA-N/SDF?record_type=3d

> <SMILES>
COC1=CC2=C(OC(NS(=O)(=O)C3=CC(Cl)=CC=C3Cl)=N2)C(=C1)C1=CN=C(OC)C=C1

> <INCHI_IDENTIFIER>
InChI=1S/C20H15Cl2N3O5S/c1-28-13-8-14(11-3-6-18(29-2)23-10-11)19-16(9-13)24-20(30-19)25-31(26,27)17-7-12(21)4-5-15(17)22/h3-10H,1-2H3,(H,24,25)

> <INCHI_KEY>
KOKQLKWXOFRTHE-UHFFFAOYSA-N

> <FORMULA>
C20H15Cl2N3O5S

> <MOLECULAR_WEIGHT>
480.321

> <EXACT_MASS>
479.010946709

> <JCHEM_ACCEPTOR_COUNT>
6

> <JCHEM_AVERAGE_POLARIZABILITY>
44.891061145654405

> <JCHEM_BIOAVAILABILITY>
1

> <JCHEM_DONOR_COUNT>
1

> <JCHEM_FORMAL_CHARGE>
0

> <JCHEM_GHOSE_FILTER>
0

> <JCHEM_IUPAC>
2,5-dichloro-N-[5-methoxy-7-(6-methoxypyridin-3-yl)-1,3-benzoxazol-2-yl]benzene-1-sulfonamide

> <ALOGPS_LOGP>
4.46

> <JCHEM_LOGP>
4.408537982

> <ALOGPS_LOGS>
-4.31

> <JCHEM_MDDR_LIKE_RULE>
0

> <JCHEM_NUMBER_OF_RINGS>
4

> <JCHEM_PHYSIOLOGICAL_CHARGE>
-1

> <JCHEM_PKA_STRONGEST_ACIDIC>
6.57682207494486

> <JCHEM_PKA_STRONGEST_BASIC>
2.288186391487309

> <JCHEM_POLAR_SURFACE_AREA>
103.55000000000001

> <JCHEM_REFRACTIVITY>
114.85739999999998

> <JCHEM_ROTATABLE_BOND_COUNT>
5

> <JCHEM_RULE_OF_FIVE>
1

> <ALOGPS_SOLUBILITY>
2.37e-02 g/l

> <JCHEM_TRADITIONAL_IUPAC>
2,5-dichloro-N-[5-methoxy-7-(6-methoxypyridin-3-yl)-1,3-benzoxazol-2-yl]benzenesulfonamide

> <JCHEM_VEBER_RULE>
0

> <DRUGBANK_ID>
DB07321

> <DRUG_GROUPS>
experimental

> <GENERIC_NAME>
2,5-DICHLORO-N-[5-METHOXY-7-(6-METHOXYPYRIDIN-3-YL)-1,3-BENZOXAZOL-2-YL]BENZENESULFONAMIDE

$$$$
