REMARK  Name = 6540261
REMARK  9 active torsions:
REMARK  status: ('A' for Active; 'I' for Inactive)
REMARK    1  A    between atoms: S_1  and  C_4
REMARK    2  A    between atoms: S_1  and  N_18
REMARK    3  A    between atoms: C_7  and  C_10
REMARK    4  A    between atoms: C_15  and  O_16
REMARK    5  A    between atoms: N_18  and  C_20
REMARK    6  A    between atoms: C_20  and  C_21
REMARK    7  A    between atoms: C_20  and  P_24
REMARK    8  A    between atoms: P_24  and  O_26
REMARK    9  A    between atoms: P_24  and  O_28
REMARK                            x       y       z     vdW  Elec       q    Type
REMARK                         _______ _______ _______ _____ _____    ______ ____
ROOT
ATOM      1  S   UNL     1       2.640  -2.096  -0.162  0.00  0.00    +0.061 S 
ATOM      2  O   UNL     1       3.003  -2.301  -1.551  0.00  0.00    -0.153 OA
ATOM      3  O   UNL     1       2.771  -3.182   0.791  0.00  0.00    -0.153 OA
ENDROOT
BRANCH   1   4
ATOM      4  C   UNL     1       0.950  -1.583  -0.116  0.00  0.00    +0.122 C 
ATOM      5  C   UNL     1       0.200  -1.825   1.022  0.00  0.00    +0.020 C 
ATOM      6  C   UNL     1       0.405  -0.948  -1.220  0.00  0.00    +0.020 C 
ATOM      7  C   UNL     1      -1.699  -0.780  -0.044  0.00  0.00    +0.000 C 
ATOM      8  C   UNL     1      -1.135  -1.421   1.058  0.00  0.00    +0.001 C 
ATOM      9  C   UNL     1      -0.929  -0.543  -1.183  0.00  0.00    +0.001 C 
BRANCH   7  10
ATOM     10  C   UNL     1      -3.083  -0.360  -0.007  0.00  0.00    +0.000 C 
ATOM     11  C   UNL     1      -4.008  -1.071   0.758  0.00  0.00    +0.003 C 
ATOM     12  C   UNL     1      -3.493   0.757  -0.736  0.00  0.00    +0.003 C 
ATOM     13  C   UNL     1      -5.342  -0.666   0.793  0.00  0.00    +0.037 C 
ATOM     14  C   UNL     1      -4.827   1.162  -0.700  0.00  0.00    +0.037 C 
ATOM     15  C   UNL     1      -5.752   0.451   0.064  0.00  0.00    +0.139 C 
BRANCH  15  16
ATOM     16  O   UNL     1      -7.054   0.845   0.098  0.00  0.00    -0.471 OA
ATOM     17  C   UNL     1      -7.404   1.995  -0.671  0.00  0.00    +0.252 C 
ENDBRANCH  15  16
ENDBRANCH   7  10
ENDBRANCH   1   4
BRANCH   1  18
ATOM     18  N   UNL     1       3.441  -0.727   0.447  0.00  0.00    -0.169 NA
ATOM     19  H   UNL     1       4.431  -0.969   0.477  0.00  0.00    +0.149 HD
BRANCH  18  20
ATOM     20  C   UNL     1       3.360   0.596  -0.206  0.00  0.00    +0.179 C 
BRANCH  20  21
ATOM     21  C   UNL     1       4.485   0.760  -1.251  0.00  0.00    +0.028 C 
ATOM     22  C   UNL     1       4.483   2.117  -1.959  0.00  0.00    +0.002 C 
ATOM     23  C   UNL     1       5.866   0.494  -0.647  0.00  0.00    +0.002 C 
ENDBRANCH  20  21
BRANCH  20  24
ATOM     24  P   UNL     1       3.393   1.804   1.126  0.00  0.00    +0.352 P 
ATOM     25  O   UNL     1       4.639   1.815   1.960  0.00  0.00    -0.257 OA
BRANCH  24  26
ATOM     26  O   UNL     1       2.035   1.508   1.951  0.00  0.00    -0.323 OA
ATOM     27  H   UNL     1       1.970   2.122   2.699  0.00  0.00    +0.220 HD
ENDBRANCH  24  26
BRANCH  24  28
ATOM     28  O   UNL     1       3.055   3.200   0.385  0.00  0.00    -0.323 OA
ATOM     29  H   UNL     1       3.051   3.920   1.035  0.00  0.00    +0.220 HD
ENDBRANCH  24  28
ENDBRANCH  20  24
ENDBRANCH  18  20
ENDBRANCH   1  18
TORSDOF 9
