REMARK  Name = 5280443
REMARK  4 active torsions:
REMARK  status: ('A' for Active; 'I' for Inactive)
REMARK    1  A    between atoms: C_5  and  C_12
REMARK    2  A    between atoms: C_8  and  O_20
REMARK    3  A    between atoms: C_10  and  O_22
REMARK    4  A    between atoms: C_17  and  O_18
REMARK                            x       y       z     vdW  Elec       q    Type
REMARK                         _______ _______ _______ _____ _____    ______ ____
ROOT
ATOM      1  O   UNL     1      -0.068   0.780  -0.048  0.00  0.00    -0.453 OA
ATOM      2  O   UNL     1      -1.726  -2.934   0.183  0.00  0.00    -0.286 OA
ATOM      3  C   UNL     1      -2.065  -0.600   0.035  0.00  0.00    +0.107 C 
ATOM      4  C   UNL     1      -1.433   0.639  -0.043  0.00  0.00    +0.154 C 
ATOM      5  C   UNL     1       0.714  -0.362   0.037  0.00  0.00    +0.148 C 
ATOM      6  C   UNL     1      -1.239  -1.815   0.115  0.00  0.00    +0.205 C 
ATOM      7  C   UNL     1       0.224  -1.610   0.109  0.00  0.00    +0.080 C 
ATOM      8  C   UNL     1      -3.459  -0.683   0.035  0.00  0.00    +0.143 C 
ATOM      9  C   UNL     1      -2.193   1.806  -0.122  0.00  0.00    +0.074 C 
ATOM     10  C   UNL     1      -3.586   1.728  -0.122  0.00  0.00    +0.140 C 
ATOM     11  C   UNL     1      -4.218   0.485  -0.043  0.00  0.00    +0.073 C 
ENDROOT
BRANCH   5  12
ATOM     12  C   UNL     1       2.166  -0.097   0.018  0.00  0.00    +0.035 C 
ATOM     13  C   UNL     1       3.043  -1.034  -0.536  0.00  0.00    +0.006 C 
ATOM     14  C   UNL     1       2.670   1.091   0.552  0.00  0.00    +0.006 C 
ATOM     15  C   UNL     1       4.415  -0.783  -0.555  0.00  0.00    +0.037 C 
ATOM     16  C   UNL     1       4.042   1.341   0.533  0.00  0.00    +0.037 C 
ATOM     17  C   UNL     1       4.915   0.404  -0.020  0.00  0.00    +0.134 C 
BRANCH  17  18
ATOM     18  O   UNL     1       6.253   0.649  -0.039  0.00  0.00    -0.506 OA
ATOM     19  H   UNL     1       6.840   0.020  -0.411  0.00  0.00    +0.292 HD
ENDBRANCH  17  18
ENDBRANCH   5  12
BRANCH   8  20
ATOM     20  O   UNL     1      -4.124  -1.870   0.109  0.00  0.00    -0.505 OA
ATOM     21  H   UNL     1      -3.644  -2.673   0.163  0.00  0.00    +0.292 HD
ENDBRANCH   8  20
BRANCH  10  22
ATOM     22  O   UNL     1      -4.331   2.865  -0.199  0.00  0.00    -0.505 OA
ATOM     23  H   UNL     1      -3.908   3.699  -0.252  0.00  0.00    +0.292 HD
ENDBRANCH  10  22
TORSDOF 4
