REMARK  Name = 446501
REMARK  8 active torsions:
REMARK  status: ('A' for Active; 'I' for Inactive)
REMARK    1  A    between atoms: C_1  and  C_14
REMARK    2  A    between atoms: C_2  and  C_11
REMARK    3  A    between atoms: C_5  and  N_7
REMARK    4  A    between atoms: C_11  and  O_12
REMARK    5  A    between atoms: C_14  and  C_16
REMARK    6  A    between atoms: C_14  and  O_19
REMARK    7  A    between atoms: C_16  and  O_17
REMARK    8  A    between atoms: O_19  and  C_21
REMARK                            x       y       z     vdW  Elec       q    Type
REMARK                         _______ _______ _______ _____ _____    ______ ____
ROOT
ATOM      1  C   UNL     1       0.373   0.037  -0.575  0.00  0.00    +0.035 C 
ATOM      2  C   UNL     1       0.797   0.341   0.719  0.00  0.00    +0.077 C 
ATOM      3  C   UNL     1       1.298  -0.013  -1.618  0.00  0.00    +0.001 C 
ATOM      4  C   UNL     1       2.146   0.593   0.971  0.00  0.00    +0.020 C 
ATOM      5  C   UNL     1       3.071   0.543  -0.072  0.00  0.00    +0.042 C 
ATOM      6  C   UNL     1       2.647   0.240  -1.366  0.00  0.00    +0.014 C 
ENDROOT
BRANCH   5   7
ATOM      7  N   UNL     1       4.434   0.797   0.182  0.00  0.00    -0.357 N 
ATOM      8  H   UNL     1       4.733   1.011   1.095  0.00  0.00    +0.142 HD
ATOM      9  H   UNL     1       5.087   0.761  -0.554  0.00  0.00    +0.142 HD
ENDBRANCH   5   7
BRANCH   2  11
ATOM     10  O   UNL     1      -0.761   1.413   2.184  0.00  0.00    -0.245 OA
ATOM     11  C   UNL     1      -0.149   0.404   1.825  0.00  0.00    +0.338 C 
BRANCH  11  12
ATOM     12  O   UNL     1      -0.300  -0.797   2.446  0.00  0.00    -0.477 OA
ATOM     13  H   UNL     1       0.181  -1.543   2.147  0.00  0.00    +0.295 HD
ENDBRANCH  11  12
ENDBRANCH   2  11
BRANCH   1  14
ATOM     14  C   UNL     1      -1.065  -0.239  -0.872  0.00  0.00    +0.289 C 
BRANCH  14  16
ATOM     15  O   UNL     1      -2.861   0.858   0.355  0.00  0.00    -0.246 OA
ATOM     16  C   UNL     1      -1.987   0.913  -0.501  0.00  0.00    +0.362 C 
BRANCH  16  17
ATOM     17  O   UNL     1      -1.677   2.010  -1.255  0.00  0.00    -0.442 OA
ATOM     18  C   UNL     1      -2.460   3.179  -0.996  0.00  0.00    +0.256 C 
ENDBRANCH  16  17
ENDBRANCH  14  16
BRANCH  14  19
ATOM     19  O   UNL     1      -1.480  -1.396  -0.150  0.00  0.00    -0.436 OA
BRANCH  19  21
ATOM     20  O   UNL     1       0.116  -2.665  -1.236  0.00  0.00    -0.250 OA
ATOM     21  C   UNL     1      -0.800  -2.546  -0.434  0.00  0.00    +0.318 C 
ATOM     22  C   UNL     1      -1.342  -3.672   0.394  0.00  0.00    +0.121 C 
ENDBRANCH  19  21
ENDBRANCH  14  19
ENDBRANCH   1  14
TORSDOF 8
