REMARK  Name = 23636976
REMARK  6 active torsions:
REMARK  status: ('A' for Active; 'I' for Inactive)
REMARK    1  A    between atoms: C_1  and  C_13
REMARK    2  A    between atoms: C_2  and  C_4
REMARK    3  A    between atoms: C_5  and  O_6
REMARK    4  A    between atoms: C_5  and  C_9
REMARK    5  A    between atoms: C_9  and  O_10
REMARK    6  A    between atoms: C_13  and  C_15
REMARK                            x       y       z     vdW  Elec       q    Type
REMARK                         _______ _______ _______ _____ _____    ______ ____
ROOT
ATOM      1  C   UNL     1       0.234   0.261  -0.027  0.00  0.00    +0.044 C 
ATOM      2  C   UNL     1       1.536  -0.058  -0.011  0.00  0.00    +0.036 C 
ENDROOT
BRANCH   2   4
ATOM      3  F   UNL     1       2.194   2.206  -0.327  0.00  0.00    -0.201 F 
ATOM      4  C   UNL     1       2.593   0.922  -0.164  0.00  0.00    +0.180 C 
ATOM      5  C   UNL     1       3.905   0.632  -0.152  0.00  0.00    +0.238 C 
BRANCH   5   6
ATOM      6  O   UNL     1       4.867   1.614  -0.301  0.00  0.00    -0.499 OA
ATOM      7  H   UNL     1       4.610   2.508  -0.415  0.00  0.00    +0.292 HD
ENDBRANCH   5   6
BRANCH   5   9
ATOM      8  O   UNL     1       4.067  -1.715  -0.703  0.00  0.00    -0.242 OA
ATOM      9  C   UNL     1       4.343  -0.777   0.027  0.00  0.00    +0.375 C 
BRANCH   9  10
ATOM     10  O   UNL     1       5.108  -0.883   1.139  0.00  0.00    -0.475 OA
ATOM     11  H   UNL     1       5.285  -0.125   1.661  0.00  0.00    +0.296 HD
ENDBRANCH   9  10
ENDBRANCH   5   9
ENDBRANCH   2   4
BRANCH   1  13
ATOM     12  O   UNL     1      -0.501  -1.990   0.257  0.00  0.00    -0.287 OA
ATOM     13  C   UNL     1      -0.793  -0.807   0.124  0.00  0.00    +0.196 C 
BRANCH  13  15
ATOM     14  F   UNL     1      -6.189   0.725  -0.056  0.00  0.00    -0.204 F 
ATOM     15  C   UNL     1      -2.219  -0.402   0.077  0.00  0.00    +0.039 C 
ATOM     16  C   UNL     1      -2.599   0.866   0.516  0.00  0.00    +0.005 C 
ATOM     17  C   UNL     1      -3.180  -1.290  -0.407  0.00  0.00    +0.005 C 
ATOM     18  C   UNL     1      -3.941   1.247   0.471  0.00  0.00    +0.030 C 
ATOM     19  C   UNL     1      -4.522  -0.909  -0.452  0.00  0.00    +0.030 C 
ATOM     20  C   UNL     1      -4.902   0.359  -0.013  0.00  0.00    +0.140 C 
ENDBRANCH  13  15
ENDBRANCH   1  13
TORSDOF 6
