REMARK  Name = 46937089
REMARK  7 active torsions:
REMARK  status: ('A' for Active; 'I' for Inactive)
REMARK    1  A    between atoms: N_2  and  C_10
REMARK    2  A    between atoms: C_3  and  O_5
REMARK    3  A    between atoms: O_5  and  C_6
REMARK    4  A    between atoms: C_10  and  C_12
REMARK    5  A    between atoms: C_10  and  C_14
REMARK    6  A    between atoms: C_14  and  C_16
REMARK    7  A    between atoms: C_16  and  O_17
REMARK                            x       y       z     vdW  Elec       q    Type
REMARK                         _______ _______ _______ _____ _____    ______ ____
ROOT
ATOM      1  O   UNL     1      -1.509  -0.400  -1.303  0.00  0.00    -0.226 OA
ATOM      2  N   UNL     1      -0.062  -0.247   0.505  0.00  0.00    -0.265 N 
ATOM      3  C   UNL     1      -1.266  -0.065  -0.148  0.00  0.00    +0.402 C 
ATOM      4  H   UNL     1       0.011   0.065   1.436  0.00  0.00    +0.153 HD
ENDROOT
BRANCH   3   5
ATOM      5  O   UNL     1      -2.158   0.547   0.686  0.00  0.00    -0.442 OA
BRANCH   5   6
ATOM      6  C   UNL     1      -3.456   0.799   0.137  0.00  0.00    +0.138 C 
ATOM      7  C   UNL     1      -4.079  -0.536  -0.270  0.00  0.00    +0.044 C 
ATOM      8  C   UNL     1      -4.293   1.474   1.221  0.00  0.00    +0.044 C 
ATOM      9  C   UNL     1      -3.302   1.719  -1.074  0.00  0.00    +0.044 C 
ENDBRANCH   5   6
ENDBRANCH   3   5
BRANCH   2  10
ATOM     10  C   UNL     1       1.092  -0.866  -0.096  0.00  0.00    +0.143 C 
BRANCH  10  12
ATOM     11  O   UNL     1       0.491  -2.859   1.130  0.00  0.00    -0.294 OA
ATOM     12  C   UNL     1       0.954  -2.368   0.101  0.00  0.00    +0.169 C 
ATOM     13  C   UNL     1       1.465  -3.244  -1.014  0.00  0.00    +0.074 C 
ENDBRANCH  10  12
BRANCH  10  14
ATOM     14  C   UNL     1       2.396  -0.366   0.519  0.00  0.00    +0.137 C 
BRANCH  14  16
ATOM     15  O   UNL     1       2.235   1.611  -0.895  0.00  0.00    -0.250 OA
ATOM     16  C   UNL     1       2.846   0.959  -0.059  0.00  0.00    +0.319 C 
BRANCH  16  17
ATOM     17  O   UNL     1       4.043   1.302   0.505  0.00  0.00    -0.444 OA
ATOM     18  C   UNL     1       4.603   2.540   0.055  0.00  0.00    +0.256 C 
ENDBRANCH  16  17
ENDBRANCH  14  16
ENDBRANCH  10  14
ENDBRANCH   2  10
TORSDOF 7
