REMARK  Name = 9543472
REMARK  6 active torsions:
REMARK  status: ('A' for Active; 'I' for Inactive)
REMARK    1  A    between atoms: S_1  and  C_3
REMARK    2  A    between atoms: S_1  and  C_13
REMARK    3  A    between atoms: C_3  and  N_5
REMARK    4  A    between atoms: N_5  and  C_8
REMARK    5  A    between atoms: C_13  and  C_14
REMARK    6  A    between atoms: C_15  and  C_23
REMARK                            x       y       z     vdW  Elec       q    Type
REMARK                         _______ _______ _______ _____ _____    ______ ____
ROOT
ATOM      1  S   UNL     1       1.781  -1.049   0.981  0.00  0.00    -0.071 S 
ENDROOT
BRANCH   1   3
ATOM      2  N   UNL     1       4.370  -1.458   1.175  0.00  0.00    -0.276 NA
ATOM      3  C   UNL     1       3.457  -0.844   0.497  0.00  0.00    +0.185 C 
ATOM      4  H   UNL     1       4.121  -2.002   1.956  0.00  0.00    +0.189 HD
BRANCH   3   5
ATOM      5  N   UNL     1       3.797  -0.086  -0.592  0.00  0.00    -0.190 NA
BRANCH   5   8
ATOM      6  N   UNL     1       4.428   2.107  -1.356  0.00  0.00    -0.370 N 
ATOM      7  N   UNL     1       4.019   1.726   0.858  0.00  0.00    -0.370 N 
ATOM      8  C   UNL     1       4.068   1.180  -0.402  0.00  0.00    +0.195 C 
ATOM      9  H   UNL     1       4.498   1.839  -2.301  0.00  0.00    +0.159 HD
ATOM     10  H   UNL     1       4.615   3.037  -1.093  0.00  0.00    +0.159 HD
ATOM     11  H   UNL     1       3.773   1.164   1.629  0.00  0.00    +0.159 HD
ATOM     12  H   UNL     1       4.230   2.678   0.991  0.00  0.00    +0.159 HD
ENDBRANCH   5   8
ENDBRANCH   3   5
ENDBRANCH   1   3
BRANCH   1  13
ATOM     13  C   UNL     1       0.915  -0.867  -0.593  0.00  0.00    +0.091 C 
BRANCH  13  14
ATOM     14  C   UNL     1      -0.575  -1.005  -0.440  0.00  0.00    -0.011 C 
ATOM     15  C   UNL     1      -2.726  -0.008  -0.042  0.00  0.00    +0.071 C 
ATOM     16  C   UNL     1      -1.345   0.121  -0.183  0.00  0.00    +0.000 C 
ATOM     17  C   UNL     1      -1.161  -2.258  -0.559  0.00  0.00    -0.003 C 
ATOM     18  C   UNL     1      -3.325  -1.262  -0.159  0.00  0.00    +0.004 C 
ATOM     19  C   UNL     1      -2.543  -2.387  -0.417  0.00  0.00    -0.000 C 
BRANCH  15  23
ATOM     20  F   UNL     1      -4.897   0.920   0.349  0.00  0.00    -0.166 F 
ATOM     21  F   UNL     1      -3.232   1.837   1.394  0.00  0.00    -0.166 F 
ATOM     22  F   UNL     1      -3.467   2.139  -0.746  0.00  0.00    -0.166 F 
ATOM     23  C   UNL     1      -3.563   1.195   0.235  0.00  0.00    +0.419 C 
ENDBRANCH  15  23
ENDBRANCH  13  14
ENDBRANCH   1  13
TORSDOF 6
