REMARK  Name = 5287737
REMARK  6 active torsions:
REMARK  status: ('A' for Active; 'I' for Inactive)
REMARK    1  A    between atoms: C_1  and  C_5
REMARK    2  A    between atoms: C_1  and  N_14
REMARK    3  A    between atoms: N_4  and  C_7
REMARK    4  A    between atoms: C_7  and  N_10
REMARK    5  A    between atoms: C_15  and  O_17
REMARK    6  A    between atoms: O_17  and  C_18
REMARK                            x       y       z     vdW  Elec       q    Type
REMARK                         _______ _______ _______ _____ _____    ______ ____
ROOT
ATOM      1  C   UNL     1      -0.040   1.559   0.323  0.00  0.00    +0.151 C 
ATOM      2  C   UNL     1      -0.434   3.019   0.157  0.00  0.00    +0.031 C 
ENDROOT
BRANCH   1   5
ATOM      3  O   UNL     1      -0.942   0.319  -1.554  0.00  0.00    -0.273 OA
ATOM      4  N   UNL     1      -2.079   0.274   0.469  0.00  0.00    -0.289 N 
ATOM      5  C   UNL     1      -1.039   0.645  -0.373  0.00  0.00    +0.242 C 
ATOM      6  H   UNL     1      -2.064   0.589   1.401  0.00  0.00    +0.151 HD
BRANCH   4   7
ATOM      7  C   UNL     1      -3.192  -0.558   0.037  0.00  0.00    +0.148 C 
ATOM      8  C   UNL     1      -2.844  -2.037   0.193  0.00  0.00    +0.044 C 
BRANCH   7  10
ATOM      9  O   UNL     1      -5.981  -0.693  -0.860  0.00  0.00    -0.265 OA
ATOM     10  N   UNL     1      -4.392  -0.235   0.791  0.00  0.00    -0.283 N 
ATOM     11  C   UNL     1      -5.662  -0.335   0.267  0.00  0.00    +0.301 C 
ATOM     12  H   UNL     1      -4.292   0.071   1.722  0.00  0.00    +0.151 HD
ENDBRANCH   7  10
ENDBRANCH   4   7
ENDBRANCH   1   5
BRANCH   1  14
ATOM     13  O   UNL     1       1.898  -0.431   1.172  0.00  0.00    -0.226 OA
ATOM     14  N   UNL     1       1.261   1.302  -0.235  0.00  0.00    -0.264 N 
ATOM     15  C   UNL     1       2.123   0.328   0.235  0.00  0.00    +0.402 C 
ATOM     16  H   UNL     1       1.555   1.851  -0.997  0.00  0.00    +0.153 HD
BRANCH  15  17
ATOM     17  O   UNL     1       3.274   0.332  -0.501  0.00  0.00    -0.442 OA
BRANCH  17  18
ATOM     18  C   UNL     1       4.262  -0.632  -0.121  0.00  0.00    +0.138 C 
ATOM     19  C   UNL     1       4.678  -0.359   1.323  0.00  0.00    +0.044 C 
ATOM     20  C   UNL     1       5.452  -0.468  -1.063  0.00  0.00    +0.044 C 
ATOM     21  C   UNL     1       3.656  -2.029  -0.259  0.00  0.00    +0.044 C 
ENDBRANCH  17  18
ENDBRANCH  15  17
ENDBRANCH   1  14
TORSDOF 6
