REMARK  Name = 11602832
REMARK  4 active torsions:
REMARK  status: ('A' for Active; 'I' for Inactive)
REMARK    1  A    between atoms: C_8  and  C_24
REMARK    2  A    between atoms: C_10  and  C_18
REMARK    3  A    between atoms: C_24  and  C_25
REMARK    4  A    between atoms: C_25  and  O_26
REMARK                            x       y       z     vdW  Elec       q    Type
REMARK                         _______ _______ _______ _____ _____    ______ ____
ROOT
ATOM      1  O   UNL     1      -2.437   2.761   0.348  0.00  0.00    -0.270 OA
ATOM      2  O   UNL     1       2.158   2.551   0.088  0.00  0.00    -0.270 OA
ATOM      3  N   UNL     1      -1.953  -2.435   0.379  0.00  0.00    -0.284 N 
ATOM      4  N   UNL     1      -0.123   3.041   0.212  0.00  0.00    -0.248 N 
ATOM      5  C   UNL     1      -1.695  -0.220   0.340  0.00  0.00    +0.016 C 
ATOM      6  C   UNL     1      -1.003  -1.440   0.315  0.00  0.00    +0.051 C 
ATOM      7  C   UNL     1      -0.911   0.930   0.283  0.00  0.00    +0.059 C 
ATOM      8  C   UNL     1      -3.079  -0.519   0.421  0.00  0.00    -0.003 C 
ATOM      9  C   UNL     1       0.475   0.861   0.205  0.00  0.00    +0.058 C 
ATOM     10  C   UNL     1       1.153  -0.339   0.180  0.00  0.00    +0.007 C 
ATOM     11  C   UNL     1       0.405  -1.524   0.236  0.00  0.00    +0.015 C 
ATOM     12  C   UNL     1      -3.207  -1.889   0.444  0.00  0.00    +0.061 C 
ATOM     13  C   UNL     1      -1.301   2.335   0.288  0.00  0.00    +0.252 C 
ATOM     14  C   UNL     1       0.987   2.230   0.158  0.00  0.00    +0.252 C 
ATOM     15  C   UNL     1      -1.681  -3.856   0.381  0.00  0.00    +0.117 C 
ATOM     16  H   UNL     1      -0.079   4.025   0.197  0.00  0.00    +0.158 HD
ENDROOT
BRANCH  10  18
ATOM     17 CL   UNL     1       2.416  -0.444  -2.633  0.00  0.00    -0.082 Cl
ATOM     18  C   UNL     1       2.595  -0.415   0.098  0.00  0.00    +0.011 C 
ATOM     19  C   UNL     1       3.265  -0.467  -1.127  0.00  0.00    +0.058 C 
ATOM     20  C   UNL     1       3.326  -0.436   1.288  0.00  0.00    +0.001 C 
ATOM     21  C   UNL     1       4.657  -0.539  -1.161  0.00  0.00    +0.011 C 
ATOM     22  C   UNL     1       4.718  -0.508   1.254  0.00  0.00    +0.000 C 
ATOM     23  C   UNL     1       5.384  -0.560   0.030  0.00  0.00    +0.001 C 
ENDBRANCH  10  18
BRANCH   8  24
ATOM     24  C   UNL     1      -4.207   0.432   0.473  0.00  0.00    +0.059 C 
BRANCH  24  25
ATOM     25  C   UNL     1      -4.754   0.811  -0.913  0.00  0.00    +0.142 C 
BRANCH  25  26
ATOM     26  O   UNL     1      -5.186  -0.364  -1.587  0.00  0.00    -0.382 OA
ATOM     27  H   UNL     1      -5.531  -0.126  -2.462  0.00  0.00    +0.210 HD
ENDBRANCH  25  26
ENDBRANCH  24  25
ENDBRANCH   8  24
TORSDOF 4
