REMARK  Name = 465669
REMARK  6 active torsions:
REMARK  status: ('A' for Active; 'I' for Inactive)
REMARK    1  A    between atoms: C_2  and  C_9
REMARK    2  A    between atoms: C_3  and  O_16
REMARK    3  A    between atoms: C_9  and  C_10
REMARK    4  A    between atoms: O_16  and  C_17
REMARK    5  A    between atoms: C_17  and  C_20
REMARK    6  A    between atoms: N_19  and  C_22
REMARK                            x       y       z     vdW  Elec       q    Type
REMARK                         _______ _______ _______ _____ _____    ______ ____
ROOT
ATOM      1 CL   UNL     1       5.827  -0.269   2.156  0.00  0.00    -0.082 Cl
ATOM      2  C   UNL     1       2.742   0.140  -0.313  0.00  0.00    +0.074 C 
ATOM      3  C   UNL     1       2.393  -1.152  -0.632  0.00  0.00    +0.142 C 
ATOM      4  C   UNL     1       3.785   0.442   0.534  0.00  0.00    +0.018 C 
ATOM      5  C   UNL     1       3.126  -2.200  -0.074  0.00  0.00    +0.038 C 
ATOM      6  C   UNL     1       4.517  -0.606   1.092  0.00  0.00    +0.058 C 
ATOM      7  C   UNL     1       4.188  -1.927   0.787  0.00  0.00    +0.015 C 
ENDROOT
BRANCH   2   9
ATOM      8  O   UNL     1       2.366   1.736  -1.981  0.00  0.00    -0.286 OA
ATOM      9  C   UNL     1       1.970   1.278  -0.899  0.00  0.00    +0.198 C 
BRANCH   9  10
ATOM     10  C   UNL     1       0.799   1.842  -0.248  0.00  0.00    +0.039 C 
ATOM     11  C   UNL     1       0.358   1.322   0.969  0.00  0.00    +0.003 C 
ATOM     12  C   UNL     1       0.116   2.904  -0.841  0.00  0.00    +0.003 C 
ATOM     13  C   UNL     1      -0.766   1.863   1.593  0.00  0.00    +0.000 C 
ATOM     14  C   UNL     1      -1.008   3.446  -0.217  0.00  0.00    +0.000 C 
ATOM     15  C   UNL     1      -1.449   2.925   1.000  0.00  0.00    +0.000 C 
ENDBRANCH   9  10
ENDBRANCH   2   9
BRANCH   3  16
ATOM     16  O   UNL     1       1.359  -1.439  -1.472  0.00  0.00    -0.466 OA
BRANCH  16  17
ATOM     17  C   UNL     1       0.291  -2.222  -0.940  0.00  0.00    +0.290 C 
BRANCH  17  20
ATOM     18  O   UNL     1      -1.152  -0.613  -1.944  0.00  0.00    -0.271 OA
ATOM     19  N   UNL     1      -1.881  -1.764  -0.027  0.00  0.00    -0.281 N 
ATOM     20  C   UNL     1      -0.993  -1.429  -1.041  0.00  0.00    +0.271 C 
ATOM     21  H   UNL     1      -1.577  -2.451   0.609  0.00  0.00    +0.155 HD
BRANCH  19  22
ATOM     22  C   UNL     1      -3.173  -1.232   0.197  0.00  0.00    +0.050 C 
ATOM     23  C   UNL     1      -3.919  -1.693   1.270  0.00  0.00    +0.015 C 
ATOM     24  C   UNL     1      -3.664  -0.261  -0.659  0.00  0.00    +0.015 C 
ATOM     25  C   UNL     1      -5.192  -1.168   1.491  0.00  0.00    +0.001 C 
ATOM     26  C   UNL     1      -4.937   0.265  -0.438  0.00  0.00    +0.001 C 
ATOM     27  C   UNL     1      -5.701  -0.189   0.638  0.00  0.00    +0.000 C 
ENDBRANCH  19  22
ENDBRANCH  17  20
ENDBRANCH  16  17
ENDBRANCH   3  16
TORSDOF 6
