REMARK  Name = 657106
REMARK  8 active torsions:
REMARK  status: ('A' for Active; 'I' for Inactive)
REMARK    1  A    between atoms: N_1  and  C_3
REMARK    2  A    between atoms: N_1  and  S_15
REMARK    3  A    between atoms: C_4  and  O_9
REMARK    4  A    between atoms: C_7  and  C_12
REMARK    5  A    between atoms: C_12  and  O_13
REMARK    6  A    between atoms: S_15  and  C_19
REMARK    7  A    between atoms: C_20  and  C_24
REMARK    8  A    between atoms: C_24  and  O_25
REMARK                            x       y       z     vdW  Elec       q    Type
REMARK                         _______ _______ _______ _____ _____    ______ ____
ROOT
ATOM      1  N   UNL     1       0.408   1.479   0.808  0.00  0.00    -0.212 N 
ATOM      2  H   UNL     1       0.700   1.781   1.699  0.00  0.00    +0.174 HD
ENDROOT
BRANCH   1   3
ATOM      3  C   UNL     1      -0.889   0.917   0.594  0.00  0.00    +0.098 C 
ATOM      4  C   UNL     1      -1.182  -0.378   1.019  0.00  0.00    +0.148 C 
ATOM      5  C   UNL     1      -1.866   1.679  -0.047  0.00  0.00    +0.019 C 
ATOM      6  C   UNL     1      -2.452  -0.912   0.804  0.00  0.00    +0.044 C 
ATOM      7  C   UNL     1      -3.430  -0.151   0.163  0.00  0.00    +0.079 C 
ATOM      8  C   UNL     1      -3.137   1.145  -0.262  0.00  0.00    +0.008 C 
BRANCH   4   9
ATOM      9  O   UNL     1      -0.241  -1.137   1.648  0.00  0.00    -0.504 OA
ATOM     10  H   UNL     1       0.616  -0.791   1.799  0.00  0.00    +0.292 HD
ENDBRANCH   4   9
BRANCH   7  12
ATOM     11  O   UNL     1      -5.137  -1.830   0.264  0.00  0.00    -0.245 OA
ATOM     12  C   UNL     1      -4.754  -0.708  -0.061  0.00  0.00    +0.338 C 
BRANCH  12  13
ATOM     13  O   UNL     1      -5.577   0.172  -0.697  0.00  0.00    -0.477 OA
ATOM     14  H   UNL     1      -5.260   1.022  -0.934  0.00  0.00    +0.295 HD
ENDBRANCH  12  13
ENDBRANCH   7  12
ENDBRANCH   1   3
BRANCH   1  15
ATOM     15  S   UNL     1       1.441   1.603  -0.574  0.00  0.00    +0.074 S 
ATOM     16  O   UNL     1       0.641   1.907  -1.744  0.00  0.00    -0.150 OA
ATOM     17  O   UNL     1       2.622   2.379  -0.256  0.00  0.00    -0.150 OA
BRANCH  15  19
ATOM     18  S   UNL     1       3.280  -2.212  -0.765  0.00  0.00    -0.079 S 
ATOM     19  C   UNL     1       2.035  -0.011  -0.919  0.00  0.00    +0.138 C 
ATOM     20  C   UNL     1       2.921  -0.664  -0.126  0.00  0.00    +0.124 C 
ATOM     21  C   UNL     1       1.623  -0.730  -2.053  0.00  0.00    +0.028 C 
ATOM     22  C   UNL     1       2.231  -1.965  -2.096  0.00  0.00    +0.037 C 
BRANCH  20  24
ATOM     23  O   UNL     1       3.108   0.507   1.956  0.00  0.00    -0.244 OA
ATOM     24  C   UNL     1       3.557  -0.263   1.088  0.00  0.00    +0.345 C 
BRANCH  24  25
ATOM     25  O   UNL     1       4.797  -0.827   1.255  0.00  0.00    -0.477 OA
ATOM     26  H   UNL     1       5.139  -1.408   0.605  0.00  0.00    +0.295 HD
ENDBRANCH  24  25
ENDBRANCH  20  24
ENDBRANCH  15  19
ENDBRANCH   1  15
TORSDOF 8
