REMARK  Name = 4661
REMARK  4 active torsions:
REMARK  status: ('A' for Active; 'I' for Inactive)
REMARK    1  A    between atoms: C_1  and  C_10
REMARK    2  A    between atoms: C_4  and  N_9
REMARK    3  A    between atoms: C_10  and  C_12
REMARK    4  A    between atoms: C_12  and  O_13
REMARK                            x       y       z     vdW  Elec       q    Type
REMARK                         _______ _______ _______ _____ _____    ______ ____
ROOT
ATOM      1  C   UNL     1      -0.957   0.007  -0.597  0.00  0.00    -0.011 C 
ATOM      2  C   UNL     1      -0.275   1.214  -0.443  0.00  0.00    -0.002 C 
ATOM      3  C   UNL     1      -0.271  -1.202  -0.479  0.00  0.00    -0.002 C 
ATOM      4  C   UNL     1       1.779   0.003  -0.053  0.00  0.00    +0.143 C 
ATOM      5  C   UNL     1       1.093   1.211  -0.171  0.00  0.00    +0.024 C 
ATOM      6  C   UNL     1       1.097  -1.204  -0.207  0.00  0.00    +0.024 C 
ENDROOT
BRANCH   4   9
ATOM      7  O   UNL     1       3.766   1.097   0.360  0.00  0.00    -0.126 OA
ATOM      8  O   UNL     1       3.770  -1.098   0.327  0.00  0.00    -0.126 OA
ATOM      9  N   UNL     1       3.172   0.000   0.225  0.00  0.00    +0.058 N 
ENDBRANCH   4   9
BRANCH   1  10
ATOM     10  C   UNL     1      -2.420   0.009  -0.887  0.00  0.00    +0.136 C 
BRANCH  10  12
ATOM     11  O   UNL     1      -2.862  -0.068   1.507  0.00  0.00    -0.250 OA
ATOM     12  C   UNL     1      -3.283  -0.011   0.359  0.00  0.00    +0.318 C 
BRANCH  12  13
ATOM     13  O   UNL     1      -4.608   0.042   0.059  0.00  0.00    -0.480 OA
ATOM     14  H   UNL     1      -4.884   0.085  -0.836  0.00  0.00    +0.295 HD
ENDBRANCH  12  13
ENDBRANCH  10  12
ENDBRANCH   1  10
TORSDOF 4
