REMARK  Name = 2797541
REMARK  7 active torsions:
REMARK  status: ('A' for Active; 'I' for Inactive)
REMARK    1  A    between atoms: C_4  and  C_15
REMARK    2  A    between atoms: C_5  and  C_6
REMARK    3  A    between atoms: C_9  and  N_14
REMARK    4  A    between atoms: C_15  and  C_16
REMARK    5  A    between atoms: C_16  and  C_17
REMARK    6  A    between atoms: C_17  and  C_19
REMARK    7  A    between atoms: C_19  and  O_20
REMARK                            x       y       z     vdW  Elec       q    Type
REMARK                         _______ _______ _______ _____ _____    ______ ____
ROOT
ATOM      1  O   UNL     1       1.338   2.243   0.346  0.00  0.00    -0.316 OA
ATOM      2  N   UNL     1       0.341   0.265   0.680  0.00  0.00    -0.313 NA
ATOM      3  N   UNL     1       0.005   2.407  -0.052  0.00  0.00    -0.007 NA
ATOM      4  C   UNL     1       1.415   0.965   0.749  0.00  0.00    +0.294 C 
ATOM      5  C   UNL     1      -0.518   1.198   0.176  0.00  0.00    +0.127 C 
ENDROOT
BRANCH   5   6
ATOM      6  C   UNL     1      -1.893   0.889  -0.090  0.00  0.00    +0.079 C 
ATOM      7  C   UNL     1      -2.385  -0.391   0.167  0.00  0.00    +0.035 C 
ATOM      8  C   UNL     1      -2.742   1.870  -0.606  0.00  0.00    +0.011 C 
ATOM      9  C   UNL     1      -3.723  -0.691  -0.092  0.00  0.00    +0.144 C 
ATOM     10  C   UNL     1      -4.080   1.570  -0.865  0.00  0.00    +0.002 C 
ATOM     11  C   UNL     1      -4.570   0.290  -0.608  0.00  0.00    +0.024 C 
BRANCH   9  14
ATOM     12  O   UNL     1      -5.429  -2.241  -0.070  0.00  0.00    -0.126 OA
ATOM     13  O   UNL     1      -3.445  -2.862   0.634  0.00  0.00    -0.126 OA
ATOM     14  N   UNL     1      -4.223  -1.994   0.170  0.00  0.00    +0.058 N 
ENDBRANCH   9  14
ENDBRANCH   5   6
BRANCH   4  15
ATOM     15  C   UNL     1       2.776   0.532   1.234  0.00  0.00    +0.103 C 
BRANCH  15  16
ATOM     16  C   UNL     1       3.627  -0.028   0.088  0.00  0.00    +0.023 C 
BRANCH  16  17
ATOM     17  C   UNL     1       5.014  -0.471   0.553  0.00  0.00    +0.110 C 
BRANCH  17  19
ATOM     18  O   UNL     1       5.554  -1.068  -1.746  0.00  0.00    -0.250 OA
ATOM     19  C   UNL     1       5.873  -1.014  -0.567  0.00  0.00    +0.314 C 
BRANCH  19  20
ATOM     20  O   UNL     1       7.066  -1.469  -0.101  0.00  0.00    -0.480 OA
ATOM     21  H   UNL     1       7.267  -1.407   0.812  0.00  0.00    +0.295 HD
ENDBRANCH  19  20
ENDBRANCH  17  19
ENDBRANCH  16  17
ENDBRANCH  15  16
ENDBRANCH   4  15
TORSDOF 7
