REMARK  Name = 10062713
REMARK  10 active torsions:
REMARK  status: ('A' for Active; 'I' for Inactive)
REMARK    1  A    between atoms: O_1  and  C_4
REMARK    2  A    between atoms: O_1  and  C_13
REMARK    3  A    between atoms: N_3  and  CA_6
REMARK    4  A    between atoms: CA_6  and  C_8
REMARK    5  A    between atoms: CA_6  and  C_9
REMARK    6  A    between atoms: C_9  and  C_10
REMARK    7  A    between atoms: C_10  and  C_11
REMARK    8  A    between atoms: C_13  and  C_14
REMARK    9  A    between atoms: C_13  and  C_17
REMARK   10  A    between atoms: C_17  and  C_18
REMARK                            x       y       z     vdW  Elec       q    Type
REMARK                         _______ _______ _______ _____ _____    ______ ____
ROOT
ATOM      1  O   UNL     1      -0.621  -1.461   0.515  0.00  0.00    -0.438 OA
ENDROOT
BRANCH   1   4
ATOM      2  O   UNL     1       0.162  -0.925  -1.576  0.00  0.00    -0.226 OA
ATOM      3  N   UNL     1       1.591  -1.183   0.234  0.00  0.00    -0.265 N 
ATOM      4  C   UNL     1       0.359  -1.166  -0.390  0.00  0.00    +0.402 C 
ATOM      5  H   UNL     1       1.621  -1.392   1.196  0.00  0.00    +0.153 HD
BRANCH   3   6
ATOM      6  CA  UNL     1       2.836  -0.914  -0.441  0.00  0.00    +0.139 C 
BRANCH   6   8
ATOM      7  O   UNL     1       4.831  -2.290  -0.463  0.00  0.00    -0.286 OA
ATOM      8  C   UNL     1       3.608  -2.216  -0.377  0.00  0.00    +0.227 C 
ENDBRANCH   6   8
BRANCH   6   9
ATOM      9  C   UNL     1       3.571   0.256   0.212  0.00  0.00    +0.028 C 
BRANCH   9  10
ATOM     10  C   UNL     1       2.784   1.568   0.129  0.00  0.00    +0.002 C 
BRANCH  10  11
ATOM     11  C   UNL     1       3.560   2.721   0.768  0.00  0.00    +0.000 C 
ATOM     12  C   UNL     1       2.795   4.031   0.665  0.00  0.00    +0.000 C 
ENDBRANCH  10  11
ENDBRANCH   9  10
ENDBRANCH   6   9
ENDBRANCH   3   6
ENDBRANCH   1   4
BRANCH   1  13
ATOM     13  C   UNL     1      -1.959  -1.479   0.003  0.00  0.00    +0.175 C 
BRANCH  13  14
ATOM     14  C   UNL     1      -2.533  -2.907   0.151  0.00  0.00    +0.041 C 
ATOM     15  C   UNL     1      -1.676  -3.974  -0.536  0.00  0.00    +0.004 C 
ATOM     16  C   UNL     1      -2.701  -3.271   1.631  0.00  0.00    +0.004 C 
ENDBRANCH  13  14
BRANCH  13  17
ATOM     17  C   UNL     1      -2.803  -0.427   0.742  0.00  0.00    +0.070 C 
BRANCH  17  18
ATOM     18  C   UNL     1      -2.542   0.977   0.246  0.00  0.00    -0.019 C 
ATOM     19  C   UNL     1      -1.545   1.752   0.839  0.00  0.00    -0.004 C 
ATOM     20  C   UNL     1      -3.298   1.498  -0.804  0.00  0.00    -0.004 C 
ATOM     21  C   UNL     1      -1.304   3.047   0.382  0.00  0.00    -0.000 C 
ATOM     22  C   UNL     1      -3.056   2.794  -1.261  0.00  0.00    -0.000 C 
ATOM     23  C   UNL     1      -2.059   3.568  -0.668  0.00  0.00    -0.000 C 
ENDBRANCH  17  18
ENDBRANCH  13  17
ENDBRANCH   1  13
TORSDOF 10
