REMARK  Name = 5280953
REMARK  1 active torsions:
REMARK  status: ('A' for Active; 'I' for Inactive)
REMARK    1  A    between atoms: C_11  and  O_16
REMARK                            x       y       z     vdW  Elec       q    Type
REMARK                         _______ _______ _______ _____ _____    ______ ____
ROOT
ATOM      1  N   UNL     1       0.409   1.321  -0.001  0.00  0.00    -0.352 N 
ATOM      2  N   UNL     1       3.850  -0.007   0.001  0.00  0.00    -0.247 NA
ATOM      3  C   UNL     1      -0.264  -0.805  -0.001  0.00  0.00    +0.017 A 
ATOM      4  C   UNL     1       1.167  -0.777   0.000  0.00  0.00    +0.020 A 
ATOM      5  C   UNL     1       1.555   0.563  -0.001  0.00  0.00    +0.070 A 
ATOM      6  C   UNL     1      -0.707   0.518  -0.001  0.00  0.00    +0.060 A 
ATOM      7  C   UNL     1       2.890   0.945   0.000  0.00  0.00    +0.075 C 
ATOM      8  C   UNL     1      -1.225  -1.838  -0.001  0.00  0.00    +0.005 C 
ATOM      9  C   UNL     1      -2.063   0.862   0.000  0.00  0.00    +0.054 C 
ATOM     10  C   UNL     1       2.167  -1.762   0.001  0.00  0.00    +0.022 C 
ATOM     11  C   UNL     1      -2.996  -0.179   0.000  0.00  0.00    +0.140 C 
ATOM     12  C   UNL     1      -2.585  -1.510   0.000  0.00  0.00    +0.037 C 
ATOM     13  C   UNL     1       3.478  -1.307   0.001  0.00  0.00    +0.099 C 
ATOM     14  C   UNL     1       3.336   2.366   0.000  0.00  0.00    +0.054 C 
ATOM     15  H   UNL     1       0.391   2.306  -0.001  0.00  0.00    +0.166 HD
ENDROOT
BRANCH  11  16
ATOM     16  O   UNL     1      -4.327   0.115   0.001  0.00  0.00    -0.471 OA
ATOM     17  C   UNL     1      -4.685   1.495   0.001  0.00  0.00    +0.252 C 
ENDBRANCH  11  16
TORSDOF 1
