REMARK  Name = 24836813
REMARK  5 active torsions:
REMARK  status: ('A' for Active; 'I' for Inactive)
REMARK    1  A    between atoms: N_1  and  C_15
REMARK    2  A    between atoms: N_2  and  C_21
REMARK    3  A    between atoms: C_24  and  O_27
REMARK    4  A    between atoms: C_25  and  O_29
REMARK    5  A    between atoms: C_26  and  O_31
REMARK                            x       y       z     vdW  Elec       q    Type
REMARK                         _______ _______ _______ _____ _____    ______ ____
ROOT
ATOM      1  N   UNL     1      -3.211   0.907   0.444  0.00  0.00    -0.284 N 
ATOM      2  N   UNL     1       1.175   2.597  -0.014  0.00  0.00    -0.247 N 
ATOM      3  N   UNL     1      -0.996   1.736   0.217  0.00  0.00    -0.322 NA
ATOM      4  N   UNL     1      -0.632   4.085  -0.180  0.00  0.00    -0.170 NA
ATOM      5  C   UNL     1      -2.322   1.982   0.232  0.00  0.00    +0.198 C 
ATOM      6  C   UNL     1      -0.220   2.817   0.009  0.00  0.00    +0.150 C 
ATOM      7  C   UNL     1      -2.872   3.235   0.052  0.00  0.00    +0.070 C 
ATOM      8  C   UNL     1      -1.970   4.259  -0.152  0.00  0.00    +0.116 C 
ATOM      9  H   UNL     1      -4.047   1.169   0.894  0.00  0.00    +0.155 HD
ATOM     10  H   UNL     1       1.702   3.414  -0.168  0.00  0.00    +0.165 HD
ENDROOT
BRANCH   1  15
ATOM     11 CL   UNL     1      -4.698  -0.988   2.318  0.00  0.00    -0.081 Cl
ATOM     12  O   UNL     1      -1.743  -0.110  -1.829  0.00  0.00    -0.433 OA
ATOM     13  O   UNL     1      -1.585  -2.447  -2.394  0.00  0.00    -0.435 OA
ATOM     14  C   UNL     1      -2.424  -0.900  -0.956  0.00  0.00    +0.191 C 
ATOM     15  C   UNL     1      -3.140  -0.465   0.141  0.00  0.00    +0.098 C 
ATOM     16  C   UNL     1      -2.334  -2.235  -1.279  0.00  0.00    +0.178 C 
ATOM     17  C   UNL     1      -3.778  -1.431   0.923  0.00  0.00    +0.074 C 
ATOM     18  C   UNL     1      -2.955  -3.208  -0.522  0.00  0.00    +0.041 C 
ATOM     19  C   UNL     1      -1.212  -1.097  -2.737  0.00  0.00    +0.429 C 
ATOM     20  C   UNL     1      -3.686  -2.794   0.593  0.00  0.00    +0.016 C 
ENDBRANCH   1  15
BRANCH   2  21
ATOM     21  C   UNL     1       1.959   1.439   0.142  0.00  0.00    +0.064 C 
ATOM     22  C   UNL     1       3.189   1.338  -0.507  0.00  0.00    +0.055 C 
ATOM     23  C   UNL     1       1.505   0.392   0.944  0.00  0.00    +0.055 C 
ATOM     24  C   UNL     1       3.512  -0.858   0.448  0.00  0.00    +0.206 C 
ATOM     25  C   UNL     1       2.282  -0.756   1.097  0.00  0.00    +0.177 C 
ATOM     26  C   UNL     1       3.966   0.189  -0.354  0.00  0.00    +0.177 C 
BRANCH  24  27
ATOM     27  O   UNL     1       4.271  -1.981   0.597  0.00  0.00    -0.465 OA
ATOM     28  C   UNL     1       4.057  -3.034  -0.340  0.00  0.00    +0.253 C 
ENDBRANCH  24  27
BRANCH  25  29
ATOM     29  O   UNL     1       1.827  -1.772   1.883  0.00  0.00    -0.468 OA
ATOM     30  C   UNL     1       0.559  -1.589   2.510  0.00  0.00    +0.253 C 
ENDBRANCH  25  29
BRANCH  26  31
ATOM     31  O   UNL     1       5.166   0.103  -0.994  0.00  0.00    -0.468 OA
ATOM     32  C   UNL     1       6.311   0.583  -0.292  0.00  0.00    +0.253 C 
ENDBRANCH  26  31
ENDBRANCH   2  21
TORSDOF 5
