REMARK  Name = 5288581
REMARK  14 active torsions:
REMARK  status: ('A' for Active; 'I' for Inactive)
REMARK    1  A    between atoms: C_1  and  C_2
REMARK    2  A    between atoms: C_1  and  C_20
REMARK    3  A    between atoms: C_2  and  C_4
REMARK    4  A    between atoms: C_2  and  C_10
REMARK    5  A    between atoms: N_9  and  CA_12
REMARK    6  A    between atoms: CA_12  and  C_14
REMARK    7  A    between atoms: CA_12  and  CB_15
REMARK    8  A    between atoms: CB_15  and  CG_17
REMARK    9  A    between atoms: CG_17  and  OD1_18
REMARK   10  A    between atoms: C_20  and  C_21
REMARK   11  A    between atoms: C_21  and  C_22
REMARK   12  A    between atoms: C_22  and  N_24
REMARK   13  A    between atoms: C_25  and  C_28
REMARK   14  A    between atoms: C_33  and  O_37
REMARK                            x       y       z     vdW  Elec       q    Type
REMARK                         _______ _______ _______ _____ _____    ______ ____
ROOT
ATOM      1  C   UNL     1       2.647   2.166  -0.021  0.00  0.00    +0.014 C 
ENDROOT
BRANCH   1   2
ATOM      2  C   UNL     1       3.355   0.840  -0.363  0.00  0.00    +0.105 C 
BRANCH   2   4
ATOM      3  S   UNL     1       6.009   0.707  -1.233  0.00  0.00    -0.090 S 
ATOM      4  C   UNL     1       4.833   0.895  -0.002  0.00  0.00    +0.016 C 
ATOM      5  C   UNL     1       5.407   1.084   1.236  0.00  0.00    +0.003 C 
ATOM      6  C   UNL     1       6.830   1.074   1.173  0.00  0.00    +0.007 C 
ATOM      7  C   UNL     1       7.290   0.878  -0.111  0.00  0.00    +0.035 C 
ENDBRANCH   2   4
BRANCH   2  10
ATOM      8  O   UNL     1       2.211  -0.279   1.463  0.00  0.00    -0.275 OA
ATOM      9  N   UNL     1       2.845  -1.532  -0.385  0.00  0.00    -0.299 N 
ATOM     10  C   ACE A   0       2.734  -0.362   0.353  0.00  0.00    +0.227 C 
ATOM     11  H   UNL     1       3.282  -1.494  -1.266  0.00  0.00    +0.150 HD
BRANCH   9  12
ATOM     12  CA  UNL     1       2.346  -2.805   0.083  0.00  0.00    +0.148 C 
BRANCH  12  14
ATOM     13  O   UNL     1       3.245  -5.044  -0.082  0.00  0.00    -0.286 OA
ATOM     14  C   UNL     1       3.315  -3.861  -0.403  0.00  0.00    +0.227 C 
ENDBRANCH  12  14
BRANCH  12  15
ATOM     15  CB  UNL     1       0.924  -3.069  -0.392  0.00  0.00    +0.137 C 
BRANCH  15  17
ATOM     16  OD2 UNL     1      -0.389  -1.117   0.160  0.00  0.00    -0.250 OA
ATOM     17  CG  UNL     1      -0.077  -2.274   0.410  0.00  0.00    +0.316 C 
BRANCH  17  18
ATOM     18  OD1 UNL     1      -0.582  -2.974   1.456  0.00  0.00    -0.480 OA
ATOM     19  HD1 UNL     1      -0.309  -3.859   1.603  0.00  0.00    +0.295 HD
ENDBRANCH  17  18
ENDBRANCH  15  17
ENDBRANCH  12  15
ENDBRANCH   9  12
ENDBRANCH   2  10
ENDBRANCH   1   2
BRANCH   1  20
ATOM     20  C   UNL     1       1.361   2.359  -0.832  0.00  0.00    +0.003 C 
BRANCH  20  21
ATOM     21  C   UNL     1       0.716   3.713  -0.536  0.00  0.00    +0.021 C 
BRANCH  21  22
ATOM     22  C   UNL     1      -0.583   3.891  -1.312  0.00  0.00    +0.090 C 
BRANCH  22  24
ATOM     23  O   UNL     1      -2.550   4.031   0.775  0.00  0.00    -0.267 OA
ATOM     24  N   UNL     1      -1.545   2.879  -0.970  0.00  0.00    -0.299 N 
ATOM     25  C   UNL     1      -2.464   3.035   0.061  0.00  0.00    +0.276 C 
ATOM     26  H   UNL     1      -1.554   2.042  -1.488  0.00  0.00    +0.150 HD
BRANCH  25  28
ATOM     27  N   UNL     1      -3.200   0.819  -0.508  0.00  0.00    -0.398 NA
ATOM     28  C   UNL     1      -3.374   1.886   0.306  0.00  0.00    +0.184 C 
ATOM     29  C   UNL     1      -3.997  -0.252  -0.332  0.00  0.00    +0.150 C 
ATOM     30  C   UNL     1      -4.319   1.948   1.309  0.00  0.00    +0.033 C 
ATOM     31  C   UNL     1      -4.992  -0.283   0.667  0.00  0.00    +0.099 C 
ATOM     32  C   UNL     1      -5.139   0.843   1.488  0.00  0.00    -0.012 C 
ATOM     33  C   UNL     1      -3.852  -1.371  -1.147  0.00  0.00    +0.160 C 
ATOM     34  C   UNL     1      -5.806  -1.418   0.822  0.00  0.00    -0.015 C 
ATOM     35  C   UNL     1      -4.661  -2.499  -0.993  0.00  0.00    +0.039 C 
ATOM     36  C   UNL     1      -5.639  -2.523  -0.007  0.00  0.00    -0.001 C 
BRANCH  33  37
ATOM     37  O   UNL     1      -2.900  -1.385  -2.129  0.00  0.00    -0.503 OA
ATOM     38  H   UNL     1      -2.344  -0.641  -2.253  0.00  0.00    +0.292 HD
ENDBRANCH  33  37
ENDBRANCH  25  28
ENDBRANCH  22  24
ENDBRANCH  21  22
ENDBRANCH  20  21
ENDBRANCH   1  20
TORSDOF 14
