REMARK  Name = 7100107
REMARK  4 active torsions:
REMARK  status: ('A' for Active; 'I' for Inactive)
REMARK    1  A    between atoms: N_2  and  C_7
REMARK    2  A    between atoms: C_3  and  C_13
REMARK    3  A    between atoms: C_14  and  C_17
REMARK    4  A    between atoms: C_17  and  O_18
REMARK                            x       y       z     vdW  Elec       q    Type
REMARK                         _______ _______ _______ _____ _____    ______ ____
ROOT
ATOM      1  O   UNL     1       0.974  -1.794  -0.644  0.00  0.00    -0.275 OA
ATOM      2  N   UNL     1       0.147   0.408  -0.744  0.00  0.00    -0.282 N 
ATOM      3  C   UNL     1       1.110  -0.598  -0.860  0.00  0.00    +0.226 C 
ATOM      4  H   UNL     1       0.447   1.320  -0.964  0.00  0.00    +0.155 HD
ENDROOT
BRANCH   2   7
ATOM      5  F   UNL     1      -1.530   2.618  -0.611  0.00  0.00    -0.203 F 
ATOM      6  F   UNL     1      -3.521  -2.309   0.683  0.00  0.00    -0.204 F 
ATOM      7  C   UNL     1      -1.187   0.281  -0.355  0.00  0.00    +0.080 C 
ATOM      8  C   UNL     1      -2.010   1.406  -0.296  0.00  0.00    +0.154 C 
ATOM      9  C   UNL     1      -1.698  -0.974  -0.024  0.00  0.00    +0.047 C 
ATOM     10  C   UNL     1      -3.031  -1.104   0.366  0.00  0.00    +0.142 C 
ATOM     11  C   UNL     1      -3.343   1.276   0.094  0.00  0.00    +0.033 C 
ATOM     12  C   UNL     1      -3.853   0.021   0.425  0.00  0.00    +0.032 C 
ENDBRANCH   2   7
BRANCH   3  13
ATOM     13  C   UNL     1       2.450  -0.103  -1.306  0.00  0.00    +0.088 C 
ATOM     14  C   UNL     1       3.396   0.398  -0.271  0.00  0.00    +0.108 C 
ATOM     15  C   UNL     1       3.650  -0.912  -0.957  0.00  0.00    +0.021 C 
BRANCH  14  17
ATOM     16  O   UNL     1       3.195  -0.531   1.895  0.00  0.00    -0.250 OA
ATOM     17  C   UNL     1       2.961   0.396   1.135  0.00  0.00    +0.314 C 
BRANCH  17  18
ATOM     18  O   UNL     1       2.289   1.524   1.469  0.00  0.00    -0.480 OA
ATOM     19  H   UNL     1       2.149   2.192   0.827  0.00  0.00    +0.295 HD
ENDBRANCH  17  18
ENDBRANCH  14  17
ENDBRANCH   3  13
TORSDOF 4
