REMARK  Name = 445144
REMARK  4 active torsions:
REMARK  status: ('A' for Active; 'I' for Inactive)
REMARK    1  A    between atoms: C_1  and  C_3
REMARK    2  A    between atoms: C_1  and  O_9
REMARK    3  A    between atoms: C_1  and  C_12
REMARK    4  A    between atoms: C_12  and  O_13
REMARK                            x       y       z     vdW  Elec       q    Type
REMARK                         _______ _______ _______ _____ _____    ______ ____
ROOT
ATOM      1  C   UNL     1       1.071  -0.469   0.390  0.00  0.00    +0.196 C 
ATOM      2  C   UNL     1       1.547  -1.901   0.030  0.00  0.00    +0.045 C 
ENDROOT
BRANCH   1   3
ATOM      3  C   UNL     1      -0.379  -0.181   0.190  0.00  0.00    +0.012 C 
ATOM      4  C   UNL     1      -0.890   1.079   0.502  0.00  0.00    -0.002 C 
ATOM      5  C   UNL     1      -1.224  -1.173  -0.309  0.00  0.00    -0.002 C 
ATOM      6  C   UNL     1      -2.246   1.347   0.315  0.00  0.00    -0.000 C 
ATOM      7  C   UNL     1      -2.580  -0.904  -0.496  0.00  0.00    -0.000 C 
ATOM      8  C   UNL     1      -3.091   0.356  -0.184  0.00  0.00    -0.000 C 
ENDBRANCH   1   3
BRANCH   1   9
ATOM      9  O   UNL     1       1.363  -0.291   1.784  0.00  0.00    -0.373 OA
ATOM     10  H   UNL     1       0.811  -0.891   2.309  0.00  0.00    +0.211 HD
ENDBRANCH   1   9
BRANCH   1  12
ATOM     11  O   UNL     1       2.766   1.247   0.030  0.00  0.00    -0.247 OA
ATOM     12  C   UNL     1       1.943   0.481  -0.459  0.00  0.00    +0.342 C 
BRANCH  12  13
ATOM     13  O   UNL     1       1.722   0.409  -1.794  0.00  0.00    -0.478 OA
ATOM     14  H   UNL     1       1.084  -0.189  -2.132  0.00  0.00    +0.295 HD
ENDBRANCH  12  13
ENDBRANCH   1  12
TORSDOF 4
