REMARK  Name = 3236724
REMARK  8 active torsions:
REMARK  status: ('A' for Active; 'I' for Inactive)
REMARK    1  A    between atoms: C_1  and  N_2
REMARK    2  A    between atoms: C_1  and  C_14
REMARK    3  A    between atoms: N_2  and  S_4
REMARK    4  A    between atoms: S_4  and  C_7
REMARK    5  A    between atoms: C_14  and  C_15
REMARK    6  A    between atoms: C_15  and  O_16
REMARK    7  A    between atoms: O_16  and  C_19
REMARK    8  A    between atoms: N_18  and  C_22
REMARK                            x       y       z     vdW  Elec       q    Type
REMARK                         _______ _______ _______ _____ _____    ______ ____
ROOT
ATOM      1  C   UNL     1      -2.890   2.369   0.688  0.00  0.00    +0.095 C 
ENDROOT
BRANCH   1   2
ATOM      2  N   UNL     1      -3.628   1.375  -0.121  0.00  0.00    -0.179 NA
ATOM      3  H   UNL     1      -4.504   1.816  -0.402  0.00  0.00    +0.149 HD
BRANCH   2   4
ATOM      4  S   UNL     1      -4.031  -0.135   0.548  0.00  0.00    +0.060 S 
ATOM      5  O   UNL     1      -5.178  -0.681  -0.153  0.00  0.00    -0.153 OA
ATOM      6  O   UNL     1      -4.046  -0.019   1.994  0.00  0.00    -0.153 OA
BRANCH   4   7
ATOM      7  C   UNL     1      -2.618  -1.108   0.123  0.00  0.00    +0.122 C 
ATOM      8  C   UNL     1      -2.609  -1.799  -1.076  0.00  0.00    +0.020 C 
ATOM      9  C   UNL     1      -1.547  -1.163   0.998  0.00  0.00    +0.020 C 
ATOM     10  C   UNL     1      -0.406  -2.634  -0.542  0.00  0.00    -0.022 C 
ATOM     11  C   UNL     1      -1.495  -2.568  -1.411  0.00  0.00    -0.003 C 
ATOM     12  C   UNL     1      -0.432  -1.931   0.663  0.00  0.00    -0.003 C 
ATOM     13  C   UNL     1       0.785  -3.457  -0.900  0.00  0.00    +0.031 C 
ENDBRANCH   4   7
ENDBRANCH   2   4
ENDBRANCH   1   2
BRANCH   1  14
ATOM     14  C   UNL     1      -2.035   3.252  -0.209  0.00  0.00    +0.066 C 
BRANCH  14  15
ATOM     15  C   UNL     1      -1.014   2.463  -1.019  0.00  0.00    +0.212 C 
BRANCH  15  16
ATOM     16  O   UNL     1      -0.162   1.762  -0.123  0.00  0.00    -0.434 OA
BRANCH  16  19
ATOM     17  O   UNL     1       1.542   1.909  -1.641  0.00  0.00    -0.226 OA
ATOM     18  N   UNL     1       1.815   0.851   0.430  0.00  0.00    -0.250 N 
ATOM     19  C   UNL     1       1.125   1.537  -0.551  0.00  0.00    +0.405 C 
ATOM     20  H   UNL     1       1.307   0.638   1.246  0.00  0.00    +0.158 HD
BRANCH  18  22
ATOM     21  N   UNL     1       5.803  -0.432   0.361  0.00  0.00    -0.242 NA
ATOM     22  C   UNL     1       3.160   0.418   0.406  0.00  0.00    +0.056 C 
ATOM     23  C   UNL     1       3.674  -0.260   1.494  0.00  0.00    +0.035 C 
ATOM     24  C   UNL     1       3.939   0.679  -0.704  0.00  0.00    +0.035 C 
ATOM     25  C   UNL     1       4.998  -0.663   1.422  0.00  0.00    +0.100 C 
ATOM     26  C   UNL     1       5.251   0.235  -0.677  0.00  0.00    +0.100 C 
ENDBRANCH  18  22
ENDBRANCH  16  19
ENDBRANCH  15  16
ENDBRANCH  14  15
ENDBRANCH   1  14
TORSDOF 8
