REMARK  Name = 24178120
REMARK  2 active torsions:
REMARK  status: ('A' for Active; 'I' for Inactive)
REMARK    1  A    between atoms: N_2  and  C_16
REMARK    2  A    between atoms: C_4  and  O_22
REMARK                            x       y       z     vdW  Elec       q    Type
REMARK                         _______ _______ _______ _____ _____    ______ ____
ROOT
ATOM      1  O   UNL     1       2.322   2.766   0.775  0.00  0.00    -0.288 OA
ATOM      2  N   UNL     1      -1.757   0.778   0.035  0.00  0.00    -0.264 N 
ATOM      3  N   UNL     1       0.228  -0.636  -0.056  0.00  0.00    -0.392 NA
ATOM      4  C   UNL     1       0.352   1.811  -0.230  0.00  0.00    +0.204 C 
ATOM      5  C   UNL     1      -0.612   2.790   0.432  0.00  0.00    +0.065 C 
ATOM      6  C   UNL     1      -1.997   2.225   0.088  0.00  0.00    +0.101 C 
ATOM      7  C   UNL     1      -0.398   0.497  -0.071  0.00  0.00    +0.195 C 
ATOM      8  C   UNL     1       1.750   1.785   0.319  0.00  0.00    +0.207 C 
ATOM      9  C   UNL     1       2.428   0.480   0.188  0.00  0.00    +0.063 C 
ATOM     10  C   UNL     1       1.637  -0.656  -0.050  0.00  0.00    +0.117 C 
ATOM     11  C   UNL     1       3.820   0.396   0.269  0.00  0.00    +0.005 C 
ATOM     12  C   UNL     1       2.283  -1.887  -0.212  0.00  0.00    +0.081 C 
ATOM     13  C   UNL     1       3.675  -1.979  -0.142  0.00  0.00    -0.037 C 
ATOM     14  C   UNL     1       4.441  -0.840   0.102  0.00  0.00    -0.008 C 
ATOM     15  C   UNL     1       4.343  -3.300  -0.320  0.00  0.00    +0.027 C 
ENDROOT
BRANCH   2  16
ATOM     16  C   UNL     1      -2.788  -0.129   0.058  0.00  0.00    +0.053 C 
ATOM     17  C   UNL     1      -2.584  -1.404   0.586  0.00  0.00    +0.015 C 
ATOM     18  C   UNL     1      -4.040   0.225  -0.447  0.00  0.00    +0.015 C 
ATOM     19  C   UNL     1      -3.631  -2.325   0.610  0.00  0.00    +0.001 C 
ATOM     20  C   UNL     1      -5.087  -0.697  -0.423  0.00  0.00    +0.001 C 
ATOM     21  C   UNL     1      -4.882  -1.971   0.105  0.00  0.00    +0.000 C 
ENDBRANCH   2  16
BRANCH   4  22
ATOM     22  O   UNL     1       0.496   2.070  -1.617  0.00  0.00    -0.372 OA
ATOM     23  H   UNL     1      -0.379   2.100  -2.033  0.00  0.00    +0.211 HD
ENDBRANCH   4  22
TORSDOF 2
