REMARK  Name = 25138289
REMARK  12 active torsions:
REMARK  status: ('A' for Active; 'I' for Inactive)
REMARK    1  A    between atoms: P_1  and  O_3
REMARK    2  A    between atoms: P_1  and  C_5
REMARK    3  A    between atoms: P_1  and  C_18
REMARK    4  A    between atoms: C_5  and  N_6
REMARK    5  A    between atoms: C_5  and  C_10
REMARK    6  A    between atoms: C_10  and  C_11
REMARK    7  A    between atoms: C_11  and  C_12
REMARK    8  A    between atoms: C_18  and  C_19
REMARK    9  A    between atoms: C_19  and  C_21
REMARK   10  A    between atoms: C_19  and  C_24
REMARK   11  A    between atoms: C_21  and  O_22
REMARK   12  A    between atoms: C_24  and  C_25
REMARK                            x       y       z     vdW  Elec       q    Type
REMARK                         _______ _______ _______ _____ _____    ______ ____
ROOT
ATOM      1  P   UNL     1      -0.168   0.764  -0.355  0.00  0.00    +0.201 P 
ATOM      2  O   UNL     1      -0.685   2.174  -0.376  0.00  0.00    -0.292 OA
ENDROOT
BRANCH   1   3
ATOM      3  O   UNL     1      -0.162   0.103   1.124  0.00  0.00    -0.344 OA
ATOM      4  H   UNL     1      -1.059   0.126   1.492  0.00  0.00    +0.218 HD
ENDBRANCH   1   3
BRANCH   1   5
ATOM      5  C   UNL     1      -1.082  -0.413  -1.334  0.00  0.00    +0.015 C 
BRANCH   5   6
ATOM      6  N   UNL     1      -1.171   0.284  -2.610  0.00  0.00    +0.388 N 
ATOM      7  H   UNL     1      -0.236   0.547  -2.920  0.00  0.00    -0.089 HD
ATOM      8  H   UNL     1      -1.741   1.123  -2.499  0.00  0.00    -0.089 HD
ATOM      9  H   UNL     1      -1.600  -0.329  -3.303  0.00  0.00    -0.089 HD
ENDBRANCH   5   6
BRANCH   5  10
ATOM     10  C   UNL     1      -2.456  -0.837  -0.811  0.00  0.00    -0.008 C 
BRANCH  10  11
ATOM     11  C   UNL     1      -3.441   0.312  -0.571  0.00  0.00    +0.025 C 
BRANCH  11  12
ATOM     12  C   UNL     1      -4.751  -0.192  -0.017  0.00  0.00    -0.022 C 
ATOM     13  C   UNL     1      -5.782  -0.555  -0.883  0.00  0.00    -0.004 C 
ATOM     14  C   UNL     1      -4.931  -0.294   1.363  0.00  0.00    -0.004 C 
ATOM     15  C   UNL     1      -6.992  -1.020  -0.370  0.00  0.00    -0.000 C 
ATOM     16  C   UNL     1      -6.141  -0.759   1.876  0.00  0.00    -0.000 C 
ATOM     17  C   UNL     1      -7.172  -1.122   1.009  0.00  0.00    -0.000 C 
ENDBRANCH  11  12
ENDBRANCH  10  11
ENDBRANCH   5  10
ENDBRANCH   1   5
BRANCH   1  18
ATOM     18  C   UNL     1       1.541   0.625  -0.841  0.00  0.00    +0.096 C 
BRANCH  18  19
ATOM     19  C   UNL     1       2.560   1.172   0.166  0.00  0.00    +0.113 C 
BRANCH  19  21
ATOM     20  O   UNL     1       2.426   3.546  -0.394  0.00  0.00    -0.250 OA
ATOM     21  C   UNL     1       2.311   2.650   0.432  0.00  0.00    +0.314 C 
BRANCH  21  22
ATOM     22  O   UNL     1       1.942   2.882   1.720  0.00  0.00    -0.480 OA
ATOM     23  H   UNL     1       1.865   2.168   2.321  0.00  0.00    +0.295 HD
ENDBRANCH  21  22
ENDBRANCH  19  21
BRANCH  19  24
ATOM     24  C   UNL     1       4.023   0.972  -0.267  0.00  0.00    +0.038 C 
BRANCH  24  25
ATOM     25  C   UNL     1       4.542  -0.424  -0.029  0.00  0.00    -0.022 C 
ATOM     26  C   UNL     1       5.153  -0.745   1.183  0.00  0.00    -0.004 C 
ATOM     27  C   UNL     1       4.411  -1.395  -1.022  0.00  0.00    -0.004 C 
ATOM     28  C   UNL     1       5.633  -2.036   1.402  0.00  0.00    -0.000 C 
ATOM     29  C   UNL     1       4.891  -2.687  -0.803  0.00  0.00    -0.000 C 
ATOM     30  C   UNL     1       5.502  -3.007   0.409  0.00  0.00    -0.000 C 
ENDBRANCH  24  25
ENDBRANCH  19  24
ENDBRANCH  18  19
ENDBRANCH   1  18
TORSDOF 12
