REMARK  Name = 5192
REMARK  11 active torsions:
REMARK  status: ('A' for Active; 'I' for Inactive)
REMARK    1  A    between atoms: C_1  and  C_2
REMARK    2  A    between atoms: C_1  and  C_10
REMARK    3  A    between atoms: C_2  and  C_3
REMARK    4  A    between atoms: C_3  and  C_4
REMARK    5  A    between atoms: C_4  and  C_5
REMARK    6  A    between atoms: C_5  and  C_7
REMARK    7  A    between atoms: C_7  and  O_8
REMARK    8  A    between atoms: C_10  and  C_11
REMARK    9  A    between atoms: C_11  and  C_12
REMARK   10  A    between atoms: C_12  and  C_14
REMARK   11  A    between atoms: C_14  and  O_15
REMARK                            x       y       z     vdW  Elec       q    Type
REMARK                         _______ _______ _______ _____ _____    ______ ____
ROOT
ATOM      1  C   UNL     1       0.681  -0.416  -0.119  0.00  0.00    +0.000 C 
ENDROOT
BRANCH   1   2
ATOM      2  C   UNL     1      -0.660   0.326  -0.108  0.00  0.00    +0.000 C 
BRANCH   2   3
ATOM      3  C   UNL     1      -1.907  -0.559  -0.009  0.00  0.00    +0.001 C 
BRANCH   3   4
ATOM      4  C   UNL     1      -3.215   0.237   0.059  0.00  0.00    +0.012 C 
BRANCH   4   5
ATOM      5  C   UNL     1      -4.448  -0.667   0.065  0.00  0.00    +0.109 C 
BRANCH   5   7
ATOM      6  O   UNL     1      -5.857   1.321   0.086  0.00  0.00    -0.250 OA
ATOM      7  C   UNL     1      -5.750   0.103   0.053  0.00  0.00    +0.314 C 
BRANCH   7   8
ATOM      8  O   UNL     1      -6.819  -0.732  -0.024  0.00  0.00    -0.480 OA
ATOM      9  H   UNL     1      -6.688  -1.660  -0.047  0.00  0.00    +0.295 HD
ENDBRANCH   7   8
ENDBRANCH   5   7
ENDBRANCH   4   5
ENDBRANCH   3   4
ENDBRANCH   2   3
ENDBRANCH   1   2
BRANCH   1  10
ATOM     10  C   UNL     1       1.890   0.521  -0.166  0.00  0.00    +0.001 C 
BRANCH  10  11
ATOM     11  C   UNL     1       3.233  -0.215  -0.099  0.00  0.00    +0.012 C 
BRANCH  11  12
ATOM     12  C   UNL     1       4.460   0.693  -0.058  0.00  0.00    +0.109 C 
BRANCH  12  14
ATOM     13  O   UNL     1       5.831  -1.295   0.100  0.00  0.00    -0.250 OA
ATOM     14  C   UNL     1       5.748  -0.076   0.069  0.00  0.00    +0.314 C 
BRANCH  14  15
ATOM     15  O   UNL     1       6.813   0.759   0.150  0.00  0.00    -0.480 OA
ATOM     16  H   UNL     1       6.685   1.687   0.120  0.00  0.00    +0.295 HD
ENDBRANCH  14  15
ENDBRANCH  12  14
ENDBRANCH  11  12
ENDBRANCH  10  11
ENDBRANCH   1  10
TORSDOF 11
