REMARK  Name = 399618
REMARK  5 active torsions:
REMARK  status: ('A' for Active; 'I' for Inactive)
REMARK    1  A    between atoms: N_2  and  C_8
REMARK    2  A    between atoms: C_4  and  C_20
REMARK    3  A    between atoms: C_11  and  O_14
REMARK    4  A    between atoms: C_20  and  C_21
REMARK    5  A    between atoms: C_24  and  O_27
REMARK                            x       y       z     vdW  Elec       q    Type
REMARK                         _______ _______ _______ _____ _____    ______ ____
ROOT
ATOM      1  S   UNL     1       0.689  -0.320   0.147  0.00  0.00    -0.051 S 
ATOM      2  N   UNL     1      -1.925  -0.810   0.181  0.00  0.00    -0.283 N 
ATOM      3  N   UNL     1      -1.204   1.439   0.077  0.00  0.00    -0.370 NA
ATOM      4  C   UNL     1       1.083   1.321   0.070  0.00  0.00    +0.183 C 
ATOM      5  C   UNL     1      -0.962   0.149   0.134  0.00  0.00    +0.213 C 
ATOM      6  C   UNL     1      -0.001   2.118   0.040  0.00  0.00    +0.174 C 
ATOM      7  H   UNL     1      -1.594  -1.725   0.329  0.00  0.00    +0.155 HD
ATOM      8  N   UNL     1       0.018   3.471  -0.021  0.00  0.00    -0.335 N 
ATOM      9  H   UNL     1      -0.828   3.975  -0.039  0.00  0.00    +0.144 HD
ATOM     10  H   UNL     1       0.877   3.951  -0.048  0.00  0.00    +0.144 HD
ENDROOT
BRANCH   2  11
ATOM     11  C   UNL     1      -3.333  -0.696   0.050  0.00  0.00    +0.051 C 
ATOM     12  C   UNL     1      -4.157  -1.673   0.597  0.00  0.00    +0.018 C 
ATOM     13  C   UNL     1      -3.876   0.392  -0.625  0.00  0.00    +0.018 C 
ATOM     14  C   UNL     1      -6.093  -0.473  -0.208  0.00  0.00    +0.139 C 
ATOM     15  C   UNL     1      -5.541  -1.561   0.467  0.00  0.00    +0.038 C 
ATOM     16  C   UNL     1      -5.260   0.504  -0.754  0.00  0.00    +0.038 C 
BRANCH  14  17
ATOM     17  O   UNL     1      -7.444  -0.363  -0.334  0.00  0.00    -0.471 OA
ATOM     18  C   UNL     1      -8.236  -1.397   0.248  0.00  0.00    +0.252 C 
ENDBRANCH  14  17
ENDBRANCH   2  11
BRANCH   4  20
ATOM     19  O   UNL     1       2.872   2.883   0.009  0.00  0.00    -0.290 OA
ATOM     20  C   UNL     1       2.514   1.694   0.047  0.00  0.00    +0.191 C 
BRANCH  20  21
ATOM     21  C   UNL     1       3.556   0.680   0.086  0.00  0.00    +0.036 C 
ATOM     22  C   UNL     1       4.049   0.142  -1.103  0.00  0.00    +0.006 C 
ATOM     23  C   UNL     1       4.062   0.246   1.311  0.00  0.00    +0.006 C 
ATOM     24  C   UNL     1       5.555  -1.264   0.160  0.00  0.00    +0.139 C 
ATOM     25  C   UNL     1       5.049  -0.830  -1.066  0.00  0.00    +0.037 C 
ATOM     26  C   UNL     1       5.061  -0.726   1.348  0.00  0.00    +0.037 C 
BRANCH  24  27
ATOM     27  O   UNL     1       6.532  -2.211   0.196  0.00  0.00    -0.471 OA
ATOM     28  C   UNL     1       6.992  -2.717  -1.057  0.00  0.00    +0.252 C 
ENDBRANCH  24  27
ENDBRANCH  20  21
ENDBRANCH   4  20
TORSDOF 5
