REMARK  Name = 44176356
REMARK  5 active torsions:
REMARK  status: ('A' for Active; 'I' for Inactive)
REMARK    1  A    between atoms: C_13  and  O_25
REMARK    2  A    between atoms: C_14  and  O_23
REMARK    3  A    between atoms: O_25  and  C_26
REMARK    4  A    between atoms: C_26  and  C_27
REMARK    5  A    between atoms: C_27  and  O_28
REMARK                            x       y       z     vdW  Elec       q    Type
REMARK                         _______ _______ _______ _____ _____    ______ ____
ROOT
ATOM      1  N   UNL     1      -0.480   2.907   0.167  0.00  0.00    -0.248 NA
ATOM      2  N   UNL     1       4.360  -1.214  -0.171  0.00  0.00    -0.221 N 
ATOM      3  N   UNL     1       4.001   1.097  -0.180  0.00  0.00    -0.372 NA
ATOM      4  N   UNL     1       6.274  -2.330  -0.317  0.00  0.00    -0.224 NA
ATOM      5  C   UNL     1       1.198   0.649   0.066  0.00  0.00    +0.010 C 
ATOM      6  C   UNL     1      -0.224   0.501   0.189  0.00  0.00    +0.017 C 
ATOM      7  C   UNL     1       1.733   1.947  -0.003  0.00  0.00    +0.063 C 
ATOM      8  C   UNL     1      -1.011   1.677   0.234  0.00  0.00    +0.067 C 
ATOM      9  C   UNL     1       2.124  -0.416   0.007  0.00  0.00    +0.049 C 
ATOM     10  C   UNL     1      -0.888  -0.748   0.268  0.00  0.00    +0.041 C 
ATOM     11  C   UNL     1      -2.393   1.566   0.353  0.00  0.00    +0.113 C 
ATOM     12  C   UNL     1       3.481  -0.143  -0.113  0.00  0.00    +0.194 C 
ATOM     13  C   UNL     1      -3.029   0.328   0.430  0.00  0.00    +0.156 C 
ATOM     14  C   UNL     1      -2.274  -0.833   0.387  0.00  0.00    +0.169 C 
ATOM     15  C   UNL     1       3.115   2.113  -0.123  0.00  0.00    +0.180 C 
ATOM     16  C   UNL     1       0.859   3.023   0.052  0.00  0.00    +0.102 C 
ATOM     17  C   UNL     1       4.026  -2.539  -0.121  0.00  0.00    +0.094 C 
ATOM     18  C   UNL     1       5.720  -1.138  -0.289  0.00  0.00    +0.174 C 
ATOM     19  C   UNL     1       5.224  -3.207  -0.213  0.00  0.00    +0.117 C 
ATOM     20  N   UNL     1       3.653   3.423  -0.192  0.00  0.00    -0.333 N 
ATOM     21  H   UNL     1       4.625   3.553  -0.276  0.00  0.00    +0.145 HD
ATOM     22  H   UNL     1       3.054   4.203  -0.154  0.00  0.00    +0.145 HD
ENDROOT
BRANCH  14  23
ATOM     23  O   UNL     1      -2.870  -2.055   0.460  0.00  0.00    -0.469 OA
ATOM     24  C   UNL     1      -3.047  -2.614   1.761  0.00  0.00    +0.253 C 
ENDBRANCH  14  23
BRANCH  13  25
ATOM     25  O   UNL     1      -4.384   0.275   0.549  0.00  0.00    -0.474 OA
BRANCH  25  26
ATOM     26  C   UNL     1      -5.151   0.865  -0.499  0.00  0.00    +0.237 C 
BRANCH  26  27
ATOM     27  C   UNL     1      -6.460   0.112  -0.639  0.00  0.00    +0.189 C 
BRANCH  27  28
ATOM     28  O   UNL     1      -6.182  -1.243  -0.971  0.00  0.00    -0.347 OA
ATOM     29  C   UNL     1      -7.376  -2.003  -1.093  0.00  0.00    +0.174 C 
ENDBRANCH  27  28
ENDBRANCH  26  27
ENDBRANCH  25  26
ENDBRANCH  13  25
TORSDOF 5
