REMARK  Name = 44129623
REMARK  7 active torsions:
REMARK  status: ('A' for Active; 'I' for Inactive)
REMARK    1  A    between atoms: C_1  and  O_7
REMARK    2  A    between atoms: C_2  and  C_16
REMARK    3  A    between atoms: O_7  and  C_8
REMARK    4  A    between atoms: C_8  and  C_9
REMARK    5  A    between atoms: C_9  and  N_10
REMARK    6  A    between atoms: C_16  and  C_18
REMARK    7  A    between atoms: C_16  and  O_23
REMARK                            x       y       z     vdW  Elec       q    Type
REMARK                         _______ _______ _______ _____ _____    ______ ____
ROOT
ATOM      1  C   UNL     1      -0.712   1.694  -0.090  0.00  0.00    +0.138 C 
ATOM      2  C   UNL     1       2.059   1.369  -0.038  0.00  0.00    +0.009 C 
ATOM      3  C   UNL     1       0.078   2.280  -1.079  0.00  0.00    +0.037 C 
ATOM      4  C   UNL     1      -0.116   0.945   0.925  0.00  0.00    +0.037 C 
ATOM      5  C   UNL     1       1.463   2.118  -1.053  0.00  0.00    +0.001 C 
ATOM      6  C   UNL     1       1.269   0.782   0.950  0.00  0.00    +0.001 C 
ENDROOT
BRANCH   1   7
ATOM      7  O   UNL     1      -2.073   1.853  -0.116  0.00  0.00    -0.478 OA
BRANCH   7   8
ATOM      8  C   UNL     1      -2.851   0.796   0.430  0.00  0.00    +0.183 C 
BRANCH   8   9
ATOM      9  C   UNL     1      -4.195   0.761  -0.282  0.00  0.00    -0.029 C 
BRANCH   9  10
ATOM     10  N   UNL     1      -5.021  -0.320   0.234  0.00  0.00    +0.389 N 
ATOM     11  C   UNL     1      -4.660  -1.619  -0.333  0.00  0.00    -0.077 C 
ATOM     12  C   UNL     1      -6.437  -0.144  -0.091  0.00  0.00    -0.077 C 
ATOM     13  C   UNL     1      -5.854  -2.490   0.025  0.00  0.00    -0.025 C 
ATOM     14  C   UNL     1      -7.023  -1.522   0.180  0.00  0.00    -0.025 C 
ATOM     15  H   UNL     1      -4.862  -0.293   1.241  0.00  0.00    -0.080 HD
ENDBRANCH   9  10
ENDBRANCH   8   9
ENDBRANCH   7   8
ENDBRANCH   1   7
BRANCH   2  16
ATOM     16  C   UNL     1       3.539   1.195  -0.011  0.00  0.00    +0.155 C 
BRANCH  16  18
ATOM     17  N   UNL     1       4.817  -2.928  -0.189  0.00  0.00    -0.242 NA
ATOM     18  C   UNL     1       3.991  -0.261  -0.074  0.00  0.00    +0.012 C 
ATOM     19  C   UNL     1       4.266  -0.853  -1.301  0.00  0.00    +0.019 C 
ATOM     20  C   UNL     1       4.128  -1.000   1.096  0.00  0.00    +0.019 C 
ATOM     21  C   UNL     1       4.673  -2.178  -1.305  0.00  0.00    +0.099 C 
ATOM     22  C   UNL     1       4.541  -2.318   0.985  0.00  0.00    +0.099 C 
ENDBRANCH  16  18
BRANCH  16  23
ATOM     23  O   UNL     1       4.119   1.840   1.138  0.00  0.00    -0.376 OA
ATOM     24  H   UNL     1       3.827   2.764   1.171  0.00  0.00    +0.211 HD
ENDBRANCH  16  23
ENDBRANCH   2  16
TORSDOF 7
