REMARK  Name = 46937064
REMARK  16 active torsions:
REMARK  status: ('A' for Active; 'I' for Inactive)
REMARK    1  A    between atoms: C_2  and  O_13
REMARK    2  A    between atoms: C_3  and  N_7
REMARK    3  A    between atoms: C_4  and  O_11
REMARK    4  A    between atoms: C_5  and  O_25
REMARK    5  A    between atoms: C_6  and  C_34
REMARK    6  A    between atoms: O_13  and  C_15
REMARK    7  A    between atoms: C_17  and  O_21
REMARK    8  A    between atoms: C_18  and  O_23
REMARK    9  A    between atoms: O_25  and  C_26
REMARK   10  A    between atoms: C_26  and  C_27
REMARK   11  A    between atoms: C_27  and  C_28
REMARK   12  A    between atoms: C_28  and  C_29
REMARK   13  A    between atoms: C_29  and  C_30
REMARK   14  A    between atoms: C_30  and  C_31
REMARK   15  A    between atoms: C_31  and  C_32
REMARK   16  A    between atoms: C_34  and  O_35
REMARK                            x       y       z     vdW  Elec       q    Type
REMARK                         _______ _______ _______ _____ _____    ______ ____
ROOT
ATOM      1  O   UNL     1       1.394  -2.758   0.142  0.00  0.00    -0.326 OA
ATOM      2  C   UNL     1       2.508  -0.578   0.233  0.00  0.00    +0.157 C 
ATOM      3  C   UNL     1       3.787  -1.226  -0.315  0.00  0.00    -0.003 C 
ATOM      4  C   UNL     1       3.818  -2.732  -0.010  0.00  0.00    +0.123 C 
ATOM      5  C   UNL     1       1.272  -1.378  -0.199  0.00  0.00    +0.261 C 
ATOM      6  C   UNL     1       2.515  -3.391  -0.484  0.00  0.00    +0.172 C 
ENDROOT
BRANCH   3   7
ATOM      7  N   UNL     1       4.977  -0.568   0.228  0.00  0.00    +0.385 N 
ATOM      8  H   UNL     1       4.940   0.429   0.017  0.00  0.00    -0.089 HD
ATOM      9  H   UNL     1       5.813  -0.974  -0.193  0.00  0.00    -0.089 HD
ATOM     10  H   UNL     1       5.008  -0.700   1.239  0.00  0.00    -0.089 HD
ENDBRANCH   3   7
BRANCH   4  11
ATOM     11  O   UNL     1       3.985  -2.953   1.392  0.00  0.00    -0.384 OA
ATOM     12  H   UNL     1       4.809  -2.536   1.690  0.00  0.00    +0.210 HD
ENDBRANCH   4  11
BRANCH   2  13
ATOM     13  O   UNL     1       2.371   0.746  -0.282  0.00  0.00    -0.330 OA
BRANCH  13  15
ATOM     14  O   UNL     1       0.441   2.079   0.066  0.00  0.00    -0.330 OA
ATOM     15  C   UNL     1       1.661   1.584   0.624  0.00  0.00    +0.238 C 
ATOM     16  C   UNL     1       2.564   2.730   1.076  0.00  0.00    +0.093 C 
ATOM     17  C   UNL     1       2.789   3.726  -0.061  0.00  0.00    +0.145 C 
ATOM     18  C   UNL     1       1.452   4.183  -0.649  0.00  0.00    +0.164 C 
ATOM     19  C   UNL     1       0.623   2.957  -1.054  0.00  0.00    +0.147 C 
ATOM     20  C   UNL     1      -0.765   3.325  -1.568  0.00  0.00    +0.035 C 
BRANCH  17  21
ATOM     21  O   UNL     1       3.517   4.854   0.410  0.00  0.00    -0.382 OA
ATOM     22  H   UNL     1       4.363   4.560   0.782  0.00  0.00    +0.210 HD
ENDBRANCH  17  21
BRANCH  18  23
ATOM     23  O   UNL     1       0.755   4.945   0.338  0.00  0.00    -0.380 OA
ATOM     24  H   UNL     1       1.288   5.717   0.587  0.00  0.00    +0.211 HD
ENDBRANCH  18  23
ENDBRANCH  13  15
ENDBRANCH   2  13
BRANCH   5  25
ATOM     25  O   UNL     1       0.101  -0.833   0.410  0.00  0.00    -0.329 OA
BRANCH  25  26
ATOM     26  C   UNL     1      -1.077  -1.219  -0.285  0.00  0.00    +0.145 C 
BRANCH  26  27
ATOM     27  C   UNL     1      -2.282  -0.591   0.401  0.00  0.00    +0.032 C 
BRANCH  27  28
ATOM     28  C   UNL     1      -3.589  -0.979  -0.288  0.00  0.00    +0.003 C 
BRANCH  28  29
ATOM     29  C   UNL     1      -4.790  -0.309   0.384  0.00  0.00    +0.000 C 
BRANCH  29  30
ATOM     30  C   UNL     1      -6.131  -0.682  -0.254  0.00  0.00    +0.000 C 
BRANCH  30  31
ATOM     31  C   UNL     1      -7.337  -0.071   0.463  0.00  0.00    +0.000 C 
BRANCH  31  32
ATOM     32  C   UNL     1      -8.650  -0.534  -0.170  0.00  0.00    +0.000 C 
ATOM     33  C   UNL     1      -9.854   0.039   0.561  0.00  0.00    +0.000 C 
ENDBRANCH  31  32
ENDBRANCH  30  31
ENDBRANCH  29  30
ENDBRANCH  28  29
ENDBRANCH  27  28
ENDBRANCH  26  27
ENDBRANCH  25  26
ENDBRANCH   5  25
BRANCH   6  34
ATOM     34  C   UNL     1       2.455  -4.874  -0.139  0.00  0.00    +0.169 C 
BRANCH  34  35
ATOM     35  O   UNL     1       1.489  -5.493  -0.971  0.00  0.00    -0.379 OA
ATOM     36  H   UNL     1       1.440  -6.439  -0.761  0.00  0.00    +0.211 HD
ENDBRANCH  34  35
ENDBRANCH   6  34
TORSDOF 16
