REMARK  Name = 4369497
REMARK  6 active torsions:
REMARK  status: ('A' for Active; 'I' for Inactive)
REMARK    1  A    between atoms: N_2  and  C_9
REMARK    2  A    between atoms: C_5  and  C_21
REMARK    3  A    between atoms: C_8  and  S_14
REMARK    4  A    between atoms: C_12  and  O_19
REMARK    5  A    between atoms: S_14  and  C_17
REMARK    6  A    between atoms: C_22  and  C_28
REMARK                            x       y       z     vdW  Elec       q    Type
REMARK                         _______ _______ _______ _____ _____    ______ ____
ROOT
ATOM      1  O   UNL     1      -0.277  -1.476   0.292  0.00  0.00    -0.424 OA
ATOM      2  N   UNL     1       2.017  -1.555   0.203  0.00  0.00    -0.265 N 
ATOM      3  N   UNL     1       0.765   0.412  -0.389  0.00  0.00    -0.193 NA
ATOM      4  C   UNL     1       0.890  -0.830   0.019  0.00  0.00    +0.293 C 
ATOM      5  C   UNL     1      -1.219  -0.536   0.026  0.00  0.00    +0.168 C 
ATOM      6  C   UNL     1      -0.593   0.606  -0.386  0.00  0.00    +0.141 C 
ATOM      7  H   UNL     1       1.869  -2.505   0.414  0.00  0.00    +0.157 HD
ENDROOT
BRANCH   2   9
ATOM      8  C   UNL     1       5.044   0.575   0.287  0.00  0.00    +0.107 C 
ATOM      9  C   UNL     1       3.383  -1.161   0.142  0.00  0.00    +0.087 C 
ATOM     10  C   UNL     1       3.709   0.175   0.345  0.00  0.00    +0.036 C 
ATOM     11  C   UNL     1       6.042  -0.364   0.026  0.00  0.00    +0.022 C 
ATOM     12  C   UNL     1       4.371  -2.102  -0.119  0.00  0.00    +0.152 C 
ATOM     13  C   UNL     1       5.706  -1.702  -0.177  0.00  0.00    +0.040 C 
BRANCH   8  14
ATOM     14  S   UNL     1       5.466   2.250   0.540  0.00  0.00    +0.009 S 
ATOM     15  O   UNL     1       4.412   2.862   1.337  0.00  0.00    -0.169 OA
ATOM     16  O   UNL     1       6.849   2.326   0.989  0.00  0.00    -0.169 OA
BRANCH  14  17
ATOM     17  C   UNL     1       5.409   2.970  -1.086  0.00  0.00    +0.156 C 
ATOM     18  C   UNL     1       5.753   4.442  -1.053  0.00  0.00    +0.028 C 
ENDBRANCH  14  17
ENDBRANCH   8  14
BRANCH  12  19
ATOM     19  O   UNL     1       4.063  -3.414  -0.321  0.00  0.00    -0.470 OA
ATOM     20  C   UNL     1       3.798  -3.818  -1.663  0.00  0.00    +0.253 C 
ENDBRANCH  12  19
ENDBRANCH   2   9
BRANCH   5  21
ATOM     21  C   UNL     1      -2.590  -0.939   0.228  0.00  0.00    +0.036 C 
ATOM     22  C   UNL     1      -4.951  -0.428   0.180  0.00  0.00    +0.018 C 
ATOM     23  C   UNL     1      -3.626  -0.038  -0.018  0.00  0.00    +0.005 C 
ATOM     24  C   UNL     1      -2.878  -2.229   0.673  0.00  0.00    +0.003 C 
ATOM     25  C   UNL     1      -5.239  -1.718   0.624  0.00  0.00    +0.001 C 
ATOM     26  C   UNL     1      -4.203  -2.619   0.870  0.00  0.00    +0.000 C 
BRANCH  22  28
ATOM     27  N   UNL     1      -6.388   1.259   0.986  0.00  0.00    -0.244 NA
ATOM     28  C   UNL     1      -6.026   0.506  -0.075  0.00  0.00    +0.081 C 
ATOM     29  C   UNL     1      -6.612   0.590  -1.327  0.00  0.00    +0.019 C 
ATOM     30  C   UNL     1      -7.640   1.510  -1.501  0.00  0.00    +0.003 C 
ATOM     31  C   UNL     1      -7.391   2.142   0.779  0.00  0.00    +0.099 C 
ATOM     32  C   UNL     1      -8.043   2.304  -0.433  0.00  0.00    +0.021 C 
ENDBRANCH  22  28
ENDBRANCH   5  21
TORSDOF 6
