REMARK  Name = 8917
REMARK  9 active torsions:
REMARK  status: ('A' for Active; 'I' for Inactive)
REMARK    1  A    between atoms: C_1  and  C_2
REMARK    2  A    between atoms: C_1  and  C_7
REMARK    3  A    between atoms: C_2  and  C_3
REMARK    4  A    between atoms: C_3  and  C_4
REMARK    5  A    between atoms: C_4  and  C_5
REMARK    6  A    between atoms: C_7  and  C_8
REMARK    7  A    between atoms: C_8  and  C_9
REMARK    8  A    between atoms: C_9  and  C_10
REMARK    9  A    between atoms: C_10  and  S_11
REMARK                            x       y       z     vdW  Elec       q    Type
REMARK                         _______ _______ _______ _____ _____    ______ ____
ROOT
ATOM      1  C   UNL     1      -0.030   0.515   0.052  0.00  0.00    +0.000 C 
ENDROOT
BRANCH   1   2
ATOM      2  C   UNL     1      -1.286  -0.359   0.068  0.00  0.00    +0.000 C 
BRANCH   2   3
ATOM      3  C   UNL     1      -2.558   0.492   0.024  0.00  0.00    +0.000 C 
BRANCH   3   4
ATOM      4  C   UNL     1      -3.811  -0.386   0.007  0.00  0.00    +0.000 C 
BRANCH   4   5
ATOM      5  C   UNL     1      -5.114   0.417  -0.006  0.00  0.00    +0.000 C 
ATOM      6  C   UNL     1      -6.360  -0.450  -0.094  0.00  0.00    +0.000 C 
ENDBRANCH   4   5
ENDBRANCH   3   4
ENDBRANCH   2   3
ENDBRANCH   1   2
BRANCH   1   7
ATOM      7  C   UNL     1       1.239  -0.340   0.058  0.00  0.00    +0.000 C 
BRANCH   7   8
ATOM      8  C   UNL     1       2.528   0.483  -0.030  0.00  0.00    +0.001 C 
BRANCH   8   9
ATOM      9  C   UNL     1       3.799  -0.371   0.001  0.00  0.00    +0.011 C 
BRANCH   9  10
ATOM     10  C   UNL     1       5.046   0.509  -0.056  0.00  0.00    +0.053 C 
BRANCH  10  11
ATOM     11  S   UNL     1       6.547  -0.511  -0.024  0.00  0.00    -0.168 S 
ATOM     12  H   UNL     1       7.643   0.294  -0.076  0.00  0.00    +0.102 HD
ENDBRANCH  10  11
ENDBRANCH   9  10
ENDBRANCH   8   9
ENDBRANCH   7   8
ENDBRANCH   1   7
TORSDOF 9
