REMARK  Name = 24778299
REMARK  3 active torsions:
REMARK  status: ('A' for Active; 'I' for Inactive)
REMARK    1  A    between atoms: C_5  and  O_17
REMARK    2  A    between atoms: O_17  and  C_18
REMARK    3  A    between atoms: C_18  and  C_21
REMARK                            x       y       z     vdW  Elec       q    Type
REMARK                         _______ _______ _______ _____ _____    ______ ____
ROOT
ATOM      1  N   UNL     1       3.842  -0.797   0.363  0.00  0.00    -0.332 NA
ATOM      2  N   UNL     1       2.050  -2.223  -0.387  0.00  0.00    -0.317 NA
ATOM      3  N   UNL     1      -0.021  -1.348  -1.006  0.00  0.00    -0.335 N 
ATOM      4  N   UNL     1       4.124  -3.122   0.230  0.00  0.00    -0.283 N 
ATOM      5  C   UNL     1       0.927   1.307  -0.423  0.00  0.00    +0.131 C 
ATOM      6  C   UNL     1       1.737   0.170  -0.259  0.00  0.00    +0.177 C 
ATOM      7  C   UNL     1       3.059   0.284   0.202  0.00  0.00    +0.137 C 
ATOM      8  C   UNL     1       1.433   2.570  -0.128  0.00  0.00    +0.033 C 
ATOM      9  C   UNL     1       1.293  -1.120  -0.536  0.00  0.00    +0.181 C 
ATOM     10  C   UNL     1       3.539   1.560   0.490  0.00  0.00    +0.030 C 
ATOM     11  C   UNL     1       2.740   2.695   0.330  0.00  0.00    +0.005 C 
ATOM     12  C   UNL     1       3.295  -1.992   0.060  0.00  0.00    +0.197 C 
ATOM     13  H   UNL     1      -0.323  -2.265  -1.198  0.00  0.00    +0.144 HD
ATOM     14  H   UNL     1      -0.635  -0.590  -1.140  0.00  0.00    +0.144 HD
ATOM     15  H   UNL     1       5.046  -3.012   0.555  0.00  0.00    +0.156 HD
ATOM     16  H   UNL     1       3.779  -4.021   0.024  0.00  0.00    +0.156 HD
ENDROOT
BRANCH   5  17
ATOM     17  O   UNL     1      -0.362   1.257  -0.865  0.00  0.00    -0.478 OA
BRANCH  17  18
ATOM     18  C   UNL     1      -1.366   1.764   0.011  0.00  0.00    +0.188 C 
ATOM     19  C   UNL     1      -2.071   2.944  -0.649  0.00  0.00    +0.052 C 
BRANCH  18  21
ATOM     20 CL   UNL     1      -4.932  -1.711  -1.544  0.00  0.00    -0.082 Cl
ATOM     21  C   UNL     1      -2.327   0.653   0.361  0.00  0.00    +0.018 C 
ATOM     22  C   UNL     1      -3.096   0.054  -0.637  0.00  0.00    +0.011 C 
ATOM     23  C   UNL     1      -2.446   0.226   1.683  0.00  0.00    -0.001 C 
ATOM     24  C   UNL     1      -3.983  -0.972  -0.313  0.00  0.00    +0.057 C 
ATOM     25  C   UNL     1      -3.333  -0.800   2.007  0.00  0.00    +0.001 C 
ATOM     26  C   UNL     1      -4.102  -1.399   1.009  0.00  0.00    +0.011 C 
ENDBRANCH  18  21
ENDBRANCH  17  18
ENDBRANCH   5  17
TORSDOF 3
