REMARK  Name = 11651760
REMARK  3 active torsions:
REMARK  status: ('A' for Active; 'I' for Inactive)
REMARK    1  A    between atoms: C_1  and  C_6
REMARK    2  A    between atoms: C_1  and  C_13
REMARK    3  A    between atoms: C_13  and  C_15
REMARK                            x       y       z     vdW  Elec       q    Type
REMARK                         _______ _______ _______ _____ _____    ______ ____
ROOT
ATOM      1  C   UNL     1      -1.339   2.380   0.397  0.00  0.00    +0.047 C 
ENDROOT
BRANCH   1   6
ATOM      2  O   UNL     1      -4.450  -0.844  -1.419  0.00  0.00    -0.209 OA
ATOM      3  N   UNL     1      -1.493   0.030   1.090  0.00  0.00    -0.278 N 
ATOM      4  N   UNL     1      -3.002  -1.567   0.221  0.00  0.00    -0.302 NA
ATOM      5  N   UNL     1      -1.449  -2.124   1.899  0.00  0.00    -0.320 N 
ATOM      6  C   UNL     1      -1.969   1.031   0.279  0.00  0.00    +0.041 C 
ATOM      7  C   UNL     1      -2.966   0.772  -0.580  0.00  0.00    +0.117 C 
ATOM      8  C   UNL     1      -2.029  -1.236   1.031  0.00  0.00    +0.247 C 
ATOM      9  C   UNL     1      -3.537  -0.612  -0.630  0.00  0.00    +0.209 C 
ATOM     10  H   UNL     1      -0.762   0.221   1.720  0.00  0.00    +0.156 HD
ATOM     11  H   UNL     1      -0.719  -1.829   2.491  0.00  0.00    +0.146 HD
ATOM     12  H   UNL     1      -1.763  -3.056   1.932  0.00  0.00    +0.146 HD
ENDBRANCH   1   6
BRANCH   1  13
ATOM     13  C   UNL     1      -0.139   2.571  -0.546  0.00  0.00    +0.032 C 
BRANCH  13  15
ATOM     14  N   UNL     1       2.406  -1.696  -1.163  0.00  0.00    -0.312 N 
ATOM     15  C   UNL     1       0.995   1.635  -0.285  0.00  0.00    -0.021 C 
ATOM     16  C   UNL     1       2.112  -0.444  -0.671  0.00  0.00    +0.048 C 
ATOM     17  C   UNL     1       1.031   0.402  -0.943  0.00  0.00    +0.010 C 
ATOM     18  C   UNL     1       3.133  -0.102   0.218  0.00  0.00    +0.015 C 
ATOM     19  C   UNL     1       1.999   2.003   0.608  0.00  0.00    -0.004 C 
ATOM     20  C   UNL     1       3.074   1.146   0.870  0.00  0.00    +0.001 C 
ATOM     21  C   UNL     1       4.048  -1.191   0.242  0.00  0.00    +0.017 C 
ATOM     22  C   UNL     1       3.575  -2.155  -0.617  0.00  0.00    +0.062 C 
ATOM     23  H   UNL     1       1.856  -2.190  -1.814  0.00  0.00    +0.152 HD
ENDBRANCH  13  15
ENDBRANCH   1  13
TORSDOF 3
