REMARK  Name = 46937073
REMARK  4 active torsions:
REMARK  status: ('A' for Active; 'I' for Inactive)
REMARK    1  A    between atoms: C_1  and  O_10
REMARK    2  A    between atoms: C_5  and  O_8
REMARK    3  A    between atoms: O_10  and  C_11
REMARK    4  A    between atoms: C_11  and  C_13
REMARK                            x       y       z     vdW  Elec       q    Type
REMARK                         _______ _______ _______ _____ _____    ______ ____
ROOT
ATOM      1  C   UNL     1      -1.123  -0.467  -0.356  0.00  0.00    +0.138 C 
ATOM      2  C   UNL     1      -1.692  -1.732  -0.202  0.00  0.00    +0.012 C 
ATOM      3  C   UNL     1      -1.902   0.675  -0.173  0.00  0.00    +0.073 C 
ATOM      4  C   UNL     1      -3.041  -1.853   0.134  0.00  0.00    +0.002 C 
ATOM      5  C   UNL     1      -3.250   0.553   0.163  0.00  0.00    +0.142 C 
ATOM      6  C   UNL     1      -3.820  -0.711   0.317  0.00  0.00    +0.037 C 
ATOM      7  C   UNL     1      -0.874  -2.966  -0.394  0.00  0.00    +0.034 C 
ENDROOT
BRANCH   5   8
ATOM      8  O   UNL     1      -4.011   1.668   0.341  0.00  0.00    -0.471 OA
ATOM      9  C   UNL     1      -3.365   2.929   0.169  0.00  0.00    +0.252 C 
ENDBRANCH   5   8
BRANCH   1  10
ATOM     10  O   UNL     1       0.193  -0.331  -0.683  0.00  0.00    -0.471 OA
BRANCH  10  11
ATOM     11  C   UNL     1       0.862   0.834  -0.205  0.00  0.00    +0.232 C 
BRANCH  11  13
ATOM     12  N   UNL     1       5.031  -0.058   0.320  0.00  0.00    -0.242 NA
ATOM     13  C   UNL     1       2.318   0.522  -0.022  0.00  0.00    +0.024 C 
ATOM     14  C   UNL     1       2.738  -0.242   1.062  0.00  0.00    +0.020 C 
ATOM     15  C   UNL     1       3.254   0.997  -0.935  0.00  0.00    +0.020 C 
ATOM     16  C   UNL     1       4.093  -0.501   1.186  0.00  0.00    +0.099 C 
ATOM     17  C   UNL     1       4.586   0.682  -0.721  0.00  0.00    +0.099 C 
ENDBRANCH  11  13
ENDBRANCH  10  11
ENDBRANCH   1  10
TORSDOF 4
