REMARK  Name = 1069140
REMARK  5 active torsions:
REMARK  status: ('A' for Active; 'I' for Inactive)
REMARK    1  A    between atoms: N_1  and  C_4
REMARK    2  A    between atoms: N_1  and  S_14
REMARK    3  A    between atoms: C_5  and  C_11
REMARK    4  A    between atoms: C_11  and  O_12
REMARK    5  A    between atoms: S_14  and  C_18
REMARK                            x       y       z     vdW  Elec       q    Type
REMARK                         _______ _______ _______ _____ _____    ______ ____
ROOT
ATOM      1  N   UNL     1       0.435  -2.063  -0.525  0.00  0.00    -0.215 N 
ATOM      2  H   UNL     1       0.621  -2.620  -1.315  0.00  0.00    +0.174 HD
ENDROOT
BRANCH   1   4
ATOM      3 BR   UNL     1       4.361   2.262   1.267  0.00  0.00    -0.049 Br
ATOM      4  C   UNL     1       1.351  -1.041  -0.122  0.00  0.00    +0.071 C 
ATOM      5  C   UNL     1       1.564   0.087  -0.915  0.00  0.00    +0.091 C 
ATOM      6  C   UNL     1       2.035  -1.183   1.085  0.00  0.00    +0.017 C 
ATOM      7  C   UNL     1       2.461   1.071  -0.502  0.00  0.00    +0.014 C 
ATOM      8  C   UNL     1       2.932  -0.199   1.499  0.00  0.00    +0.008 C 
ATOM      9  C   UNL     1       3.145   0.929   0.705  0.00  0.00    +0.035 C 
BRANCH   5  11
ATOM     10  O   UNL     1       0.484  -0.648  -2.920  0.00  0.00    -0.245 OA
ATOM     11  C   UNL     1       0.864   0.264  -2.181  0.00  0.00    +0.339 C 
BRANCH  11  12
ATOM     12  O   UNL     1       0.661   1.575  -2.481  0.00  0.00    -0.477 OA
ATOM     13  H   UNL     1       0.963   2.242  -1.896  0.00  0.00    +0.295 HD
ENDBRANCH  11  12
ENDBRANCH   5  11
ENDBRANCH   1   4
BRANCH   1  14
ATOM     14  S   UNL     1      -0.998  -2.302   0.398  0.00  0.00    +0.074 S 
ATOM     15  O   UNL     1      -1.916  -3.127  -0.364  0.00  0.00    -0.150 OA
ATOM     16  O   UNL     1      -0.658  -2.670   1.759  0.00  0.00    -0.150 OA
BRANCH  14  18
ATOM     17 CL   UNL     1      -3.420   3.466   0.524  0.00  0.00    -0.082 Cl
ATOM     18  C   UNL     1      -1.685  -0.671   0.434  0.00  0.00    +0.125 C 
ATOM     19  C   UNL     1      -2.559  -0.286  -0.565  0.00  0.00    +0.021 C 
ATOM     20  C   UNL     1      -1.331   0.186   1.461  0.00  0.00    +0.021 C 
ATOM     21  C   UNL     1      -3.099   1.000  -0.537  0.00  0.00    +0.013 C 
ATOM     22  C   UNL     1      -1.871   1.472   1.489  0.00  0.00    +0.013 C 
ATOM     23  C   UNL     1      -2.755   1.879   0.490  0.00  0.00    +0.058 C 
ENDBRANCH  14  18
ENDBRANCH   1  14
TORSDOF 5
