REMARK  Name = 25113172
REMARK  6 active torsions:
REMARK  status: ('A' for Active; 'I' for Inactive)
REMARK    1  A    between atoms: N_1  and  C_9
REMARK    2  A    between atoms: C_4  and  C_21
REMARK    3  A    between atoms: C_19  and  C_25
REMARK    4  A    between atoms: N_24  and  CA_27
REMARK    5  A    between atoms: CA_27  and  C_29
REMARK    6  A    between atoms: C_29  and  O_30
REMARK                            x       y       z     vdW  Elec       q    Type
REMARK                         _______ _______ _______ _____ _____    ______ ____
ROOT
ATOM      1  N   UNL     1       3.679   1.015   0.114  0.00  0.00    -0.247 N 
ATOM      2  N   UNL     1       1.425   1.663   0.052  0.00  0.00    -0.334 NA
ATOM      3  N   UNL     1       3.183   3.308   0.159  0.00  0.00    -0.170 NA
ATOM      4  C   UNL     1       0.531   2.674   0.048  0.00  0.00    +0.181 C 
ATOM      5  C   UNL     1       2.715   2.046   0.109  0.00  0.00    +0.149 C 
ATOM      6  C   UNL     1       0.880   4.008   0.097  0.00  0.00    +0.058 C 
ATOM      7  C   UNL     1       2.235   4.268   0.152  0.00  0.00    +0.114 C 
ATOM      8  H   UNL     1       4.607   1.341   0.154  0.00  0.00    +0.165 HD
ENDROOT
BRANCH   1   9
ATOM      9  C   UNL     1       3.574  -0.387   0.071  0.00  0.00    +0.057 C 
ATOM     10  C   UNL     1       2.354  -2.410   0.580  0.00  0.00    -0.021 C 
ATOM     11  C   UNL     1       4.480  -2.536  -0.562  0.00  0.00    -0.021 C 
ATOM     12  C   UNL     1       4.584  -1.146  -0.520  0.00  0.00    +0.011 C 
ATOM     13  C   UNL     1       2.459  -1.019   0.621  0.00  0.00    +0.011 C 
ATOM     14  C   UNL     1       3.364  -3.168  -0.012  0.00  0.00    -0.008 C 
ATOM     15  C   UNL     1       1.162  -3.086   1.169  0.00  0.00    +0.031 C 
ATOM     16  C   UNL     1       5.559  -3.347  -1.196  0.00  0.00    +0.031 C 
ENDBRANCH   1   9
BRANCH   4  21
ATOM     17  S   UNL     1      -1.203   0.580  -0.071  0.00  0.00    -0.065 S 
ATOM     18  N   UNL     1      -1.882   3.074  -0.028  0.00  0.00    -0.400 NA
ATOM     19  C   UNL     1      -2.875   0.957  -0.122  0.00  0.00    +0.178 C 
ATOM     20  C   UNL     1      -3.042   2.326  -0.090  0.00  0.00    +0.107 C 
ATOM     21  C   UNL     1      -0.851   2.259  -0.013  0.00  0.00    +0.187 C 
ATOM     22  C   UNL     1      -4.331   3.047  -0.117  0.00  0.00    +0.063 C 
BRANCH  19  25
ATOM     23  O   UNL     1      -5.073   0.149  -0.245  0.00  0.00    -0.274 OA
ATOM     24  N   UNL     1      -3.370  -1.424  -0.207  0.00  0.00    -0.302 N 
ATOM     25  C   ACE A   0      -3.879  -0.135  -0.190  0.00  0.00    +0.239 C 
ATOM     26  H   UNL     1      -2.394  -1.549  -0.157  0.00  0.00    +0.149 HD
BRANCH  24  27
ATOM     27  CA  UNL     1      -4.218  -2.591  -0.295  0.00  0.00    +0.101 C 
ATOM     28  CB  UNL     1      -4.478  -2.933  -1.756  0.00  0.00    +0.024 C 
BRANCH  27  29
ATOM     29  C   UNL     1      -3.590  -3.771   0.444  0.00  0.00    +0.157 C 
BRANCH  29  30
ATOM     30  O   UNL     1      -3.393  -3.422   1.809  0.00  0.00    -0.380 OA
ATOM     31  H   UNL     1      -2.994  -4.171   2.280  0.00  0.00    +0.211 HD
ENDBRANCH  29  30
ENDBRANCH  27  29
ENDBRANCH  24  27
ENDBRANCH  19  25
ENDBRANCH   4  21
TORSDOF 6
