REMARK  Name = 5281855
REMARK  4 active torsions:
REMARK  status: ('A' for Active; 'I' for Inactive)
REMARK    1  A    between atoms: C_11  and  O_19
REMARK    2  A    between atoms: C_12  and  O_21
REMARK    3  A    between atoms: C_17  and  O_23
REMARK    4  A    between atoms: C_18  and  O_25
REMARK                            x       y       z     vdW  Elec       q    Type
REMARK                         _______ _______ _______ _____ _____    ______ ____
ROOT
ATOM      1  O   UNL     1      -0.983   2.320   0.000  0.00  0.00    -0.418 OA
ATOM      2  O   UNL     1       0.983  -2.320   0.000  0.00  0.00    -0.418 OA
ATOM      3  O   UNL     1       0.848   3.699   0.001  0.00  0.00    -0.244 OA
ATOM      4  O   UNL     1      -0.848  -3.699   0.002  0.00  0.00    -0.244 OA
ATOM      5  C   UNL     1      -0.711  -0.091   0.000  0.00  0.00    +0.047 A 
ATOM      6  C   UNL     1       0.711   0.091   0.000  0.00  0.00    +0.047 A 
ATOM      7  C   UNL     1       1.274   1.367   0.000  0.00  0.00    +0.082 A 
ATOM      8  C   UNL     1      -1.274  -1.366   0.000  0.00  0.00    +0.082 A 
ATOM      9  C   UNL     1      -1.543   1.022   0.000  0.00  0.00    +0.185 A 
ATOM     10  C   UNL     1       1.543  -1.022   0.000  0.00  0.00    +0.185 A 
ATOM     11  C   UNL     1      -2.929   0.897   0.000  0.00  0.00    +0.203 C 
ATOM     12  C   UNL     1       2.929  -0.897   0.000  0.00  0.00    +0.203 C 
ATOM     13  C   UNL     1       2.666   1.514   0.000  0.00  0.00    +0.046 C 
ATOM     14  C   UNL     1      -2.666  -1.514  -0.001  0.00  0.00    +0.046 C 
ATOM     15  C   UNL     1       0.395   2.562   0.000  0.00  0.00    +0.346 A 
ATOM     16  C   UNL     1      -0.395  -2.562   0.000  0.00  0.00    +0.346 A 
ATOM     17  C   UNL     1      -3.488  -0.381  -0.001  0.00  0.00    +0.171 C 
ATOM     18  C   UNL     1       3.488   0.381   0.000  0.00  0.00    +0.171 C 
ENDROOT
BRANCH  11  19
ATOM     19  O   UNL     1      -3.725   2.000   0.000  0.00  0.00    -0.501 OA
ATOM     20  H   UNL     1      -3.342   2.855   0.000  0.00  0.00    +0.292 HD
ENDBRANCH  11  19
BRANCH  12  21
ATOM     21  O   UNL     1       3.725  -2.000   0.000  0.00  0.00    -0.501 OA
ATOM     22  H   UNL     1       3.342  -2.855   0.000  0.00  0.00    +0.292 HD
ENDBRANCH  12  21
BRANCH  17  23
ATOM     23  O   UNL     1      -4.841  -0.541   0.000  0.00  0.00    -0.503 OA
ATOM     24  H   UNL     1      -5.402   0.209   0.000  0.00  0.00    +0.292 HD
ENDBRANCH  17  23
BRANCH  18  25
ATOM     25  O   UNL     1       4.841   0.541   0.000  0.00  0.00    -0.503 OA
ATOM     26  H   UNL     1       5.402  -0.209   0.000  0.00  0.00    +0.292 HD
ENDBRANCH  18  25
TORSDOF 4
