REMARK  Name = 869249
REMARK  2 active torsions:
REMARK  status: ('A' for Active; 'I' for Inactive)
REMARK    1  A    between atoms: C_9  and  C_16
REMARK    2  A    between atoms: N_15  and  N_18
REMARK                            x       y       z     vdW  Elec       q    Type
REMARK                         _______ _______ _______ _____ _____    ______ ____
ROOT
ATOM      1  N   UNL     1       0.064  -1.432   0.001  0.00  0.00    -0.254 N 
ATOM      2  N   UNL     1       0.965   0.613   0.003  0.00  0.00    -0.385 NA
ATOM      3  C   UNL     1      -0.164  -0.064   0.002  0.00  0.00    +0.187 C 
ATOM      4  C   UNL     1      -1.545   0.421   0.000  0.00  0.00    +0.044 C 
ATOM      5  C   UNL     1      -2.585  -0.543  -0.001  0.00  0.00    +0.005 C 
ATOM      6  C   UNL     1      -0.961  -2.372   0.000  0.00  0.00    +0.068 C 
ATOM      7  C   UNL     1       1.423  -1.610   0.003  0.00  0.00    +0.162 C 
ATOM      8  C   UNL     1      -2.249  -1.985  -0.002  0.00  0.00    +0.016 C 
ATOM      9  C   UNL     1       1.952  -0.341   0.004  0.00  0.00    +0.185 C 
ATOM     10  C   UNL     1      -1.853   1.783   0.001  0.00  0.00    +0.004 C 
ATOM     11  C   UNL     1      -3.917  -0.120  -0.003  0.00  0.00    +0.000 C 
ATOM     12  C   UNL     1      -3.187   2.191  -0.001  0.00  0.00    +0.000 C 
ATOM     13  C   UNL     1      -4.214   1.244  -0.002  0.00  0.00    +0.000 C 
ENDROOT
BRANCH   9  16
ATOM     14  O   UNL     1       4.230  -0.896  -0.010  0.00  0.00    -0.266 OA
ATOM     15  N   UNL     1       3.687   1.360   0.007  0.00  0.00    -0.248 N 
ATOM     16  C   UNL     1       3.344  -0.005   0.006  0.00  0.00    +0.286 C 
ATOM     17  H   UNL     1       2.976   2.040   0.020  0.00  0.00    +0.169 HD
BRANCH  15  18
ATOM     18  N   UNL     1       5.011   1.756  -0.009  0.00  0.00    -0.254 NA
ATOM     19  H   UNL     1       5.612   0.932  -0.021  0.00  0.00    +0.140 HD
ATOM     20  H   UNL     1       5.210   2.311   0.823  0.00  0.00    +0.140 HD
ENDBRANCH  15  18
ENDBRANCH   9  16
TORSDOF 2
