REMARK  Name = 24798097
REMARK  8 active torsions:
REMARK  status: ('A' for Active; 'I' for Inactive)
REMARK    1  A    between atoms: C_2  and  C_24
REMARK    2  A    between atoms: C_3  and  N_8
REMARK    3  A    between atoms: N_8  and  C_11
REMARK    4  A    between atoms: C_11  and  C_12
REMARK    5  A    between atoms: C_12  and  N_13
REMARK    6  A    between atoms: N_13  and  C_16
REMARK    7  A    between atoms: C_16  and  C_18
REMARK    8  A    between atoms: C_24  and  C_26
REMARK                            x       y       z     vdW  Elec       q    Type
REMARK                         _______ _______ _______ _____ _____    ______ ____
ROOT
ATOM      1  N   UNL     1      -4.131  -3.384   0.558  0.00  0.00    +0.382 N 
ATOM      2  C   UNL     1      -2.716  -1.470   0.615  0.00  0.00    -0.036 C 
ATOM      3  C   UNL     1      -1.840  -2.708   0.411  0.00  0.00    -0.085 C 
ATOM      4  C   UNL     1      -3.941  -2.111   1.264  0.00  0.00    -0.083 C 
ATOM      5  C   UNL     1      -2.835  -3.790  -0.001  0.00  0.00    -0.104 C 
ATOM      6  H   UNL     1      -4.811  -3.266  -0.193  0.00  0.00    -0.085 HD
ATOM      7  H   UNL     1      -4.480  -4.097   1.199  0.00  0.00    -0.085 HD
ENDROOT
BRANCH   3   8
ATOM      8  N   UNL     1      -0.741  -2.551  -0.525  0.00  0.00    +0.382 N 
ATOM      9  H   UNL     1      -1.059  -2.001  -1.322  0.00  0.00    -0.085 HD
ATOM     10  H   UNL     1      -0.438  -3.477  -0.827  0.00  0.00    -0.085 HD
BRANCH   8  11
ATOM     11  C   UNL     1       0.388  -1.875   0.102  0.00  0.00    -0.106 C 
BRANCH  11  12
ATOM     12  C   UNL     1       1.540  -1.746  -0.890  0.00  0.00    -0.105 C 
BRANCH  12  13
ATOM     13  N   UNL     1       2.664  -1.054  -0.268  0.00  0.00    +0.385 N 
ATOM     14  H   UNL     1       2.990  -1.597   0.531  0.00  0.00    -0.084 HD
ATOM     15  H   UNL     1       2.352  -0.130   0.033  0.00  0.00    -0.084 HD
BRANCH  13  16
ATOM     16  C   UNL     1       3.759  -0.890  -1.213  0.00  0.00    -0.054 C 
BRANCH  16  18
ATOM     17 CL   UNL     1       8.455   1.932   1.274  0.00  0.00    -0.082 Cl
ATOM     18  C   UNL     1       4.935  -0.184  -0.591  0.00  0.00    -0.044 C 
ATOM     19  C   UNL     1       5.022   1.208  -0.647  0.00  0.00    -0.005 C 
ATOM     20  C   UNL     1       5.936  -0.920   0.042  0.00  0.00    -0.005 C 
ATOM     21  C   UNL     1       6.110   1.862  -0.070  0.00  0.00    +0.011 C 
ATOM     22  C   UNL     1       7.024  -0.266   0.619  0.00  0.00    +0.011 C 
ATOM     23  C   UNL     1       7.111   1.125   0.563  0.00  0.00    +0.058 C 
ENDBRANCH  16  18
ENDBRANCH  13  16
ENDBRANCH  12  13
ENDBRANCH  11  12
ENDBRANCH   8  11
ENDBRANCH   3   8
BRANCH   2  24
ATOM     24  C   UNL     1      -3.081  -0.732  -0.677  0.00  0.00    +0.051 C 
BRANCH  24  26
ATOM     25  N   UNL     1      -4.942   0.761  -0.213  0.00  0.00    -0.396 NA
ATOM     26  C   UNL     1      -3.607   0.646  -0.393  0.00  0.00    +0.092 C 
ATOM     27  C   UNL     1      -2.721   1.710  -0.329  0.00  0.00    +0.077 C 
ATOM     28  C   UNL     1      -3.240   2.973  -0.063  0.00  0.00    -0.033 C 
ATOM     29  C   UNL     1      -5.409   2.003   0.044  0.00  0.00    +0.176 C 
ATOM     30  C   UNL     1      -4.608   3.131   0.128  0.00  0.00    +0.039 C 
ATOM     31  C   UNL     1      -2.332   4.152   0.018  0.00  0.00    +0.027 C 
ATOM     32  N   UNL     1      -6.801   2.180   0.240  0.00  0.00    -0.333 N 
ATOM     33  H   UNL     1      -7.407   1.406   0.189  0.00  0.00    +0.145 HD
ATOM     34  H   UNL     1      -7.162   3.076   0.428  0.00  0.00    +0.145 HD
ENDBRANCH  24  26
ENDBRANCH   2  24
TORSDOF 8
