REMARK  Name = 446853
REMARK  5 active torsions:
REMARK  status: ('A' for Active; 'I' for Inactive)
REMARK    1  A    between atoms: S_1  and  C_5
REMARK    2  A    between atoms: S_1  and  N_13
REMARK    3  A    between atoms: C_6  and  C_10
REMARK    4  A    between atoms: C_10  and  O_11
REMARK    5  A    between atoms: N_13  and  C_16
REMARK                            x       y       z     vdW  Elec       q    Type
REMARK                         _______ _______ _______ _____ _____    ______ ____
ROOT
ATOM      1  S   UNL     1      -0.747  -1.283   0.987  0.00  0.00    +0.074 S 
ATOM      2  O   UNL     1      -1.879  -2.185   0.898  0.00  0.00    -0.150 OA
ATOM      3  O   UNL     1       0.027  -1.176   2.207  0.00  0.00    -0.150 OA
ENDROOT
BRANCH   1   5
ATOM      4  S   UNL     1      -2.924   2.194  -0.085  0.00  0.00    -0.079 S 
ATOM      5  C   UNL     1      -1.491   0.293   0.780  0.00  0.00    +0.138 C 
ATOM      6  C   UNL     1      -2.417   0.561  -0.174  0.00  0.00    +0.124 C 
ATOM      7  C   UNL     1      -1.165   1.383   1.603  0.00  0.00    +0.028 C 
ATOM      8  C   UNL     1      -1.882   2.502   1.238  0.00  0.00    +0.037 C 
BRANCH   6  10
ATOM      9  O   UNL     1      -2.433  -1.249  -1.739  0.00  0.00    -0.244 OA
ATOM     10  C   UNL     1      -2.988  -0.278  -1.179  0.00  0.00    +0.345 C 
BRANCH  10  11
ATOM     11  O   UNL     1      -4.271   0.070  -1.516  0.00  0.00    -0.477 OA
ATOM     12  H   UNL     1      -4.685   0.797  -1.096  0.00  0.00    +0.295 HD
ENDBRANCH  10  11
ENDBRANCH   6  10
ENDBRANCH   1   5
BRANCH   1  13
ATOM     13  N   UNL     1       0.295  -1.534  -0.371  0.00  0.00    -0.215 N 
ATOM     14  H   UNL     1       0.048  -2.140  -1.106  0.00  0.00    +0.174 HD
BRANCH  13  16
ATOM     15 CL   UNL     1       5.438   1.436  -0.383  0.00  0.00    -0.082 Cl
ATOM     16  C   UNL     1       1.532  -0.820  -0.374  0.00  0.00    +0.065 C 
ATOM     17  C   UNL     1       2.667  -1.389   0.202  0.00  0.00    +0.017 C 
ATOM     18  C   UNL     1       1.604   0.447  -0.954  0.00  0.00    +0.017 C 
ATOM     19  C   UNL     1       3.875  -0.692   0.199  0.00  0.00    +0.013 C 
ATOM     20  C   UNL     1       2.812   1.145  -0.956  0.00  0.00    +0.013 C 
ATOM     21  C   UNL     1       3.947   0.575  -0.380  0.00  0.00    +0.058 C 
ENDBRANCH  13  16
ENDBRANCH   1  13
TORSDOF 5
