REMARK  Name = 11840981
REMARK  4 active torsions:
REMARK  status: ('A' for Active; 'I' for Inactive)
REMARK    1  A    between atoms: C_5  and  C_13
REMARK    2  A    between atoms: C_5  and  C_14
REMARK    3  A    between atoms: C_14  and  C_15
REMARK    4  A    between atoms: C_14  and  O_21
REMARK                            x       y       z     vdW  Elec       q    Type
REMARK                         _______ _______ _______ _____ _____    ______ ____
ROOT
ATOM      1  O   UNL     1       2.616   1.195  -0.848  0.00  0.00    -0.356 OA
ATOM      2  O   UNL     1       2.206  -1.103   2.486  0.00  0.00    -0.275 OA
ATOM      3  N   UNL     1       0.669   0.072   1.175  0.00  0.00    -0.297 N 
ATOM      4  C   UNL     1       1.771   0.021  -0.883  0.00  0.00    +0.125 C 
ATOM      5  C   UNL     1       0.403   0.297  -0.229  0.00  0.00    +0.163 C 
ATOM      6  C   UNL     1       2.437  -0.992   0.058  0.00  0.00    +0.106 C 
ATOM      7  C   UNL     1       3.893  -0.607   0.027  0.00  0.00    +0.044 C 
ATOM      8  C   UNL     1       1.796  -0.707   1.405  0.00  0.00    +0.225 C 
ATOM      9  C   UNL     1       1.724  -0.451  -2.334  0.00  0.00    +0.032 C 
ATOM     10  C   UNL     1       3.836   0.895  -0.158  0.00  0.00    +0.143 C 
ATOM     11  H   UNL     1       0.107   0.436   1.897  0.00  0.00    +0.150 HD
ENDROOT
BRANCH   5  13
ATOM     12  O   UNL     1       0.214   2.596   0.456  0.00  0.00    -0.286 OA
ATOM     13  C   UNL     1      -0.050   1.723  -0.364  0.00  0.00    +0.229 C 
ENDBRANCH   5  13
BRANCH   5  14
ATOM     14  C   UNL     1      -0.729  -0.625  -0.682  0.00  0.00    +0.140 C 
BRANCH  14  15
ATOM     15  C   UNL     1      -1.976  -0.456   0.186  0.00  0.00    +0.051 C 
ATOM     16  C   UNL     1      -2.427   1.016   0.181  0.00  0.00    +0.007 C 
ATOM     17  C   UNL     1      -3.071  -1.393  -0.257  0.00  0.00    -0.029 C 
ATOM     18  C   UNL     1      -3.826   1.170   0.770  0.00  0.00    +0.005 C 
ATOM     19  C   UNL     1      -4.849   0.347  -0.015  0.00  0.00    +0.026 C 
ATOM     20  C   UNL     1      -4.356  -1.025  -0.361  0.00  0.00    -0.031 C 
ENDBRANCH  14  15
BRANCH  14  21
ATOM     21  O   UNL     1      -0.281  -1.973  -0.613  0.00  0.00    -0.382 OA
ATOM     22  H   UNL     1       0.510  -2.080  -1.165  0.00  0.00    +0.210 HD
ENDBRANCH  14  21
ENDBRANCH   5  14
TORSDOF 4
