REMARK  Name = 16739331
REMARK  6 active torsions:
REMARK  status: ('A' for Active; 'I' for Inactive)
REMARK    1  A    between atoms: C_10  and  C_18
REMARK    2  A    between atoms: C_11  and  C_12
REMARK    3  A    between atoms: C_18  and  C_19
REMARK    4  A    between atoms: C_19  and  N_20
REMARK    5  A    between atoms: C_19  and  C_24
REMARK    6  A    between atoms: C_24  and  C_28
REMARK                            x       y       z     vdW  Elec       q    Type
REMARK                         _______ _______ _______ _____ _____    ______ ____
ROOT
ATOM      1  O   UNL     1      -0.746   1.024   1.554  0.00  0.00    -0.273 OA
ATOM      2  O   UNL     1      -3.801  -1.990   1.514  0.00  0.00    -0.268 OA
ATOM      3  N   UNL     1      -2.462   0.970  -0.008  0.00  0.00    -0.205 N 
ATOM      4  N   UNL     1      -3.240   0.157   0.816  0.00  0.00    -0.202 N 
ATOM      5  C   UNL     1      -4.571   1.084  -1.463  0.00  0.00    +0.023 C 
ATOM      6  C   UNL     1      -5.457   1.784  -0.431  0.00  0.00    +0.004 C 
ATOM      7  C   UNL     1      -3.074   1.353  -1.280  0.00  0.00    +0.115 C 
ATOM      8  C   UNL     1      -5.545   1.036   0.900  0.00  0.00    +0.023 C 
ATOM      9  C   UNL     1      -4.205   0.901   1.614  0.00  0.00    +0.115 C 
ATOM     10  C   UNL     1      -1.223   1.374   0.472  0.00  0.00    +0.239 C 
ATOM     11  C   UNL     1      -3.118  -1.227   0.833  0.00  0.00    +0.265 C 
ENDROOT
BRANCH  11  12
ATOM     12  C   UNL     1      -2.092  -1.839  -0.023  0.00  0.00    +0.055 C 
ATOM     13  C   UNL     1      -0.810  -2.045   0.476  0.00  0.00    +0.005 C 
ATOM     14  C   UNL     1      -2.412  -2.208  -1.326  0.00  0.00    +0.005 C 
ATOM     15  C   UNL     1       0.163  -2.625  -0.337  0.00  0.00    +0.000 C 
ATOM     16  C   UNL     1      -1.438  -2.788  -2.138  0.00  0.00    +0.000 C 
ATOM     17  C   UNL     1      -0.151  -2.997  -1.644  0.00  0.00    +0.000 C 
ENDBRANCH  11  12
BRANCH  10  18
ATOM     18  C   UNL     1      -0.452   2.308  -0.427  0.00  0.00    +0.065 C 
BRANCH  18  19
ATOM     19  C   UNL     1       1.058   2.123  -0.271  0.00  0.00    -0.052 C 
BRANCH  19  20
ATOM     20  N   UNL     1       1.707   3.126  -1.125  0.00  0.00    +0.382 N 
ATOM     21  H   UNL     1       1.391   4.058  -0.855  0.00  0.00    -0.089 HD
ATOM     22  H   UNL     1       1.462   2.953  -2.099  0.00  0.00    -0.089 HD
ATOM     23  H   UNL     1       2.719   3.065  -1.012  0.00  0.00    -0.089 HD
ENDBRANCH  19  20
BRANCH  19  24
ATOM     24  C   UNL     1       1.553   0.724  -0.700  0.00  0.00    +0.007 C 
BRANCH  24  28
ATOM     25  F   UNL     1       2.020  -0.570   1.768  0.00  0.00    -0.204 F 
ATOM     26  F   UNL     1       6.382   0.656  -1.295  0.00  0.00    -0.202 F 
ATOM     27  F   UNL     1       6.706  -0.597   1.113  0.00  0.00    -0.202 F 
ATOM     28  C   UNL     1       2.936   0.369  -0.210  0.00  0.00    +0.006 C 
ATOM     29  C   UNL     1       3.084  -0.267   1.013  0.00  0.00    +0.138 C 
ATOM     30  C   UNL     1       4.033   0.685  -0.995  0.00  0.00    +0.030 C 
ATOM     31  C   UNL     1       5.312   0.357  -0.546  0.00  0.00    +0.167 C 
ATOM     32  C   UNL     1       4.364  -0.595   1.462  0.00  0.00    +0.061 C 
ATOM     33  C   UNL     1       5.478  -0.283   0.682  0.00  0.00    +0.170 C 
ENDBRANCH  24  28
ENDBRANCH  19  24
ENDBRANCH  18  19
ENDBRANCH  10  18
TORSDOF 6
