REMARK  Name = 98614
REMARK  0 active torsions:
REMARK  status: ('A' for Active; 'I' for Inactive)
REMARK                            x       y       z     vdW  Elec       q    Type
REMARK                         _______ _______ _______ _____ _____    ______ ____
ROOT
ATOM      1  S   UNL     1      -0.181   2.233  -0.038  0.00  0.00    -0.077 S 
ATOM      2  O   UNL     1       1.354  -2.459   0.060  0.00  0.00    -0.274 OA
ATOM      3  N   UNL     1       2.407   1.537  -0.023  0.00  0.00    -0.245 NA
ATOM      4  N   UNL     1       2.953  -0.786   0.024  0.00  0.00    -0.283 N 
ATOM      5  C   UNL     1      -1.613  -1.517   0.019  0.00  0.00    +0.023 C 
ATOM      6  C   UNL     1      -0.771  -0.276  -0.010  0.00  0.00    -0.028 C 
ATOM      7  C   UNL     1      -3.078  -1.232  -0.347  0.00  0.00    +0.005 C 
ATOM      8  C   UNL     1      -3.606   0.022   0.360  0.00  0.00    +0.006 C 
ATOM      9  C   UNL     1      -2.807   1.272  -0.037  0.00  0.00    +0.032 C 
ATOM     10  C   UNL     1      -1.338   0.986  -0.016  0.00  0.00    +0.001 C 
ATOM     11  C   UNL     1       0.657  -0.195  -0.001  0.00  0.00    +0.141 C 
ATOM     12  C   UNL     1       1.111   1.116  -0.020  0.00  0.00    +0.097 C 
ATOM     13  C   UNL     1       1.645  -1.268   0.030  0.00  0.00    +0.233 C 
ATOM     14  C   UNL     1       3.266   0.566  -0.001  0.00  0.00    +0.219 C 
ATOM     15  H   UNL     1       3.692  -1.437   0.039  0.00  0.00    +0.151 HD
ENDROOT
TORSDOF 0
