REMARK  Name = 25113120
REMARK  3 active torsions:
REMARK  status: ('A' for Active; 'I' for Inactive)
REMARK    1  A    between atoms: C_4  and  O_27
REMARK    2  A    between atoms: C_8  and  C_23
REMARK    3  A    between atoms: C_10  and  C_16
REMARK                            x       y       z     vdW  Elec       q    Type
REMARK                         _______ _______ _______ _____ _____    ______ ____
ROOT
ATOM      1  N   UNL     1       2.485  -0.644  -0.883  0.00  0.00    -0.280 N 
ATOM      2  N   UNL     1       0.607  -1.881  -0.300  0.00  0.00    -0.393 NA
ATOM      3  N   UNL     1      -0.172   0.938   0.354  0.00  0.00    -0.259 NA
ATOM      4  C   UNL     1       3.463  -0.870  -2.663  0.00  0.00    +0.150 C 
ATOM      5  C   UNL     1       2.360   0.046  -2.131  0.00  0.00    +0.124 C 
ATOM      6  C   UNL     1       3.094  -1.786  -1.496  0.00  0.00    +0.124 C 
ATOM      7  C   UNL     1       1.359  -0.828  -0.114  0.00  0.00    +0.187 C 
ATOM      8  C   UNL     1       0.985   0.239   0.924  0.00  0.00    +0.197 C 
ATOM      9  C   UNL     1      -0.568  -2.084   0.447  0.00  0.00    +0.116 C 
ATOM     10  C   UNL     1      -1.304   0.322   0.264  0.00  0.00    +0.079 C 
ATOM     11  C   UNL     1      -1.519  -1.083   0.717  0.00  0.00    +0.043 C 
ATOM     12  C   UNL     1      -0.823  -3.386   0.902  0.00  0.00    +0.085 C 
ATOM     13  C   UNL     1      -2.670  -1.379   1.463  0.00  0.00    +0.003 C 
ATOM     14  C   UNL     1      -1.975  -3.681   1.631  0.00  0.00    -0.019 C 
ATOM     15  C   UNL     1      -2.896  -2.678   1.915  0.00  0.00    -0.004 C 
ENDROOT
BRANCH  10  16
ATOM     16  C   UNL     1      -2.444   1.071  -0.337  0.00  0.00    +0.017 C 
ATOM     17  C   UNL     1      -3.438   0.385  -1.035  0.00  0.00    +0.001 C 
ATOM     18  C   UNL     1      -2.519   2.457  -0.199  0.00  0.00    +0.001 C 
ATOM     19  C   UNL     1      -4.506   1.085  -1.597  0.00  0.00    +0.000 C 
ATOM     20  C   UNL     1      -3.587   3.157  -0.761  0.00  0.00    +0.000 C 
ATOM     21  C   UNL     1      -4.580   2.471  -1.459  0.00  0.00    +0.000 C 
ENDBRANCH  10  16
BRANCH   8  23
ATOM     22  S   UNL     1       3.121   0.804   2.631  0.00  0.00    -0.088 S 
ATOM     23  C   UNL     1       2.118   1.180   1.295  0.00  0.00    +0.037 C 
ATOM     24  C   UNL     1       2.485   2.361   0.688  0.00  0.00    +0.005 C 
ATOM     25  C   UNL     1       3.606   2.965   1.328  0.00  0.00    +0.007 C 
ATOM     26  C   UNL     1       4.052   2.223   2.400  0.00  0.00    +0.035 C 
ENDBRANCH   8  23
BRANCH   4  27
ATOM     27  O   UNL     1       3.264  -1.406  -3.984  0.00  0.00    -0.381 OA
ATOM     28  H   UNL     1       3.528  -0.747  -4.644  0.00  0.00    +0.210 HD
ENDBRANCH   4  27
TORSDOF 3
