REMARK  Name = 115348
REMARK  4 active torsions:
REMARK  status: ('A' for Active; 'I' for Inactive)
REMARK    1  A    between atoms: C_3  and  C_14
REMARK    2  A    between atoms: C_9  and  O_12
REMARK    3  A    between atoms: C_14  and  C_15
REMARK    4  A    between atoms: C_15  and  N_17
REMARK                            x       y       z     vdW  Elec       q    Type
REMARK                         _______ _______ _______ _____ _____    ______ ____
ROOT
ATOM      1  I   UNL     1       4.066  -2.211  -0.101  0.00  0.00    -0.024 I 
ATOM      2  N   UNL     1       2.881   0.555   0.407  0.00  0.00    -0.349 N 
ATOM      3  C   UNL     1       1.338  -0.777  -0.470  0.00  0.00    +0.002 A 
ATOM      4  C   UNL     1       0.750   0.499  -0.248  0.00  0.00    +0.016 A 
ATOM      5  C   UNL     1       1.739   1.317   0.302  0.00  0.00    +0.057 A 
ATOM      6  C   UNL     1       2.648  -0.712  -0.057  0.00  0.00    +0.083 A 
ATOM      7  C   UNL     1      -0.534   1.040  -0.464  0.00  0.00    +0.038 C 
ATOM      8  C   UNL     1       1.509   2.653   0.649  0.00  0.00    +0.020 C 
ATOM      9  C   UNL     1      -0.779   2.375  -0.122  0.00  0.00    +0.139 C 
ATOM     10  C   UNL     1       0.228   3.167   0.426  0.00  0.00    +0.038 C 
ATOM     11  H   UNL     1       3.741   0.875   0.765  0.00  0.00    +0.166 HD
ENDROOT
BRANCH   9  12
ATOM     12  O   UNL     1      -2.018   2.905  -0.329  0.00  0.00    -0.471 OA
ATOM     13  C   UNL     1      -3.004   2.043  -0.892  0.00  0.00    +0.252 C 
ENDBRANCH   9  12
BRANCH   3  14
ATOM     14  C   UNL     1       0.645  -1.952  -1.044  0.00  0.00    +0.050 C 
BRANCH  14  15
ATOM     15  C   UNL     1      -0.035  -2.850   0.000  0.00  0.00    +0.094 C 
BRANCH  15  17
ATOM     16  O   UNL     1      -2.860  -2.565  -0.606  0.00  0.00    -0.275 OA
ATOM     17  N   UNL     1      -1.026  -2.143   0.766  0.00  0.00    -0.304 N 
ATOM     18  C   UNL     1      -2.361  -2.060   0.396  0.00  0.00    +0.223 C 
ATOM     19  C   UNL     1      -3.186  -1.284   1.388  0.00  0.00    +0.095 C 
ATOM     20  H   UNL     1      -0.743  -1.695   1.596  0.00  0.00    +0.149 HD
ENDBRANCH  15  17
ENDBRANCH  14  15
ENDBRANCH   3  14
TORSDOF 4
