REMARK  Name = 5413
REMARK  4 active torsions:
REMARK  status: ('A' for Active; 'I' for Inactive)
REMARK    1  A    between atoms: N_1  and  C_2
REMARK    2  A    between atoms: N_1  and  C_4
REMARK    3  A    between atoms: N_1  and  C_6
REMARK    4  A    between atoms: N_1  and  C_8
REMARK                            x       y       z     vdW  Elec       q    Type
REMARK                         _______ _______ _______ _____ _____    ______ ____
ROOT
ATOM      1  N   UNL     1       0.000   0.000   0.000  0.00  0.00    +0.390 N 
ENDROOT
BRANCH   1   2
ATOM      2  C   UNL     1      -0.879  -0.196   1.227  0.00  0.00    -0.073 C 
ATOM      3  C   UNL     1      -1.750  -1.417   1.026  0.00  0.00    -0.024 C 
ENDBRANCH   1   2
BRANCH   1   4
ATOM      4  C   UNL     1      -0.878   0.196  -1.227  0.00  0.00    -0.073 C 
ATOM      5  C   UNL     1      -1.749   1.417  -1.027  0.00  0.00    -0.024 C 
ENDBRANCH   1   4
BRANCH   1   6
ATOM      6  C   UNL     1       0.878  -1.227  -0.196  0.00  0.00    -0.073 C 
ATOM      7  C   UNL     1       1.750  -1.027  -1.417  0.00  0.00    -0.024 C 
ENDBRANCH   1   6
BRANCH   1   8
ATOM      8  C   UNL     1       0.879   1.227   0.196  0.00  0.00    -0.073 C 
ATOM      9  C   UNL     1       1.750   1.027   1.417  0.00  0.00    -0.024 C 
ENDBRANCH   1   8
TORSDOF 4
