REMARK  Name = 5278690
REMARK  6 active torsions:
REMARK  status: ('A' for Active; 'I' for Inactive)
REMARK    1  A    between atoms: C_1  and  O_2
REMARK    2  A    between atoms: C_1  and  C_14
REMARK    3  A    between atoms: O_2  and  C_4
REMARK    4  A    between atoms: C_4  and  N_5
REMARK    5  A    between atoms: N_5  and  C_8
REMARK    6  A    between atoms: C_14  and  N_17
REMARK                            x       y       z     vdW  Elec       q    Type
REMARK                         _______ _______ _______ _____ _____    ______ ____
ROOT
ATOM      1  C   UNL     1      -0.300   3.044  -0.779  0.00  0.00    +0.229 C 
ENDROOT
BRANCH   1   2
ATOM      2  O   UNL     1       0.769   2.226  -0.321  0.00  0.00    -0.456 OA
BRANCH   2   4
ATOM      3  S   UNL     1       1.845   4.219   1.096  0.00  0.00    +0.006 S 
ATOM      4  C   UNL     1       1.772   2.651   0.512  0.00  0.00    +0.233 C 
BRANCH   4   5
ATOM      5  N   UNL     1       2.740   1.733   0.867  0.00  0.00    -0.278 N 
ATOM      6  H   UNL     1       3.436   2.088   1.466  0.00  0.00    +0.156 HD
BRANCH   5   8
ATOM      7  I   UNL     1       3.477  -4.293  -0.668  0.00  0.00    -0.043 I 
ATOM      8  C   UNL     1       2.907   0.369   0.520  0.00  0.00    +0.051 C 
ATOM      9  C   UNL     1       3.525  -0.485   1.416  0.00  0.00    +0.015 C 
ATOM     10  C   UNL     1       2.448  -0.076  -0.708  0.00  0.00    +0.015 C 
ATOM     11  C   UNL     1       3.689  -1.827   1.074  0.00  0.00    +0.007 C 
ATOM     12  C   UNL     1       2.612  -1.419  -1.050  0.00  0.00    +0.007 C 
ATOM     13  C   UNL     1       3.233  -2.294  -0.159  0.00  0.00    +0.030 C 
ENDBRANCH   5   8
ENDBRANCH   4   5
ENDBRANCH   2   4
ENDBRANCH   1   2
BRANCH   1  14
ATOM     14  C   UNL     1      -1.212   2.227  -1.675  0.00  0.00    +0.149 C 
BRANCH  14  17
ATOM     15  O   UNL     1      -2.953   2.127   0.742  0.00  0.00    -0.269 OA
ATOM     16  O   UNL     1      -0.843  -0.670  -2.288  0.00  0.00    -0.269 OA
ATOM     17  N   UNL     1      -1.744   1.071  -0.982  0.00  0.00    -0.219 N 
ATOM     18  C   UNL     1      -2.862  -0.229   0.499  0.00  0.00    +0.058 C 
ATOM     19  C   UNL     1      -2.230  -1.065  -0.409  0.00  0.00    +0.058 C 
ATOM     20  C   UNL     1      -2.549   1.153   0.136  0.00  0.00    +0.255 C 
ATOM     21  C   UNL     1      -1.503  -0.231  -1.366  0.00  0.00    +0.255 C 
ATOM     22  C   UNL     1      -3.631  -0.721   1.533  0.00  0.00    +0.005 C 
ATOM     23  C   UNL     1      -2.333  -2.439  -0.331  0.00  0.00    +0.005 C 
ATOM     24  C   UNL     1      -3.751  -2.111   1.631  0.00  0.00    +0.000 C 
ATOM     25  C   UNL     1      -3.108  -2.961   0.709  0.00  0.00    +0.000 C 
ENDBRANCH  14  17
ENDBRANCH   1  14
TORSDOF 6
