REMARK  Name = 5280911
REMARK  5 active torsions:
REMARK  status: ('A' for Active; 'I' for Inactive)
REMARK    1  A    between atoms: C_1  and  C_9
REMARK    2  A    between atoms: C_2  and  O_7
REMARK    3  A    between atoms: C_10  and  C_12
REMARK    4  A    between atoms: C_12  and  C_14
REMARK    5  A    between atoms: C_14  and  O_15
REMARK                            x       y       z     vdW  Elec       q    Type
REMARK                         _______ _______ _______ _____ _____    ______ ____
ROOT
ATOM      1  C   UNL     1      -1.363  -0.056   0.152  0.00  0.00    +0.034 C 
ATOM      2  C   UNL     1      -2.397  -0.932  -0.177  0.00  0.00    +0.134 C 
ATOM      3  C   UNL     1      -1.637   1.295   0.370  0.00  0.00    +0.003 C 
ATOM      4  C   UNL     1      -3.704  -0.459  -0.289  0.00  0.00    +0.037 C 
ATOM      5  C   UNL     1      -2.944   1.768   0.258  0.00  0.00    +0.000 C 
ATOM      6  C   UNL     1      -3.978   0.892  -0.072  0.00  0.00    +0.003 C 
ENDROOT
BRANCH   2   7
ATOM      7  O   UNL     1      -2.157  -2.257  -0.396  0.00  0.00    -0.506 OA
ATOM      8  H   UNL     1      -1.285  -2.593  -0.325  0.00  0.00    +0.292 HD
ENDBRANCH   2   7
BRANCH   1   9
ATOM      9  C   UNL     1       0.010  -0.526   0.275  0.00  0.00    +0.007 C 
ATOM     10  C   UNL     1       1.110   0.206  -0.002  0.00  0.00    +0.049 C 
BRANCH  10  12
ATOM     11  O   UNL     1       2.676  -1.531   0.526  0.00  0.00    -0.280 OA
ATOM     12  C   UNL     1       2.461  -0.388   0.152  0.00  0.00    +0.270 C 
BRANCH  12  14
ATOM     13  O   UNL     1       3.510   1.651  -0.575  0.00  0.00    -0.241 OA
ATOM     14  C   UNL     1       3.632   0.503  -0.198  0.00  0.00    +0.378 C 
BRANCH  14  15
ATOM     15  O   UNL     1       4.782  -0.167  -0.023  0.00  0.00    -0.475 OA
ATOM     16  H   UNL     1       4.766  -1.055   0.273  0.00  0.00    +0.296 HD
ENDBRANCH  14  15
ENDBRANCH  12  14
ENDBRANCH  10  12
ENDBRANCH   1   9
TORSDOF 5
