REMARK  Name = 24941243
REMARK  5 active torsions:
REMARK  status: ('A' for Active; 'I' for Inactive)
REMARK    1  A    between atoms: N_1  and  C_14
REMARK    2  A    between atoms: N_2  and  C_22
REMARK    3  A    between atoms: C_25  and  O_28
REMARK    4  A    between atoms: C_26  and  O_30
REMARK    5  A    between atoms: C_27  and  O_32
REMARK                            x       y       z     vdW  Elec       q    Type
REMARK                         _______ _______ _______ _____ _____    ______ ____
ROOT
ATOM      1  N   UNL     1       2.643  -1.462  -0.261  0.00  0.00    -0.260 N 
ATOM      2  N   UNL     1      -2.032  -1.020   0.297  0.00  0.00    -0.247 N 
ATOM      3  N   UNL     1       0.287  -1.258   0.032  0.00  0.00    -0.322 NA
ATOM      4  N   UNL     1      -0.876   0.639  -0.895  0.00  0.00    -0.170 NA
ATOM      5  C   UNL     1       1.433  -0.753  -0.471  0.00  0.00    +0.201 C 
ATOM      6  C   UNL     1       2.551  -2.872   0.133  0.00  0.00    +0.120 C 
ATOM      7  C   UNL     1       1.504   0.425  -1.186  0.00  0.00    +0.070 C 
ATOM      8  C   UNL     1      -0.813  -0.522  -0.214  0.00  0.00    +0.150 C 
ATOM      9  C   UNL     1       0.306   1.085  -1.369  0.00  0.00    +0.116 C 
ATOM     10  H   UNL     1      -1.938  -1.869   0.787  0.00  0.00    +0.165 HD
ENDROOT
BRANCH   1  14
ATOM     11  N   UNL     1       7.340   1.532   1.269  0.00  0.00    -0.280 N 
ATOM     12  N   UNL     1       6.075   1.428   1.720  0.00  0.00    -0.173 NA
ATOM     13  C   UNL     1       6.455   0.102  -0.084  0.00  0.00    +0.032 A 
ATOM     14  C   UNL     1       3.940  -0.893  -0.154  0.00  0.00    +0.055 C 
ATOM     15  C   UNL     1       5.491   0.540   0.897  0.00  0.00    +0.103 A 
ATOM     16  C   UNL     1       7.624   0.756   0.183  0.00  0.00    +0.053 A 
ATOM     17  C   UNL     1       4.177   0.037   0.882  0.00  0.00    +0.036 C 
ATOM     18  C   UNL     1       6.254  -0.810  -1.113  0.00  0.00    +0.004 C 
ATOM     19  C   UNL     1       4.932  -1.296  -1.103  0.00  0.00    +0.015 C 
ATOM     20  C   UNL     1       8.957   0.747  -0.442  0.00  0.00    +0.051 C 
ATOM     21  H   UNL     1       8.007   2.122   1.689  0.00  0.00    +0.189 HD
ENDBRANCH   1  14
BRANCH   2  22
ATOM     22  C   UNL     1      -3.354  -0.541   0.243  0.00  0.00    +0.064 C 
ATOM     23  C   UNL     1      -4.421  -1.438   0.253  0.00  0.00    +0.055 C 
ATOM     24  C   UNL     1      -3.597   0.832   0.182  0.00  0.00    +0.055 C 
ATOM     25  C   UNL     1      -4.907   1.306   0.132  0.00  0.00    +0.177 C 
ATOM     26  C   UNL     1      -5.732  -0.963   0.202  0.00  0.00    +0.177 C 
ATOM     27  C   UNL     1      -5.975   0.409   0.142  0.00  0.00    +0.206 C 
BRANCH  25  28
ATOM     28  O   UNL     1      -5.131   2.649   0.073  0.00  0.00    -0.468 OA
ATOM     29  C   UNL     1      -3.985   3.497   0.067  0.00  0.00    +0.253 C 
ENDBRANCH  25  28
BRANCH  26  30
ATOM     30  O   UNL     1      -6.766  -1.851   0.212  0.00  0.00    -0.468 OA
ATOM     31  C   UNL     1      -7.289  -2.222   1.485  0.00  0.00    +0.253 C 
ENDBRANCH  26  30
BRANCH  27  32
ATOM     32  O   UNL     1      -7.256   0.873   0.091  0.00  0.00    -0.465 OA
ATOM     33  C   UNL     1      -7.832   1.043  -1.202  0.00  0.00    +0.253 C 
ENDBRANCH  27  32
ENDBRANCH   2  22
TORSDOF 5
