REMARK  Name = 11963552
REMARK  2 active torsions:
REMARK  status: ('A' for Active; 'I' for Inactive)
REMARK    1  A    between atoms: C_15  and  O_21
REMARK    2  A    between atoms: C_19  and  O_23
REMARK                            x       y       z     vdW  Elec       q    Type
REMARK                         _______ _______ _______ _____ _____    ______ ____
ROOT
ATOM      1 CL   UNL     1      -2.898   2.894  -0.121  0.00  0.00    -0.079 Cl
ATOM      2  O   UNL     1       0.563  -2.138   0.180  0.00  0.00    -0.445 OA
ATOM      3  O   UNL     1       0.784   1.478   1.120  0.00  0.00    -0.296 OA
ATOM      4  O   UNL     1       0.584  -1.237  -1.953  0.00  0.00    -0.245 OA
ATOM      5  C   UNL     1       3.288   2.563   0.297  0.00  0.00    +0.012 C 
ATOM      6  C   UNL     1       2.085   2.493  -0.645  0.00  0.00    +0.065 C 
ATOM      7  C   UNL     1      -0.287   1.584  -1.037  0.00  0.00    +0.092 C 
ATOM      8  C   UNL     1      -1.348   0.645  -0.517  0.00  0.00    +0.008 C 
ATOM      9  C   UNL     1       4.199   1.331   0.240  0.00  0.00    +0.026 C 
ATOM     10  C   UNL     1       0.863   1.794  -0.066  0.00  0.00    +0.155 C 
ATOM     11  C   UNL     1      -1.158  -0.745  -0.405  0.00  0.00    +0.107 C 
ATOM     12  C   UNL     1       3.593   0.091   0.828  0.00  0.00    -0.031 C 
ATOM     13  C   UNL     1      -2.570   1.185  -0.083  0.00  0.00    +0.088 C 
ATOM     14  C   UNL     1       2.912  -2.323   0.770  0.00  0.00    +0.073 C 
ATOM     15  C   UNL     1      -2.171  -1.566   0.111  0.00  0.00    +0.143 C 
ATOM     16  C   UNL     1       3.465  -1.066   0.161  0.00  0.00    -0.027 C 
ATOM     17  C   UNL     1       1.760  -2.906  -0.043  0.00  0.00    +0.213 C 
ATOM     18  C   UNL     1       0.094  -1.388  -0.848  0.00  0.00    +0.344 C 
ATOM     19  C   UNL     1      -3.576   0.366   0.435  0.00  0.00    +0.147 C 
ATOM     20  C   UNL     1      -3.376  -1.008   0.531  0.00  0.00    +0.074 C 
ENDROOT
BRANCH  15  21
ATOM     21  O   UNL     1      -2.037  -2.922   0.185  0.00  0.00    -0.505 OA
ATOM     22  H   UNL     1      -1.239  -3.329  -0.089  0.00  0.00    +0.292 HD
ENDBRANCH  15  21
BRANCH  19  23
ATOM     23  O   UNL     1      -4.768   0.875   0.862  0.00  0.00    -0.505 OA
ATOM     24  H   UNL     1      -4.930   1.796   0.809  0.00  0.00    +0.292 HD
ENDBRANCH  19  23
TORSDOF 2
