REMARK  Name = 4747357
REMARK  3 active torsions:
REMARK  status: ('A' for Active; 'I' for Inactive)
REMARK    1  A    between atoms: N_3  and  C_9
REMARK    2  A    between atoms: N_4  and  C_23
REMARK    3  A    between atoms: C_23  and  C_24
REMARK                            x       y       z     vdW  Elec       q    Type
REMARK                         _______ _______ _______ _____ _____    ______ ____
ROOT
ATOM      1  O   UNL     1      -2.003  -1.923  -1.393  0.00  0.00    -0.265 OA
ATOM      2  O   UNL     1      -5.151   0.938   0.590  0.00  0.00    -0.246 OA
ATOM      3  N   UNL     1       0.062   0.086  -0.665  0.00  0.00    -0.270 N 
ATOM      4  N   UNL     1      -0.492   1.981   0.399  0.00  0.00    -0.291 N 
ATOM      5  N   UNL     1      -2.910   1.554   0.563  0.00  0.00    -0.266 N 
ATOM      6  N   UNL     1      -3.607  -0.533  -0.384  0.00  0.00    -0.246 N 
ATOM      7  C   UNL     1       0.559   1.259  -0.140  0.00  0.00    +0.216 C 
ATOM      8  C   UNL     1      -1.297   0.105  -0.438  0.00  0.00    +0.137 A 
ATOM      9  C   UNL     1      -1.632   1.236   0.198  0.00  0.00    +0.133 A 
ATOM     10  C   UNL     1      -2.303  -0.895  -0.796  0.00  0.00    +0.280 A 
ATOM     11  C   UNL     1      -3.983   0.678   0.284  0.00  0.00    +0.335 A 
ATOM     12  C   UNL     1      -3.170   2.814   1.249  0.00  0.00    +0.136 C 
ATOM     13  C   UNL     1      -4.662  -1.490  -0.701  0.00  0.00    +0.138 C 
ATOM     14  H   UNL     1      -0.435   2.858   0.842  0.00  0.00    +0.151 HD
ENDROOT
BRANCH   7  15
ATOM     15  N   UNL     1       1.887   1.679  -0.135  0.00  0.00    -0.246 NA
ATOM     16  N   UNL     1       4.652   2.597  -0.249  0.00  0.00    +0.386 N 
ATOM     17  C   UNL     1       2.944   0.845  -0.733  0.00  0.00    +0.052 C 
ATOM     18  C   UNL     1       2.274   2.966   0.467  0.00  0.00    +0.052 C 
ATOM     19  C   UNL     1       4.295   1.184  -0.110  0.00  0.00    -0.064 C 
ATOM     20  C   UNL     1       3.516   3.520  -0.225  0.00  0.00    -0.064 C 
ATOM     21  H   UNL     1       5.140   2.716  -1.137  0.00  0.00    -0.084 HD
ATOM     22  H   UNL     1       5.229   2.829   0.560  0.00  0.00    -0.084 HD
ENDBRANCH   7  15
BRANCH   3  23
ATOM     23  C   UNL     1       0.805  -0.976  -1.329  0.00  0.00    +0.120 C 
BRANCH  23  24
ATOM     24  C   UNL     1       1.272  -1.997  -0.329  0.00  0.00    -0.002 C 
ATOM     25  C   UNL     1       0.968  -1.829   1.015  0.00  0.00    -0.003 C 
ATOM     26  C   UNL     1       2.003  -3.096  -0.762  0.00  0.00    -0.003 C 
ATOM     27  C   UNL     1       1.401  -2.776   1.943  0.00  0.00    -0.000 C 
ATOM     28  C   UNL     1       2.436  -4.043   0.166  0.00  0.00    -0.000 C 
ATOM     29  C   UNL     1       2.135  -3.883   1.518  0.00  0.00    -0.000 C 
ENDBRANCH  23  24
ENDBRANCH   3  23
TORSDOF 3
