10172943
  -OEChem-10051721143D

 53 57  0     1  0  0  0  0  0999 V2000
   -2.5412    1.4208    0.9149 O   0  0  0  0  0  0  0  0  0  0  0  0
   -2.6226   -2.7737    1.3715 N   0  0  0  0  0  0  0  0  0  0  0  0
   -6.0816    1.4188   -0.1878 N   0  0  0  0  0  0  0  0  0  0  0  0
    5.5150   -1.4181    0.5119 N   0  0  0  0  0  0  0  0  0  0  0  0
    5.7963   -0.5045   -0.4375 N   0  0  0  0  0  0  0  0  0  0  0  0
   -0.3529    4.1469   -0.1154 N   0  0  0  0  0  0  0  0  0  0  0  0
   -4.4149   -0.3322   -0.6678 C   0  0  0  0  0  0  0  0  0  0  0  0
   -4.8302    0.8179    0.2877 C   0  0  1  0  0  0  0  0  0  0  0  0
   -3.5120   -1.3328   -0.0637 C   0  0  0  0  0  0  0  0  0  0  0  0
   -2.3410   -1.8844   -0.6550 C   0  0  0  0  0  0  0  0  0  0  0  0
   -3.7733    1.9233    0.4147 C   0  0  0  0  0  0  0  0  0  0  0  0
   -1.8023   -2.7854    0.2660 C   0  0  0  0  0  0  0  0  0  0  0  0
   -3.6585   -1.8990    1.1818 C   0  0  0  0  0  0  0  0  0  0  0  0
   -1.6860   -1.7032   -1.8892 C   0  0  0  0  0  0  0  0  0  0  0  0
   -0.6365   -3.5170    0.0133 C   0  0  0  0  0  0  0  0  0  0  0  0
    3.7312   -0.2040    0.4600 C   0  0  0  0  0  0  0  0  0  0  0  0
    2.2079    1.4385   -0.1094 C   0  0  0  0  0  0  0  0  0  0  0  0
   -0.5186   -2.4280   -2.1556 C   0  0  0  0  0  0  0  0  0  0  0  0
   -1.4035    2.0830    0.5335 C   0  0  0  0  0  0  0  0  0  0  0  0
   -0.0037   -3.3205   -1.2175 C   0  0  0  0  0  0  0  0  0  0  0  0
    0.9344    2.1054    0.0266 C   0  0  0  0  0  0  0  0  0  0  0  0
    4.7007    0.2731   -0.4970 C   0  0  0  0  0  0  0  0  0  0  0  0
    2.4700    0.3204    0.7126 C   0  0  0  0  0  0  0  0  0  0  0  0
    4.2846   -1.2848    1.0861 C   0  0  0  0  0  0  0  0  0  0  0  0
   -0.2032    1.4062    0.4144 C   0  0  0  0  0  0  0  0  0  0  0  0
    3.1412    1.9460   -1.0726 C   0  0  0  0  0  0  0  0  0  0  0  0
    4.4179    1.3892   -1.3058 C   0  0  0  0  0  0  0  0  0  0  0  0
   -1.4372    3.4340    0.2637 C   0  0  0  0  0  0  0  0  0  0  0  0
    0.8077    3.4621   -0.2245 C   0  0  0  0  0  0  0  0  0  0  0  0
    3.8123   -2.1981    2.1402 C   0  0  0  0  0  0  0  0  0  0  0  0
   -5.3159   -0.8747   -0.9885 H   0  0  0  0  0  0  0  0  0  0  0  0
   -3.9812    0.0946   -1.5805 H   0  0  0  0  0  0  0  0  0  0  0  0
   -5.0283    0.4148    1.2868 H   0  0  0  0  0  0  0  0  0  0  0  0
   -3.6402    2.3741   -0.5791 H   0  0  0  0  0  0  0  0  0  0  0  0
   -4.1324    2.6986    1.1036 H   0  0  0  0  0  0  0  0  0  0  0  0
   -4.4058   -1.7690    1.9521 H   0  0  0  0  0  0  0  0  0  0  0  0
   -2.4805   -3.3315    2.2022 H   0  0  0  0  0  0  0  0  0  0  0  0
   -2.0713   -1.0116   -2.6327 H   0  0  0  0  0  0  0  0  0  0  0  0
   -5.9401    1.8208   -1.1141 H   0  0  0  0  0  0  0  0  0  0  0  0
   -6.3444    2.1938    0.4199 H   0  0  0  0  0  0  0  0  0  0  0  0
   -0.2341   -4.2112    0.7434 H   0  0  0  0  0  0  0  0  0  0  0  0
   -0.0081   -2.2910   -3.1052 H   0  0  0  0  0  0  0  0  0  0  0  0
    0.9051   -3.8721   -1.4445 H   0  0  0  0  0  0  0  0  0  0  0  0
    1.8009   -0.0738    1.4646 H   0  0  0  0  0  0  0  0  0  0  0  0
   -0.1936    0.3368    0.6045 H   0  0  0  0  0  0  0  0  0  0  0  0
    2.8776    2.7901   -1.7097 H   0  0  0  0  0  0  0  0  0  0  0  0
    5.1013    1.7858   -2.0448 H   0  0  0  0  0  0  0  0  0  0  0  0
    6.2202   -2.1140    0.7191 H   0  0  0  0  0  0  0  0  0  0  0  0
   -2.3330    4.0373    0.3613 H   0  0  0  0  0  0  0  0  0  0  0  0
    1.6451    4.0963   -0.4972 H   0  0  0  0  0  0  0  0  0  0  0  0
    4.5516   -2.9721    2.3713 H   0  0  0  0  0  0  0  0  0  0  0  0
    3.6066   -1.6458    3.0628 H   0  0  0  0  0  0  0  0  0  0  0  0
    2.8901   -2.6996    1.8289 H   0  0  0  0  0  0  0  0  0  0  0  0
  1 11  1  0  0  0  0
  1 19  1  0  0  0  0
  2 12  1  0  0  0  0
  2 13  1  0  0  0  0
  2 37  1  0  0  0  0
  3  8  1  0  0  0  0
  3 39  1  0  0  0  0
  3 40  1  0  0  0  0
  4  5  1  0  0  0  0
  4 24  1  0  0  0  0
  4 48  1  0  0  0  0
  5 22  2  0  0  0  0
  6 28  1  0  0  0  0
  6 29  2  0  0  0  0
  7  8  1  0  0  0  0
  7  9  1  0  0  0  0
  7 31  1  0  0  0  0
  7 32  1  0  0  0  0
  8 11  1  0  0  0  0
  8 33  1  0  0  0  0
  9 10  1  0  0  0  0
  9 13  2  0  0  0  0
 10 12  1  0  0  0  0
 10 14  2  0  0  0  0
 11 34  1  0  0  0  0
 11 35  1  0  0  0  0
 12 15  2  0  0  0  0
 13 36  1  0  0  0  0
 14 18  1  0  0  0  0
 14 38  1  0  0  0  0
 15 20  1  0  0  0  0
 15 41  1  0  0  0  0
 16 22  1  0  0  0  0
 16 23  1  0  0  0  0
 16 24  2  0  0  0  0
 17 21  1  0  0  0  0
 17 23  2  0  0  0  0
 17 26  1  0  0  0  0
 18 20  2  0  0  0  0
 18 42  1  0  0  0  0
 19 25  1  0  0  0  0
 19 28  2  0  0  0  0
 20 43  1  0  0  0  0
 21 25  2  0  0  0  0
 21 29  1  0  0  0  0
 22 27  1  0  0  0  0
 23 44  1  0  0  0  0
 24 30  1  0  0  0  0
 25 45  1  0  0  0  0
 26 27  2  0  0  0  0
 26 46  1  0  0  0  0
 27 47  1  0  0  0  0
 28 49  1  0  0  0  0
 29 50  1  0  0  0  0
 30 51  1  0  0  0  0
 30 52  1  0  0  0  0
 30 53  1  0  0  0  0
M  END
> <DATABASE_ID>
DB08073

> <DATABASE_NAME>
drugbank

> <ORIGINAL_SOURCE>
PUBCHEM

> <ORIGINAL_SOURCE_URL>
https://pubchem.ncbi.nlm.nih.gov/rest/pug/compound/inchikey/YWTBGJGMTBHQTM-IBGZPJMESA-N/SDF?record_type=3d

> <SMILES>
[H][C@@](N)(COC1=CN=CC(=C1)C1=CC=C2NN=C(C)C2=C1)CC1=CNC2=CC=CC=C12

> <INCHI_IDENTIFIER>
InChI=1S/C24H23N5O/c1-15-22-10-16(6-7-24(22)29-28-15)17-9-20(13-26-11-17)30-14-19(25)8-18-12-27-23-5-3-2-4-21(18)23/h2-7,9-13,19,27H,8,14,25H2,1H3,(H,28,29)/t19-/m0/s1

> <INCHI_KEY>
YWTBGJGMTBHQTM-IBGZPJMESA-N

> <FORMULA>
C24H23N5O

> <MOLECULAR_WEIGHT>
397.4723

> <EXACT_MASS>
397.190260383

> <JCHEM_ACCEPTOR_COUNT>
4

> <JCHEM_AVERAGE_POLARIZABILITY>
44.51276478778847

> <JCHEM_BIOAVAILABILITY>
1

> <JCHEM_DONOR_COUNT>
3

> <JCHEM_FORMAL_CHARGE>
0

> <JCHEM_GHOSE_FILTER>
1

> <JCHEM_IUPAC>
(2S)-1-(1H-indol-3-yl)-3-{[5-(3-methyl-1H-indazol-5-yl)pyridin-3-yl]oxy}propan-2-amine

> <ALOGPS_LOGP>
3.72

> <JCHEM_LOGP>
3.074239103333333

> <ALOGPS_LOGS>
-5.36

> <JCHEM_MDDR_LIKE_RULE>
1

> <JCHEM_NUMBER_OF_RINGS>
5

> <JCHEM_PHYSIOLOGICAL_CHARGE>
1

> <JCHEM_PKA>
17.108224690835918

> <JCHEM_PKA_STRONGEST_ACIDIC>
14.17250946954843

> <JCHEM_PKA_STRONGEST_BASIC>
9.235385174582946

> <JCHEM_POLAR_SURFACE_AREA>
92.60999999999999

> <JCHEM_REFRACTIVITY>
118.18120000000002

> <JCHEM_ROTATABLE_BOND_COUNT>
6

> <JCHEM_RULE_OF_FIVE>
1

> <ALOGPS_SOLUBILITY>
1.72e-03 g/l

> <JCHEM_TRADITIONAL_IUPAC>
(2S)-1-(1H-indol-3-yl)-3-{[5-(3-methyl-1H-indazol-5-yl)pyridin-3-yl]oxy}propan-2-amine

> <JCHEM_VEBER_RULE>
0

> <DRUGBANK_ID>
DB08073

> <DRUG_GROUPS>
experimental

> <GENERIC_NAME>
(2S)-1-(1H-INDOL-3-YL)-3-{[5-(3-METHYL-1H-INDAZOL-5-YL)PYRIDIN-3-YL]OXY}PROPAN-2-AMINE

$$$$
