REMARK  Name = 9547943
REMARK  11 active torsions:
REMARK  status: ('A' for Active; 'I' for Inactive)
REMARK    1  A    between atoms: C_1  and  C_4
REMARK    2  A    between atoms: C_1  and  O_9
REMARK    3  A    between atoms: C_1  and  C_18
REMARK    4  A    between atoms: N_3  and  C_6
REMARK    5  A    between atoms: C_6  and  C_8
REMARK    6  A    between atoms: O_9  and  C_17
REMARK    7  A    between atoms: C_18  and  S_19
REMARK    8  A    between atoms: S_19  and  C_22
REMARK    9  A    between atoms: C_22  and  C_23
REMARK   10  A    between atoms: C_24  and  O_29
REMARK   11  A    between atoms: O_29  and  C_32
REMARK                            x       y       z     vdW  Elec       q    Type
REMARK                         _______ _______ _______ _____ _____    ______ ____
ROOT
ATOM      1  C   UNL     1       1.778  -1.578   0.940  0.00  0.00    +0.269 C 
ENDROOT
BRANCH   1   4
ATOM      2  O   UNL     1       1.964  -2.787  -1.143  0.00  0.00    -0.271 OA
ATOM      3  N   UNL     1       1.252  -3.934   0.747  0.00  0.00    -0.289 N 
ATOM      4  C   UNL     1       1.676  -2.813   0.052  0.00  0.00    +0.265 C 
ATOM      5  H   UNL     1       1.047  -3.841   1.706  0.00  0.00    +0.151 HD
BRANCH   3   6
ATOM      6  C   UNL     1       1.096  -5.232   0.133  0.00  0.00    +0.197 C 
BRANCH   6   8
ATOM      7  N   UNL     1      -1.329  -5.537  -0.816  0.00  0.00    -0.194 NA
ATOM      8  C   UNL     1      -0.256  -5.400  -0.395  0.00  0.00    +0.095 C 
ENDBRANCH   6   8
ENDBRANCH   3   6
ENDBRANCH   1   4
BRANCH   1   9
ATOM      9  O   UNL     1       2.309  -0.480   0.188  0.00  0.00    -0.427 OA
BRANCH   9  17
ATOM     10  O   UNL     1       5.134   3.128  -1.531  0.00  0.00    -0.350 OA
ATOM     11  O   UNL     1       3.316   0.301   2.086  0.00  0.00    -0.226 OA
ATOM     12  N   UNL     1       3.555   1.451   0.083  0.00  0.00    -0.241 N 
ATOM     13  C   UNL     1       3.272   1.583  -1.349  0.00  0.00    +0.129 C 
ATOM     14  C   UNL     1       4.284   2.574   0.669  0.00  0.00    +0.129 C 
ATOM     15  C   UNL     1       4.542   1.958  -2.103  0.00  0.00    +0.164 C 
ATOM     16  C   UNL     1       5.511   2.902  -0.170  0.00  0.00    +0.164 C 
ATOM     17  C   UNL     1       3.079   0.412   0.885  0.00  0.00    +0.405 C 
ENDBRANCH   9  17
ENDBRANCH   1   9
BRANCH   1  18
ATOM     18  C   UNL     1       0.444  -1.164   1.550  0.00  0.00    +0.204 C 
BRANCH  18  19
ATOM     19  S   UNL     1      -0.771  -0.728   0.342  0.00  0.00    -0.002 S 
ATOM     20  O   UNL     1      -0.337   0.492  -0.316  0.00  0.00    -0.173 OA
ATOM     21  O   UNL     1      -1.086  -1.916  -0.431  0.00  0.00    -0.173 OA
BRANCH  19  22
ATOM     22  C   UNL     1      -2.198  -0.331   1.325  0.00  0.00    +0.180 C 
BRANCH  22  23
ATOM     23  C   UNL     1      -3.302   0.057   0.390  0.00  0.00    +0.035 C 
ATOM     24  C   UNL     1      -3.471   1.386  -0.001  0.00  0.00    +0.142 C 
ATOM     25  C   UNL     1      -4.165  -0.927  -0.092  0.00  0.00    +0.000 C 
ATOM     26  C   UNL     1      -4.504   1.730  -0.873  0.00  0.00    +0.037 C 
ATOM     27  C   UNL     1      -5.199  -0.582  -0.963  0.00  0.00    -0.000 C 
ATOM     28  C   UNL     1      -5.368   0.746  -1.354  0.00  0.00    +0.003 C 
BRANCH  24  29
ATOM     29  O   UNL     1      -2.637   2.360   0.460  0.00  0.00    -0.424 OA
BRANCH  29  32
ATOM     30  F   UNL     1      -2.512   4.278   1.614  0.00  0.00    -0.155 F 
ATOM     31  F   UNL     1      -2.901   4.382  -0.523  0.00  0.00    -0.155 F 
ATOM     32  C   UNL     1      -3.175   3.669   0.597  0.00  0.00    +0.509 C 
ENDBRANCH  29  32
ENDBRANCH  24  29
ENDBRANCH  22  23
ENDBRANCH  19  22
ENDBRANCH  18  19
ENDBRANCH   1  18
TORSDOF 11
