REMARK  Name = 3086674
REMARK  6 active torsions:
REMARK  status: ('A' for Active; 'I' for Inactive)
REMARK    1  A    between atoms: N_1  and  C_21
REMARK    2  A    between atoms: C_4  and  C_18
REMARK    3  A    between atoms: C_5  and  C_11
REMARK    4  A    between atoms: C_18  and  O_19
REMARK    5  A    between atoms: C_21  and  C_22
REMARK    6  A    between atoms: C_22  and  C_24
REMARK                            x       y       z     vdW  Elec       q    Type
REMARK                         _______ _______ _______ _____ _____    ______ ____
ROOT
ATOM      1  N   UNL     1      -2.099   0.399  -0.357  0.00  0.00    +0.390 N 
ATOM      2  C   UNL     1      -1.619   0.699   1.007  0.00  0.00    -0.047 C 
ATOM      3  C   UNL     1      -1.546   1.511  -1.148  0.00  0.00    -0.058 C 
ATOM      4  C   UNL     1      -0.112   0.334   1.069  0.00  0.00    +0.084 C 
ATOM      5  C   UNL     1       0.722   1.089  -0.002  0.00  0.00    +0.029 C 
ATOM      6  C   UNL     1      -1.837   2.211   1.154  0.00  0.00    -0.022 C 
ATOM      7  C   UNL     1      -0.046   1.195  -1.345  0.00  0.00    -0.016 C 
ATOM      8  C   UNL     1      -1.775   2.751  -0.278  0.00  0.00    -0.023 C 
ATOM      9  H   UNL     1      -1.796  -0.516  -0.692  0.00  0.00    -0.080 HD
ENDROOT
BRANCH   5  11
ATOM     10  I   UNL     1       6.779  -0.904  -0.350  0.00  0.00    -0.043 I 
ATOM     11  C   UNL     1       2.166   0.614  -0.084  0.00  0.00    -0.022 C 
ATOM     12  C   UNL     1       3.095   1.052   0.856  0.00  0.00    -0.004 C 
ATOM     13  C   UNL     1       2.552  -0.257  -1.101  0.00  0.00    -0.004 C 
ATOM     14  C   UNL     1       4.418   0.616   0.780  0.00  0.00    +0.005 C 
ATOM     15  C   UNL     1       3.875  -0.693  -1.177  0.00  0.00    +0.005 C 
ATOM     16  C   UNL     1       4.808  -0.257  -0.236  0.00  0.00    +0.030 C 
ENDBRANCH   5  11
BRANCH   4  18
ATOM     17  O   UNL     1       0.494  -1.875   1.832  0.00  0.00    -0.250 OA
ATOM     18  C   UNL     1       0.030  -1.161   0.954  0.00  0.00    +0.315 C 
BRANCH  18  19
ATOM     19  O   UNL     1      -0.434  -1.571  -0.262  0.00  0.00    -0.444 OA
ATOM     20  C   UNL     1      -0.358  -2.978  -0.507  0.00  0.00    +0.256 C 
ENDBRANCH  18  19
ENDBRANCH   4  18
BRANCH   1  21
ATOM     21  C   UNL     1      -3.554   0.308  -0.442  0.00  0.00    -0.074 C 
BRANCH  21  22
ATOM     22  C   UNL     1      -4.059  -0.883   0.371  0.00  0.00    +0.015 C 
BRANCH  22  24
ATOM     23  F   UNL     1      -5.929  -1.186  -1.017  0.00  0.00    -0.234 F 
ATOM     24  C   UNL     1      -5.571  -1.014   0.282  0.00  0.00    +0.191 C 
ENDBRANCH  22  24
ENDBRANCH  21  22
ENDBRANCH   1  21
TORSDOF 6
