REMARK  Name = 5289474
REMARK  5 active torsions:
REMARK  status: ('A' for Active; 'I' for Inactive)
REMARK    1  A    between atoms: N_2  and  C_12
REMARK    2  A    between atoms: C_12  and  C_13
REMARK    3  A    between atoms: C_13  and  N_14
REMARK    4  A    between atoms: C_13  and  C_18
REMARK    5  A    between atoms: C_18  and  C_19
REMARK                            x       y       z     vdW  Elec       q    Type
REMARK                         _______ _______ _______ _____ _____    ______ ____
ROOT
ATOM      1  N   UNL     1       2.836   0.448   0.388  0.00  0.00    +0.377 N 
ATOM      2  N   UNL     1       0.515   0.025  -0.171  0.00  0.00    +0.376 N 
ATOM      3  C   UNL     1       1.898  -0.447  -0.307  0.00  0.00    -0.123 C 
ATOM      4  C   UNL     1       2.220  -1.758   0.403  0.00  0.00    -0.043 C 
ATOM      5  C   UNL     1       4.121  -0.241   0.374  0.00  0.00    -0.080 C 
ATOM      6  C   UNL     1       3.735  -1.700   0.610  0.00  0.00    -0.027 C 
ATOM      7  C   UNL     1       2.848   1.774  -0.215  0.00  0.00    -0.082 C 
ATOM      8  C   UNL     1       0.399   1.371  -0.766  0.00  0.00    -0.082 C 
ATOM      9  C   UNL     1       1.424   2.337  -0.153  0.00  0.00    -0.046 C 
ATOM     10  H   UNL     1       2.563   0.631   1.354  0.00  0.00    -0.083 HD
ATOM     11  H   UNL     1       0.288   0.062   0.823  0.00  0.00    -0.083 HD
ENDROOT
BRANCH   2  12
ATOM     12  C   UNL     1      -0.439  -0.888  -0.800  0.00  0.00    -0.102 C 
BRANCH  12  13
ATOM     13  C   UNL     1      -1.889  -0.385  -0.668  0.00  0.00    -0.087 C 
BRANCH  13  14
ATOM     14  N   UNL     1      -2.775  -1.306  -1.387  0.00  0.00    +0.380 N 
ATOM     15  H   UNL     1      -2.476  -1.377  -2.359  0.00  0.00    -0.089 HD
ATOM     16  H   UNL     1      -3.732  -0.955  -1.350  0.00  0.00    -0.089 HD
ATOM     17  H   UNL     1      -2.734  -2.227  -0.950  0.00  0.00    -0.089 HD
ENDBRANCH  13  14
BRANCH  13  18
ATOM     18  C   UNL     1      -2.330  -0.268   0.807  0.00  0.00    -0.024 C 
BRANCH  18  19
ATOM     19  C   UNL     1      -3.792   0.178   1.029  0.00  0.00    -0.002 C 
ATOM     20  C   UNL     1      -4.795  -0.750   0.343  0.00  0.00    -0.000 C 
ATOM     21  C   UNL     1      -3.978   1.609   0.514  0.00  0.00    -0.000 C 
ENDBRANCH  18  19
ENDBRANCH  13  18
ENDBRANCH  12  13
ENDBRANCH   2  12
TORSDOF 5
