REMARK  Name = 5278688
REMARK  6 active torsions:
REMARK  status: ('A' for Active; 'I' for Inactive)
REMARK    1  A    between atoms: C_1  and  O_2
REMARK    2  A    between atoms: C_1  and  C_14
REMARK    3  A    between atoms: O_2  and  C_4
REMARK    4  A    between atoms: C_4  and  N_5
REMARK    5  A    between atoms: N_5  and  C_8
REMARK    6  A    between atoms: C_14  and  N_17
REMARK                            x       y       z     vdW  Elec       q    Type
REMARK                         _______ _______ _______ _____ _____    ______ ____
ROOT
ATOM      1  C   UNL     1       0.233   3.042   0.759  0.00  0.00    +0.229 C 
ENDROOT
BRANCH   1   2
ATOM      2  O   UNL     1      -0.819   2.197   0.310  0.00  0.00    -0.456 OA
BRANCH   2   4
ATOM      3  S   UNL     1      -1.942   4.154  -1.120  0.00  0.00    +0.006 S 
ATOM      4  C   UNL     1      -1.833   2.593  -0.524  0.00  0.00    +0.233 C 
BRANCH   4   5
ATOM      5  N   UNL     1      -2.781   1.651  -0.870  0.00  0.00    -0.278 N 
ATOM      6  H   UNL     1      -3.486   1.986  -1.470  0.00  0.00    +0.156 HD
BRANCH   5   8
ATOM      7 CL   UNL     1      -3.348  -4.035   0.623  0.00  0.00    -0.082 Cl
ATOM      8  C   UNL     1      -2.917   0.286  -0.512  0.00  0.00    +0.051 C 
ATOM      9  C   UNL     1      -3.518  -0.589  -1.400  0.00  0.00    +0.016 C 
ATOM     10  C   UNL     1      -2.446  -0.139   0.718  0.00  0.00    +0.016 C 
ATOM     11  C   UNL     1      -3.652  -1.931  -1.047  0.00  0.00    +0.013 C 
ATOM     12  C   UNL     1      -2.580  -1.482   1.071  0.00  0.00    +0.013 C 
ATOM     13  C   UNL     1      -3.183  -2.378   0.188  0.00  0.00    +0.058 C 
ENDBRANCH   5   8
ENDBRANCH   4   5
ENDBRANCH   2   4
ENDBRANCH   1   2
BRANCH   1  14
ATOM     14  C   UNL     1       1.164   2.252   1.659  0.00  0.00    +0.149 C 
BRANCH  14  17
ATOM     15  O   UNL     1       2.902   2.173  -0.762  0.00  0.00    -0.269 OA
ATOM     16  O   UNL     1       0.862  -0.648   2.295  0.00  0.00    -0.269 OA
ATOM     17  N   UNL     1       1.721   1.103   0.973  0.00  0.00    -0.219 N 
ATOM     18  C   UNL     1       2.864  -0.183  -0.500  0.00  0.00    +0.058 C 
ATOM     19  C   UNL     1       2.252  -1.027   0.415  0.00  0.00    +0.058 C 
ATOM     20  C   UNL     1       2.521   1.194  -0.147  0.00  0.00    +0.255 C 
ATOM     21  C   UNL     1       1.510  -0.201   1.367  0.00  0.00    +0.255 C 
ATOM     22  C   UNL     1       3.641  -0.666  -1.532  0.00  0.00    +0.005 C 
ATOM     23  C   UNL     1       2.386  -2.398   0.347  0.00  0.00    +0.005 C 
ATOM     24  C   UNL     1       3.792  -2.053  -1.621  0.00  0.00    +0.000 C 
ATOM     25  C   UNL     1       3.170  -2.911  -0.691  0.00  0.00    +0.000 C 
ENDBRANCH  14  17
ENDBRANCH   1  14
TORSDOF 6
