REMARK  Name = 4369325
REMARK  8 active torsions:
REMARK  status: ('A' for Active; 'I' for Inactive)
REMARK    1  A    between atoms: C_2  and  C_9
REMARK    2  A    between atoms: C_3  and  O_21
REMARK    3  A    between atoms: C_9  and  N_10
REMARK    4  A    between atoms: N_10  and  C_12
REMARK    5  A    between atoms: C_12  and  C_15
REMARK    6  A    between atoms: O_21  and  C_22
REMARK    7  A    between atoms: C_22  and  C_24
REMARK    8  A    between atoms: C_24  and  O_25
REMARK                            x       y       z     vdW  Elec       q    Type
REMARK                         _______ _______ _______ _____ _____    ______ ____
ROOT
ATOM      1  F   UNL     1       3.809   2.356  -1.883  0.00  0.00    -0.204 F 
ATOM      2  C   UNL     1       2.129  -0.631   0.421  0.00  0.00    +0.054 C 
ATOM      3  C   UNL     1       1.508   0.615   0.333  0.00  0.00    +0.143 C 
ATOM      4  C   UNL     1       3.318  -0.868  -0.270  0.00  0.00    +0.007 C 
ATOM      5  C   UNL     1       2.075   1.624  -0.445  0.00  0.00    +0.067 C 
ATOM      6  C   UNL     1       3.885   0.141  -1.048  0.00  0.00    +0.030 C 
ATOM      7  C   UNL     1       3.264   1.387  -1.135  0.00  0.00    +0.143 C 
ENDROOT
BRANCH   2   9
ATOM      8  S   UNL     1       1.945  -1.897   2.857  0.00  0.00    -0.035 S 
ATOM      9  C   UNL     1       1.554  -1.698   1.228  0.00  0.00    +0.084 C 
BRANCH   9  10
ATOM     10  N   UNL     1       0.655  -2.568   0.624  0.00  0.00    -0.324 N 
ATOM     11  H   UNL     1       0.275  -3.282   1.186  0.00  0.00    +0.148 HD
BRANCH  10  12
ATOM     12  C   UNL     1       0.225  -2.519  -0.760  0.00  0.00    +0.117 C 
BRANCH  12  15
ATOM     13 BR   UNL     1      -4.658   1.173  -1.541  0.00  0.00    -0.049 Br
ATOM     14  F   UNL     1      -2.014  -2.561   0.962  0.00  0.00    -0.204 F 
ATOM     15  C   UNL     1      -0.964  -1.621  -0.948  0.00  0.00    +0.025 C 
ATOM     16  C   UNL     1      -2.032  -1.696  -0.061  0.00  0.00    +0.138 C 
ATOM     17  C   UNL     1      -0.984  -0.724  -2.009  0.00  0.00    +0.000 C 
ATOM     18  C   UNL     1      -3.135  -0.862  -0.239  0.00  0.00    +0.036 C 
ATOM     19  C   UNL     1      -2.087   0.110  -2.187  0.00  0.00    +0.007 C 
ATOM     20  C   UNL     1      -3.163   0.042  -1.301  0.00  0.00    +0.037 C 
ENDBRANCH  12  15
ENDBRANCH  10  12
ENDBRANCH   9  10
ENDBRANCH   2   9
BRANCH   3  21
ATOM     21  O   UNL     1       0.346   0.866   1.000  0.00  0.00    -0.464 OA
BRANCH  21  22
ATOM     22  C   UNL     1      -0.217   2.167   0.852  0.00  0.00    +0.314 C 
BRANCH  22  24
ATOM     23  O   UNL     1      -1.973   1.377   2.334  0.00  0.00    -0.246 OA
ATOM     24  C   UNL     1      -1.478   2.271   1.664  0.00  0.00    +0.359 C 
BRANCH  24  25
ATOM     25  O   UNL     1      -2.005   3.517   1.553  0.00  0.00    -0.478 OA
ATOM     26  H   UNL     1      -1.578   4.161   1.023  0.00  0.00    +0.295 HD
ENDBRANCH  24  25
ENDBRANCH  22  24
ENDBRANCH  21  22
ENDBRANCH   3  21
TORSDOF 8
