REMARK  Name = 1783
REMARK  8 active torsions:
REMARK  status: ('A' for Active; 'I' for Inactive)
REMARK    1  A    between atoms: N_1  and  C_18
REMARK    2  A    between atoms: C_3  and  C_6
REMARK    3  A    between atoms: C_4  and  S_9
REMARK    4  A    between atoms: C_5  and  C_25
REMARK    5  A    between atoms: S_9  and  C_12
REMARK    6  A    between atoms: C_18  and  C_20
REMARK    7  A    between atoms: C_25  and  O_26
REMARK    8  A    between atoms: O_26  and  C_29
REMARK                            x       y       z     vdW  Elec       q    Type
REMARK                         _______ _______ _______ _____ _____    ______ ____
ROOT
ATOM      1  N   UNL     1      -0.892  -0.203   0.165  0.00  0.00    -0.267 N 
ATOM      2  N   UNL     1      -0.582   1.365  -1.376  0.00  0.00    -0.394 NA
ATOM      3  C   UNL     1       0.454   0.466  -1.403  0.00  0.00    +0.116 C 
ATOM      4  C   UNL     1       0.260  -0.481  -0.467  0.00  0.00    +0.176 C 
ATOM      5  C   UNL     1      -1.376   0.933  -0.421  0.00  0.00    +0.205 C 
ENDROOT
BRANCH   3   6
ATOM      6  C   UNL     1       1.554   0.639  -2.367  0.00  0.00    +0.051 C 
ATOM      7  C   UNL     1       1.103   0.545  -3.844  0.00  0.00    +0.007 C 
ATOM      8  C   UNL     1       2.354   1.948  -2.165  0.00  0.00    +0.007 C 
ENDBRANCH   3   6
BRANCH   4   9
ATOM      9  S   UNL     1       1.236  -1.889  -0.019  0.00  0.00    -0.088 S 
BRANCH   9  12
ATOM     10 CL   UNL     1       6.560  -0.936  -0.693  0.00  0.00    -0.082 Cl
ATOM     11 CL   UNL     1       3.828   1.741   3.114  0.00  0.00    -0.082 Cl
ATOM     12  C   UNL     1       2.726  -1.027   0.444  0.00  0.00    +0.029 C 
ATOM     13  C   UNL     1       2.697  -0.090   1.477  0.00  0.00    +0.018 C 
ATOM     14  C   UNL     1       3.920  -1.289  -0.227  0.00  0.00    +0.018 C 
ATOM     15  C   UNL     1       5.086  -0.614   0.135  0.00  0.00    +0.059 C 
ATOM     16  C   UNL     1       3.863   0.585   1.839  0.00  0.00    +0.059 C 
ATOM     17  C   UNL     1       5.057   0.323   1.168  0.00  0.00    +0.023 C 
ENDBRANCH   9  12
ENDBRANCH   4   9
BRANCH   1  18
ATOM     18  C   UNL     1      -1.530  -0.924   1.246  0.00  0.00    +0.121 C 
BRANCH  18  20
ATOM     19  N   UNL     1      -4.208  -3.923  -0.240  0.00  0.00    -0.242 NA
ATOM     20  C   UNL     1      -2.470  -1.977   0.724  0.00  0.00    +0.001 C 
ATOM     21  C   UNL     1      -2.000  -3.256   0.483  0.00  0.00    +0.018 C 
ATOM     22  C   UNL     1      -3.796  -1.656   0.491  0.00  0.00    +0.018 C 
ATOM     23  C   UNL     1      -2.905  -4.189   0.004  0.00  0.00    +0.099 C 
ATOM     24  C   UNL     1      -4.621  -2.660   0.011  0.00  0.00    +0.099 C 
ENDBRANCH  18  20
ENDBRANCH   1  18
BRANCH   5  25
ATOM     25  C   UNL     1      -2.643   1.563   0.004  0.00  0.00    +0.284 C 
BRANCH  25  26
ATOM     26  O   UNL     1      -2.418   2.967   0.109  0.00  0.00    -0.425 OA
BRANCH  26  29
ATOM     27  O   UNL     1      -4.607   3.274   0.751  0.00  0.00    -0.227 OA
ATOM     28  N   UNL     1      -3.156   5.047   0.560  0.00  0.00    -0.295 N 
ATOM     29  C   UNL     1      -3.493   3.717   0.495  0.00  0.00    +0.399 C 
ATOM     30  H   UNL     1      -2.240   5.334   0.340  0.00  0.00    +0.148 HD
ATOM     31  H   UNL     1      -3.830   5.713   0.826  0.00  0.00    +0.148 HD
ENDBRANCH  26  29
ENDBRANCH  25  26
ENDBRANCH   5  25
TORSDOF 8
