REMARK  Name = 5459374
REMARK  7 active torsions:
REMARK  status: ('A' for Active; 'I' for Inactive)
REMARK    1  A    between atoms: C_1  and  C_8
REMARK    2  A    between atoms: C_1  and  N_14
REMARK    3  A    between atoms: C_1  and  C_18
REMARK    4  A    between atoms: C_4  and  C_9
REMARK    5  A    between atoms: C_9  and  N_10
REMARK    6  A    between atoms: C_18  and  C_19
REMARK    7  A    between atoms: C_22  and  C_25
REMARK                            x       y       z     vdW  Elec       q    Type
REMARK                         _______ _______ _______ _____ _____    ______ ____
ROOT
ATOM      1  C   UNL     1       2.814   1.914   0.368  0.00  0.00    +0.017 C 
ENDROOT
BRANCH   1   8
ATOM      2  O   UNL     1       3.151   0.707  -1.656  0.00  0.00    -0.277 OA
ATOM      3  N   UNL     1       2.868  -0.532   0.278  0.00  0.00    -0.285 N 
ATOM      4  C   UNL     1       3.084  -1.846  -0.333  0.00  0.00    +0.054 C 
ATOM      5  C   UNL     1       3.317  -2.770   0.865  0.00  0.00    +0.019 C 
ATOM      6  C   UNL     1       2.475  -2.138   1.967  0.00  0.00    +0.023 C 
ATOM      7  C   UNL     1       2.646  -0.647   1.717  0.00  0.00    +0.093 C 
ATOM      8  C   UNL     1       2.963   0.649  -0.440  0.00  0.00    +0.205 C 
BRANCH   4   9
ATOM      9  C   UNL     1       1.881  -2.278  -1.169  0.00  0.00    -0.066 C 
BRANCH   9  10
ATOM     10  N   UNL     1       2.057  -3.632  -1.669  0.00  0.00    +0.382 N 
ATOM     11  H   UNL     1       1.243  -3.898  -2.223  0.00  0.00    -0.089 HD
ATOM     12  H   UNL     1       2.158  -4.275  -0.883  0.00  0.00    -0.089 HD
ATOM     13  H   UNL     1       2.893  -3.674  -2.252  0.00  0.00    -0.089 HD
ENDBRANCH   9  10
ENDBRANCH   4   9
ENDBRANCH   1   8
BRANCH   1  14
ATOM     14  N   UNL     1       4.092   2.604   0.245  0.00  0.00    +0.388 N 
ATOM     15  H   UNL     1       4.836   2.007   0.606  0.00  0.00    -0.089 HD
ATOM     16  H   UNL     1       4.062   3.472   0.780  0.00  0.00    -0.089 HD
ATOM     17  H   UNL     1       4.271   2.816  -0.736  0.00  0.00    -0.089 HD
ENDBRANCH   1  14
BRANCH   1  18
ATOM     18  C   UNL     1       1.669   2.777  -0.163  0.00  0.00    +0.013 C 
BRANCH  18  19
ATOM     19  C   UNL     1       0.335   2.069  -0.114  0.00  0.00    -0.024 C 
ATOM     20  C   UNL     1      -0.075   1.319  -1.204  0.00  0.00    -0.004 C 
ATOM     21  C   UNL     1      -0.452   2.185   1.020  0.00  0.00    -0.004 C 
ATOM     22  C   UNL     1      -2.111   0.772  -0.025  0.00  0.00    -0.000 C 
ATOM     23  C   UNL     1      -1.307   0.666  -1.159  0.00  0.00    -0.000 C 
ATOM     24  C   UNL     1      -1.684   1.532   1.065  0.00  0.00    -0.000 C 
BRANCH  22  25
ATOM     25  C   UNL     1      -3.389   0.095   0.023  0.00  0.00    -0.000 C 
ATOM     26  C   UNL     1      -4.539   0.743  -0.426  0.00  0.00    -0.000 C 
ATOM     27  C   UNL     1      -3.470  -1.207   0.516  0.00  0.00    -0.000 C 
ATOM     28  C   UNL     1      -5.771   0.090  -0.381  0.00  0.00    +0.000 C 
ATOM     29  C   UNL     1      -4.702  -1.861   0.561  0.00  0.00    +0.000 C 
ATOM     30  C   UNL     1      -5.852  -1.212   0.113  0.00  0.00    +0.000 C 
ENDBRANCH  22  25
ENDBRANCH  18  19
ENDBRANCH   1  18
TORSDOF 7
