REMARK  Name = 10317619
REMARK  4 active torsions:
REMARK  status: ('A' for Active; 'I' for Inactive)
REMARK    1  A    between atoms: C_4  and  N_17
REMARK    2  A    between atoms: C_6  and  C_11
REMARK    3  A    between atoms: N_17  and  C_19
REMARK    4  A    between atoms: C_19  and  C_22
REMARK                            x       y       z     vdW  Elec       q    Type
REMARK                         _______ _______ _______ _____ _____    ______ ____
ROOT
ATOM      1 BR   UNL     1       3.023  -4.660   0.031  0.00  0.00    -0.046 Br
ATOM      2  N   UNL     1       0.101  -1.829  -0.007  0.00  0.00    -0.176 N 
ATOM      3  N   UNL     1      -0.672  -2.954  -0.004  0.00  0.00    -0.171 NA
ATOM      4  C   UNL     1      -0.336  -0.488  -0.019  0.00  0.00    +0.121 C 
ATOM      5  C   UNL     1       1.457  -2.171   0.004  0.00  0.00    +0.083 C 
ATOM      6  C   UNL     1       2.025   0.165  -0.011  0.00  0.00    +0.004 C 
ATOM      7  C   UNL     1       0.597   0.486  -0.020  0.00  0.00    +0.032 C 
ATOM      8  C   UNL     1       2.422  -1.127   0.003  0.00  0.00    +0.017 C 
ATOM      9  C   UNL     1       1.532  -3.542   0.014  0.00  0.00    +0.071 C 
ATOM     10  C   UNL     1       0.196  -3.965   0.008  0.00  0.00    +0.126 C 
ENDROOT
BRANCH   6  11
ATOM     11  C   UNL     1       3.063   1.215  -0.004  0.00  0.00    +0.000 C 
ATOM     12  C   UNL     1       3.536   1.717   1.208  0.00  0.00    +0.000 C 
ATOM     13  C   UNL     1       3.568   1.701  -1.208  0.00  0.00    +0.000 C 
ATOM     14  C   UNL     1       4.516   2.709   1.214  0.00  0.00    +0.000 C 
ATOM     15  C   UNL     1       4.548   2.693  -1.201  0.00  0.00    +0.000 C 
ATOM     16  C   UNL     1       5.022   3.197   0.010  0.00  0.00    +0.000 C 
ENDBRANCH   6  11
BRANCH   4  17
ATOM     17  N   UNL     1      -1.683  -0.261  -0.029  0.00  0.00    -0.316 N 
ATOM     18  H   UNL     1      -2.293  -1.033  -0.027  0.00  0.00    +0.148 HD
BRANCH  17  19
ATOM     19  C   UNL     1      -2.240   1.059  -0.042  0.00  0.00    +0.118 C 
BRANCH  19  22
ATOM     20  N   UNL     1      -5.785   1.018   1.225  0.00  0.00    -0.223 NA
ATOM     21  N   UNL     1      -5.826   0.977  -1.184  0.00  0.00    -0.223 NA
ATOM     22  C   UNL     1      -3.745   1.033  -0.015  0.00  0.00    +0.036 C 
ATOM     23  C   UNL     1      -4.437   1.041   1.165  0.00  0.00    +0.100 C 
ATOM     24  C   UNL     1      -4.477   1.000  -1.170  0.00  0.00    +0.100 C 
ATOM     25  C   UNL     1      -6.407   0.987   0.032  0.00  0.00    +0.199 C 
ENDBRANCH  19  22
ENDBRANCH  17  19
ENDBRANCH   4  17
TORSDOF 4
