REMARK  Name = 15876
REMARK  4 active torsions:
REMARK  status: ('A' for Active; 'I' for Inactive)
REMARK    1  A    between atoms: C_1  and  C_10
REMARK    2  A    between atoms: C_4  and  N_9
REMARK    3  A    between atoms: C_10  and  C_12
REMARK    4  A    between atoms: C_12  and  O_13
REMARK                            x       y       z     vdW  Elec       q    Type
REMARK                         _______ _______ _______ _____ _____    ______ ____
ROOT
ATOM      1  C   UNL     1      -0.763   0.442   0.514  0.00  0.00    -0.009 C 
ATOM      2  C   UNL     1       0.308  -0.448   0.427  0.00  0.00    +0.020 C 
ATOM      3  C   UNL     1      -0.574   1.792   0.220  0.00  0.00    -0.004 C 
ATOM      4  C   UNL     1       1.568   0.013   0.046  0.00  0.00    +0.143 C 
ATOM      5  C   UNL     1       0.686   2.253  -0.162  0.00  0.00    +0.001 C 
ATOM      6  C   UNL     1       1.757   1.363  -0.248  0.00  0.00    +0.024 C 
ENDROOT
BRANCH   4   9
ATOM      7  O   UNL     1       3.784  -0.456  -0.389  0.00  0.00    -0.126 OA
ATOM      8  O   UNL     1       2.468  -2.103   0.227  0.00  0.00    -0.126 OA
ATOM      9  N   UNL     1       2.659  -0.892  -0.043  0.00  0.00    +0.058 N 
ENDBRANCH   4   9
BRANCH   1  10
ATOM     10  C   UNL     1      -2.111  -0.051   0.920  0.00  0.00    +0.136 C 
BRANCH  10  12
ATOM     11  O   UNL     1      -2.643  -0.432  -1.426  0.00  0.00    -0.250 OA
ATOM     12  C   UNL     1      -2.969  -0.496  -0.248  0.00  0.00    +0.318 C 
BRANCH  12  13
ATOM     13  O   UNL     1      -4.169  -0.985   0.162  0.00  0.00    -0.480 OA
ATOM     14  H   UNL     1      -4.375  -1.014   1.076  0.00  0.00    +0.295 HD
ENDBRANCH  12  13
ENDBRANCH  10  12
ENDBRANCH   1  10
TORSDOF 4
