REMARK  Name = 447362
REMARK  5 active torsions:
REMARK  status: ('A' for Active; 'I' for Inactive)
REMARK    1  A    between atoms: N_2  and  S_8
REMARK    2  A    between atoms: N_3  and  C_21
REMARK    3  A    between atoms: S_8  and  C_13
REMARK    4  A    between atoms: C_21  and  C_22
REMARK    5  A    between atoms: C_27  and  C_30
REMARK                            x       y       z     vdW  Elec       q    Type
REMARK                         _______ _______ _______ _____ _____    ______ ____
ROOT
ATOM      1  O   UNL     1       1.311   1.672  -1.859  0.00  0.00    -0.273 OA
ATOM      2  N   UNL     1      -0.324  -0.963   0.008  0.00  0.00    -0.144 NA
ATOM      3  N   UNL     1       1.476   1.146   0.393  0.00  0.00    -0.273 N 
ATOM      4  C   UNL     1      -0.237  -0.357   1.354  0.00  0.00    +0.118 C 
ATOM      5  C   UNL     1       1.151   0.233   1.484  0.00  0.00    +0.113 C 
ATOM      6  C   UNL     1      -0.218   0.058  -1.052  0.00  0.00    +0.181 C 
ATOM      7  C   UNL     1       0.939   1.011  -0.884  0.00  0.00    +0.244 C 
ENDROOT
BRANCH   2   8
ATOM      8  S   UNL     1      -1.559  -2.128  -0.207  0.00  0.00    +0.069 S 
ATOM      9  O   UNL     1      -1.638  -2.943   0.988  0.00  0.00    -0.152 OA
ATOM     10  O   UNL     1      -1.437  -2.713  -1.526  0.00  0.00    -0.152 OA
BRANCH   8  13
ATOM     11 CL   UNL     1      -8.668   1.618   1.260  0.00  0.00    -0.082 Cl
ATOM     12  S   UNL     1      -3.853  -1.057   1.244  0.00  0.00    -0.067 S 
ATOM     13  C   UNL     1      -3.119  -1.254  -0.268  0.00  0.00    +0.152 C 
ATOM     14  C   UNL     1      -3.821  -0.720  -1.294  0.00  0.00    +0.027 C 
ATOM     15  C   UNL     1      -5.039  -0.106  -0.848  0.00  0.00    +0.008 C 
ATOM     16  C   UNL     1      -5.184  -0.218   0.538  0.00  0.00    +0.032 C 
ATOM     17  C   UNL     1      -6.054   0.561  -1.576  0.00  0.00    +0.001 C 
ATOM     18  C   UNL     1      -6.306   0.311   1.206  0.00  0.00    +0.018 C 
ATOM     19  C   UNL     1      -7.167   1.088  -0.916  0.00  0.00    +0.011 C 
ATOM     20  C   UNL     1      -7.290   0.963   0.461  0.00  0.00    +0.058 C 
ENDBRANCH   8  13
ENDBRANCH   2   8
BRANCH   3  21
ATOM     21  C   UNL     1       2.573   2.072   0.633  0.00  0.00    +0.120 C 
BRANCH  21  22
ATOM     22  C   UNL     1       3.879   1.366   0.433  0.00  0.00    -0.002 C 
ATOM     23  C   UNL     1       4.471   1.353  -0.826  0.00  0.00    -0.003 C 
ATOM     24  C   UNL     1       4.491   0.728   1.508  0.00  0.00    -0.003 C 
ATOM     25  C   UNL     1       5.688   0.696  -1.012  0.00  0.00    +0.002 C 
ATOM     26  C   UNL     1       5.707   0.071   1.322  0.00  0.00    +0.002 C 
ATOM     27  C   UNL     1       6.306   0.055   0.062  0.00  0.00    +0.031 C 
BRANCH  27  30
ATOM     28  N   UNL     1       8.195  -0.667  -1.379  0.00  0.00    -0.343 N 
ATOM     29  N   UNL     1       8.154  -1.241   0.886  0.00  0.00    -0.285 NA
ATOM     30  C   UNL     1       7.573  -0.632  -0.132  0.00  0.00    +0.117 C 
ATOM     31  H   UNL     1       9.053  -1.138  -1.488  0.00  0.00    +0.144 HD
ATOM     32  H   UNL     1       7.777  -0.222  -2.151  0.00  0.00    +0.144 HD
ATOM     33  H   UNL     1       9.012  -1.707   0.757  0.00  0.00    +0.188 HD
ENDBRANCH  27  30
ENDBRANCH  21  22
ENDBRANCH   3  21
TORSDOF 5
