REMARK  Name = 5202
REMARK  4 active torsions:
REMARK  status: ('A' for Active; 'I' for Inactive)
REMARK    1  A    between atoms: C_2  and  C_13
REMARK    2  A    between atoms: C_8  and  O_11
REMARK    3  A    between atoms: C_13  and  C_14
REMARK    4  A    between atoms: C_14  and  N_15
REMARK                            x       y       z     vdW  Elec       q    Type
REMARK                         _______ _______ _______ _____ _____    ______ ____
ROOT
ATOM      1  N   UNL     1       0.112  -2.348  -0.112  0.00  0.00    -0.312 N 
ATOM      2  C   UNL     1      -1.186  -0.604   0.337  0.00  0.00    -0.008 C 
ATOM      3  C   UNL     1       0.149  -0.136   0.178  0.00  0.00    +0.014 C 
ATOM      4  C   UNL     1       0.943  -1.250  -0.103  0.00  0.00    +0.048 C 
ATOM      5  C   UNL     1      -1.176  -1.967   0.152  0.00  0.00    +0.057 C 
ATOM      6  C   UNL     1       0.759   1.132   0.247  0.00  0.00    +0.038 C 
ATOM      7  C   UNL     1       2.322  -1.159  -0.320  0.00  0.00    +0.018 C 
ATOM      8  C   UNL     1       2.138   1.239   0.032  0.00  0.00    +0.134 C 
ATOM      9  C   UNL     1       2.906   0.110  -0.247  0.00  0.00    +0.038 C 
ATOM     10  H   UNL     1       0.402  -3.273  -0.284  0.00  0.00    +0.152 HD
ENDROOT
BRANCH   8  11
ATOM     11  O   UNL     1       2.735   2.462   0.098  0.00  0.00    -0.506 OA
ATOM     12  H   UNL     1       2.223   3.224   0.285  0.00  0.00    +0.292 HD
ENDBRANCH   8  11
BRANCH   2  13
ATOM     13  C   UNL     1      -2.374   0.217   0.644  0.00  0.00    +0.004 C 
BRANCH  13  14
ATOM     14  C   UNL     1      -3.087   0.737  -0.618  0.00  0.00    -0.081 C 
BRANCH  14  15
ATOM     15  N   UNL     1      -4.240   1.568  -0.288  0.00  0.00    +0.381 N 
ATOM     16  H   UNL     1      -4.683   1.891  -1.148  0.00  0.00    -0.089 HD
ATOM     17  H   UNL     1      -3.934   2.372   0.260  0.00  0.00    -0.089 HD
ATOM     18  H   UNL     1      -4.909   1.021   0.254  0.00  0.00    -0.089 HD
ENDBRANCH  14  15
ENDBRANCH  13  14
ENDBRANCH   2  13
TORSDOF 4
