REMARK  Name = 5288373
REMARK  9 active torsions:
REMARK  status: ('A' for Active; 'I' for Inactive)
REMARK    1  A    between atoms: C_1  and  N_2
REMARK    2  A    between atoms: C_1  and  C_6
REMARK    3  A    between atoms: C_1  and  C_13
REMARK    4  A    between atoms: C_6  and  C_7
REMARK    5  A    between atoms: C_13  and  O_14
REMARK    6  A    between atoms: C_13  and  C_16
REMARK    7  A    between atoms: C_16  and  O_17
REMARK    8  A    between atoms: C_16  and  C_19
REMARK    9  A    between atoms: C_19  and  C_20
REMARK                            x       y       z     vdW  Elec       q    Type
REMARK                         _______ _______ _______ _____ _____    ______ ____
ROOT
ATOM      1  C   UNL     1       0.017   1.389   0.305  0.00  0.00    -0.036 C 
ENDROOT
BRANCH   1   2
ATOM      2  N   UNL     1      -0.607   2.633   0.781  0.00  0.00    +0.383 N 
ATOM      3  H   UNL     1      -1.547   2.433   1.122  0.00  0.00    -0.089 HD
ATOM      4  H   UNL     1      -0.659   3.303   0.013  0.00  0.00    -0.089 HD
ATOM      5  H   UNL     1      -0.047   3.027   1.537  0.00  0.00    -0.089 HD
ENDBRANCH   1   2
BRANCH   1   6
ATOM      6  C   UNL     1      -0.866   0.731  -0.770  0.00  0.00    -0.019 C 
BRANCH   6   7
ATOM      7  C   UNL     1      -2.288   0.425  -0.305  0.00  0.00    -0.002 C 
ATOM      8  C   UNL     1      -3.090  -0.254  -1.423  0.00  0.00    -0.000 C 
ATOM      9  C   UNL     1      -2.270  -0.444   0.960  0.00  0.00    -0.000 C 
ATOM     10  C   UNL     1      -4.501  -0.617  -0.964  0.00  0.00    -0.000 C 
ATOM     11  C   UNL     1      -3.682  -0.807   1.415  0.00  0.00    -0.000 C 
ATOM     12  C   UNL     1      -4.479  -1.474   0.298  0.00  0.00    -0.000 C 
ENDBRANCH   6   7
ENDBRANCH   1   6
BRANCH   1  13
ATOM     13  C   UNL     1       1.437   1.735  -0.203  0.00  0.00    +0.117 C 
BRANCH  13  14
ATOM     14  O   UNL     1       2.118   2.434   0.849  0.00  0.00    -0.384 OA
ATOM     15  H   UNL     1       1.584   3.194   1.130  0.00  0.00    +0.210 HD
ENDBRANCH  13  14
BRANCH  13  16
ATOM     16  C   UNL     1       2.309   0.534  -0.627  0.00  0.00    +0.135 C 
BRANCH  16  17
ATOM     17  O   UNL     1       3.589   1.059  -0.990  0.00  0.00    -0.382 OA
ATOM     18  H   UNL     1       3.480   1.726  -1.686  0.00  0.00    +0.210 HD
ENDBRANCH  16  17
BRANCH  16  19
ATOM     19  C   UNL     1       2.482  -0.524   0.476  0.00  0.00    +0.032 C 
BRANCH  19  20
ATOM     20  C   UNL     1       3.410  -1.703   0.114  0.00  0.00    +0.002 C 
ATOM     21  C   UNL     1       2.900  -2.388  -1.158  0.00  0.00    +0.000 C 
ATOM     22  C   UNL     1       3.519  -2.730   1.242  0.00  0.00    +0.000 C 
ENDBRANCH  19  20
ENDBRANCH  16  19
ENDBRANCH  13  16
ENDBRANCH   1  13
TORSDOF 9
