REMARK  Name = 656909
REMARK  13 active torsions:
REMARK  status: ('A' for Active; 'I' for Inactive)
REMARK    1  A    between atoms: C_2  and  O_7
REMARK    2  A    between atoms: C_3  and  O_9
REMARK    3  A    between atoms: C_4  and  O_11
REMARK    4  A    between atoms: C_5  and  C_22
REMARK    5  A    between atoms: C_6  and  S_13
REMARK    6  A    between atoms: S_13  and  C_14
REMARK    7  A    between atoms: C_14  and  C_15
REMARK    8  A    between atoms: C_15  and  C_16
REMARK    9  A    between atoms: C_16  and  C_17
REMARK   10  A    between atoms: C_17  and  C_18
REMARK   11  A    between atoms: C_18  and  C_19
REMARK   12  A    between atoms: C_19  and  C_20
REMARK   13  A    between atoms: C_22  and  O_23
REMARK                            x       y       z     vdW  Elec       q    Type
REMARK                         _______ _______ _______ _____ _____    ______ ____
ROOT
ATOM      1  O   UNL     1       2.154   0.554  -0.348  0.00  0.00    -0.340 OA
ATOM      2  C   UNL     1       4.646  -0.724   0.279  0.00  0.00    +0.170 C 
ATOM      3  C   UNL     1       4.567   0.733  -0.179  0.00  0.00    +0.169 C 
ATOM      4  C   UNL     1       3.414  -1.519  -0.167  0.00  0.00    +0.177 C 
ATOM      5  C   UNL     1       3.213   1.343   0.195  0.00  0.00    +0.175 C 
ATOM      6  C   UNL     1       2.124  -0.770   0.183  0.00  0.00    +0.192 C 
ENDROOT
BRANCH   2   7
ATOM      7  O   UNL     1       5.800  -1.341  -0.294  0.00  0.00    -0.379 OA
ATOM      8  H   UNL     1       6.594  -0.854  -0.025  0.00  0.00    +0.211 HD
ENDBRANCH   2   7
BRANCH   3   9
ATOM      9  O   UNL     1       5.602   1.486   0.446  0.00  0.00    -0.379 OA
ATOM     10  H   UNL     1       6.464   1.105   0.214  0.00  0.00    +0.211 HD
ENDBRANCH   3   9
BRANCH   4  11
ATOM     11  O   UNL     1       3.429  -2.783   0.495  0.00  0.00    -0.379 OA
ATOM     12  H   UNL     1       4.246  -3.255   0.272  0.00  0.00    +0.211 HD
ENDBRANCH   4  11
BRANCH   6  13
ATOM     13  S   UNL     1       0.674  -1.668  -0.478  0.00  0.00    -0.110 S 
BRANCH  13  14
ATOM     14  C   UNL     1      -0.623  -0.538   0.103  0.00  0.00    +0.060 C 
BRANCH  14  15
ATOM     15  C   UNL     1      -2.003  -1.063  -0.283  0.00  0.00    +0.012 C 
BRANCH  15  16
ATOM     16  C   UNL     1      -3.104  -0.118   0.207  0.00  0.00    +0.001 C 
BRANCH  16  17
ATOM     17  C   UNL     1      -4.493  -0.656  -0.146  0.00  0.00    +0.000 C 
BRANCH  17  18
ATOM     18  C   UNL     1      -5.633   0.263   0.301  0.00  0.00    +0.000 C 
BRANCH  18  19
ATOM     19  C   UNL     1      -7.018  -0.237  -0.116  0.00  0.00    +0.000 C 
BRANCH  19  20
ATOM     20  C   UNL     1      -8.110   0.752   0.292  0.00  0.00    +0.000 C 
ATOM     21  C   UNL     1      -9.485   0.280  -0.153  0.00  0.00    +0.000 C 
ENDBRANCH  19  20
ENDBRANCH  18  19
ENDBRANCH  17  18
ENDBRANCH  16  17
ENDBRANCH  15  16
ENDBRANCH  14  15
ENDBRANCH  13  14
ENDBRANCH   6  13
BRANCH   5  22
ATOM     22  C   UNL     1       3.060   2.757  -0.356  0.00  0.00    +0.169 C 
BRANCH  22  23
ATOM     23  O   UNL     1       1.787   3.251   0.017  0.00  0.00    -0.379 OA
ATOM     24  H   UNL     1       1.675   4.151  -0.326  0.00  0.00    +0.211 HD
ENDBRANCH  22  23
ENDBRANCH   5  22
TORSDOF 13
