REMARK  Name = 27200
REMARK  8 active torsions:
REMARK  status: ('A' for Active; 'I' for Inactive)
REMARK    1  A    between atoms: C_1  and  C_2
REMARK    2  A    between atoms: C_1  and  O_12
REMARK    3  A    between atoms: C_1  and  CA_14
REMARK    4  A    between atoms: C_5  and  S_8
REMARK    5  A    between atoms: CA_14  and  N_16
REMARK    6  A    between atoms: CA_14  and  C_22
REMARK    7  A    between atoms: C_17  and  C_21
REMARK    8  A    between atoms: C_22  and  O_23
REMARK                            x       y       z     vdW  Elec       q    Type
REMARK                         _______ _______ _______ _____ _____    ______ ____
ROOT
ATOM      1  C   UNL     1      -0.660   0.022   1.107  0.00  0.00    +0.153 C 
ENDROOT
BRANCH   1   2
ATOM      2  C   UNL     1       0.803   0.078   0.728  0.00  0.00    +0.006 C 
ATOM      3  C   UNL     1       1.704  -0.746   1.381  0.00  0.00    -0.001 C 
ATOM      4  C   UNL     1       1.211   0.951  -0.266  0.00  0.00    -0.001 C 
ATOM      5  C   UNL     1       3.481   0.179   0.032  0.00  0.00    +0.106 C 
ATOM      6  C   UNL     1       3.053  -0.695   1.031  0.00  0.00    +0.018 C 
ATOM      7  C   UNL     1       2.560   1.002  -0.617  0.00  0.00    +0.018 C 
BRANCH   5   8
ATOM      8  S   UNL     1       5.170   0.245  -0.406  0.00  0.00    +0.010 S 
ATOM      9  O   UNL     1       5.434   1.556  -0.981  0.00  0.00    -0.169 OA
ATOM     10  O   UNL     1       5.968  -0.224   0.720  0.00  0.00    -0.169 OA
ATOM     11  C   UNL     1       5.339  -0.964  -1.699  0.00  0.00    +0.182 C 
ENDBRANCH   5   8
ENDBRANCH   1   2
BRANCH   1  12
ATOM     12  O   UNL     1      -0.996   1.294   1.671  0.00  0.00    -0.378 OA
ATOM     13  H   UNL     1      -1.931   1.298   1.927  0.00  0.00    +0.211 HD
ENDBRANCH   1  12
BRANCH   1  14
ATOM     14  CA  UNL     1      -1.603  -0.279  -0.078  0.00  0.00    +0.132 C 
BRANCH  14  16
ATOM     15  O   UNL     1      -3.843   0.568  -1.655  0.00  0.00    -0.272 OA
ATOM     16  N   UNL     1      -2.982  -0.184   0.362  0.00  0.00    -0.299 N 
ATOM     17  C   UNL     1      -3.995   0.238  -0.480  0.00  0.00    +0.253 C 
ATOM     18  H   UNL     1      -3.204  -0.428   1.290  0.00  0.00    +0.150 HD
BRANCH  17  21
ATOM     19 CL   UNL     1      -5.964   1.910   0.162  0.00  0.00    -0.087 Cl
ATOM     20 CL   UNL     1      -6.415  -0.852  -0.674  0.00  0.00    -0.087 Cl
ATOM     21  C   UNL     1      -5.343   0.252   0.203  0.00  0.00    +0.234 C 
ENDBRANCH  17  21
ENDBRANCH  14  16
BRANCH  14  22
ATOM     22  C   UNL     1      -1.371  -1.645  -0.734  0.00  0.00    +0.159 C 
BRANCH  22  23
ATOM     23  O   UNL     1      -1.551  -2.708   0.193  0.00  0.00    -0.380 OA
ATOM     24  H   UNL     1      -1.397  -3.556  -0.253  0.00  0.00    +0.211 HD
ENDBRANCH  22  23
ENDBRANCH  14  22
ENDBRANCH   1  14
TORSDOF 8
