REMARK  Name = 11434515
REMARK  11 active torsions:
REMARK  status: ('A' for Active; 'I' for Inactive)
REMARK    1  A    between atoms: N_1  and  C_25
REMARK    2  A    between atoms: C_6  and  O_9
REMARK    3  A    between atoms: O_9  and  C_11
REMARK    4  A    between atoms: C_11  and  C_12
REMARK    5  A    between atoms: C_12  and  C_14
REMARK    6  A    between atoms: C_12  and  C_19
REMARK    7  A    between atoms: C_12  and  O_23
REMARK    8  A    between atoms: C_25  and  C_26
REMARK    9  A    between atoms: C_26  and  C_27
REMARK   10  A    between atoms: C_27  and  O_28
REMARK   11  A    between atoms: O_28  and  C_29
REMARK                            x       y       z     vdW  Elec       q    Type
REMARK                         _______ _______ _______ _____ _____    ______ ____
ROOT
ATOM      1  N   UNL     1      -0.540  -2.893  -0.116  0.00  0.00    +0.392 N 
ATOM      2  C   UNL     1       2.026  -3.135  -0.180  0.00  0.00    +0.034 C 
ATOM      3  C   UNL     1       0.094  -1.897   0.871  0.00  0.00    -0.028 C 
ATOM      4  C   UNL     1      -0.144  -4.324   0.282  0.00  0.00    -0.073 C 
ATOM      5  C   UNL     1      -0.031  -2.599  -1.533  0.00  0.00    -0.073 C 
ATOM      6  C   UNL     1       1.619  -2.030   0.807  0.00  0.00    +0.149 C 
ATOM      7  C   UNL     1       1.381  -4.446   0.277  0.00  0.00    -0.019 C 
ATOM      8  C   UNL     1       1.483  -2.797  -1.576  0.00  0.00    -0.019 C 
ENDROOT
BRANCH   6   9
ATOM      9  O   UNL     1       2.175  -0.781   0.404  0.00  0.00    -0.452 OA
BRANCH   9  11
ATOM     10  O   UNL     1       2.253  -0.112   2.604  0.00  0.00    -0.247 OA
ATOM     11  C   UNL     1       2.451   0.104   1.414  0.00  0.00    +0.350 C 
BRANCH  11  12
ATOM     12  C   UNL     1       3.007   1.410   0.845  0.00  0.00    +0.227 C 
BRANCH  12  14
ATOM     13  S   UNL     1       0.693   2.955   0.492  0.00  0.00    -0.088 S 
ATOM     14  C   UNL     1       1.982   2.011  -0.124  0.00  0.00    +0.046 C 
ATOM     15  C   UNL     1       1.933   1.901  -1.496  0.00  0.00    +0.006 C 
ATOM     16  C   UNL     1       0.823   2.602  -2.050  0.00  0.00    +0.007 C 
ATOM     17  C   UNL     1       0.066   3.221  -1.079  0.00  0.00    +0.035 C 
ENDBRANCH  12  14
BRANCH  12  19
ATOM     18  S   UNL     1       5.238   2.623  -0.342  0.00  0.00    -0.088 S 
ATOM     19  C   UNL     1       4.402   1.245   0.236  0.00  0.00    +0.046 C 
ATOM     20  C   UNL     1       5.134   0.090   0.071  0.00  0.00    +0.006 C 
ATOM     21  C   UNL     1       6.398   0.339  -0.538  0.00  0.00    +0.007 C 
ATOM     22  C   UNL     1       6.583   1.676  -0.815  0.00  0.00    +0.035 C 
ENDBRANCH  12  19
BRANCH  12  23
ATOM     23  O   UNL     1       3.139   2.301   1.958  0.00  0.00    -0.369 OA
ATOM     24  H   UNL     1       2.272   2.432   2.372  0.00  0.00    +0.212 HD
ENDBRANCH  12  23
ENDBRANCH  11  12
ENDBRANCH   9  11
ENDBRANCH   6   9
BRANCH   1  25
ATOM     25  C   UNL     1      -2.054  -2.754  -0.078  0.00  0.00    -0.069 C 
BRANCH  25  26
ATOM     26  C   UNL     1      -2.432  -1.328  -0.439  0.00  0.00    +0.025 C 
BRANCH  26  27
ATOM     27  C   UNL     1      -3.942  -1.143  -0.462  0.00  0.00    +0.203 C 
BRANCH  27  28
ATOM     28  O   UNL     1      -4.236   0.208  -0.790  0.00  0.00    -0.476 OA
BRANCH  28  29
ATOM     29  C   UNL     1      -5.399   0.729  -0.286  0.00  0.00    +0.139 C 
ATOM     30  C   UNL     1      -6.495  -0.104  -0.058  0.00  0.00    +0.037 C 
ATOM     31  C   UNL     1      -5.488   2.092  -0.002  0.00  0.00    +0.037 C 
ATOM     32  C   UNL     1      -7.679   0.426   0.454  0.00  0.00    +0.003 C 
ATOM     33  C   UNL     1      -6.673   2.621   0.510  0.00  0.00    +0.003 C 
ATOM     34  C   UNL     1      -7.768   1.788   0.738  0.00  0.00    +0.000 C 
ENDBRANCH  28  29
ENDBRANCH  27  28
ENDBRANCH  26  27
ENDBRANCH  25  26
ENDBRANCH   1  25
TORSDOF 11
