REMARK  Name = 1788
REMARK  8 active torsions:
REMARK  status: ('A' for Active; 'I' for Inactive)
REMARK    1  A    between atoms: O_1  and  C_3
REMARK    2  A    between atoms: O_1  and  C_14
REMARK    3  A    between atoms: C_4  and  C_11
REMARK    4  A    between atoms: C_14  and  C_15
REMARK    5  A    between atoms: C_15  and  C_16
REMARK    6  A    between atoms: C_16  and  C_17
REMARK    7  A    between atoms: C_17  and  C_18
REMARK    8  A    between atoms: C_18  and  C_21
REMARK                            x       y       z     vdW  Elec       q    Type
REMARK                         _______ _______ _______ _____ _____    ______ ____
ROOT
ATOM      1  O   UNL     1      -0.828  -0.065  -1.364  0.00  0.00    -0.475 OA
ENDROOT
BRANCH   1   3
ATOM      2 CL   UNL     1      -1.911   2.692  -0.856  0.00  0.00    -0.079 Cl
ATOM      3  C   UNL     1      -2.125  -0.018  -0.925  0.00  0.00    +0.149 C 
ATOM      4  C   UNL     1      -4.762   0.017  -0.037  0.00  0.00    +0.054 C 
ATOM      5  C   UNL     1      -2.746   1.197  -0.654  0.00  0.00    +0.092 C 
ATOM      6  C   UNL     1      -2.813  -1.216  -0.756  0.00  0.00    +0.038 C 
ATOM      7  C   UNL     1      -4.068   1.214  -0.208  0.00  0.00    +0.019 C 
ATOM      8  C   UNL     1      -4.134  -1.199  -0.311  0.00  0.00    +0.008 C 
BRANCH   4  11
ATOM      9  O   UNL     1      -6.725  -1.188   0.556  0.00  0.00    -0.458 OA
ATOM     10  N   UNL     1      -6.850   1.089   0.722  0.00  0.00    -0.234 NA
ATOM     11  C   UNL     1      -6.155   0.034   0.433  0.00  0.00    +0.220 C 
ATOM     12  C   UNL     1      -8.095  -0.918   0.805  0.00  0.00    +0.233 C 
ATOM     13  C   UNL     1      -8.122   0.539   1.202  0.00  0.00    +0.176 C 
ENDBRANCH   4  11
ENDBRANCH   1   3
BRANCH   1  14
ATOM     14  C   UNL     1       0.099  -0.773  -0.552  0.00  0.00    +0.205 C 
BRANCH  14  15
ATOM     15  C   UNL     1       1.480  -0.160  -0.731  0.00  0.00    +0.047 C 
BRANCH  15  16
ATOM     16  C   UNL     1       2.526  -0.865   0.128  0.00  0.00    +0.004 C 
BRANCH  16  17
ATOM     17  C   UNL     1       3.919  -0.271  -0.090  0.00  0.00    +0.008 C 
BRANCH  17  18
ATOM     18  C   UNL     1       4.962  -0.957   0.797  0.00  0.00    +0.067 C 
BRANCH  18  21
ATOM     19  O   UNL     1       7.049  -1.022  -0.393  0.00  0.00    -0.358 OA
ATOM     20  N   UNL     1       8.284  -0.393  -0.485  0.00  0.00    -0.082 NA
ATOM     21  C   UNL     1       6.342  -0.399   0.560  0.00  0.00    +0.154 C 
ATOM     22  C   UNL     1       7.021   0.615   1.120  0.00  0.00    +0.054 C 
ATOM     23  C   UNL     1       8.244   0.582   0.429  0.00  0.00    +0.101 C 
ATOM     24  C   UNL     1       9.407   1.466   0.609  0.00  0.00    +0.056 C 
ENDBRANCH  18  21
ENDBRANCH  17  18
ENDBRANCH  16  17
ENDBRANCH  15  16
ENDBRANCH  14  15
ENDBRANCH   1  14
TORSDOF 8
