REMARK  Name = 23644575
REMARK  2 active torsions:
REMARK  status: ('A' for Active; 'I' for Inactive)
REMARK    1  A    between atoms: N_4  and  C_10
REMARK    2  A    between atoms: C_5  and  C_16
REMARK                            x       y       z     vdW  Elec       q    Type
REMARK                         _______ _______ _______ _____ _____    ______ ____
ROOT
ATOM      1  S   UNL     1       1.834  -1.513  -0.182  0.00  0.00    -0.049 S 
ATOM      2  O   UNL     1       2.512   2.160  -1.022  0.00  0.00    -0.213 OA
ATOM      3  N   UNL     1       0.723   0.811  -0.493  0.00  0.00    -0.314 NA
ATOM      4  N   UNL     1      -0.751  -0.959   0.107  0.00  0.00    -0.281 N 
ATOM      5  C   UNL     1       2.948  -0.176  -0.683  0.00  0.00    +0.173 C 
ATOM      6  C   UNL     1       2.058   1.052  -0.751  0.00  0.00    +0.192 C 
ATOM      7  C   UNL     1       0.464  -0.422  -0.196  0.00  0.00    +0.225 C 
ATOM      8  H   UNL     1      -0.767  -1.922   0.310  0.00  0.00    +0.155 HD
ENDROOT
BRANCH   4  10
ATOM      9  F   UNL     1      -3.131  -2.270  -0.471  0.00  0.00    -0.203 F 
ATOM     10  C   UNL     1      -1.979  -0.291   0.161  0.00  0.00    +0.078 C 
ATOM     11  C   UNL     1      -3.160  -0.973  -0.133  0.00  0.00    +0.153 C 
ATOM     12  C   UNL     1      -2.022   1.059   0.510  0.00  0.00    +0.017 C 
ATOM     13  C   UNL     1      -4.383  -0.304  -0.079  0.00  0.00    +0.031 C 
ATOM     14  C   UNL     1      -3.245   1.727   0.564  0.00  0.00    +0.001 C 
ATOM     15  C   UNL     1      -4.426   1.046   0.270  0.00  0.00    +0.002 C 
ENDBRANCH   4  10
BRANCH   5  16
ATOM     16  C   UNL     1       4.070   0.002   0.323  0.00  0.00    +0.027 C 
ATOM     17  C   UNL     1       4.977  -1.230   0.354  0.00  0.00    +0.002 C 
ATOM     18  C   UNL     1       3.512   0.283   1.720  0.00  0.00    +0.002 C 
ENDBRANCH   5  16
TORSDOF 2
