REMARK  Name = 9817372
REMARK  9 active torsions:
REMARK  status: ('A' for Active; 'I' for Inactive)
REMARK    1  A    between atoms: C_1  and  C_3
REMARK    2  A    between atoms: C_1  and  C_6
REMARK    3  A    between atoms: C_1  and  C_16
REMARK    4  A    between atoms: C_3  and  O_4
REMARK    5  A    between atoms: C_6  and  CA_7
REMARK    6  A    between atoms: CA_7  and  N_8
REMARK    7  A    between atoms: CA_7  and  C_13
REMARK    8  A    between atoms: C_13  and  O_14
REMARK    9  A    between atoms: C_16  and  C_17
REMARK                            x       y       z     vdW  Elec       q    Type
REMARK                         _______ _______ _______ _____ _____    ______ ____
ROOT
ATOM      1  C   UNL     1       1.485  -0.022   0.140  0.00  0.00    +0.102 C 
ENDROOT
BRANCH   1   3
ATOM      2  O   UNL     1       1.526  -2.449   0.405  0.00  0.00    -0.250 OA
ATOM      3  C   UNL     1       1.337  -1.470  -0.307  0.00  0.00    +0.314 C 
BRANCH   3   4
ATOM      4  O   UNL     1       0.980  -1.570  -1.614  0.00  0.00    -0.480 OA
ATOM      5  H   UNL     1       0.846  -0.795  -2.124  0.00  0.00    +0.295 HD
ENDBRANCH   3   4
ENDBRANCH   1   3
BRANCH   1   6
ATOM      6  C   UNL     1       2.934   0.295   0.570  0.00  0.00    +0.000 C 
BRANCH   6   7
ATOM      7  CA  UNL     1       3.997   0.038  -0.514  0.00  0.00    +0.036 C 
BRANCH   7   8
ATOM      8  N   UNL     1       3.812   0.910  -1.674  0.00  0.00    +0.389 N 
ATOM      9  H1  UNL     1       2.891   0.746  -2.079  0.00  0.00    -0.088 HD
ATOM     10  H2  UNL     1       4.530   0.707  -2.370  0.00  0.00    -0.088 HD
ATOM     11  H3  UNL     1       3.887   1.884  -1.382  0.00  0.00    -0.088 HD
ENDBRANCH   7   8
BRANCH   7  13
ATOM     12  OXT UNL     1       6.163   1.166  -0.349  0.00  0.00    -0.253 OA
ATOM     13  C   UNL     1       5.376   0.319   0.050  0.00  0.00    +0.293 C 
BRANCH  13  14
ATOM     14  O   UNL     1       5.644  -0.521   1.084  0.00  0.00    -0.482 OA
ATOM     15  H   UNL     1       5.006  -1.153   1.351  0.00  0.00    +0.295 HD
ENDBRANCH  13  14
ENDBRANCH   7  13
ENDBRANCH   6   7
ENDBRANCH   1   6
BRANCH   1  16
ATOM     16  C   UNL     1       0.457   0.318   1.242  0.00  0.00    +0.037 C 
BRANCH  16  17
ATOM     17  C   UNL     1      -0.962   0.539   0.775  0.00  0.00    -0.022 C 
ATOM     18  C   UNL     1      -1.831  -0.539   0.713  0.00  0.00    -0.004 C 
ATOM     19  C   UNL     1      -1.367   1.812   0.419  0.00  0.00    -0.004 C 
ATOM     20  C   UNL     1      -3.155  -0.350   0.281  0.00  0.00    -0.000 C 
ATOM     21  C   UNL     1      -3.584   0.947  -0.086  0.00  0.00    -0.000 C 
ATOM     22  C   UNL     1      -2.678   2.017  -0.012  0.00  0.00    -0.000 C 
ATOM     23  C   UNL     1      -4.061  -1.421   0.207  0.00  0.00    -0.000 C 
ATOM     24  C   UNL     1      -4.907   1.135  -0.518  0.00  0.00    -0.000 C 
ATOM     25  C   UNL     1      -5.371  -1.215  -0.224  0.00  0.00    -0.000 C 
ATOM     26  C   UNL     1      -5.794   0.060  -0.586  0.00  0.00    -0.000 C 
ENDBRANCH  16  17
ENDBRANCH   1  16
TORSDOF 9
