REMARK  Name = 5329103
REMARK  7 active torsions:
REMARK  status: ('A' for Active; 'I' for Inactive)
REMARK    1  A    between atoms: C_2  and  C_24
REMARK    2  A    between atoms: C_4  and  C_13
REMARK    3  A    between atoms: N_23  and  C_26
REMARK    4  A    between atoms: C_26  and  C_27
REMARK    5  A    between atoms: C_27  and  N_28
REMARK    6  A    between atoms: N_28  and  C_30
REMARK    7  A    between atoms: N_28  and  C_32
REMARK                            x       y       z     vdW  Elec       q    Type
REMARK                         _______ _______ _______ _____ _____    ______ ____
ROOT
ATOM      1  N   UNL     1       0.667   1.747   1.018  0.00  0.00    -0.357 N 
ATOM      2  C   UNL     1      -1.196   0.923   0.134  0.00  0.00    +0.062 A 
ATOM      3  C   UNL     1      -0.192  -0.074   0.082  0.00  0.00    -0.001 A 
ATOM      4  C   UNL     1       0.922   0.472   0.630  0.00  0.00    +0.053 A 
ATOM      5  C   UNL     1      -0.638   2.039   0.717  0.00  0.00    +0.038 A 
ATOM      6  C   UNL     1      -0.341  -1.440  -0.465  0.00  0.00    +0.033 C 
ATOM      7  C   UNL     1      -1.209   3.365   1.025  0.00  0.00    +0.050 C 
ATOM      8  H   UNL     1       1.310   2.359   1.444  0.00  0.00    +0.166 HD
ENDROOT
BRANCH   4  13
ATOM      9 CL   UNL     1       7.544  -2.183   2.170  0.00  0.00    -0.082 Cl
ATOM     10  O   UNL     1       2.148   1.313  -1.783  0.00  0.00    -0.270 OA
ATOM     11  N   UNL     1       4.429   0.704  -1.868  0.00  0.00    -0.280 N 
ATOM     12  C   UNL     1       3.267   0.108   0.012  0.00  0.00    +0.056 C 
ATOM     13  C   UNL     1       2.248  -0.022   0.864  0.00  0.00    +0.021 C 
ATOM     14  C   UNL     1       4.642  -0.358   0.161  0.00  0.00    +0.019 C 
ATOM     15  C   UNL     1       5.303   0.029  -1.008  0.00  0.00    +0.051 C 
ATOM     16  C   UNL     1       3.147   0.798  -1.316  0.00  0.00    +0.250 C 
ATOM     17  C   UNL     1       5.312  -1.043   1.157  0.00  0.00    +0.013 C 
ATOM     18  C   UNL     1       6.639  -0.245  -1.227  0.00  0.00    +0.016 C 
ATOM     19  C   UNL     1       6.666  -1.331   0.956  0.00  0.00    +0.058 C 
ATOM     20  C   UNL     1       7.323  -0.936  -0.225  0.00  0.00    +0.013 C 
ATOM     21  H   UNL     1       4.684   1.065  -2.748  0.00  0.00    +0.155 HD
ENDBRANCH   4  13
BRANCH   2  24
ATOM     22  O   UNL     1      -3.182   1.819  -0.766  0.00  0.00    -0.270 OA
ATOM     23  N   UNL     1      -3.155  -0.435  -0.279  0.00  0.00    -0.303 N 
ATOM     24  C   UNL     1      -2.555   0.835  -0.322  0.00  0.00    +0.247 C 
ATOM     25  H   UNL     1      -2.630  -1.188   0.077  0.00  0.00    +0.150 HD
BRANCH  23  26
ATOM     26  C   UNL     1      -4.504  -0.692  -0.730  0.00  0.00    +0.067 C 
BRANCH  26  27
ATOM     27  C   UNL     1      -5.506  -0.514   0.401  0.00  0.00    -0.056 C 
BRANCH  27  28
ATOM     28  N   UNL     1      -6.861  -0.750  -0.082  0.00  0.00    +0.388 N 
ATOM     29  H   UNL     1      -7.053  -0.081  -0.827  0.00  0.00    -0.080 HD
BRANCH  28  30
ATOM     30  C   UNL     1      -7.835  -0.543   0.992  0.00  0.00    -0.077 C 
ATOM     31  C   UNL     1      -7.722   0.856   1.574  0.00  0.00    -0.025 C 
ENDBRANCH  28  30
BRANCH  28  32
ATOM     32  C   UNL     1      -6.987  -2.103  -0.627  0.00  0.00    -0.077 C 
ATOM     33  C   UNL     1      -8.376  -2.339  -1.194  0.00  0.00    -0.025 C 
ENDBRANCH  28  32
ENDBRANCH  27  28
ENDBRANCH  26  27
ENDBRANCH  23  26
ENDBRANCH   2  24
TORSDOF 7
