REMARK  Name = 5288711
REMARK  4 active torsions:
REMARK  status: ('A' for Active; 'I' for Inactive)
REMARK    1  A    between atoms: C_1  and  S_7
REMARK    2  A    between atoms: C_2  and  N_17
REMARK    3  A    between atoms: S_7  and  N_11
REMARK    4  A    between atoms: N_17  and  C_25
REMARK                            x       y       z     vdW  Elec       q    Type
REMARK                         _______ _______ _______ _____ _____    ______ ____
ROOT
ATOM      1  C   UNL     1      -2.457  -0.690   0.646  0.00  0.00    +0.125 C 
ATOM      2  C   UNL     1       0.292  -0.948   0.208  0.00  0.00    +0.048 C 
ATOM      3  C   UNL     1      -1.923  -1.922   0.268  0.00  0.00    +0.021 C 
ATOM      4  C   UNL     1      -1.619   0.413   0.806  0.00  0.00    +0.021 C 
ATOM      5  C   UNL     1      -0.552  -2.051   0.050  0.00  0.00    +0.016 C 
ATOM      6  C   UNL     1      -0.247   0.285   0.588  0.00  0.00    +0.016 C 
ENDROOT
BRANCH   1   7
ATOM      7  S   UNL     1      -4.174  -0.528   0.919  0.00  0.00    +0.075 S 
ATOM      8  O   UNL     1      -4.713  -1.839   1.258  0.00  0.00    -0.150 OA
ATOM      9  O   UNL     1      -4.373   0.588   1.835  0.00  0.00    -0.150 OA
BRANCH   7  11
ATOM     10  S   UNL     1      -7.151   0.168  -1.965  0.00  0.00    -0.050 S 
ATOM     11  N   UNL     1      -4.721  -0.095  -0.652  0.00  0.00    -0.194 N 
ATOM     12  N   UNL     1      -6.421   1.422   0.174  0.00  0.00    -0.221 NA
ATOM     13  C   UNL     1      -6.052   0.547  -0.719  0.00  0.00    +0.179 C 
ATOM     14  C   UNL     1      -8.258   1.277  -1.268  0.00  0.00    +0.059 C 
ATOM     15  C   UNL     1      -7.697   1.845  -0.143  0.00  0.00    +0.108 C 
ATOM     16  H   UNL     1      -4.181  -0.263  -1.458  0.00  0.00    +0.176 HD
ENDBRANCH   7  11
ENDBRANCH   1   7
BRANCH   2  17
ATOM     17  N   UNL     1       1.673  -1.078  -0.012  0.00  0.00    -0.311 N 
ATOM     18  H   UNL     1       1.981  -1.975  -0.276  0.00  0.00    +0.152 HD
BRANCH  17  25
ATOM     19  O   UNL     1       4.020  -2.628  -0.716  0.00  0.00    -0.270 OA
ATOM     20  N   UNL     1       5.946  -1.262  -0.640  0.00  0.00    -0.280 N 
ATOM     21  C   UNL     1       5.000   0.739  -0.015  0.00  0.00    +0.019 C 
ATOM     22  C   UNL     1       3.950  -0.269  -0.122  0.00  0.00    +0.069 C 
ATOM     23  C   UNL     1       6.191   0.083  -0.340  0.00  0.00    +0.051 C 
ATOM     24  C   UNL     1       4.585  -1.567  -0.530  0.00  0.00    +0.251 C 
ATOM     25  C   UNL     1       2.640  -0.131   0.091  0.00  0.00    +0.066 C 
ATOM     26  C   UNL     1       5.001   2.080   0.318  0.00  0.00    +0.001 C 
ATOM     27  C   UNL     1       7.412   0.727  -0.346  0.00  0.00    +0.015 C 
ATOM     28  C   UNL     1       6.228   2.753   0.318  0.00  0.00    +0.000 C 
ATOM     29  C   UNL     1       7.421   2.083  -0.011  0.00  0.00    +0.001 C 
ATOM     30  H   UNL     1       6.641  -1.910  -0.895  0.00  0.00    +0.155 HD
ENDBRANCH  17  25
ENDBRANCH   2  17
TORSDOF 4
