REMARK  Name = 44129631
REMARK  3 active torsions:
REMARK  status: ('A' for Active; 'I' for Inactive)
REMARK    1  A    between atoms: C_5  and  C_15
REMARK    2  A    between atoms: C_11  and  S_20
REMARK    3  A    between atoms: S_20  and  N_23
REMARK                            x       y       z     vdW  Elec       q    Type
REMARK                         _______ _______ _______ _____ _____    ______ ____
ROOT
ATOM      1  S   UNL     1      -2.058  -1.645  -1.288  0.00  0.00    +0.060 S 
ATOM      2  O   UNL     1      -1.979  -3.092  -1.276  0.00  0.00    -0.153 OA
ATOM      3  O   UNL     1      -1.843  -0.883  -2.502  0.00  0.00    -0.153 OA
ATOM      4  N   UNL     1      -3.543  -1.180  -0.586  0.00  0.00    -0.180 NA
ATOM      5  C   UNL     1      -3.601   0.209  -0.081  0.00  0.00    +0.080 C 
ATOM      6  C   UNL     1      -2.696   0.293   1.150  0.00  0.00    +0.045 C 
ATOM      7  C   UNL     1      -1.275  -0.164   0.914  0.00  0.00    -0.002 C 
ATOM      8  C   UNL     1      -0.891  -1.038  -0.112  0.00  0.00    +0.119 C 
ATOM      9  C   UNL     1      -0.285   0.260   1.815  0.00  0.00    -0.006 C 
ATOM     10  C   UNL     1       0.432  -1.467  -0.253  0.00  0.00    +0.039 C 
ATOM     11  C   UNL     1       1.398  -1.022   0.646  0.00  0.00    +0.120 C 
ATOM     12  C   UNL     1       1.040  -0.160   1.680  0.00  0.00    -0.003 C 
ATOM     13  C   UNL     1       2.050   0.330   2.666  0.00  0.00    +0.032 C 
ATOM     14  H   UNL     1      -3.731  -1.807   0.197  0.00  0.00    +0.149 HD
ENDROOT
BRANCH   5  15
ATOM     15  C   UNL     1      -5.041   0.551   0.258  0.00  0.00    +0.016 C 
ATOM     16  C   UNL     1      -5.216   1.977   0.771  0.00  0.00    +0.001 C 
ATOM     17  C   UNL     1      -5.966   0.527  -0.955  0.00  0.00    +0.001 C 
ATOM     18  C   UNL     1      -6.708   2.251   0.605  0.00  0.00    +0.000 C 
ATOM     19  C   UNL     1      -7.193   1.309  -0.498  0.00  0.00    +0.000 C 
ENDBRANCH   5  15
BRANCH  11  20
ATOM     20  S   UNL     1       3.049  -1.568   0.450  0.00  0.00    +0.063 S 
ATOM     21  O   UNL     1       3.525  -2.051   1.737  0.00  0.00    -0.153 OA
ATOM     22  O   UNL     1       3.109  -2.434  -0.718  0.00  0.00    -0.153 OA
BRANCH  20  23
ATOM     23  N   UNL     1       3.836  -0.092   0.085  0.00  0.00    -0.160 NA
ATOM     24  N   UNL     1       5.407   1.975  -1.152  0.00  0.00    +0.387 N 
ATOM     25  C   UNL     1       3.351   0.609  -1.138  0.00  0.00    +0.073 C 
ATOM     26  C   UNL     1       5.325  -0.130   0.136  0.00  0.00    +0.073 C 
ATOM     27  C   UNL     1       3.938   2.018  -1.185  0.00  0.00    -0.058 C 
ATOM     28  C   UNL     1       5.875   1.294   0.064  0.00  0.00    -0.058 C 
ATOM     29  C   UNL     1       5.963   3.325  -1.232  0.00  0.00    -0.101 C 
ATOM     30  H   UNL     1       5.731   1.446  -1.962  0.00  0.00    -0.080 HD
ENDBRANCH  20  23
ENDBRANCH  11  20
TORSDOF 3
