REMARK  Name = 10361208
REMARK  3 active torsions:
REMARK  status: ('A' for Active; 'I' for Inactive)
REMARK    1  A    between atoms: N_1  and  C_12
REMARK    2  A    between atoms: C_10  and  C_18
REMARK    3  A    between atoms: C_21  and  C_27
REMARK                            x       y       z     vdW  Elec       q    Type
REMARK                         _______ _______ _______ _____ _____    ______ ____
ROOT
ATOM      1  N   UNL     1      -3.241  -0.096   0.280  0.00  0.00    -0.318 N 
ATOM      2  N   UNL     1      -1.095  -0.915   0.230  0.00  0.00    -0.147 NA
ATOM      3  N   UNL     1      -0.317  -1.983  -0.077  0.00  0.00    -0.190 N 
ATOM      4  N   UNL     1       0.334  -3.971  -0.743  0.00  0.00    -0.127 NA
ATOM      5  N   UNL     1       1.446  -3.258  -0.344  0.00  0.00    -0.127 NA
ATOM      6  C   UNL     1      -2.378  -1.089   0.011  0.00  0.00    +0.149 C 
ATOM      7  C   UNL     1      -2.936  -2.375  -0.538  0.00  0.00    +0.039 C 
ATOM      8  C   UNL     1      -0.718  -3.197  -0.580  0.00  0.00    +0.187 A 
ATOM      9  C   UNL     1      -2.094  -3.378  -0.812  0.00  0.00    +0.044 C 
ATOM     10  C   UNL     1       1.038  -2.073   0.052  0.00  0.00    +0.187 A 
ATOM     11  H   UNL     1      -4.201  -0.252   0.124  0.00  0.00    +0.148 HD
ENDROOT
BRANCH   1  12
ATOM     12  C   UNL     1      -2.821   1.195   0.791  0.00  0.00    +0.070 C 
ATOM     13  C   UNL     1      -2.254   2.051  -0.346  0.00  0.00    +0.020 C 
ATOM     14  C   UNL     1      -3.994   1.891   1.489  0.00  0.00    +0.020 C 
ATOM     15  C   UNL     1      -3.332   2.531  -1.319  0.00  0.00    +0.002 C 
ATOM     16  C   UNL     1      -5.065   2.371   0.509  0.00  0.00    +0.002 C 
ATOM     17  C   UNL     1      -4.470   3.241  -0.594  0.00  0.00    +0.000 C 
ENDBRANCH   1  12
BRANCH  10  18
ATOM     18  C   UNL     1       1.874  -1.007   0.550  0.00  0.00    +0.038 C 
ATOM     19  C   UNL     1       2.413  -0.072  -0.333  0.00  0.00    +0.007 C 
ATOM     20  C   UNL     1       2.143  -0.914   1.915  0.00  0.00    +0.003 C 
ATOM     21  C   UNL     1       3.221   0.957   0.149  0.00  0.00    +0.072 C 
ATOM     22  C   UNL     1       2.952   0.115   2.398  0.00  0.00    +0.000 C 
ATOM     23  C   UNL     1       3.491   1.051   1.514  0.00  0.00    +0.004 C 
BRANCH  21  27
ATOM     24  F   UNL     1       4.565   2.908  -0.182  0.00  0.00    -0.166 F 
ATOM     25  F   UNL     1       4.603   1.410  -1.750  0.00  0.00    -0.166 F 
ATOM     26  F   UNL     1       2.837   2.649  -1.477  0.00  0.00    -0.166 F 
ATOM     27  C   UNL     1       3.797   1.959  -0.794  0.00  0.00    +0.419 C 
ENDBRANCH  21  27
ENDBRANCH  10  18
TORSDOF 3
