3089
  -OEChem-10051721593D

 51 53  0     1  0  0  0  0  0999 V2000
    3.8105    0.6114   -0.9237 S   0  0  0  0  0  0  0  0  0  0  0  0
   -1.8188    2.6125    1.1308 S   0  0  0  0  0  0  0  0  0  0  0  0
    3.6079   -0.3482   -2.0036 O   0  0  0  0  0  0  0  0  0  0  0  0
    4.6292    1.7900   -1.1859 O   0  0  0  0  0  0  0  0  0  0  0  0
   -1.2972   -0.1108   -0.2747 N   0  0  0  0  0  0  0  0  0  0  0  0
   -0.2315   -3.6303    0.4073 N   0  0  0  0  0  0  0  0  0  0  0  0
    4.4562   -0.2220    0.4481 N   0  0  0  0  0  0  0  0  0  0  0  0
   -0.4274   -2.2074    0.6912 C   0  0  1  0  0  0  0  0  0  0  0  0
   -1.0629   -1.5376   -0.5315 C   0  0  0  0  0  0  0  0  0  0  0  0
   -0.1593    0.7156   -0.0935 C   0  0  0  0  0  0  0  0  0  0  0  0
   -2.6399    0.3443   -0.2949 C   0  0  0  0  0  0  0  0  0  0  0  0
   -0.2716    1.9839    0.5096 C   0  0  0  0  0  0  0  0  0  0  0  0
   -1.2961   -2.0714    1.9417 C   0  0  0  0  0  0  0  0  0  0  0  0
    1.1243    0.3284   -0.5369 C   0  0  0  0  0  0  0  0  0  0  0  0
   -2.9980    1.5759    0.2886 C   0  0  0  0  0  0  0  0  0  0  0  0
    2.2436    1.1484   -0.3704 C   0  0  0  0  0  0  0  0  0  0  0  0
    0.8589    2.8030    0.6792 C   0  0  0  0  0  0  0  0  0  0  0  0
   -3.6686   -0.3888   -0.9260 C   0  0  0  0  0  0  0  0  0  0  0  0
    2.1113    2.3859    0.2411 C   0  0  0  0  0  0  0  0  0  0  0  0
    0.5968   -3.8025   -0.7850 C   0  0  0  0  0  0  0  0  0  0  0  0
   -1.5207   -4.2980    0.2365 C   0  0  0  0  0  0  0  0  0  0  0  0
   -4.3298    2.0262    0.2589 C   0  0  0  0  0  0  0  0  0  0  0  0
   -4.9897    0.0658   -0.9570 C   0  0  0  0  0  0  0  0  0  0  0  0
   -5.3213    1.2731   -0.3613 C   0  0  0  0  0  0  0  0  0  0  0  0
    4.6287    0.5521    1.7036 C   0  0  0  0  0  0  0  0  0  0  0  0
    3.9654   -1.5994    0.7075 C   0  0  0  0  0  0  0  0  0  0  0  0
    0.5487   -1.7792    0.9375 H   0  0  0  0  0  0  0  0  0  0  0  0
   -0.4794   -1.6269   -1.4529 H   0  0  0  0  0  0  0  0  0  0  0  0
   -1.9819   -2.0634   -0.7529 H   0  0  0  0  0  0  0  0  0  0  0  0
   -2.3627   -2.2310    1.7513 H   0  0  0  0  0  0  0  0  0  0  0  0
   -0.9720   -2.7533    2.7367 H   0  0  0  0  0  0  0  0  0  0  0  0
   -1.2040   -1.0583    2.3512 H   0  0  0  0  0  0  0  0  0  0  0  0
    1.2740   -0.6242   -1.0348 H   0  0  0  0  0  0  0  0  0  0  0  0
    0.7748    3.7772    1.1570 H   0  0  0  0  0  0  0  0  0  0  0  0
   -3.4963   -1.3037   -1.4826 H   0  0  0  0  0  0  0  0  0  0  0  0
    2.9647    3.0404    0.3910 H   0  0  0  0  0  0  0  0  0  0  0  0
    1.5024   -3.1876   -0.7399 H   0  0  0  0  0  0  0  0  0  0  0  0
    0.0772   -3.6094   -1.7295 H   0  0  0  0  0  0  0  0  0  0  0  0
    0.9419   -4.8426   -0.8292 H   0  0  0  0  0  0  0  0  0  0  0  0
   -1.3289   -5.3736    0.1214 H   0  0  0  0  0  0  0  0  0  0  0  0
   -2.0874   -4.0133   -0.6545 H   0  0  0  0  0  0  0  0  0  0  0  0
   -2.1695   -4.2424    1.1148 H   0  0  0  0  0  0  0  0  0  0  0  0
   -4.6092    2.9720    0.7188 H   0  0  0  0  0  0  0  0  0  0  0  0
   -5.7531   -0.5191   -1.4620 H   0  0  0  0  0  0  0  0  0  0  0  0
   -6.3457    1.6317   -0.3841 H   0  0  0  0  0  0  0  0  0  0  0  0
    5.0167    1.5520    1.4909 H   0  0  0  0  0  0  0  0  0  0  0  0
    5.3620    0.0503    2.3430 H   0  0  0  0  0  0  0  0  0  0  0  0
    3.6832    0.6322    2.2472 H   0  0  0  0  0  0  0  0  0  0  0  0
    3.9606   -2.1889   -0.2129 H   0  0  0  0  0  0  0  0  0  0  0  0
    2.9612   -1.5780    1.1374 H   0  0  0  0  0  0  0  0  0  0  0  0
    4.6378   -2.1032    1.4092 H   0  0  0  0  0  0  0  0  0  0  0  0
  1  3  2  0  0  0  0
  1  4  2  0  0  0  0
  1  7  1  0  0  0  0
  1 16  1  0  0  0  0
  2 12  1  0  0  0  0
  2 15  1  0  0  0  0
  5  9  1  0  0  0  0
  5 10  1  0  0  0  0
  5 11  1  0  0  0  0
  6  8  1  0  0  0  0
  6 20  1  0  0  0  0
  6 21  1  0  0  0  0
  7 25  1  0  0  0  0
  7 26  1  0  0  0  0
  8  9  1  0  0  0  0
  8 13  1  0  0  0  0
  8 27  1  0  0  0  0
  9 28  1  0  0  0  0
  9 29  1  0  0  0  0
 10 12  2  0  0  0  0
 10 14  1  0  0  0  0
 11 15  1  0  0  0  0
 11 18  2  0  0  0  0
 12 17  1  0  0  0  0
 13 30  1  0  0  0  0
 13 31  1  0  0  0  0
 13 32  1  0  0  0  0
 14 16  2  0  0  0  0
 14 33  1  0  0  0  0
 15 22  2  0  0  0  0
 16 19  1  0  0  0  0
 17 19  2  0  0  0  0
 17 34  1  0  0  0  0
 18 23  1  0  0  0  0
 18 35  1  0  0  0  0
 19 36  1  0  0  0  0
 20 37  1  0  0  0  0
 20 38  1  0  0  0  0
 20 39  1  0  0  0  0
 21 40  1  0  0  0  0
 21 41  1  0  0  0  0
 21 42  1  0  0  0  0
 22 24  1  0  0  0  0
 22 43  1  0  0  0  0
 23 24  2  0  0  0  0
 23 44  1  0  0  0  0
 24 45  1  0  0  0  0
 25 46  1  0  0  0  0
 25 47  1  0  0  0  0
 25 48  1  0  0  0  0
 26 49  1  0  0  0  0
 26 50  1  0  0  0  0
 26 51  1  0  0  0  0
M  END
> <DATABASE_ID>
DB08967

> <DATABASE_NAME>
drugbank

> <ORIGINAL_SOURCE>
PUBCHEM

> <ORIGINAL_SOURCE_URL>
https://pubchem.ncbi.nlm.nih.gov/rest/pug/compound/inchikey/VWNWVCJGUMZDIU-UHFFFAOYSA-N/SDF?record_type=3d

> <SMILES>
CC(CN1C2=CC=CC=C2SC2=C1C=C(C=C2)S(=O)(=O)N(C)C)N(C)C

> <INCHI_IDENTIFIER>
InChI=1S/C19H25N3O2S2/c1-14(20(2)3)13-22-16-8-6-7-9-18(16)25-19-11-10-15(12-17(19)22)26(23,24)21(4)5/h6-12,14H,13H2,1-5H3

> <INCHI_KEY>
VWNWVCJGUMZDIU-UHFFFAOYSA-N

> <FORMULA>
C19H25N3O2S2

> <MOLECULAR_WEIGHT>
391.55

> <EXACT_MASS>
391.138819405

> <JCHEM_ACCEPTOR_COUNT>
4

> <JCHEM_ATOM_COUNT>
51

> <JCHEM_AVERAGE_POLARIZABILITY>
41.7854832140316

> <JCHEM_BIOAVAILABILITY>
1

> <JCHEM_DONOR_COUNT>
0

> <JCHEM_FORMAL_CHARGE>
0

> <JCHEM_GHOSE_FILTER>
1

> <JCHEM_IUPAC>
10-[2-(dimethylamino)propyl]-N,N-dimethyl-10H-phenothiazine-2-sulfonamide

> <ALOGPS_LOGP>
3.47

> <JCHEM_LOGP>
3.3409537526666657

> <ALOGPS_LOGS>
-3.78

> <JCHEM_MDDR_LIKE_RULE>
0

> <JCHEM_NUMBER_OF_RINGS>
3

> <JCHEM_PHYSIOLOGICAL_CHARGE>
1

> <JCHEM_PKA_STRONGEST_BASIC>
8.991057515337458

> <JCHEM_POLAR_SURFACE_AREA>
43.86

> <JCHEM_REFRACTIVITY>
110.45619999999997

> <JCHEM_ROTATABLE_BOND_COUNT>
4

> <JCHEM_RULE_OF_FIVE>
1

> <ALOGPS_SOLUBILITY>
6.47e-02 g/l

> <JCHEM_TRADITIONAL_IUPAC>
dimethothiazine

> <JCHEM_VEBER_RULE>
0

> <DRUGBANK_ID>
DB08967

> <DRUG_GROUPS>
approved

> <GENERIC_NAME>
Dimetotiazine

> <SALTS>
Fonazine mesylate

$$$$
