REMARK  Name = 46937116
REMARK  4 active torsions:
REMARK  status: ('A' for Active; 'I' for Inactive)
REMARK    1  A    between atoms: N_3  and  C_15
REMARK    2  A    between atoms: N_4  and  C_8
REMARK    3  A    between atoms: N_4  and  O_13
REMARK    4  A    between atoms: C_15  and  C_19
REMARK                            x       y       z     vdW  Elec       q    Type
REMARK                         _______ _______ _______ _____ _____    ______ ____
ROOT
ATOM      1  F   UNL     1       3.813   3.306  -1.337  0.00  0.00    -0.204 F 
ATOM      2  O   UNL     1       1.537  -2.930   1.289  0.00  0.00    -0.273 OA
ATOM      3  N   UNL     1       0.845  -0.670   1.036  0.00  0.00    -0.253 N 
ATOM      4  C   UNL     1       1.456   0.465   0.468  0.00  0.00    +0.052 C 
ATOM      5  C   UNL     1       2.717   0.141  -0.032  0.00  0.00    +0.021 C 
ATOM      6  C   UNL     1       1.670  -1.778   0.936  0.00  0.00    +0.252 C 
ATOM      7  C   UNL     1       2.909  -1.271   0.237  0.00  0.00    +0.202 C 
ATOM      8  C   UNL     1       0.971   1.756   0.365  0.00  0.00    +0.017 C 
ATOM      9  C   UNL     1       3.541   1.061  -0.644  0.00  0.00    +0.029 C 
ATOM     10  C   UNL     1       1.787   2.710  -0.252  0.00  0.00    +0.031 C 
ATOM     11  C   UNL     1       3.059   2.366  -0.751  0.00  0.00    +0.140 C 
ENDROOT
BRANCH   7  12
ATOM     12  N   UNL     1       3.928  -2.000  -0.048  0.00  0.00    -0.075 NA
BRANCH  12  13
ATOM     13  O   UNL     1       4.881  -1.202  -0.688  0.00  0.00    -0.294 OA
ATOM     14  H   UNL     1       5.694  -1.576  -0.967  0.00  0.00    +0.238 HD
ENDBRANCH  12  13
ENDBRANCH   7  12
BRANCH   3  15
ATOM     15  C   UNL     1      -0.468  -0.649   1.636  0.00  0.00    +0.128 C 
BRANCH  15  19
ATOM     16  F   UNL     1      -2.644  -3.099  -1.957  0.00  0.00    -0.204 F 
ATOM     17  O   UNL     1      -2.429   1.317   1.309  0.00  0.00    -0.448 OA
ATOM     18  O   UNL     1      -4.069   2.414  -0.059  0.00  0.00    -0.311 OA
ATOM     19  C   UNL     1      -1.557  -0.760   0.608  0.00  0.00    +0.034 C 
ATOM     20  C   UNL     1      -2.524   0.236   0.470  0.00  0.00    +0.138 C 
ATOM     21  C   UNL     1      -3.523   0.124  -0.504  0.00  0.00    +0.043 C 
ATOM     22  C   UNL     1      -1.599  -1.886  -0.214  0.00  0.00    +0.030 C 
ATOM     23  C   UNL     1      -4.553   1.205  -0.640  0.00  0.00    +0.176 C 
ATOM     24  C   UNL     1      -3.565  -1.014  -1.316  0.00  0.00    +0.031 C 
ATOM     25  C   UNL     1      -2.603  -2.014  -1.172  0.00  0.00    +0.140 C 
ATOM     26  C   UNL     1      -3.579   2.169   1.258  0.00  0.00    +0.361 C 
ENDBRANCH  15  19
ENDBRANCH   3  15
TORSDOF 4
