REMARK  Name = 3815
REMARK  0 active torsions:
REMARK  status: ('A' for Active; 'I' for Inactive)
REMARK                            x       y       z     vdW  Elec       q    Type
REMARK                         _______ _______ _______ _____ _____    ______ ____
ROOT
ATOM      1  O   UNL     1      -2.397   3.207  -0.001  0.00  0.00    -0.270 OA
ATOM      2  N   UNL     1       1.596  -1.995  -0.001  0.00  0.00    -0.352 N 
ATOM      3  N   UNL     1      -1.188  -2.142  -0.001  0.00  0.00    -0.352 N 
ATOM      4  N   UNL     1      -0.121   3.780   0.001  0.00  0.00    -0.297 N 
ATOM      5  C   UNL     1       0.727   1.660   0.000  0.00  0.00    +0.003 A 
ATOM      6  C   UNL     1       1.404   0.441  -0.001  0.00  0.00    +0.016 A 
ATOM      7  C   UNL     1      -1.258   0.304  -0.001  0.00  0.00    +0.022 A 
ATOM      8  C   UNL     1       0.838  -0.874  -0.001  0.00  0.00    +0.072 A 
ATOM      9  C   UNL     1      -0.668   1.568  -0.001  0.00  0.00    +0.053 A 
ATOM     10  C   UNL     1      -0.557  -0.947  -0.001  0.00  0.00    +0.073 A 
ATOM     11  C   UNL     1       1.155   3.089   0.001  0.00  0.00    +0.117 C 
ATOM     12  C   UNL     1       2.798  -0.015   0.000  0.00  0.00    +0.017 A 
ATOM     13  C   UNL     1      -2.599  -0.302   0.000  0.00  0.00    +0.017 A 
ATOM     14  C   UNL     1       2.872  -1.447   0.000  0.00  0.00    +0.057 A 
ATOM     15  C   UNL     1      -2.514  -1.736   0.000  0.00  0.00    +0.057 A 
ATOM     16  C   UNL     1      -1.216   2.919   0.000  0.00  0.00    +0.246 C 
ATOM     17  C   UNL     1       4.016   0.706   0.001  0.00  0.00    +0.001 C 
ATOM     18  C   UNL     1      -3.896   0.266   0.000  0.00  0.00    +0.001 C 
ATOM     19  C   UNL     1       4.103  -2.118   0.000  0.00  0.00    +0.017 C 
ATOM     20  C   UNL     1      -3.661  -2.544   0.001  0.00  0.00    +0.017 C 
ATOM     21  C   UNL     1       5.238   0.026   0.001  0.00  0.00    +0.000 C 
ATOM     22  C   UNL     1      -5.033  -0.549   0.002  0.00  0.00    +0.000 C 
ATOM     23  C   UNL     1       5.278  -1.363   0.001  0.00  0.00    +0.001 C 
ATOM     24  C   UNL     1      -4.915  -1.933   0.002  0.00  0.00    +0.001 C 
ATOM     25  H   UNL     1       1.320  -2.940  -0.001  0.00  0.00    +0.166 HD
ATOM     26  H   UNL     1      -0.811  -3.051  -0.002  0.00  0.00    +0.166 HD
ATOM     27  H   UNL     1      -0.205   4.761   0.001  0.00  0.00    +0.150 HD
ENDROOT
TORSDOF 0
