REMARK  Name = 6603901
REMARK  14 active torsions:
REMARK  status: ('A' for Active; 'I' for Inactive)
REMARK    1  A    between atoms: C_1  and  O_2
REMARK    2  A    between atoms: C_1  and  C_17
REMARK    3  A    between atoms: O_2  and  C_4
REMARK    4  A    between atoms: C_3  and  C_14
REMARK    5  A    between atoms: C_5  and  O_12
REMARK    6  A    between atoms: C_6  and  C_10
REMARK    7  A    between atoms: C_14  and  C_15
REMARK    8  A    between atoms: C_17  and  C_18
REMARK    9  A    between atoms: C_18  and  O_19
REMARK   10  A    between atoms: O_19  and  C_20
REMARK   11  A    between atoms: C_23  and  O_26
REMARK   12  A    between atoms: O_26  and  C_27
REMARK   13  A    between atoms: C_27  and  C_29
REMARK   14  A    between atoms: C_29  and  O_30
REMARK                            x       y       z     vdW  Elec       q    Type
REMARK                         _______ _______ _______ _____ _____    ______ ____
ROOT
ATOM      1  C   UNL     1      -2.597   3.027  -0.371  0.00  0.00    +0.209 C 
ENDROOT
BRANCH   1   2
ATOM      2  O   UNL     1      -2.461   2.026   0.629  0.00  0.00    -0.476 OA
BRANCH   2   4
ATOM      3  C   UNL     1      -1.931  -0.300   0.876  0.00  0.00    +0.045 C 
ATOM      4  C   UNL     1      -2.610   0.725   0.226  0.00  0.00    +0.137 C 
ATOM      5  C   UNL     1      -2.094  -1.618   0.450  0.00  0.00    +0.135 C 
ATOM      6  C   UNL     1      -2.935  -1.904  -0.625  0.00  0.00    +0.068 C 
ATOM      7  C   UNL     1      -3.451   0.446  -0.847  0.00  0.00    +0.037 C 
ATOM      8  C   UNL     1      -3.614  -0.872  -1.273  0.00  0.00    +0.009 C 
BRANCH   6  10
ATOM      9  O   UNL     1      -2.537  -4.227  -0.540  0.00  0.00    -0.291 OA
ATOM     10  C   UNL     1      -3.122  -3.273  -1.087  0.00  0.00    +0.176 C 
ATOM     11  C   UNL     1      -4.045  -3.565  -2.263  0.00  0.00    +0.077 C 
ENDBRANCH   6  10
BRANCH   5  12
ATOM     12  O   UNL     1      -1.430  -2.626   1.086  0.00  0.00    -0.506 OA
ATOM     13  H   UNL     1      -0.865  -2.433   1.808  0.00  0.00    +0.292 HD
ENDBRANCH   5  12
BRANCH   3  14
ATOM     14  C   UNL     1      -1.029   0.009   2.029  0.00  0.00    +0.033 C 
BRANCH  14  15
ATOM     15  C   UNL     1      -1.772  -0.026   3.370  0.00  0.00    +0.005 C 
ATOM     16  C   UNL     1      -0.843   0.257   4.539  0.00  0.00    +0.000 C 
ENDBRANCH  14  15
ENDBRANCH   3  14
ENDBRANCH   2   4
ENDBRANCH   1   2
BRANCH   1  17
ATOM     17  C   UNL     1      -1.752   4.238  -0.006  0.00  0.00    +0.095 C 
BRANCH  17  18
ATOM     18  C   UNL     1      -0.281   3.886   0.132  0.00  0.00    +0.209 C 
BRANCH  18  19
ATOM     19  O   UNL     1       0.190   3.381  -1.110  0.00  0.00    -0.475 OA
BRANCH  19  20
ATOM     20  C   UNL     1       1.195   2.450  -1.058  0.00  0.00    +0.139 C 
ATOM     21  C   UNL     1       2.110   2.483  -0.012  0.00  0.00    +0.040 C 
ATOM     22  C   UNL     1       1.289   1.483  -2.052  0.00  0.00    +0.040 C 
ATOM     23  C   UNL     1       3.233   0.563  -0.954  0.00  0.00    +0.140 C 
ATOM     24  C   UNL     1       3.133   1.536   0.040  0.00  0.00    +0.040 C 
ATOM     25  C   UNL     1       2.311   0.536  -2.000  0.00  0.00    +0.040 C 
BRANCH  23  26
ATOM     26  O   UNL     1       4.231  -0.361  -0.902  0.00  0.00    -0.464 OA
BRANCH  26  27
ATOM     27  C   UNL     1       4.707  -0.732   0.391  0.00  0.00    +0.314 C 
BRANCH  27  29
ATOM     28  O   UNL     1       5.198  -2.892  -0.609  0.00  0.00    -0.246 OA
ATOM     29  C   UNL     1       5.211  -2.148   0.361  0.00  0.00    +0.359 C 
BRANCH  29  30
ATOM     30  O   UNL     1       5.695  -2.499   1.579  0.00  0.00    -0.478 OA
ATOM     31  H   UNL     1       5.677  -1.884   2.285  0.00  0.00    +0.295 HD
ENDBRANCH  29  30
ENDBRANCH  27  29
ENDBRANCH  26  27
ENDBRANCH  23  26
ENDBRANCH  19  20
ENDBRANCH  18  19
ENDBRANCH  17  18
ENDBRANCH   1  17
TORSDOF 14
