REMARK  Name = 449243
REMARK  10 active torsions:
REMARK  status: ('A' for Active; 'I' for Inactive)
REMARK    1  A    between atoms: N_2  and  C_17
REMARK    2  A    between atoms: C_3  and  C_5
REMARK    3  A    between atoms: C_5  and  C_6
REMARK    4  A    between atoms: C_6  and  C_7
REMARK    5  A    between atoms: C_7  and  C_10
REMARK    6  A    between atoms: N_9  and  C_12
REMARK    7  A    between atoms: C_12  and  C_14
REMARK    8  A    between atoms: C_14  and  O_15
REMARK    9  A    between atoms: C_17  and  C_18
REMARK   10  A    between atoms: C_23  and  N_26
REMARK                            x       y       z     vdW  Elec       q    Type
REMARK                         _______ _______ _______ _____ _____    ______ ____
ROOT
ATOM      1  O   UNL     1      -2.016   2.687  -0.763  0.00  0.00    -0.275 OA
ATOM      2  N   UNL     1      -1.378   1.848   1.304  0.00  0.00    -0.300 N 
ATOM      3  C   UNL     1      -2.229   1.978   0.216  0.00  0.00    +0.223 C 
ATOM      4  H   UNL     1      -1.638   1.253   2.044  0.00  0.00    +0.150 HD
ENDROOT
BRANCH   3   5
ATOM      5  C   UNL     1      -3.492   1.149   0.389  0.00  0.00    +0.086 C 
BRANCH   5   6
ATOM      6  C   UNL     1      -4.089   0.655  -0.930  0.00  0.00    +0.019 C 
BRANCH   6   7
ATOM      7  C   UNL     1      -3.119  -0.189  -1.759  0.00  0.00    +0.086 C 
BRANCH   7  10
ATOM      8  O   UNL     1      -3.447  -2.356  -0.728  0.00  0.00    -0.275 OA
ATOM      9  N   UNL     1      -1.295  -1.496  -0.892  0.00  0.00    -0.295 N 
ATOM     10  C   UNL     1      -2.671  -1.466  -1.065  0.00  0.00    +0.223 C 
ATOM     11  H   UNL     1      -0.768  -0.724  -1.202  0.00  0.00    +0.150 HD
BRANCH   9  12
ATOM     12  C   UNL     1      -0.597  -2.604  -0.282  0.00  0.00    +0.200 C 
BRANCH  12  14
ATOM     13  O   UNL     1       0.111  -3.284   1.917  0.00  0.00    -0.248 OA
ATOM     14  C   UNL     1      -0.456  -2.458   1.212  0.00  0.00    +0.334 C 
BRANCH  14  15
ATOM     15  O   UNL     1      -1.018  -1.327   1.700  0.00  0.00    -0.479 OA
ATOM     16  H   UNL     1      -1.441  -0.726   1.119  0.00  0.00    +0.295 HD
ENDBRANCH  14  15
ENDBRANCH  12  14
ENDBRANCH   9  12
ENDBRANCH   7  10
ENDBRANCH   6   7
ENDBRANCH   5   6
ENDBRANCH   3   5
BRANCH   2  17
ATOM     17  C   UNL     1      -0.123   2.557   1.388  0.00  0.00    +0.116 C 
BRANCH  17  18
ATOM     18  C   UNL     1       1.008   1.770   0.791  0.00  0.00    -0.002 C 
ATOM     19  C   UNL     1       1.319   1.911  -0.562  0.00  0.00    -0.001 C 
ATOM     20  C   UNL     1       1.749   0.898   1.589  0.00  0.00    -0.001 C 
ATOM     21  C   UNL     1       2.370   1.181  -1.116  0.00  0.00    +0.024 C 
ATOM     22  C   UNL     1       2.800   0.168   1.035  0.00  0.00    +0.024 C 
ATOM     23  C   UNL     1       3.111   0.310  -0.318  0.00  0.00    +0.143 C 
BRANCH  23  26
ATOM     24  O   UNL     1       4.445  -0.290  -2.100  0.00  0.00    -0.126 OA
ATOM     25  O   UNL     1       4.836  -1.211  -0.146  0.00  0.00    -0.126 OA
ATOM     26  N   UNL     1       4.182  -0.433  -0.881  0.00  0.00    +0.058 N 
ENDBRANCH  23  26
ENDBRANCH  17  18
ENDBRANCH   2  17
TORSDOF 10
