REMARK  Name = 46937177
REMARK  11 active torsions:
REMARK  status: ('A' for Active; 'I' for Inactive)
REMARK    1  A    between atoms: C_1  and  O_2
REMARK    2  A    between atoms: C_1  and  C_4
REMARK    3  A    between atoms: C_1  and  C_12
REMARK    4  A    between atoms: C_4  and  C_6
REMARK    5  A    between atoms: C_6  and  C_7
REMARK    6  A    between atoms: C_7  and  C_9
REMARK    7  A    between atoms: C_9  and  O_10
REMARK    8  A    between atoms: C_12  and  C_15
REMARK    9  A    between atoms: C_15  and  C_16
REMARK   10  A    between atoms: C_16  and  P_17
REMARK   11  A    between atoms: P_17  and  O_20
REMARK                            x       y       z     vdW  Elec       q    Type
REMARK                         _______ _______ _______ _____ _____    ______ ____
ROOT
ATOM      1  C   UNL     1      -0.941  -1.957  -0.269  0.00  0.00    +0.117 C 
ENDROOT
BRANCH   1   2
ATOM      2  O   UNL     1      -1.855  -2.815   0.422  0.00  0.00    -0.384 OA
ATOM      3  H   UNL     1      -2.663  -2.919  -0.106  0.00  0.00    +0.210 HD
ENDBRANCH   1   2
BRANCH   1   4
ATOM      4  C   UNL     1      -1.657  -0.633  -0.655  0.00  0.00    +0.027 C 
ATOM      5  C   UNL     1      -2.927  -0.951  -1.459  0.00  0.00    +0.002 C 
BRANCH   4   6
ATOM      6  C   UNL     1      -1.986   0.250   0.574  0.00  0.00    +0.005 C 
BRANCH   6   7
ATOM      7  C   UNL     1      -2.679   1.599   0.270  0.00  0.00    +0.029 C 
ATOM      8  C   UNL     1      -3.021   2.366   1.550  0.00  0.00    +0.003 C 
BRANCH   7   9
ATOM      9  C   UNL     1      -1.798   2.451  -0.661  0.00  0.00    +0.137 C 
BRANCH   9  10
ATOM     10  O   UNL     1      -0.585   2.847  -0.036  0.00  0.00    -0.382 OA
ATOM     11  H   UNL     1      -0.061   3.379  -0.655  0.00  0.00    +0.210 HD
ENDBRANCH   9  10
ENDBRANCH   7   9
ENDBRANCH   6   7
ENDBRANCH   4   6
ENDBRANCH   1   4
BRANCH   1  12
ATOM     12  C   UNL     1       0.337  -1.806   0.588  0.00  0.00    +0.085 C 
ATOM     13  C   UNL     1       0.967  -3.137   0.986  0.00  0.00    +0.010 C 
BRANCH  12  15
ATOM     14  O   UNL     1       1.467  -1.018  -1.402  0.00  0.00    -0.295 OA
ATOM     15  C   UNL     1       1.391  -0.998  -0.174  0.00  0.00    +0.162 C 
BRANCH  15  16
ATOM     16  C   UNL     1       2.317  -0.143   0.658  0.00  0.00    +0.147 C 
BRANCH  16  17
ATOM     17  P   UNL     1       3.547   0.758  -0.306  0.00  0.00    +0.207 P 
ATOM     18  O   UNL     1       2.894   1.939  -0.978  0.00  0.00    -0.293 OA
ATOM     19  H   UNL     1       4.660   0.102  -0.792  0.00  0.00    +0.129 HD
BRANCH  17  20
ATOM     20  O   UNL     1       4.529   1.249   0.894  0.00  0.00    -0.345 OA
ATOM     21  H   UNL     1       4.031   1.806   1.512  0.00  0.00    +0.217 HD
ENDBRANCH  17  20
ENDBRANCH  16  17
ENDBRANCH  15  16
ENDBRANCH  12  15
ENDBRANCH   1  12
TORSDOF 11
