REMARK  Name = 6102824
REMARK  5 active torsions:
REMARK  status: ('A' for Active; 'I' for Inactive)
REMARK    1  A    between atoms: C_3  and  C_22
REMARK    2  A    between atoms: C_4  and  C_16
REMARK    3  A    between atoms: C_6  and  C_10
REMARK    4  A    between atoms: C_22  and  N_23
REMARK    5  A    between atoms: C_22  and  C_27
REMARK                            x       y       z     vdW  Elec       q    Type
REMARK                         _______ _______ _______ _____ _____    ______ ____
ROOT
ATOM      1  O   UNL     1      -3.174   0.495  -1.202  0.00  0.00    -0.277 OA
ATOM      2  N   UNL     1      -0.933   0.336  -0.639  0.00  0.00    -0.271 N 
ATOM      3  C   UNL     1      -2.127   1.021  -0.824  0.00  0.00    +0.206 C 
ATOM      4  C   UNL     1      -0.775  -1.076  -0.999  0.00  0.00    +0.120 C 
ATOM      5  C   UNL     1       0.327   0.930  -0.192  0.00  0.00    +0.120 C 
ATOM      6  C   UNL     1       1.321  -0.176  -0.388  0.00  0.00    -0.002 C 
ATOM      7  C   UNL     1       0.704  -1.279  -0.843  0.00  0.00    -0.005 C 
ENDROOT
BRANCH   6  10
ATOM      8  F   UNL     1       3.342  -1.584  -1.788  0.00  0.00    -0.204 F 
ATOM      9  F   UNL     1       4.934   1.898   2.119  0.00  0.00    -0.204 F 
ATOM     10  C   UNL     1       2.759  -0.007  -0.106  0.00  0.00    +0.027 C 
ATOM     11  C   UNL     1       3.720  -0.728  -0.828  0.00  0.00    +0.140 C 
ATOM     12  C   UNL     1       3.182   0.881   0.892  0.00  0.00    +0.032 C 
ATOM     13  C   UNL     1       4.540   1.046   1.163  0.00  0.00    +0.140 C 
ATOM     14  C   UNL     1       5.078  -0.563  -0.557  0.00  0.00    +0.032 C 
ATOM     15  C   UNL     1       5.488   0.324   0.439  0.00  0.00    +0.032 C 
ENDBRANCH   6  10
BRANCH   4  16
ATOM     16  C   UNL     1      -1.588  -2.019  -0.137  0.00  0.00    -0.000 C 
ATOM     17  C   UNL     1      -1.978  -3.261  -0.638  0.00  0.00    -0.002 C 
ATOM     18  C   UNL     1      -1.946  -1.646   1.159  0.00  0.00    -0.002 C 
ATOM     19  C   UNL     1      -2.727  -4.130   0.156  0.00  0.00    -0.000 C 
ATOM     20  C   UNL     1      -2.695  -2.515   1.952  0.00  0.00    -0.000 C 
ATOM     21  C   UNL     1      -3.085  -3.756   1.451  0.00  0.00    -0.000 C 
ENDBRANCH   4  16
BRANCH   3  22
ATOM     22  C   UNL     1      -2.081   2.499  -0.528  0.00  0.00    +0.013 C 
BRANCH  22  23
ATOM     23  N   UNL     1      -1.666   3.159  -1.756  0.00  0.00    +0.387 N 
ATOM     24  H   UNL     1      -1.621   4.166  -1.602  0.00  0.00    -0.089 HD
ATOM     25  H   UNL     1      -2.340   2.958  -2.494  0.00  0.00    -0.089 HD
ATOM     26  H   UNL     1      -0.746   2.816  -2.032  0.00  0.00    -0.089 HD
ENDBRANCH  22  23
BRANCH  22  27
ATOM     27  C   UNL     1      -3.405   3.011  -0.069  0.00  0.00    -0.011 C 
ATOM     28  C   UNL     1      -3.764   2.898   1.379  0.00  0.00    -0.002 C 
ATOM     29  C   UNL     1      -3.450   4.240   0.784  0.00  0.00    -0.002 C 
ENDBRANCH  22  27
ENDBRANCH   3  22
TORSDOF 5
