REMARK  Name = 5326868
REMARK  6 active torsions:
REMARK  status: ('A' for Active; 'I' for Inactive)
REMARK    1  A    between atoms: C_2  and  C_28
REMARK    2  A    between atoms: C_7  and  N_12
REMARK    3  A    between atoms: C_13  and  C_18
REMARK    4  A    between atoms: C_16  and  N_23
REMARK    5  A    between atoms: C_28  and  C_29
REMARK    6  A    between atoms: C_29  and  C_31
REMARK                            x       y       z     vdW  Elec       q    Type
REMARK                         _______ _______ _______ _____ _____    ______ ____
ROOT
ATOM      1  N   UNL     1      -5.999  -1.460   0.100  0.00  0.00    -0.312 N 
ATOM      2  C   UNL     1      -4.930   0.156  -0.984  0.00  0.00    -0.006 C 
ATOM      3  C   UNL     1      -3.960  -0.724  -0.427  0.00  0.00    +0.012 C 
ATOM      4  C   UNL     1      -4.657  -1.728   0.248  0.00  0.00    +0.048 C 
ATOM      5  C   UNL     1      -6.174  -0.323  -0.643  0.00  0.00    +0.058 C 
ATOM      6  C   UNL     1      -2.551  -0.761  -0.431  0.00  0.00    +0.016 C 
ATOM      7  C   UNL     1      -1.894  -1.800   0.237  0.00  0.00    +0.051 C 
ATOM      8  C   UNL     1      -4.013  -2.773   0.921  0.00  0.00    +0.016 C 
ATOM      9  C   UNL     1      -2.615  -2.790   0.902  0.00  0.00    +0.016 C 
ATOM     10  H   UNL     1      -6.727  -2.006   0.474  0.00  0.00    +0.152 HD
ENDROOT
BRANCH   7  12
ATOM     11  O   UNL     1       0.103   0.050  -1.020  0.00  0.00    -0.270 OA
ATOM     12  N   UNL     1      -0.498  -1.844   0.238  0.00  0.00    -0.280 N 
ATOM     13  C   UNL     1       0.392  -0.949  -0.369  0.00  0.00    +0.250 C 
ATOM     14  H   UNL     1      -0.090  -2.596   0.724  0.00  0.00    +0.155 HD
BRANCH  13  18
ATOM     15  F   UNL     1       3.926  -4.186   0.276  0.00  0.00    -0.204 F 
ATOM     16  C   UNL     1       4.111  -0.573  -0.110  0.00  0.00    +0.050 C 
ATOM     17  C   UNL     1       2.759  -0.260  -0.254  0.00  0.00    +0.019 C 
ATOM     18  C   UNL     1       1.833  -1.281  -0.214  0.00  0.00    +0.057 C 
ATOM     19  C   UNL     1       4.505  -1.899   0.069  0.00  0.00    +0.044 C 
ATOM     20  C   UNL     1       2.196  -2.600  -0.039  0.00  0.00    +0.034 C 
ATOM     21  C   UNL     1       3.547  -2.913   0.105  0.00  0.00    +0.142 C 
BRANCH  16  23
ATOM     22  O   UNL     1       7.092   2.390   0.024  0.00  0.00    -0.350 OA
ATOM     23  N   UNL     1       5.072   0.443  -0.147  0.00  0.00    -0.303 N 
ATOM     24  C   UNL     1       6.421   0.156  -0.647  0.00  0.00    +0.123 C 
ATOM     25  C   UNL     1       4.992   1.510   0.860  0.00  0.00    +0.123 C 
ATOM     26  C   UNL     1       7.106   1.456  -1.055  0.00  0.00    +0.164 C 
ATOM     27  C   UNL     1       5.751   2.738   0.370  0.00  0.00    +0.164 C 
ENDBRANCH  16  23
ENDBRANCH  13  18
ENDBRANCH   7  12
BRANCH   2  28
ATOM     28  C   UNL     1      -4.661   1.367  -1.785  0.00  0.00    +0.032 C 
BRANCH  28  29
ATOM     29  C   UNL     1      -4.520   2.664  -0.958  0.00  0.00    +0.031 C 
BRANCH  29  31
ATOM     30  N   UNL     1      -1.108   2.651   1.636  0.00  0.00    -0.242 NA
ATOM     31  C   UNL     1      -3.319   2.660  -0.045  0.00  0.00    -0.019 C 
ATOM     32  C   UNL     1      -3.445   2.172   1.241  0.00  0.00    +0.016 C 
ATOM     33  C   UNL     1      -2.111   3.144  -0.508  0.00  0.00    +0.016 C 
ATOM     34  C   UNL     1      -2.313   2.189   2.040  0.00  0.00    +0.099 C 
ATOM     35  C   UNL     1      -1.038   3.118   0.369  0.00  0.00    +0.099 C 
ENDBRANCH  29  31
ENDBRANCH  28  29
ENDBRANCH   2  28
TORSDOF 6
