REMARK  Name = 94280
REMARK  4 active torsions:
REMARK  status: ('A' for Active; 'I' for Inactive)
REMARK    1  A    between atoms: N_1  and  C_17
REMARK    2  A    between atoms: C_17  and  C_18
REMARK    3  A    between atoms: C_18  and  C_19
REMARK    4  A    between atoms: C_19  and  N_20
REMARK                            x       y       z     vdW  Elec       q    Type
REMARK                         _______ _______ _______ _____ _____    ______ ____
ROOT
ATOM      1  N   UNL     1      -0.142   0.314   0.384  0.00  0.00    -0.287 N 
ATOM      2  C   UNL     1       2.481  -0.680  -0.389  0.00  0.00    +0.040 C 
ATOM      3  C   UNL     1       1.300  -1.610  -0.045  0.00  0.00    -0.005 C 
ATOM      4  C   UNL     1       2.203   0.807  -0.087  0.00  0.00    -0.005 C 
ATOM      5  C   UNL     1       0.048  -1.085   0.346  0.00  0.00    +0.048 C 
ATOM      6  C   UNL     1       0.918   1.244   0.305  0.00  0.00    +0.048 C 
ATOM      7  C   UNL     1       3.715  -1.127   0.441  0.00  0.00    +0.009 C 
ATOM      8  C   UNL     1       2.788  -0.820  -1.898  0.00  0.00    +0.009 C 
ATOM      9  C   UNL     1       1.456  -3.012  -0.140  0.00  0.00    -0.003 C 
ATOM     10  C   UNL     1       3.240   1.759  -0.222  0.00  0.00    -0.003 C 
ATOM     11  C   UNL     1      -0.971  -1.997   0.700  0.00  0.00    +0.015 C 
ATOM     12  C   UNL     1       0.751   2.611   0.620  0.00  0.00    +0.015 C 
ATOM     13  C   UNL     1       0.425  -3.887   0.190  0.00  0.00    -0.000 C 
ATOM     14  C   UNL     1       3.038   3.105   0.069  0.00  0.00    -0.000 C 
ATOM     15  C   UNL     1      -0.787  -3.378   0.623  0.00  0.00    +0.001 C 
ATOM     16  C   UNL     1       1.795   3.530   0.503  0.00  0.00    +0.001 C 
ENDROOT
BRANCH   1  17
ATOM     17  C   UNL     1      -1.510   0.828   0.513  0.00  0.00    +0.093 C 
BRANCH  17  18
ATOM     18  C   UNL     1      -2.212   0.971  -0.836  0.00  0.00    -0.001 C 
BRANCH  18  19
ATOM     19  C   UNL     1      -3.657   1.472  -0.748  0.00  0.00    -0.076 C 
BRANCH  19  20
ATOM     20  N   UNL     1      -4.494   0.583   0.048  0.00  0.00    +0.384 N 
ATOM     21  C   UNL     1      -4.538  -0.754  -0.548  0.00  0.00    -0.101 C 
ATOM     22  C   UNL     1      -5.848   1.126   0.175  0.00  0.00    -0.101 C 
ATOM     23  H   UNL     1      -4.085   0.509   0.979  0.00  0.00    -0.080 HD
ENDBRANCH  19  20
ENDBRANCH  18  19
ENDBRANCH  17  18
ENDBRANCH   1  17
TORSDOF 4
