REMARK  Name = 54727975
REMARK  6 active torsions:
REMARK  status: ('A' for Active; 'I' for Inactive)
REMARK    1  A    between atoms: C_2  and  C_8
REMARK    2  A    between atoms: C_5  and  N_17
REMARK    3  A    between atoms: C_9  and  O_14
REMARK    4  A    between atoms: C_18  and  C_20
REMARK    5  A    between atoms: C_20  and  C_26
REMARK    6  A    between atoms: C_21  and  O_23
REMARK                            x       y       z     vdW  Elec       q    Type
REMARK                         _______ _______ _______ _____ _____    ______ ____
ROOT
ATOM      1 CL   UNL     1       0.631  -1.567  -2.416  0.00  0.00    -0.081 Cl
ATOM      2  C   UNL     1      -1.966   0.339  -0.056  0.00  0.00    +0.004 C 
ATOM      3  C   UNL     1      -1.405  -0.432  -1.075  0.00  0.00    +0.013 C 
ATOM      4  C   UNL     1      -1.144   0.934   0.901  0.00  0.00    +0.001 C 
ATOM      5  C   UNL     1       0.799  -0.011  -0.180  0.00  0.00    +0.061 C 
ATOM      6  C   UNL     1      -0.023  -0.607  -1.137  0.00  0.00    +0.071 C 
ATOM      7  C   UNL     1       0.238   0.759   0.839  0.00  0.00    +0.016 C 
ENDROOT
BRANCH   2   8
ATOM      8  C   UNL     1      -3.400   0.521   0.009  0.00  0.00    +0.034 C 
ATOM      9  C   UNL     1      -4.255  -0.573   0.146  0.00  0.00    +0.139 C 
ATOM     10  C   UNL     1      -3.925   1.811  -0.069  0.00  0.00    +0.003 C 
ATOM     11  C   UNL     1      -5.634  -0.377   0.205  0.00  0.00    +0.037 C 
ATOM     12  C   UNL     1      -5.305   2.007  -0.009  0.00  0.00    +0.000 C 
ATOM     13  C   UNL     1      -6.159   0.913   0.128  0.00  0.00    +0.003 C 
BRANCH   9  14
ATOM     14  O   UNL     1      -3.769  -1.845   0.224  0.00  0.00    -0.471 OA
ATOM     15  C   UNL     1      -4.724  -2.894   0.363  0.00  0.00    +0.252 C 
ENDBRANCH   9  14
ENDBRANCH   2   8
BRANCH   5  17
ATOM     16  O   UNL     1       2.909   1.045   1.667  0.00  0.00    -0.269 OA
ATOM     17  N   UNL     1       2.207  -0.168  -0.213  0.00  0.00    -0.279 N 
ATOM     18  C   UNL     1       3.135   0.351   0.681  0.00  0.00    +0.262 C 
ATOM     19  H   UNL     1       2.568  -0.706  -0.955  0.00  0.00    +0.155 HD
BRANCH  18  20
ATOM     20  C   UNL     1       4.549  -0.027   0.322  0.00  0.00    +0.151 C 
ATOM     21  C   UNL     1       5.245   0.777  -0.508  0.00  0.00    +0.126 C 
ATOM     22  C   UNL     1       6.654   0.533  -0.976  0.00  0.00    +0.072 C 
BRANCH  21  23
ATOM     23  O   UNL     1       4.692   1.951  -0.993  0.00  0.00    -0.509 OA
ATOM     24  H   UNL     1       3.817   2.190  -0.757  0.00  0.00    +0.292 HD
ENDBRANCH  21  23
BRANCH  20  26
ATOM     25  N   UNL     1       5.546  -2.210   1.293  0.00  0.00    -0.191 NA
ATOM     26  C   UNL     1       5.105  -1.230   0.855  0.00  0.00    +0.108 C 
ENDBRANCH  20  26
ENDBRANCH  18  20
ENDBRANCH   5  17
TORSDOF 6
