REMARK  Name = 3137930
REMARK  0 active torsions:
REMARK  status: ('A' for Active; 'I' for Inactive)
REMARK                            x       y       z     vdW  Elec       q    Type
REMARK                         _______ _______ _______ _____ _____    ______ ____
ROOT
ATOM      1  O   UNL     1       0.122  -2.587   0.137  0.00  0.00    -0.295 OA
ATOM      2  N   UNL     1       0.997   2.074   0.155  0.00  0.00    -0.252 NA
ATOM      3  N   UNL     1       2.846   0.559  -0.156  0.00  0.00    -0.234 NA
ATOM      4  N   UNL     1       2.530  -1.758  -0.193  0.00  0.00    -0.346 N 
ATOM      5  C   UNL     1      -2.234   0.221  -0.083  0.00  0.00    +0.012 C 
ATOM      6  C   UNL     1      -1.293   1.314   0.465  0.00  0.00    +0.042 C 
ATOM      7  C   UNL     1      -1.780  -1.156   0.434  0.00  0.00    +0.066 C 
ATOM      8  C   UNL     1      -3.663   0.497   0.423  0.00  0.00    +0.001 C 
ATOM      9  C   UNL     1      -2.264   0.240  -1.625  0.00  0.00    +0.001 C 
ATOM     10  C   UNL     1       0.160   1.013   0.225  0.00  0.00    +0.047 C 
ATOM     11  C   UNL     1      -0.309  -1.440   0.204  0.00  0.00    +0.162 C 
ATOM     12  C   UNL     1       0.615  -0.292   0.122  0.00  0.00    +0.146 C 
ATOM     13  C   UNL     1       1.974  -0.466  -0.073  0.00  0.00    +0.111 C 
ATOM     14  C   UNL     1       2.299   1.782  -0.035  0.00  0.00    +0.251 C 
ATOM     15  H   UNL     1       3.499  -1.867  -0.331  0.00  0.00    +0.143 HD
ATOM     16  H   UNL     1       1.949  -2.551  -0.140  0.00  0.00    +0.143 HD
ENDROOT
TORSDOF 0
