REMARK  Name = 24741808
REMARK  3 active torsions:
REMARK  status: ('A' for Active; 'I' for Inactive)
REMARK    1  A    between atoms: N_4  and  C_13
REMARK    2  A    between atoms: N_4  and  C_23
REMARK    3  A    between atoms: C_23  and  C_25
REMARK                            x       y       z     vdW  Elec       q    Type
REMARK                         _______ _______ _______ _____ _____    ______ ____
ROOT
ATOM      1  O   UNL     1      -4.451  -1.947   1.086  0.00  0.00    -0.209 OA
ATOM      2  N   UNL     1       0.671  -1.929  -0.086  0.00  0.00    -0.305 N 
ATOM      3  N   UNL     1       1.170   0.077  -0.900  0.00  0.00    -0.305 N 
ATOM      4  N   UNL     1      -3.494   1.652  -0.388  0.00  0.00    -0.275 N 
ATOM      5  N   UNL     1      -5.123   0.162   0.501  0.00  0.00    -0.302 NA
ATOM      6  N   UNL     1      -5.665   2.350  -0.140  0.00  0.00    -0.320 N 
ATOM      7  C   UNL     1      -0.505  -1.223  -0.065  0.00  0.00    +0.061 C 
ATOM      8  C   UNL     1      -0.167   0.026  -0.577  0.00  0.00    +0.061 C 
ATOM      9  C   UNL     1      -2.470   0.705  -0.291  0.00  0.00    +0.064 C 
ATOM     10  C   UNL     1      -2.771  -0.566   0.221  0.00  0.00    +0.110 C 
ATOM     11  C   UNL     1      -1.794  -1.564   0.347  0.00  0.00    +0.030 C 
ATOM     12  C   UNL     1       1.641  -1.110  -0.593  0.00  0.00    +0.208 C 
ATOM     13  C   UNL     1      -1.161   1.012  -0.695  0.00  0.00    +0.031 C 
ATOM     14  C   UNL     1      -4.178  -0.839   0.636  0.00  0.00    +0.208 C 
ATOM     15  C   UNL     1      -4.768   1.323   0.016  0.00  0.00    +0.248 C 
ATOM     16  H   UNL     1       0.794  -2.860   0.211  0.00  0.00    +0.150 HD
ATOM     17  H   UNL     1       1.666   0.839  -1.279  0.00  0.00    +0.150 HD
ATOM     18  H   UNL     1      -3.305   2.550  -0.744  0.00  0.00    +0.156 HD
ATOM     19  H   UNL     1      -5.366   3.212  -0.509  0.00  0.00    +0.146 HD
ATOM     20  H   UNL     1      -6.607   2.224   0.117  0.00  0.00    +0.146 HD
ENDROOT
BRANCH  12  21
ATOM     21  N   UNL     1       2.896  -1.599  -0.709  0.00  0.00    -0.262 NA
ATOM     22  H   UNL     1       3.054  -2.527  -0.421  0.00  0.00    +0.127 HD
BRANCH  21  23
ATOM     23  C   UNL     1       4.026  -0.850  -1.229  0.00  0.00    +0.105 C 
BRANCH  23  25
ATOM     24  S   UNL     1       4.803   1.727  -0.531  0.00  0.00    -0.089 S 
ATOM     25  C   UNL     1       4.689   0.047  -0.219  0.00  0.00    +0.023 C 
ATOM     26  C   UNL     1       5.254  -0.294   0.990  0.00  0.00    +0.004 C 
ATOM     27  C   UNL     1       5.787   0.839   1.670  0.00  0.00    +0.007 C 
ATOM     28  C   UNL     1       5.609   2.003   0.955  0.00  0.00    +0.035 C 
ENDBRANCH  23  25
ENDBRANCH  21  23
ENDBRANCH  12  21
TORSDOF 3
