REMARK  Name = 46937149
REMARK  6 active torsions:
REMARK  status: ('A' for Active; 'I' for Inactive)
REMARK    1  A    between atoms: C_1  and  C_2
REMARK    2  A    between atoms: C_1  and  O_4
REMARK    3  A    between atoms: C_1  and  C_9
REMARK    4  A    between atoms: O_4  and  P_6
REMARK    5  A    between atoms: C_9  and  O_10
REMARK    6  A    between atoms: O_10  and  C_11
REMARK                            x       y       z     vdW  Elec       q    Type
REMARK                         _______ _______ _______ _____ _____    ______ ____
ROOT
ATOM      1  C   UNL     1      -1.757   1.032  -0.490  0.00  0.00    +0.166 C 
ENDROOT
BRANCH   1   2
ATOM      2  C   UNL     1      -2.130   2.343   0.206  0.00  0.00    +0.034 C 
ATOM      3  C   UNL     1      -3.571   2.345   0.700  0.00  0.00    +0.003 C 
ENDBRANCH   1   2
BRANCH   1   4
ATOM      4  O   UNL     1      -1.972  -0.049   0.418  0.00  0.00    -0.302 OA
BRANCH   4   6
ATOM      5 CL   UNL     1      -2.068  -2.652   1.485  0.00  0.00    -0.026 Cl
ATOM      6  P   UNL     1      -2.133  -1.538  -0.178  0.00  0.00    +0.302 P 
ATOM      7  O   UNL     1      -1.093  -1.957  -1.175  0.00  0.00    -0.273 OA
ATOM      8  C   UNL     1      -3.814  -1.641  -0.753  0.00  0.00    +0.114 C 
ENDBRANCH   4   6
ENDBRANCH   1   4
BRANCH   1   9
ATOM      9  C   UNL     1      -0.290   1.030  -0.913  0.00  0.00    +0.235 C 
BRANCH   9  10
ATOM     10  O   UNL     1       0.544   1.151   0.235  0.00  0.00    -0.473 OA
BRANCH  10  11
ATOM     11  C   UNL     1       1.784   0.575   0.157  0.00  0.00    +0.139 C 
ATOM     12  C   UNL     1       2.432   0.478  -1.075  0.00  0.00    +0.037 C 
ATOM     13  C   UNL     1       2.400   0.086   1.309  0.00  0.00    +0.037 C 
ATOM     14  C   UNL     1       3.695  -0.108  -1.154  0.00  0.00    +0.003 C 
ATOM     15  C   UNL     1       3.663  -0.500   1.230  0.00  0.00    +0.003 C 
ATOM     16  C   UNL     1       4.311  -0.597  -0.002  0.00  0.00    +0.000 C 
ENDBRANCH  10  11
ENDBRANCH   9  10
ENDBRANCH   1   9
TORSDOF 6
