REMARK  Name = 10150441
REMARK  5 active torsions:
REMARK  status: ('A' for Active; 'I' for Inactive)
REMARK    1  A    between atoms: N_1  and  C_23
REMARK    2  A    between atoms: C_3  and  C_10
REMARK    3  A    between atoms: C_10  and  C_16
REMARK    4  A    between atoms: C_23  and  C_25
REMARK    5  A    between atoms: C_25  and  O_26
REMARK                            x       y       z     vdW  Elec       q    Type
REMARK                         _______ _______ _______ _____ _____    ______ ____
ROOT
ATOM      1  N   UNL     1      -3.280  -0.580  -0.501  0.00  0.00    -0.261 N 
ATOM      2  N   UNL     1      -4.120   1.264   0.803  0.00  0.00    -0.229 NA
ATOM      3  C   UNL     1      -1.481   0.348  -1.425  0.00  0.00    +0.003 C 
ATOM      4  C   UNL     1      -2.112   1.321  -0.604  0.00  0.00    +0.030 C 
ATOM      5  C   UNL     1      -3.229   0.711  -0.043  0.00  0.00    +0.136 C 
ATOM      6  C   UNL     1      -2.222  -0.811  -1.341  0.00  0.00    +0.063 C 
ATOM      7  C   UNL     1      -1.868   2.661  -0.263  0.00  0.00    +0.004 C 
ATOM      8  C   UNL     1      -2.759   3.284   0.609  0.00  0.00    +0.021 C 
ATOM      9  C   UNL     1      -3.836   2.555   1.095  0.00  0.00    +0.100 C 
ENDROOT
BRANCH   3  10
ATOM     10  C   UNL     1      -0.254   0.534  -2.225  0.00  0.00    +0.094 C 
BRANCH  10  16
ATOM     11  S   UNL     1       1.601  -1.389  -1.566  0.00  0.00    -0.055 S 
ATOM     12  F   UNL     1       3.691   2.336   0.896  0.00  0.00    -0.222 F 
ATOM     13  F   UNL     1       4.105  -2.993  -0.392  0.00  0.00    -0.204 F 
ATOM     14  F   UNL     1       5.774   0.843   1.826  0.00  0.00    -0.205 F 
ATOM     15  N   UNL     1       1.686   1.070  -0.792  0.00  0.00    -0.400 NA
ATOM     16  C   UNL     1       1.029   0.199  -1.478  0.00  0.00    +0.143 C 
ATOM     17  C   UNL     1       2.796   0.439  -0.249  0.00  0.00    +0.156 C 
ATOM     18  C   UNL     1       2.921  -0.918  -0.562  0.00  0.00    +0.087 C 
ATOM     19  C   UNL     1       3.777   1.038   0.570  0.00  0.00    +0.262 C 
ATOM     20  C   UNL     1       3.991  -1.693  -0.087  0.00  0.00    +0.150 C 
ATOM     21  C   UNL     1       4.845   0.273   1.047  0.00  0.00    +0.159 C 
ATOM     22  C   UNL     1       4.948  -1.075   0.722  0.00  0.00    +0.059 C 
ENDBRANCH  10  16
ENDBRANCH   3  10
BRANCH   1  23
ATOM     23  C   UNL     1      -4.289  -1.557  -0.158  0.00  0.00    +0.207 C 
BRANCH  23  25
ATOM     24  O   UNL     1      -2.899  -2.240   1.723  0.00  0.00    -0.248 OA
ATOM     25  C   UNL     1      -3.919  -2.358   1.060  0.00  0.00    +0.335 C 
BRANCH  25  26
ATOM     26  O   UNL     1      -4.896  -3.260   1.336  0.00  0.00    -0.479 OA
ATOM     27  H   UNL     1      -5.657  -3.306   0.792  0.00  0.00    +0.295 HD
ENDBRANCH  25  26
ENDBRANCH  23  25
ENDBRANCH   1  23
TORSDOF 5
