REMARK  Name = 441048
REMARK  8 active torsions:
REMARK  status: ('A' for Active; 'I' for Inactive)
REMARK    1  A    between atoms: C_3  and  O_14
REMARK    2  A    between atoms: C_4  and  C_11
REMARK    3  A    between atoms: O_14  and  C_15
REMARK    4  A    between atoms: C_15  and  C_16
REMARK    5  A    between atoms: C_16  and  C_17
REMARK    6  A    between atoms: C_17  and  C_18
REMARK    7  A    between atoms: C_18  and  C_19
REMARK    8  A    between atoms: C_19  and  C_22
REMARK                            x       y       z     vdW  Elec       q    Type
REMARK                         _______ _______ _______ _____ _____    ______ ____
ROOT
ATOM      1 CL   UNL     1      -1.971   2.729  -0.689  0.00  0.00    -0.079 Cl
ATOM      2 CL   UNL     1      -1.860  -2.707  -0.799  0.00  0.00    -0.079 Cl
ATOM      3  C   UNL     1      -2.053   0.007  -0.711  0.00  0.00    +0.159 C 
ATOM      4  C   UNL     1      -4.763  -0.060  -0.076  0.00  0.00    +0.055 C 
ATOM      5  C   UNL     1      -2.751   1.198  -0.528  0.00  0.00    +0.093 C 
ATOM      6  C   UNL     1      -2.702  -1.217  -0.578  0.00  0.00    +0.093 C 
ATOM      7  C   UNL     1      -4.109   1.164  -0.210  0.00  0.00    +0.019 C 
ATOM      8  C   UNL     1      -4.060  -1.251  -0.260  0.00  0.00    +0.019 C 
ENDROOT
BRANCH   4  11
ATOM      9  O   UNL     1      -6.767   1.120   0.420  0.00  0.00    -0.458 OA
ATOM     10  N   UNL     1      -6.916  -1.162   0.412  0.00  0.00    -0.234 NA
ATOM     11  C   UNL     1      -6.194  -0.097   0.260  0.00  0.00    +0.220 C 
ATOM     12  C   UNL     1      -8.058   0.839   0.939  0.00  0.00    +0.233 C 
ATOM     13  C   UNL     1      -8.261  -0.631   0.659  0.00  0.00    +0.176 C 
ENDBRANCH   4  11
BRANCH   3  14
ATOM     14  O   UNL     1      -0.719   0.042  -1.023  0.00  0.00    -0.474 OA
BRANCH  14  15
ATOM     15  C   UNL     1       0.194   0.038   0.066  0.00  0.00    +0.205 C 
BRANCH  15  16
ATOM     16  C   UNL     1       1.614   0.058  -0.483  0.00  0.00    +0.047 C 
BRANCH  16  17
ATOM     17  C   UNL     1       2.652   0.071   0.637  0.00  0.00    +0.004 C 
BRANCH  17  18
ATOM     18  C   UNL     1       4.075   0.048   0.077  0.00  0.00    +0.008 C 
BRANCH  18  19
ATOM     19  C   UNL     1       5.115   0.094   1.200  0.00  0.00    +0.067 C 
BRANCH  19  22
ATOM     20  O   UNL     1       7.025  -1.199   0.523  0.00  0.00    -0.358 OA
ATOM     21  N   UNL     1       8.313  -1.078   0.016  0.00  0.00    -0.082 NA
ATOM     22  C   UNL     1       6.520   0.035   0.655  0.00  0.00    +0.154 C 
ATOM     23  C   UNL     1       7.385   0.987   0.269  0.00  0.00    +0.054 C 
ATOM     24  C   UNL     1       8.505   0.236  -0.127  0.00  0.00    +0.101 C 
ATOM     25  C   UNL     1       9.786   0.737  -0.652  0.00  0.00    +0.056 C 
ENDBRANCH  19  22
ENDBRANCH  18  19
ENDBRANCH  17  18
ENDBRANCH  16  17
ENDBRANCH  15  16
ENDBRANCH  14  15
ENDBRANCH   3  14
TORSDOF 8
