REMARK  Name = 24856357
REMARK  6 active torsions:
REMARK  status: ('A' for Active; 'I' for Inactive)
REMARK    1  A    between atoms: S_1  and  N_5
REMARK    2  A    between atoms: S_1  and  C_14
REMARK    3  A    between atoms: N_6  and  C_10
REMARK    4  A    between atoms: C_10  and  C_11
REMARK    5  A    between atoms: C_11  and  S_12
REMARK    6  A    between atoms: C_17  and  N_20
REMARK                            x       y       z     vdW  Elec       q    Type
REMARK                         _______ _______ _______ _____ _____    ______ ____
ROOT
ATOM      1  S   UNL     1      -0.451  -2.071  -0.196  0.00  0.00    +0.077 S 
ATOM      2  O   UNL     1      -0.935  -2.907  -1.278  0.00  0.00    -0.150 OA
ATOM      3  O   UNL     1      -0.315  -2.609   1.144  0.00  0.00    -0.150 OA
ENDROOT
BRANCH   1   5
ATOM      4  O   UNL     1       1.794  -0.687   1.443  0.00  0.00    -0.251 OA
ATOM      5  N   UNL     1       1.021  -1.338  -0.662  0.00  0.00    -0.169 N 
ATOM      6  N   UNL     1       3.064  -0.220  -0.431  0.00  0.00    -0.287 N 
ATOM      7  C   UNL     1       1.963  -0.732   0.228  0.00  0.00    +0.319 C 
ATOM      8  H   UNL     1       1.239  -1.333  -1.622  0.00  0.00    +0.178 HD
ATOM      9  H   UNL     1       3.106  -0.306  -1.411  0.00  0.00    +0.151 HD
BRANCH   6  10
ATOM     10  C   UNL     1       4.154   0.435   0.251  0.00  0.00    +0.102 C 
BRANCH  10  11
ATOM     11  C   UNL     1       3.949   1.937   0.396  0.00  0.00    +0.075 C 
BRANCH  11  12
ATOM     12  S   UNL     1       3.830   2.773  -1.214  0.00  0.00    -0.166 S 
ATOM     13  H   UNL     1       3.648   4.107  -1.020  0.00  0.00    +0.102 HD
ENDBRANCH  11  12
ENDBRANCH  10  11
ENDBRANCH   6  10
ENDBRANCH   1   5
BRANCH   1  14
ATOM     14  C   UNL     1      -1.509  -0.660  -0.076  0.00  0.00    +0.125 C 
ATOM     15  C   UNL     1      -2.230  -0.232  -1.191  0.00  0.00    +0.021 C 
ATOM     16  C   UNL     1      -1.621   0.026   1.133  0.00  0.00    +0.021 C 
ATOM     17  C   UNL     1      -3.176   1.569   0.113  0.00  0.00    +0.042 C 
ATOM     18  C   UNL     1      -3.063   0.882  -1.096  0.00  0.00    +0.015 C 
ATOM     19  C   UNL     1      -2.455   1.140   1.228  0.00  0.00    +0.015 C 
BRANCH  17  20
ATOM     20  N   UNL     1      -4.019   2.695   0.209  0.00  0.00    -0.357 N 
ATOM     21  H   UNL     1      -4.528   2.998  -0.578  0.00  0.00    +0.142 HD
ATOM     22  H   UNL     1      -4.098   3.179   1.063  0.00  0.00    +0.142 HD
ENDBRANCH  17  20
ENDBRANCH   1  14
TORSDOF 6
