REMARK  Name = 24778468
REMARK  14 active torsions:
REMARK  status: ('A' for Active; 'I' for Inactive)
REMARK    1  A    between atoms: C_1  and  C_2
REMARK    2  A    between atoms: C_1  and  C_11
REMARK    3  A    between atoms: C_2  and  C_3
REMARK    4  A    between atoms: C_3  and  C_4
REMARK    5  A    between atoms: C_4  and  C_5
REMARK    6  A    between atoms: C_5  and  C_6
REMARK    7  A    between atoms: C_6  and  C_8
REMARK    8  A    between atoms: C_8  and  O_9
REMARK    9  A    between atoms: C_11  and  C_12
REMARK   10  A    between atoms: C_12  and  C_13
REMARK   11  A    between atoms: C_13  and  C_14
REMARK   12  A    between atoms: C_14  and  O_15
REMARK   13  A    between atoms: O_15  and  C_17
REMARK   14  A    between atoms: C_17  and  S_18
REMARK                            x       y       z     vdW  Elec       q    Type
REMARK                         _______ _______ _______ _____ _____    ______ ____
ROOT
ATOM      1  C   UNL     1      -0.019   0.325  -0.002  0.00  0.00    +0.000 C 
ENDROOT
BRANCH   1   2
ATOM      2  C   UNL     1       1.231  -0.556  -0.005  0.00  0.00    +0.000 C 
BRANCH   2   3
ATOM      3  C   UNL     1       2.507   0.288  -0.047  0.00  0.00    +0.000 C 
BRANCH   3   4
ATOM      4  C   UNL     1       3.756  -0.594  -0.016  0.00  0.00    +0.001 C 
BRANCH   4   5
ATOM      5  C   UNL     1       5.067   0.200  -0.035  0.00  0.00    +0.012 C 
BRANCH   5   6
ATOM      6  C   UNL     1       6.335  -0.648  -0.028  0.00  0.00    +0.109 C 
BRANCH   6   8
ATOM      7  O   UNL     1       7.611   1.408   0.005  0.00  0.00    -0.250 OA
ATOM      8  C   UNL     1       7.588   0.186   0.012  0.00  0.00    +0.314 C 
BRANCH   8   9
ATOM      9  O   UNL     1       8.696  -0.595   0.055  0.00  0.00    -0.480 OA
ATOM     10  H   UNL     1       8.611  -1.528   0.058  0.00  0.00    +0.295 HD
ENDBRANCH   8   9
ENDBRANCH   6   8
ENDBRANCH   5   6
ENDBRANCH   4   5
ENDBRANCH   3   4
ENDBRANCH   2   3
ENDBRANCH   1   2
BRANCH   1  11
ATOM     11  C   UNL     1      -1.295  -0.520   0.007  0.00  0.00    +0.000 C 
BRANCH  11  12
ATOM     12  C   UNL     1      -2.545   0.361   0.044  0.00  0.00    +0.004 C 
BRANCH  12  13
ATOM     13  C   UNL     1      -3.819  -0.481   0.018  0.00  0.00    +0.047 C 
BRANCH  13  14
ATOM     14  C   UNL     1      -5.068   0.389   0.011  0.00  0.00    +0.209 C 
BRANCH  14  15
ATOM     15  O   UNL     1      -6.213  -0.452   0.003  0.00  0.00    -0.441 OA
BRANCH  15  17
ATOM     16  O   UNL     1      -7.578   1.398  -0.004  0.00  0.00    -0.238 OA
ATOM     17  C   UNL     1      -7.428   0.182  -0.004  0.00  0.00    +0.366 C 
BRANCH  17  18
ATOM     18  S   UNL     1      -8.827  -0.890  -0.015  0.00  0.00    -0.061 S 
ATOM     19  H   UNL     1      -8.407  -2.184  -0.014  0.00  0.00    +0.113 HD
ENDBRANCH  17  18
ENDBRANCH  15  17
ENDBRANCH  14  15
ENDBRANCH  13  14
ENDBRANCH  12  13
ENDBRANCH  11  12
ENDBRANCH   1  11
TORSDOF 14
