REMARK  Name = 6604229
REMARK  3 active torsions:
REMARK  status: ('A' for Active; 'I' for Inactive)
REMARK    1  A    between atoms: C_7  and  C_18
REMARK    2  A    between atoms: C_11  and  S_19
REMARK    3  A    between atoms: S_19  and  N_22
REMARK                            x       y       z     vdW  Elec       q    Type
REMARK                         _______ _______ _______ _____ _____    ______ ____
ROOT
ATOM      1 CL   UNL     1       3.107   2.627   0.257  0.00  0.00    -0.081 Cl
ATOM      2  S   UNL     1      -1.407  -1.707   0.173  0.00  0.00    +0.063 S 
ATOM      3  O   UNL     1      -0.946  -2.816   0.986  0.00  0.00    -0.153 OA
ATOM      4  O   UNL     1      -1.768  -1.892  -1.218  0.00  0.00    -0.153 OA
ATOM      5  N   UNL     1      -2.670  -0.927   1.008  0.00  0.00    -0.160 NA
ATOM      6  N   UNL     1      -1.789   1.333   0.635  0.00  0.00    -0.318 N 
ATOM      7  C   UNL     1      -2.963   0.481   0.665  0.00  0.00    +0.178 C 
ATOM      8  C   UNL     1      -0.159  -0.463   0.202  0.00  0.00    +0.136 C 
ATOM      9  C   UNL     1      -0.501   0.879   0.412  0.00  0.00    +0.065 C 
ATOM     10  C   UNL     1       1.164  -0.876   0.012  0.00  0.00    +0.042 C 
ATOM     11  C   UNL     1       2.185   0.068   0.027  0.00  0.00    +0.134 C 
ATOM     12  C   UNL     1       0.554   1.807   0.425  0.00  0.00    +0.028 C 
ATOM     13  C   UNL     1       1.881   1.410   0.233  0.00  0.00    +0.078 C 
ATOM     14  H   UNL     1      -2.439  -0.956   2.002  0.00  0.00    +0.151 HD
ATOM     15  H   UNL     1      -1.917   2.298   0.783  0.00  0.00    +0.148 HD
ENDROOT
BRANCH   7  18
ATOM     16 CL   UNL     1      -4.222   2.258  -0.943  0.00  0.00    -0.094 Cl
ATOM     17 CL   UNL     1      -5.145  -0.484  -0.613  0.00  0.00    -0.094 Cl
ATOM     18  C   UNL     1      -3.723   0.579  -0.650  0.00  0.00    +0.193 C 
ENDBRANCH   7  18
BRANCH  11  19
ATOM     19  S   UNL     1       3.826  -0.489  -0.225  0.00  0.00    +0.058 S 
ATOM     20  O   UNL     1       4.730   0.475   0.382  0.00  0.00    -0.153 OA
ATOM     21  O   UNL     1       3.896  -1.891   0.156  0.00  0.00    -0.153 OA
BRANCH  19  22
ATOM     22  N   UNL     1       3.947  -0.371  -1.924  0.00  0.00    -0.203 NA
ATOM     23  H   UNL     1       4.876  -0.672  -2.220  0.00  0.00    +0.144 HD
ATOM     24  H   UNL     1       3.796   0.596  -2.209  0.00  0.00    +0.144 HD
ENDBRANCH  19  22
ENDBRANCH  11  19
TORSDOF 3
