REMARK  Name = 449162
REMARK  12 active torsions:
REMARK  status: ('A' for Active; 'I' for Inactive)
REMARK    1  A    between atoms: C_1  and  C_9
REMARK    2  A    between atoms: C_3  and  C_19
REMARK    3  A    between atoms: C_10  and  C_16
REMARK    4  A    between atoms: C_11  and  C_13
REMARK    5  A    between atoms: C_13  and  O_14
REMARK    6  A    between atoms: C_16  and  O_17
REMARK    7  A    between atoms: C_20  and  C_21
REMARK    8  A    between atoms: C_21  and  O_22
REMARK    9  A    between atoms: O_22  and  C_23
REMARK   10  A    between atoms: C_24  and  C_32
REMARK   11  A    between atoms: C_25  and  O_29
REMARK   12  A    between atoms: C_32  and  O_33
REMARK                            x       y       z     vdW  Elec       q    Type
REMARK                         _______ _______ _______ _____ _____    ______ ____
ROOT
ATOM      1  C   UNL     1      -2.950   1.402   0.485  0.00  0.00    +0.037 C 
ATOM      2  C   UNL     1      -1.754   0.736   0.752  0.00  0.00    +0.003 C 
ATOM      3  C   UNL     1      -0.646   1.448   1.210  0.00  0.00    -0.000 C 
ATOM      4  C   UNL     1      -3.038   2.781   0.677  0.00  0.00    +0.003 C 
ATOM      5  C   UNL     1      -0.733   2.827   1.402  0.00  0.00    -0.000 C 
ATOM      6  C   UNL     1      -1.929   3.493   1.135  0.00  0.00    +0.000 C 
ENDROOT
BRANCH   1   9
ATOM      7  O   UNL     1      -4.938   1.366  -0.789  0.00  0.00    -0.353 OA
ATOM      8  N   UNL     1      -5.990   0.542  -1.168  0.00  0.00    -0.071 NA
ATOM      9  C   UNL     1      -4.097   0.667   0.011  0.00  0.00    +0.175 A 
ATOM     10  C   UNL     1      -4.557  -0.606   0.179  0.00  0.00    +0.071 A 
ATOM     11  C   UNL     1      -5.741  -0.631  -0.578  0.00  0.00    +0.196 A 
BRANCH  11  13
ATOM     12  O   UNL     1      -6.516  -2.855  -0.268  0.00  0.00    -0.243 OA
ATOM     13  C   UNL     1      -6.648  -1.727  -0.765  0.00  0.00    +0.359 C 
BRANCH  13  14
ATOM     14  O   UNL     1      -7.730  -1.454  -1.565  0.00  0.00    -0.476 OA
ATOM     15  H   UNL     1      -7.831  -0.602  -1.941  0.00  0.00    +0.295 HD
ENDBRANCH  13  14
ENDBRANCH  11  13
BRANCH  10  16
ATOM     16  C   UNL     1      -3.956  -1.695   0.968  0.00  0.00    +0.169 C 
BRANCH  16  17
ATOM     17  O   UNL     1      -3.045  -2.491   0.202  0.00  0.00    -0.377 OA
ATOM     18  H   UNL     1      -2.677  -3.192   0.763  0.00  0.00    +0.211 HD
ENDBRANCH  16  17
ENDBRANCH  10  16
ENDBRANCH   1   9
BRANCH   3  19
ATOM     19  C   UNL     1       0.601   0.752   1.488  0.00  0.00    -0.001 C 
ATOM     20  C   UNL     1       0.955  -0.462   1.009  0.00  0.00    +0.021 C 
BRANCH  20  21
ATOM     21  C   UNL     1       2.257  -1.131   1.311  0.00  0.00    +0.232 C 
BRANCH  21  22
ATOM     22  O   UNL     1       2.965  -1.325   0.094  0.00  0.00    -0.470 OA
BRANCH  22  23
ATOM     23  C   UNL     1       4.333  -1.301   0.164  0.00  0.00    +0.148 C 
ATOM     24  C   UNL     1       5.064  -0.363  -0.557  0.00  0.00    +0.143 C 
ATOM     25  C   UNL     1       6.457  -0.357  -0.471  0.00  0.00    +0.143 C 
ATOM     26  C   UNL     1       4.979  -2.233   0.970  0.00  0.00    +0.037 C 
ATOM     27  C   UNL     1       7.110  -1.289   0.335  0.00  0.00    +0.037 C 
ATOM     28  C   UNL     1       6.371  -2.227   1.055  0.00  0.00    +0.006 C 
BRANCH  25  29
ATOM     29  O   UNL     1       7.198   0.552  -1.166  0.00  0.00    -0.505 OA
ATOM     30  H   UNL     1       6.773   1.185  -1.711  0.00  0.00    +0.292 HD
ENDBRANCH  25  29
BRANCH  24  32
ATOM     31  O   UNL     1       4.107   0.432  -2.591  0.00  0.00    -0.245 OA
ATOM     32  C   UNL     1       4.381   0.612  -1.400  0.00  0.00    +0.347 C 
BRANCH  32  33
ATOM     33  O   UNL     1       4.082   1.750  -0.704  0.00  0.00    -0.441 OA
ATOM     34  C   UNL     1       3.407   2.786  -1.425  0.00  0.00    +0.256 C 
ENDBRANCH  32  33
ENDBRANCH  24  32
ENDBRANCH  22  23
ENDBRANCH  21  22
ENDBRANCH  20  21
ENDBRANCH   3  19
TORSDOF 12
