REMARK  Name = 2730282
REMARK  6 active torsions:
REMARK  status: ('A' for Active; 'I' for Inactive)
REMARK    1  A    between atoms: N_1  and  C_3
REMARK    2  A    between atoms: N_1  and  C_14
REMARK    3  A    between atoms: C_3  and  N_6
REMARK    4  A    between atoms: N_6  and  C_9
REMARK    5  A    between atoms: C_15  and  O_20
REMARK    6  A    between atoms: C_16  and  O_22
REMARK                            x       y       z     vdW  Elec       q    Type
REMARK                         _______ _______ _______ _____ _____    ______ ____
ROOT
ATOM      1  N   UNL     1       1.482   0.713   1.693  0.00  0.00    -0.368 N 
ATOM      2  C   UNL     1       1.808   0.749   0.353  0.00  0.00    +0.225 C 
ATOM      3  H   UNL     1       0.564   0.488   1.969  0.00  0.00    +0.159 HD
ATOM      4  H   UNL     1       2.166   0.911   2.372  0.00  0.00    +0.159 HD
ENDROOT
BRANCH   2   5
ATOM      5  N   UNL     1       1.013   0.531  -0.657  0.00  0.00    -0.212 NA
BRANCH   5   6
ATOM      6  C   UNL     1      -0.329   0.200  -0.405  0.00  0.00    +0.090 C 
ATOM      7  C   UNL     1      -2.614   0.880  -0.050  0.00  0.00    +0.143 C 
ATOM      8  C   UNL     1      -2.027  -1.464  -0.008  0.00  0.00    +0.143 C 
ATOM      9  C   UNL     1      -0.695  -1.135  -0.259  0.00  0.00    +0.056 C 
ATOM     10  C   UNL     1      -1.282   1.209  -0.301  0.00  0.00    +0.056 C 
ATOM     11  C   UNL     1      -2.987  -0.457   0.096  0.00  0.00    +0.074 C 
BRANCH   7  12
ATOM     12  O   UNL     1      -3.550   1.863   0.052  0.00  0.00    -0.471 OA
ATOM     13  C   UNL     1      -3.100   3.207  -0.108  0.00  0.00    +0.252 C 
ENDBRANCH   7  12
BRANCH   8  14
ATOM     14  O   UNL     1      -2.391  -2.767   0.135  0.00  0.00    -0.471 OA
ATOM     15  C   UNL     1      -1.359  -3.746   0.017  0.00  0.00    +0.252 C 
ENDBRANCH   8  14
ENDBRANCH   5   6
ENDBRANCH   2   5
BRANCH   2  16
ATOM     16  N   UNL     1       3.106   1.068   0.004  0.00  0.00    -0.180 NA
BRANCH  16  19
ATOM     17  N   UNL     1       5.266   0.327  -0.471  0.00  0.00    -0.370 N 
ATOM     18  N   UNL     1       3.704  -1.261   0.036  0.00  0.00    -0.370 N 
ATOM     19  C   UNL     1       3.957   0.083  -0.129  0.00  0.00    +0.196 C 
ATOM     20  H   UNL     1       5.572   1.251  -0.617  0.00  0.00    +0.159 HD
ATOM     21  H   UNL     1       5.896  -0.423  -0.570  0.00  0.00    +0.159 HD
ATOM     22  H   UNL     1       2.801  -1.565   0.283  0.00  0.00    +0.159 HD
ATOM     23  H   UNL     1       4.427  -1.917  -0.092  0.00  0.00    +0.159 HD
ENDBRANCH  16  19
ENDBRANCH   2  16
TORSDOF 6
