REMARK  Name = 3374
REMARK  2 active torsions:
REMARK  status: ('A' for Active; 'I' for Inactive)
REMARK    1  A    between atoms: C_13  and  C_18
REMARK    2  A    between atoms: C_18  and  O_19
REMARK                            x       y       z     vdW  Elec       q    Type
REMARK                         _______ _______ _______ _____ _____    ______ ____
ROOT
ATOM      1  F   UNL     1      -3.256   3.086  -0.216  0.00  0.00    -0.204 F 
ATOM      2  O   UNL     1       1.734   2.397  -0.149  0.00  0.00    -0.286 OA
ATOM      3  N   UNL     1       0.120  -1.337   0.151  0.00  0.00    -0.287 N 
ATOM      4  C   UNL     1      -0.454  -2.695   0.137  0.00  0.00    +0.078 C 
ATOM      5  C   UNL     1      -1.803  -2.730   0.859  0.00  0.00    +0.025 C 
ATOM      6  C   UNL     1      -2.789  -1.738   0.257  0.00  0.00    +0.029 C 
ATOM      7  C   UNL     1      -0.757  -0.230   0.072  0.00  0.00    +0.051 C 
ATOM      8  C   UNL     1      -2.158  -0.379   0.117  0.00  0.00    -0.006 C 
ATOM      9  C   UNL     1      -0.229   1.076  -0.040  0.00  0.00    +0.055 C 
ATOM     10  C   UNL     1      -0.539  -3.214  -1.302  0.00  0.00    +0.022 C 
ATOM     11  C   UNL     1       1.487  -1.121   0.135  0.00  0.00    +0.075 C 
ATOM     12  C   UNL     1      -2.991   0.746   0.006  0.00  0.00    +0.027 C 
ATOM     13  C   UNL     1       2.095   0.068   0.045  0.00  0.00    +0.129 C 
ATOM     14  C   UNL     1       1.243   1.279  -0.057  0.00  0.00    +0.204 C 
ATOM     15  C   UNL     1      -1.068   2.192  -0.136  0.00  0.00    +0.034 C 
ATOM     16  C   UNL     1      -2.449   2.022  -0.119  0.00  0.00    +0.140 C 
ENDROOT
BRANCH  13  18
ATOM     17  O   UNL     1       4.270  -0.783  -0.396  0.00  0.00    -0.245 OA
ATOM     18  C   UNL     1       3.558   0.103   0.042  0.00  0.00    +0.342 C 
BRANCH  18  19
ATOM     19  O   UNL     1       3.986   1.259   0.593  0.00  0.00    -0.477 OA
ATOM     20  H   UNL     1       3.364   1.888   0.904  0.00  0.00    +0.295 HD
ENDBRANCH  18  19
ENDBRANCH  13  18
TORSDOF 2
