13582275
  -OEChem-10051721143D

 20 21  0     0  0  0  0  0  0999 V2000
    3.0529    1.4860    0.0008 S   0  0  0  0  0  0  0  0  0  0  0  0
    1.8742   -0.8146   -0.0003 N   0  0  0  0  0  0  0  0  0  0  0  0
   -1.3592    0.8586   -0.0004 N   0  0  0  0  0  0  0  0  0  0  0  0
   -3.1753   -0.7252    0.0003 N   0  0  0  0  0  0  0  0  0  0  0  0
    4.2371   -0.8955    0.0001 N   0  0  0  0  0  0  0  0  0  0  0  0
   -3.5903    1.5841    0.0002 N   0  0  0  0  0  0  0  0  0  0  0  0
    0.8931    0.1575   -0.0002 C   0  0  0  0  0  0  0  0  0  0  0  0
   -0.5006   -0.1822   -0.0005 C   0  0  0  0  0  0  0  0  0  0  0  0
    1.3380    1.4628   -0.0006 C   0  0  0  0  0  0  0  0  0  0  0  0
   -0.8979   -1.5038    0.0000 C   0  0  0  0  0  0  0  0  0  0  0  0
    3.0515   -0.2301    0.0000 C   0  0  0  0  0  0  0  0  0  0  0  0
   -2.6625    0.5199    0.0001 C   0  0  0  0  0  0  0  0  0  0  0  0
   -2.2611   -1.7175    0.0002 C   0  0  0  0  0  0  0  0  0  0  0  0
    0.7779    2.3879   -0.0009 H   0  0  0  0  0  0  0  0  0  0  0  0
   -0.2094   -2.3395    0.0002 H   0  0  0  0  0  0  0  0  0  0  0  0
   -2.6685   -2.7228    0.0006 H   0  0  0  0  0  0  0  0  0  0  0  0
    5.1254   -0.4051    0.0006 H   0  0  0  0  0  0  0  0  0  0  0  0
    4.2808   -1.9093   -0.0002 H   0  0  0  0  0  0  0  0  0  0  0  0
   -3.2535    2.5369    0.0008 H   0  0  0  0  0  0  0  0  0  0  0  0
   -4.5802    1.3806    0.0010 H   0  0  0  0  0  0  0  0  0  0  0  0
  1  9  1  0  0  0  0
  1 11  1  0  0  0  0
  2  7  1  0  0  0  0
  2 11  2  0  0  0  0
  3  8  2  0  0  0  0
  3 12  1  0  0  0  0
  4 12  2  0  0  0  0
  4 13  1  0  0  0  0
  5 11  1  0  0  0  0
  5 17  1  0  0  0  0
  5 18  1  0  0  0  0
  6 12  1  0  0  0  0
  6 19  1  0  0  0  0
  6 20  1  0  0  0  0
  7  8  1  0  0  0  0
  7  9  2  0  0  0  0
  8 10  1  0  0  0  0
  9 14  1  0  0  0  0
 10 13  2  0  0  0  0
 10 15  1  0  0  0  0
 13 16  1  0  0  0  0
M  END
> <DATABASE_ID>
DB08075

> <DATABASE_NAME>
drugbank

> <ORIGINAL_SOURCE>
PUBCHEM

> <ORIGINAL_SOURCE_URL>
https://pubchem.ncbi.nlm.nih.gov/rest/pug/compound/inchikey/FHERIFNAOMUFRM-UHFFFAOYSA-N/SDF?record_type=3d

> <SMILES>
NC1=NC(=CS1)C1=NC(N)=NC=C1

> <INCHI_IDENTIFIER>
InChI=1S/C7H7N5S/c8-6-10-2-1-4(11-6)5-3-13-7(9)12-5/h1-3H,(H2,9,12)(H2,8,10,11)

> <INCHI_KEY>
FHERIFNAOMUFRM-UHFFFAOYSA-N

> <FORMULA>
C7H7N5S

> <MOLECULAR_WEIGHT>
193.229

> <EXACT_MASS>
193.042215939

> <JCHEM_ACCEPTOR_COUNT>
5

> <JCHEM_AVERAGE_POLARIZABILITY>
18.89334107642562

> <JCHEM_BIOAVAILABILITY>
1

> <JCHEM_DONOR_COUNT>
2

> <JCHEM_FORMAL_CHARGE>
0

> <JCHEM_GHOSE_FILTER>
1

> <JCHEM_IUPAC>
4-(2-amino-1,3-thiazol-4-yl)pyrimidin-2-amine

> <ALOGPS_LOGP>
0.86

> <JCHEM_LOGP>
0.8326383686666663

> <ALOGPS_LOGS>
-2.19

> <JCHEM_MDDR_LIKE_RULE>
0

> <JCHEM_NUMBER_OF_RINGS>
2

> <JCHEM_PHYSIOLOGICAL_CHARGE>
0

> <JCHEM_PKA>
16.714199645654542

> <JCHEM_PKA_STRONGEST_ACIDIC>
16.08353010282962

> <JCHEM_PKA_STRONGEST_BASIC>
2.9383256347862377

> <JCHEM_POLAR_SURFACE_AREA>
90.71

> <JCHEM_REFRACTIVITY>
51.142999999999994

> <JCHEM_ROTATABLE_BOND_COUNT>
1

> <JCHEM_RULE_OF_FIVE>
1

> <ALOGPS_SOLUBILITY>
1.24e+00 g/l

> <JCHEM_TRADITIONAL_IUPAC>
4-(2-amino-1,3-thiazol-4-yl)pyrimidin-2-amine

> <JCHEM_VEBER_RULE>
0

> <DRUGBANK_ID>
DB08075

> <DRUG_GROUPS>
experimental

> <GENERIC_NAME>
4-(2-amino-1,3-thiazol-4-yl)pyrimidin-2-amine

$$$$
