REMARK  Name = 34154
REMARK  4 active torsions:
REMARK  status: ('A' for Active; 'I' for Inactive)
REMARK    1  A    between atoms: C_1  and  C_8
REMARK    2  A    between atoms: C_2  and  O_11
REMARK    3  A    between atoms: O_11  and  C_12
REMARK    4  A    between atoms: C_12  and  C_15
REMARK                            x       y       z     vdW  Elec       q    Type
REMARK                         _______ _______ _______ _____ _____    ______ ____
ROOT
ATOM      1  C   UNL     1      -1.453   0.868   0.102  0.00  0.00    +0.011 C 
ATOM      2  C   UNL     1      -0.929  -0.401   0.311  0.00  0.00    +0.135 C 
ATOM      3  C   UNL     1      -2.802   1.010  -0.221  0.00  0.00    -0.002 C 
ATOM      4  C   UNL     1      -1.730  -1.530   0.203  0.00  0.00    +0.032 C 
ATOM      5  C   UNL     1      -3.079  -1.388  -0.120  0.00  0.00    -0.019 C 
ATOM      6  C   UNL     1      -3.616  -0.118  -0.332  0.00  0.00    -0.004 C 
ATOM      7  C   UNL     1      -3.949  -2.594  -0.238  0.00  0.00    +0.031 C 
ENDROOT
BRANCH   1   8
ATOM      8  C   UNL     1      -0.597   2.086   0.216  0.00  0.00    +0.025 C 
ATOM      9  C   UNL     1      -1.066   3.030   1.338  0.00  0.00    +0.005 C 
ATOM     10  C   UNL     1      -0.497   2.860  -1.112  0.00  0.00    +0.005 C 
ENDBRANCH   1   8
BRANCH   2  11
ATOM     11  O   UNL     1       0.399  -0.559   0.630  0.00  0.00    -0.468 OA
BRANCH  11  12
ATOM     12  C   UNL     1       1.188  -1.328  -0.252  0.00  0.00    +0.266 C 
BRANCH  12  15
ATOM     13  N   UNL     1       3.037   0.178  -0.960  0.00  0.00    -0.296 N 
ATOM     14  N   UNL     1       3.433  -1.290   0.734  0.00  0.00    -0.228 NA
ATOM     15  C   UNL     1       2.588  -0.820  -0.149  0.00  0.00    +0.154 C 
ATOM     16  C   UNL     1       4.392   0.505  -0.633  0.00  0.00    +0.084 C 
ATOM     17  C   UNL     1       4.684  -0.509   0.484  0.00  0.00    +0.116 C 
ATOM     18  H   UNL     1       2.507   0.611  -1.668  0.00  0.00    +0.153 HD
ENDBRANCH  12  15
ENDBRANCH  11  12
ENDBRANCH   2  11
TORSDOF 4
