REMARK  Name = 5289418
REMARK  5 active torsions:
REMARK  status: ('A' for Active; 'I' for Inactive)
REMARK    1  A    between atoms: C_2  and  C_20
REMARK    2  A    between atoms: C_3  and  C_11
REMARK    3  A    between atoms: C_20  and  C_21
REMARK    4  A    between atoms: C_21  and  C_23
REMARK    5  A    between atoms: C_23  and  O_24
REMARK                            x       y       z     vdW  Elec       q    Type
REMARK                         _______ _______ _______ _____ _____    ______ ____
ROOT
ATOM      1  N   UNL     1      -1.278  -2.748  -0.165  0.00  0.00    -0.312 N 
ATOM      2  C   UNL     1      -2.264  -0.788  -0.512  0.00  0.00    -0.011 C 
ATOM      3  C   UNL     1      -1.091  -1.466  -0.571  0.00  0.00    +0.044 C 
ATOM      4  C   UNL     1      -3.236  -1.706  -0.041  0.00  0.00    -0.010 C 
ATOM      5  C   UNL     1      -2.598  -2.909   0.165  0.00  0.00    +0.057 C 
ATOM      6  C   UNL     1      -4.668  -1.435   0.190  0.00  0.00    +0.032 C 
ATOM      7  H   UNL     1      -0.583  -3.443  -0.117  0.00  0.00    +0.152 HD
ENDROOT
BRANCH   3  11
ATOM      8  O   UNL     1      -0.078  -0.674   1.956  0.00  0.00    -0.270 OA
ATOM      9  N   UNL     1       2.169   0.040   1.817  0.00  0.00    -0.280 N 
ATOM     10  C   UNL     1       1.176  -0.640  -0.130  0.00  0.00    +0.056 C 
ATOM     11  C   UNL     1       0.239  -1.099  -0.962  0.00  0.00    +0.019 C 
ATOM     12  C   UNL     1       2.546  -0.243  -0.434  0.00  0.00    +0.018 C 
ATOM     13  C   UNL     1       3.104   0.161   0.783  0.00  0.00    +0.051 C 
ATOM     14  C   UNL     1       0.948  -0.449   1.342  0.00  0.00    +0.250 C 
ATOM     15  C   UNL     1       3.291  -0.208  -1.598  0.00  0.00    +0.001 C 
ATOM     16  C   UNL     1       4.406   0.609   0.887  0.00  0.00    +0.015 C 
ATOM     17  C   UNL     1       4.613   0.243  -1.515  0.00  0.00    +0.000 C 
ATOM     18  C   UNL     1       5.165   0.647  -0.285  0.00  0.00    +0.001 C 
ATOM     19  H   UNL     1       2.348   0.269   2.757  0.00  0.00    +0.155 HD
ENDBRANCH   3  11
BRANCH   2  20
ATOM     20  C   UNL     1      -2.498   0.628  -0.865  0.00  0.00    +0.039 C 
BRANCH  20  21
ATOM     21  C   UNL     1      -2.314   1.617   0.303  0.00  0.00    +0.114 C 
BRANCH  21  23
ATOM     22  O   UNL     1      -2.840   3.455  -1.210  0.00  0.00    -0.250 OA
ATOM     23  C   UNL     1      -2.520   3.063  -0.097  0.00  0.00    +0.314 C 
BRANCH  23  24
ATOM     24  O   UNL     1      -2.272   3.905   0.941  0.00  0.00    -0.480 OA
ATOM     25  H   UNL     1      -2.029   3.559   1.777  0.00  0.00    +0.295 HD
ENDBRANCH  23  24
ENDBRANCH  21  23
ENDBRANCH  20  21
ENDBRANCH   2  20
TORSDOF 5
