REMARK  Name = 8420
REMARK  1 active torsions:
REMARK  status: ('A' for Active; 'I' for Inactive)
REMARK    1  A    between atoms: C_3  and  S_11
REMARK                            x       y       z     vdW  Elec       q    Type
REMARK                         _______ _______ _______ _____ _____    ______ ____
ROOT
ATOM      1  C   UNL     1       1.097  -0.549   0.019  0.00  0.00    +0.001 C 
ATOM      2  C   UNL     1       1.502   0.807  -0.005  0.00  0.00    +0.000 C 
ATOM      3  C   UNL     1      -1.231   0.158   0.047  0.00  0.00    +0.112 C 
ATOM      4  C   UNL     1      -0.273  -0.857   0.045  0.00  0.00    +0.019 C 
ATOM      5  C   UNL     1       0.524   1.815  -0.003  0.00  0.00    +0.001 C 
ATOM      6  C   UNL     1      -0.833   1.492   0.023  0.00  0.00    +0.019 C 
ATOM      7  C   UNL     1       2.075  -1.558   0.016  0.00  0.00    +0.000 C 
ATOM      8  C   UNL     1       2.872   1.114  -0.032  0.00  0.00    +0.000 C 
ATOM      9  C   UNL     1       3.431  -1.234  -0.010  0.00  0.00    +0.000 C 
ATOM     10  C   UNL     1       3.829   0.100  -0.034  0.00  0.00    +0.000 C 
ENDROOT
BRANCH   3  11
ATOM     11  S   UNL     1      -2.929  -0.245   0.085  0.00  0.00    +0.042 S 
ATOM     12  O   UNL     1      -3.377  -0.364  -1.483  0.00  0.00    -0.065 OA
ATOM     13  O   UNL     1      -3.064  -1.573   0.666  0.00  0.00    -0.065 OA
ATOM     14  O   UNL     1      -3.622   0.893   0.667  0.00  0.00    -0.065 OA
ENDBRANCH   3  11
TORSDOF 1
