REMARK  Name = 23586178
REMARK  5 active torsions:
REMARK  status: ('A' for Active; 'I' for Inactive)
REMARK    1  A    between atoms: N_3  and  C_17
REMARK    2  A    between atoms: C_7  and  C_12
REMARK    3  A    between atoms: C_11  and  C_15
REMARK    4  A    between atoms: C_17  and  C_19
REMARK    5  A    between atoms: C_17  and  C_29
REMARK                            x       y       z     vdW  Elec       q    Type
REMARK                         _______ _______ _______ _____ _____    ______ ____
ROOT
ATOM      1  S   UNL     1      -1.710   0.395   0.094  0.00  0.00    -0.026 S 
ATOM      2  O   UNL     1      -1.409  -2.085   2.963  0.00  0.00    -0.209 OA
ATOM      3  N   UNL     1       0.905   0.796   0.148  0.00  0.00    -0.289 N 
ATOM      4  N   UNL     1      -0.014  -0.731   1.699  0.00  0.00    -0.310 NA
ATOM      5  C   UNL     1      -0.093   0.118   0.721  0.00  0.00    +0.226 C 
ATOM      6  C   UNL     1      -2.335  -0.721   1.235  0.00  0.00    +0.131 C 
ATOM      7  C   UNL     1      -3.615  -1.065   1.376  0.00  0.00    +0.057 C 
ATOM      8  C   UNL     1      -1.234  -1.268   2.069  0.00  0.00    +0.213 C 
ATOM      9  H   UNL     1       0.697   1.413  -0.590  0.00  0.00    +0.151 HD
ENDROOT
BRANCH   7  12
ATOM     10  O   UNL     1      -4.523  -0.186  -0.718  0.00  0.00    -0.458 OA
ATOM     11  C   UNL     1      -5.730   0.253  -1.160  0.00  0.00    +0.123 C 
ATOM     12  C   UNL     1      -4.692  -0.548   0.581  0.00  0.00    +0.146 C 
ATOM     13  C   UNL     1      -6.669   0.175  -0.158  0.00  0.00    +0.036 C 
ATOM     14  C   UNL     1      -5.995  -0.346   0.973  0.00  0.00    +0.040 C 
BRANCH  11  15
ATOM     15  C   UNL     1      -5.786   0.704  -2.558  0.00  0.00    +0.065 C 
ATOM     16  C   UNL     1      -5.481   2.200  -2.718  0.00  0.00    +0.008 C 
ENDBRANCH  11  15
ENDBRANCH   7  12
BRANCH   3  17
ATOM     17  C   UNL     1       2.296   0.654   0.580  0.00  0.00    +0.184 C 
BRANCH  17  19
ATOM     18  F   UNL     1       4.991  -3.460  -2.140  0.00  0.00    -0.204 F 
ATOM     19  C   UNL     1       3.012  -0.437  -0.142  0.00  0.00    +0.010 C 
ATOM     20  C   UNL     1       4.043  -1.133   0.490  0.00  0.00    +0.001 C 
ATOM     21  C   UNL     1       2.649  -0.763  -1.449  0.00  0.00    +0.001 C 
ATOM     22  C   UNL     1       4.711  -2.154  -0.185  0.00  0.00    +0.029 C 
ATOM     23  C   UNL     1       3.318  -1.784  -2.124  0.00  0.00    +0.029 C 
ATOM     24  C   UNL     1       4.349  -2.480  -1.492  0.00  0.00    +0.140 C 
ENDBRANCH  17  19
BRANCH  17  29
ATOM     25  N   UNL     1       3.011   2.784  -0.538  0.00  0.00    -0.112 NA
ATOM     26  N   UNL     1       4.163   2.200   1.322  0.00  0.00    -0.089 NA
ATOM     27  N   UNL     1       3.982   3.646  -0.204  0.00  0.00    -0.140 N 
ATOM     28  N   UNL     1       4.691   3.340   0.892  0.00  0.00    -0.022 NA
ATOM     29  C   UNL     1       3.163   1.895   0.447  0.00  0.00    +0.072 C 
ATOM     30  H   UNL     1       4.165   4.456  -0.733  0.00  0.00    +0.197 HD
ENDBRANCH  17  29
ENDBRANCH   3  17
TORSDOF 5
