REMARK  Name = 10601417
REMARK  13 active torsions:
REMARK  status: ('A' for Active; 'I' for Inactive)
REMARK    1  A    between atoms: C_1  and  C_4
REMARK    2  A    between atoms: C_1  and  C_18
REMARK    3  A    between atoms: C_1  and  C_29
REMARK    4  A    between atoms: N_3  and  CA_6
REMARK    5  A    between atoms: CA_6  and  C_8
REMARK    6  A    between atoms: CA_6  and  CB_11
REMARK    7  A    between atoms: C_8  and  O_9
REMARK    8  A    between atoms: CB_11  and  CG_12
REMARK    9  A    between atoms: C_18  and  P_19
REMARK   10  A    between atoms: P_19  and  O_21
REMARK   11  A    between atoms: P_19  and  C_23
REMARK   12  A    between atoms: C_23  and  N_25
REMARK   13  A    between atoms: C_29  and  C_30
REMARK                            x       y       z     vdW  Elec       q    Type
REMARK                         _______ _______ _______ _____ _____    ______ ____
ROOT
ATOM      1  C   UNL     1      -1.195  -0.344  -0.730  0.00  0.00    +0.090 C 
ENDROOT
BRANCH   1   4
ATOM      2  O   UNL     1       0.467  -0.949  -2.396  0.00  0.00    -0.275 OA
ATOM      3  N   UNL     1       0.930  -1.372  -0.166  0.00  0.00    -0.297 N 
ATOM      4  C   ACE A   0       0.146  -0.903  -1.210  0.00  0.00    +0.223 C 
ATOM      5  H   UNL     1       0.593  -1.294   0.756  0.00  0.00    +0.150 HD
BRANCH   3   6
ATOM      6  CA  UNL     1       2.226  -1.969  -0.387  0.00  0.00    +0.176 C 
BRANCH   6   8
ATOM      7  OXT UNL     1       3.059  -4.159  -0.987  0.00  0.00    -0.248 OA
ATOM      8  C   UNL     1       2.101  -3.456  -0.686  0.00  0.00    +0.332 C 
BRANCH   8   9
ATOM      9  O   UNL     1       0.844  -3.952  -0.588  0.00  0.00    -0.479 OA
ATOM     10  H   UNL     1       0.134  -3.387  -0.356  0.00  0.00    +0.295 HD
ENDBRANCH   8   9
ENDBRANCH   6   8
BRANCH   6  11
ATOM     11  CB  UNL     1       3.147  -1.754   0.821  0.00  0.00    +0.057 C 
BRANCH  11  12
ATOM     12  CG  UNL     1       3.352  -0.295   1.153  0.00  0.00    -0.020 C 
ATOM     13  CD1 UNL     1       4.402   0.413   0.569  0.00  0.00    -0.004 C 
ATOM     14  CD2 UNL     1       2.489   0.345   2.043  0.00  0.00    -0.004 C 
ATOM     15  CE1 UNL     1       4.591   1.760   0.876  0.00  0.00    -0.000 C 
ATOM     16  CE2 UNL     1       2.677   1.693   2.349  0.00  0.00    -0.000 C 
ATOM     17  CZ  UNL     1       3.728   2.400   1.766  0.00  0.00    -0.000 C 
ENDBRANCH  11  12
ENDBRANCH   6  11
ENDBRANCH   3   6
ENDBRANCH   1   4
BRANCH   1  18
ATOM     18  C   UNL     1      -1.621   0.801  -1.655  0.00  0.00    +0.094 C 
BRANCH  18  19
ATOM     19  P   UNL     1      -0.440   2.168  -1.745  0.00  0.00    +0.200 P 
ATOM     20  O   UNL     1       0.821   1.806  -2.451  0.00  0.00    -0.292 OA
BRANCH  19  21
ATOM     21  O   UNL     1      -1.319   3.293  -2.499  0.00  0.00    -0.344 OA
ATOM     22  H   UNL     1      -1.473   3.021  -3.417  0.00  0.00    +0.218 HD
ENDBRANCH  19  21
BRANCH  19  23
ATOM     23  C   UNL     1      -0.258   2.823  -0.105  0.00  0.00    +0.015 C 
ATOM     24  C   UNL     1      -1.559   3.343   0.482  0.00  0.00    -0.014 C 
BRANCH  23  25
ATOM     25  N   UNL     1       0.673   3.924  -0.312  0.00  0.00    +0.388 N 
ATOM     26  H   UNL     1       1.542   3.564  -0.706  0.00  0.00    -0.089 HD
ATOM     27  H   UNL     1       0.866   4.378   0.580  0.00  0.00    -0.089 HD
ATOM     28  H   UNL     1       0.262   4.600  -0.956  0.00  0.00    -0.089 HD
ENDBRANCH  23  25
ENDBRANCH  19  23
ENDBRANCH  18  19
ENDBRANCH   1  18
BRANCH   1  29
ATOM     29  C   UNL     1      -2.288  -1.427  -0.658  0.00  0.00    +0.036 C 
BRANCH  29  30
ATOM     30  C   UNL     1      -3.437  -1.048   0.249  0.00  0.00    -0.022 C 
ATOM     31  C   UNL     1      -4.535  -0.360  -0.266  0.00  0.00    -0.004 C 
ATOM     32  C   UNL     1      -3.397  -1.386   1.602  0.00  0.00    -0.004 C 
ATOM     33  C   UNL     1      -5.594  -0.011   0.571  0.00  0.00    -0.000 C 
ATOM     34  C   UNL     1      -4.456  -1.037   2.439  0.00  0.00    -0.000 C 
ATOM     35  C   UNL     1      -5.555  -0.349   1.924  0.00  0.00    -0.000 C 
ENDBRANCH  29  30
ENDBRANCH   1  29
TORSDOF 13
