REMARK  Name = 121026
REMARK  3 active torsions:
REMARK  status: ('A' for Active; 'I' for Inactive)
REMARK    1  A    between atoms: N_1  and  C_6
REMARK    2  A    between atoms: C_4  and  C_13
REMARK    3  A    between atoms: C_13  and  O_14
REMARK                            x       y       z     vdW  Elec       q    Type
REMARK                         _______ _______ _______ _____ _____    ______ ____
ROOT
ATOM      1  N   UNL     1      -0.059  -0.331  -0.001  0.00  0.00    -0.189 N 
ATOM      2  N   UNL     1       0.403  -1.598  -0.001  0.00  0.00    -0.172 NA
ATOM      3  C   UNL     1       0.940   0.606   0.000  0.00  0.00    +0.097 C 
ATOM      4  C   UNL     1       2.122  -0.094   0.000  0.00  0.00    +0.113 C 
ATOM      5  C   UNL     1       1.730  -1.446   0.000  0.00  0.00    +0.126 C 
ENDROOT
BRANCH   1   6
ATOM      6  C   UNL     1      -1.418  -0.072  -0.001  0.00  0.00    +0.074 C 
ATOM      7  C   UNL     1      -1.877   1.245  -0.001  0.00  0.00    +0.017 C 
ATOM      8  C   UNL     1      -2.329  -1.128   0.001  0.00  0.00    +0.017 C 
ATOM      9  C   UNL     1      -3.247   1.506   0.000  0.00  0.00    +0.001 C 
ATOM     10  C   UNL     1      -3.699  -0.867   0.001  0.00  0.00    +0.001 C 
ATOM     11  C   UNL     1      -4.158   0.450   0.001  0.00  0.00    +0.000 C 
ENDBRANCH   1   6
BRANCH   4  13
ATOM     12  O   UNL     1       3.691   1.690   0.001  0.00  0.00    -0.245 OA
ATOM     13  C   UNL     1       3.435   0.474   0.001  0.00  0.00    +0.341 C 
BRANCH  13  14
ATOM     14  O   UNL     1       4.465  -0.436   0.000  0.00  0.00    -0.477 OA
ATOM     15  H   UNL     1       4.279  -1.354  -0.001  0.00  0.00    +0.295 HD
ENDBRANCH  13  14
ENDBRANCH   4  13
TORSDOF 3
