REMARK  Name = 11160307
REMARK  4 active torsions:
REMARK  status: ('A' for Active; 'I' for Inactive)
REMARK    1  A    between atoms: C_1  and  C_9
REMARK    2  A    between atoms: C_2  and  O_14
REMARK    3  A    between atoms: C_3  and  O_16
REMARK    4  A    between atoms: C_6  and  O_18
REMARK                            x       y       z     vdW  Elec       q    Type
REMARK                         _______ _______ _______ _____ _____    ______ ____
ROOT
ATOM      1  C   UNL     1      -0.530   0.006  -0.448  0.00  0.00    +0.122 C 
ATOM      2  C   UNL     1      -1.184  -1.206  -0.226  0.00  0.00    +0.144 C 
ATOM      3  C   UNL     1      -1.193   1.210  -0.207  0.00  0.00    +0.144 C 
ATOM      4  C   UNL     1      -2.500  -1.215   0.236  0.00  0.00    +0.074 C 
ATOM      5  C   UNL     1      -2.509   1.201   0.255  0.00  0.00    +0.074 C 
ATOM      6  C   UNL     1      -3.162  -0.011   0.477  0.00  0.00    +0.140 C 
ENDROOT
BRANCH   1   9
ATOM      7  O   UNL     1       1.047   0.034  -2.150  0.00  0.00    -0.269 OA
ATOM      8  N   UNL     1       2.003   0.013  -0.116  0.00  0.00    -0.231 N 
ATOM      9  C   UNL     1       0.862   0.015  -0.937  0.00  0.00    +0.262 C 
ATOM     10  C   UNL     1       1.993   0.003   1.267  0.00  0.00    +0.072 C 
ATOM     11  C   UNL     1       3.323  -0.017  -0.522  0.00  0.00    +0.072 C 
ATOM     12  C   UNL     1       3.292  -0.006   1.724  0.00  0.00    +0.018 C 
ATOM     13  C   UNL     1       4.133  -0.019   0.592  0.00  0.00    +0.018 C 
ENDBRANCH   1   9
BRANCH   2  14
ATOM     14  O   UNL     1      -0.555  -2.394  -0.455  0.00  0.00    -0.505 OA
ATOM     15  H   UNL     1       0.329  -2.404  -0.766  0.00  0.00    +0.292 HD
ENDBRANCH   2  14
BRANCH   3  16
ATOM     16  O   UNL     1      -0.574   2.406  -0.418  0.00  0.00    -0.505 OA
ATOM     17  H   UNL     1       0.310   2.427  -0.728  0.00  0.00    +0.292 HD
ENDBRANCH   3  16
BRANCH   6  18
ATOM     18  O   UNL     1      -4.446  -0.020   0.929  0.00  0.00    -0.505 OA
ATOM     19  H   UNL     1      -4.885  -0.835   1.078  0.00  0.00    +0.292 HD
ENDBRANCH   6  18
TORSDOF 4
