6917779
  -OEChem-10051721303D

 40 41  0     1  0  0  0  0  0999 V2000
   -1.3288    0.5198    1.6349 O   0  0  0  0  0  0  0  0  0  0  0  0
   -1.5595   -1.3190    0.2234 N   0  0  0  0  0  0  0  0  0  0  0  0
   -1.5033    3.7383    0.4953 N   0  0  0  0  0  0  0  0  0  0  0  0
   -0.1126    0.5996   -0.3590 C   0  0  1  0  0  0  0  0  0  0  0  0
   -0.5098    1.9578   -0.8399 C   0  0  1  0  0  0  0  0  0  0  0  0
   -0.5954    0.7770   -1.7621 C   0  0  0  0  0  0  0  0  0  0  0  0
   -1.7682    2.5928   -0.3712 C   0  0  0  0  0  0  0  0  0  0  0  0
    1.3158    0.2711   -0.1340 C   0  0  0  0  0  0  0  0  0  0  0  0
   -1.0548   -0.0671    0.5912 C   0  0  0  0  0  0  0  0  0  0  0  0
    1.9240    0.5718    1.0890 C   0  0  0  0  0  0  0  0  0  0  0  0
    2.0661   -0.3395   -1.1441 C   0  0  0  0  0  0  0  0  0  0  0  0
   -2.8731   -1.7823    0.6495 C   0  0  0  0  0  0  0  0  0  0  0  0
   -0.8044   -2.2473   -0.6128 C   0  0  0  0  0  0  0  0  0  0  0  0
    3.2683    0.2651    1.2998 C   0  0  0  0  0  0  0  0  0  0  0  0
    3.4105   -0.6462   -0.9332 C   0  0  0  0  0  0  0  0  0  0  0  0
    4.0114   -0.3439    0.2888 C   0  0  0  0  0  0  0  0  0  0  0  0
   -3.9313   -1.3915   -0.3304 C   0  0  0  0  0  0  0  0  0  0  0  0
    0.0450   -3.1565    0.2149 C   0  0  0  0  0  0  0  0  0  0  0  0
    0.2618    2.6836   -1.0770 H   0  0  0  0  0  0  0  0  0  0  0  0
   -1.5840    0.4198   -2.0341 H   0  0  0  0  0  0  0  0  0  0  0  0
    0.0739    0.8059   -2.6138 H   0  0  0  0  0  0  0  0  0  0  0  0
   -2.4909    1.9213    0.0981 H   0  0  0  0  0  0  0  0  0  0  0  0
   -2.2819    2.9855   -1.2576 H   0  0  0  0  0  0  0  0  0  0  0  0
    1.3637    1.0544    1.8855 H   0  0  0  0  0  0  0  0  0  0  0  0
    1.6402   -0.6023   -2.1071 H   0  0  0  0  0  0  0  0  0  0  0  0
   -1.0865    3.4124    1.3667 H   0  0  0  0  0  0  0  0  0  0  0  0
   -2.3866    4.1775    0.7520 H   0  0  0  0  0  0  0  0  0  0  0  0
   -2.8508   -2.8668    0.8006 H   0  0  0  0  0  0  0  0  0  0  0  0
   -3.1021   -1.3234    1.6179 H   0  0  0  0  0  0  0  0  0  0  0  0
   -1.5147   -2.8397   -1.2021 H   0  0  0  0  0  0  0  0  0  0  0  0
   -0.1908   -1.7291   -1.3433 H   0  0  0  0  0  0  0  0  0  0  0  0
    3.7369    0.5022    2.2505 H   0  0  0  0  0  0  0  0  0  0  0  0
    3.9892   -1.1226   -1.7191 H   0  0  0  0  0  0  0  0  0  0  0  0
    5.0581   -0.5829    0.4531 H   0  0  0  0  0  0  0  0  0  0  0  0
   -3.9732   -0.3046   -0.4603 H   0  0  0  0  0  0  0  0  0  0  0  0
   -3.7502   -1.8319   -1.3165 H   0  0  0  0  0  0  0  0  0  0  0  0
   -4.9155   -1.7271    0.0113 H   0  0  0  0  0  0  0  0  0  0  0  0
    0.7590   -2.5980    0.8283 H   0  0  0  0  0  0  0  0  0  0  0  0
   -0.5613   -3.7642    0.8949 H   0  0  0  0  0  0  0  0  0  0  0  0
    0.6131   -3.8397   -0.4245 H   0  0  0  0  0  0  0  0  0  0  0  0
  1  9  2  0  0  0  0
  2  9  1  0  0  0  0
  2 12  1  0  0  0  0
  2 13  1  0  0  0  0
  3  7  1  0  0  0  0
  3 26  1  0  0  0  0
  3 27  1  0  0  0  0
  4  5  1  0  0  0  0
  4  6  1  0  0  0  0
  4  8  1  0  0  0  0
  4  9  1  0  0  0  0
  5  6  1  0  0  0  0
  5  7  1  0  0  0  0
  5 19  1  0  0  0  0
  6 20  1  0  0  0  0
  6 21  1  0  0  0  0
  7 22  1  0  0  0  0
  7 23  1  0  0  0  0
  8 10  2  0  0  0  0
  8 11  1  0  0  0  0
 10 14  1  0  0  0  0
 10 24  1  0  0  0  0
 11 15  2  0  0  0  0
 11 25  1  0  0  0  0
 12 17  1  0  0  0  0
 12 28  1  0  0  0  0
 12 29  1  0  0  0  0
 13 18  1  0  0  0  0
 13 30  1  0  0  0  0
 13 31  1  0  0  0  0
 14 16  2  0  0  0  0
 14 32  1  0  0  0  0
 15 16  1  0  0  0  0
 15 33  1  0  0  0  0
 16 34  1  0  0  0  0
 17 35  1  0  0  0  0
 17 36  1  0  0  0  0
 17 37  1  0  0  0  0
 18 38  1  0  0  0  0
 18 39  1  0  0  0  0
 18 40  1  0  0  0  0
M  END
> <DATABASE_ID>
DB08918

> <DATABASE_NAME>
drugbank

> <ORIGINAL_SOURCE>
PUBCHEM

> <ORIGINAL_SOURCE_URL>
https://pubchem.ncbi.nlm.nih.gov/rest/pug/compound/inchikey/GJJFMKBJSRMPLA-DZGCQCFKSA-N/SDF?record_type=3d

> <SMILES>
CCN(CC)C(=O)[C@]1(C[C@H]1CN)C1=CC=CC=C1

> <INCHI_IDENTIFIER>
InChI=1S/C15H22N2O/c1-3-17(4-2)14(18)15(10-13(15)11-16)12-8-6-5-7-9-12/h5-9,13H,3-4,10-11,16H2,1-2H3/t13-,15+/m0/s1

> <INCHI_KEY>
GJJFMKBJSRMPLA-DZGCQCFKSA-N

> <FORMULA>
C15H22N2O

> <MOLECULAR_WEIGHT>
246.348

> <EXACT_MASS>
246.173213336

> <JCHEM_ACCEPTOR_COUNT>
2

> <JCHEM_AVERAGE_POLARIZABILITY>
28.32721938156928

> <JCHEM_BIOAVAILABILITY>
1

> <JCHEM_DONOR_COUNT>
1

> <JCHEM_FORMAL_CHARGE>
0

> <JCHEM_GHOSE_FILTER>
1

> <JCHEM_IUPAC>
(1S,2R)-2-(aminomethyl)-N,N-diethyl-1-phenylcyclopropane-1-carboxamide

> <JCHEM_LOGP>
1.421706622999999

> <JCHEM_MDDR_LIKE_RULE>
0

> <JCHEM_NUMBER_OF_RINGS>
2

> <JCHEM_PHYSIOLOGICAL_CHARGE>
1

> <JCHEM_PKA_STRONGEST_BASIC>
9.827548067218556

> <JCHEM_POLAR_SURFACE_AREA>
46.33

> <JCHEM_REFRACTIVITY>
73.8095

> <JCHEM_ROTATABLE_BOND_COUNT>
5

> <JCHEM_RULE_OF_FIVE>
1

> <JCHEM_TRADITIONAL_IUPAC>
levomilnacipran

> <JCHEM_VEBER_RULE>
0

> <DRUGBANK_ID>
DB08918

> <DRUG_GROUPS>
approved; investigational

> <GENERIC_NAME>
Levomilnacipran

> <SYNONYMS>
(1S,2R)-milnacipran; Levomilnacipran

> <PRODUCTS>
Fetzima; Levomilnacipran

> <SALTS>
Levomilnacipran hydrochloride

$$$$
