REMARK  Name = 44129608
REMARK  4 active torsions:
REMARK  status: ('A' for Active; 'I' for Inactive)
REMARK    1  A    between atoms: C_4  and  N_12
REMARK    2  A    between atoms: C_6  and  C_22
REMARK    3  A    between atoms: C_14  and  C_17
REMARK    4  A    between atoms: C_17  and  N_18
REMARK                            x       y       z     vdW  Elec       q    Type
REMARK                         _______ _______ _______ _____ _____    ______ ____
ROOT
ATOM      1  N   UNL     1       3.452   1.134   0.426  0.00  0.00    -0.228 NA
ATOM      2  N   UNL     1       4.286  -1.122   0.168  0.00  0.00    -0.220 N 
ATOM      3  N   UNL     1       3.841  -2.366  -0.086  0.00  0.00    -0.178 NA
ATOM      4  C   UNL     1       0.929  -0.122  -0.088  0.00  0.00    +0.054 C 
ATOM      5  C   UNL     1       2.118  -0.861  -0.059  0.00  0.00    +0.067 C 
ATOM      6  C   UNL     1       1.024   1.250   0.144  0.00  0.00    +0.033 C 
ATOM      7  C   UNL     1       3.299  -0.182   0.196  0.00  0.00    +0.150 C 
ATOM      8  C   UNL     1       2.276   1.806   0.388  0.00  0.00    +0.102 C 
ATOM      9  C   UNL     1       2.521  -2.201  -0.223  0.00  0.00    +0.122 C 
ATOM     10  H   UNL     1       5.236  -0.910   0.320  0.00  0.00    +0.176 HD
ENDROOT
BRANCH   4  12
ATOM     11  O   UNL     1      -2.640  -2.159  -0.977  0.00  0.00    -0.355 OA
ATOM     12  N   UNL     1      -0.303  -0.736  -0.339  0.00  0.00    -0.303 N 
ATOM     13  C   UNL     1      -0.788  -1.796   0.552  0.00  0.00    +0.118 C 
ATOM     14  C   UNL     1      -2.305  -1.945   0.399  0.00  0.00    +0.113 C 
ATOM     15  C   UNL     1      -0.754  -0.836  -1.733  0.00  0.00    +0.123 C 
ATOM     16  C   UNL     1      -2.265  -1.034  -1.770  0.00  0.00    +0.163 C 
BRANCH  14  17
ATOM     17  C   UNL     1      -2.823  -3.136   1.194  0.00  0.00    -0.054 C 
BRANCH  17  18
ATOM     18  N   UNL     1      -4.261  -3.291   1.029  0.00  0.00    +0.382 N 
ATOM     19  H   UNL     1      -4.581  -4.093   1.571  0.00  0.00    -0.089 HD
ATOM     20  H   UNL     1      -4.476  -3.439   0.043  0.00  0.00    -0.089 HD
ATOM     21  H   UNL     1      -4.734  -2.449   1.357  0.00  0.00    -0.089 HD
ENDBRANCH  17  18
ENDBRANCH  14  17
ENDBRANCH   4  12
BRANCH   6  22
ATOM     22  C   UNL     1      -0.143   2.107   0.137  0.00  0.00    +0.003 C 
ATOM     23  C   UNL     1      -0.559   2.710  -1.050  0.00  0.00    +0.000 C 
ATOM     24  C   UNL     1      -0.853   2.330   1.317  0.00  0.00    +0.000 C 
ATOM     25  C   UNL     1      -1.683   3.536  -1.058  0.00  0.00    +0.000 C 
ATOM     26  C   UNL     1      -1.977   3.155   1.310  0.00  0.00    +0.000 C 
ATOM     27  C   UNL     1      -2.392   3.758   0.123  0.00  0.00    +0.000 C 
ENDBRANCH   6  22
TORSDOF 4
