REMARK  Name = 14357
REMARK  4 active torsions:
REMARK  status: ('A' for Active; 'I' for Inactive)
REMARK    1  A    between atoms: C_7  and  C_12
REMARK    2  A    between atoms: C_8  and  C_16
REMARK    3  A    between atoms: C_12  and  O_13
REMARK    4  A    between atoms: C_16  and  O_17
REMARK                            x       y       z     vdW  Elec       q    Type
REMARK                         _______ _______ _______ _____ _____    ______ ____
ROOT
ATOM      1  C   UNL     1       0.216   0.674   0.000  0.00  0.00    +0.000 C 
ATOM      2  C   UNL     1      -0.216  -0.674   0.000  0.00  0.00    +0.000 C 
ATOM      3  C   UNL     1       1.592   0.955   0.000  0.00  0.00    +0.006 C 
ATOM      4  C   UNL     1      -1.592  -0.955   0.000  0.00  0.00    +0.006 C 
ATOM      5  C   UNL     1       0.742  -1.702  -0.001  0.00  0.00    +0.000 C 
ATOM      6  C   UNL     1      -0.742   1.701   0.000  0.00  0.00    +0.000 C 
ATOM      7  C   UNL     1       2.529  -0.079   0.000  0.00  0.00    +0.075 C 
ATOM      8  C   UNL     1      -2.529   0.079   0.000  0.00  0.00    +0.075 C 
ATOM      9  C   UNL     1       2.105  -1.404   0.000  0.00  0.00    +0.006 C 
ATOM     10  C   UNL     1      -2.105   1.404   0.000  0.00  0.00    +0.006 C 
ENDROOT
BRANCH   7  12
ATOM     11  O   UNL     1       4.437   1.365   0.000  0.00  0.00    -0.245 OA
ATOM     12  C   UNL     1       3.950   0.229   0.000  0.00  0.00    +0.338 C 
BRANCH  12  13
ATOM     13  O   UNL     1       4.725  -0.890   0.001  0.00  0.00    -0.477 OA
ATOM     14  H   UNL     1       4.325  -1.737   0.001  0.00  0.00    +0.295 HD
ENDBRANCH  12  13
ENDBRANCH   7  12
BRANCH   8  16
ATOM     15  O   UNL     1      -4.438  -1.364   0.000  0.00  0.00    -0.245 OA
ATOM     16  C   UNL     1      -3.950  -0.229   0.000  0.00  0.00    +0.338 C 
BRANCH  16  17
ATOM     17  O   UNL     1      -4.725   0.890   0.001  0.00  0.00    -0.477 OA
ATOM     18  H   UNL     1      -4.325   1.737   0.001  0.00  0.00    +0.295 HD
ENDBRANCH  16  17
ENDBRANCH   8  16
TORSDOF 4
