REMARK  Name = 1235170
REMARK  4 active torsions:
REMARK  status: ('A' for Active; 'I' for Inactive)
REMARK    1  A    between atoms: C_3  and  C_10
REMARK    2  A    between atoms: C_4  and  C_18
REMARK    3  A    between atoms: C_6  and  C_25
REMARK    4  A    between atoms: C_11  and  O_16
REMARK                            x       y       z     vdW  Elec       q    Type
REMARK                         _______ _______ _______ _____ _____    ______ ____
ROOT
ATOM      1  O   UNL     1       0.561   3.626  -0.338  0.00  0.00    -0.269 OA
ATOM      2  N   UNL     1      -0.844   1.825  -0.110  0.00  0.00    -0.280 N 
ATOM      3  C   UNL     1      -1.051   0.471   0.023  0.00  0.00    +0.053 C 
ATOM      4  C   UNL     1       1.365   0.148  -0.051  0.00  0.00    +0.015 C 
ATOM      5  C   UNL     1       0.003  -0.359   0.058  0.00  0.00    +0.016 C 
ATOM      6  C   UNL     1       1.582   1.477  -0.184  0.00  0.00    +0.122 C 
ATOM      7  C   UNL     1       0.403   2.412  -0.219  0.00  0.00    +0.259 C 
ATOM      8  H   UNL     1      -1.634   2.413  -0.128  0.00  0.00    +0.155 HD
ENDROOT
BRANCH   3  10
ATOM      9 BR   UNL     1      -5.385  -1.317  -2.503  0.00  0.00    -0.049 Br
ATOM     10  C   UNL     1      -2.436  -0.021   0.140  0.00  0.00    +0.048 C 
ATOM     11  C   UNL     1      -3.060  -0.142   1.385  0.00  0.00    +0.135 C 
ATOM     12  C   UNL     1      -3.135  -0.373  -1.019  0.00  0.00    +0.011 C 
ATOM     13  C   UNL     1      -4.371  -0.611   1.470  0.00  0.00    +0.037 C 
ATOM     14  C   UNL     1      -4.446  -0.841  -0.933  0.00  0.00    +0.035 C 
ATOM     15  C   UNL     1      -5.064  -0.960   0.311  0.00  0.00    +0.010 C 
BRANCH  11  16
ATOM     16  O   UNL     1      -2.406   0.192   2.533  0.00  0.00    -0.505 OA
ATOM     17  H   UNL     1      -1.524   0.509   2.495  0.00  0.00    +0.292 HD
ENDBRANCH  11  16
ENDBRANCH   3  10
BRANCH   4  18
ATOM     18  C   UNL     1       2.505  -0.795  -0.015  0.00  0.00    +0.001 C 
ATOM     19  C   UNL     1       2.982  -1.346  -1.199  0.00  0.00    +0.000 C 
ATOM     20  C   UNL     1       3.090  -1.122   1.204  0.00  0.00    +0.000 C 
ATOM     21  C   UNL     1       4.056  -2.234  -1.165  0.00  0.00    +0.000 C 
ATOM     22  C   UNL     1       4.165  -2.010   1.238  0.00  0.00    +0.000 C 
ATOM     23  C   UNL     1       4.648  -2.567   0.053  0.00  0.00    +0.000 C 
ENDBRANCH   4  18
BRANCH   6  25
ATOM     24  N   UNL     1       3.950   2.501  -0.384  0.00  0.00    -0.191 NA
ATOM     25  C   UNL     1       2.888   2.042  -0.294  0.00  0.00    +0.105 C 
ENDBRANCH   6  25
TORSDOF 4
