REMARK  Name = 76313
REMARK  4 active torsions:
REMARK  status: ('A' for Active; 'I' for Inactive)
REMARK    1  A    between atoms: C_3  and  O_11
REMARK    2  A    between atoms: O_11  and  C_12
REMARK    3  A    between atoms: C_12  and  C_14
REMARK    4  A    between atoms: C_14  and  O_15
REMARK                            x       y       z     vdW  Elec       q    Type
REMARK                         _______ _______ _______ _____ _____    ______ ____
ROOT
ATOM      1  C   UNL     1       0.905   0.155  -0.172  0.00  0.00    +0.034 C 
ATOM      2  C   UNL     1       2.184  -0.356   0.154  0.00  0.00    +0.003 C 
ATOM      3  C   UNL     1      -0.156  -0.739  -0.391  0.00  0.00    +0.139 C 
ATOM      4  C   UNL     1       2.365  -1.745   0.251  0.00  0.00    +0.000 C 
ATOM      5  C   UNL     1       0.724   1.544  -0.268  0.00  0.00    +0.003 C 
ATOM      6  C   UNL     1       3.245   0.538   0.374  0.00  0.00    +0.000 C 
ATOM      7  C   UNL     1       0.042  -2.117  -0.292  0.00  0.00    +0.037 C 
ATOM      8  C   UNL     1       1.299  -2.619   0.029  0.00  0.00    +0.003 C 
ATOM      9  C   UNL     1       1.790   2.418  -0.046  0.00  0.00    +0.000 C 
ATOM     10  C   UNL     1       3.047   1.915   0.274  0.00  0.00    +0.000 C 
ENDROOT
BRANCH   3  11
ATOM     11  O   UNL     1      -1.407  -0.293  -0.709  0.00  0.00    -0.464 OA
BRANCH  11  12
ATOM     12  C   UNL     1      -2.462  -0.642   0.184  0.00  0.00    +0.314 C 
BRANCH  12  14
ATOM     13  O   UNL     1      -3.497   1.442  -0.514  0.00  0.00    -0.246 OA
ATOM     14  C   UNL     1      -3.527   0.418   0.151  0.00  0.00    +0.359 C 
BRANCH  14  15
ATOM     15  O   UNL     1      -4.551   0.079   0.976  0.00  0.00    -0.478 OA
ATOM     16  H   UNL     1      -4.515  -0.722   1.461  0.00  0.00    +0.295 HD
ENDBRANCH  14  15
ENDBRANCH  12  14
ENDBRANCH  11  12
ENDBRANCH   3  11
TORSDOF 4
