REMARK  Name = 447364
REMARK  5 active torsions:
REMARK  status: ('A' for Active; 'I' for Inactive)
REMARK    1  A    between atoms: C_1  and  C_12
REMARK    2  A    between atoms: C_3  and  N_9
REMARK    3  A    between atoms: C_5  and  O_10
REMARK    4  A    between atoms: C_12  and  C_14
REMARK    5  A    between atoms: C_14  and  O_15
REMARK                            x       y       z     vdW  Elec       q    Type
REMARK                         _______ _______ _______ _____ _____    ______ ____
ROOT
ATOM      1  C   UNL     1      -0.956   0.363   0.556  0.00  0.00    -0.009 C 
ATOM      2  C   UNL     1       0.040  -0.607   0.436  0.00  0.00    +0.023 C 
ATOM      3  C   UNL     1       1.342  -0.233   0.106  0.00  0.00    +0.176 C 
ATOM      4  C   UNL     1      -0.648   1.707   0.346  0.00  0.00    -0.001 C 
ATOM      5  C   UNL     1       1.650   1.111  -0.104  0.00  0.00    +0.156 C 
ATOM      6  C   UNL     1       0.654   2.081   0.017  0.00  0.00    +0.038 C 
ENDROOT
BRANCH   3   9
ATOM      7  O   UNL     1       2.027  -2.434   0.183  0.00  0.00    -0.126 OA
ATOM      8  O   UNL     1       3.512  -0.894  -0.309  0.00  0.00    -0.126 OA
ATOM      9  N   UNL     1       2.343  -1.236  -0.013  0.00  0.00    +0.061 N 
ENDBRANCH   3   9
BRANCH   5  10
ATOM     10  O   UNL     1       2.916   1.502  -0.424  0.00  0.00    -0.504 OA
ATOM     11  H   UNL     1       3.596   0.863  -0.509  0.00  0.00    +0.292 HD
ENDBRANCH   5  10
BRANCH   1  12
ATOM     12  C   UNL     1      -2.349  -0.036   0.908  0.00  0.00    +0.136 C 
BRANCH  12  14
ATOM     13  O   UNL     1      -2.858  -0.236  -1.464  0.00  0.00    -0.250 OA
ATOM     14  C   UNL     1      -3.214  -0.340  -0.299  0.00  0.00    +0.318 C 
BRANCH  14  15
ATOM     15  O   UNL     1      -4.460  -0.747   0.061  0.00  0.00    -0.480 OA
ATOM     16  H   UNL     1      -4.688  -0.811   0.968  0.00  0.00    +0.295 HD
ENDBRANCH  14  15
ENDBRANCH  12  14
ENDBRANCH   1  12
TORSDOF 5
