REMARK  Name = 46937125
REMARK  5 active torsions:
REMARK  status: ('A' for Active; 'I' for Inactive)
REMARK    1  A    between atoms: C_4  and  C_11
REMARK    2  A    between atoms: C_6  and  O_16
REMARK    3  A    between atoms: CA_9  and  C_19
REMARK    4  A    between atoms: C_11  and  C_15
REMARK    5  A    between atoms: C_19  and  O_20
REMARK                            x       y       z     vdW  Elec       q    Type
REMARK                         _______ _______ _______ _____ _____    ______ ____
ROOT
ATOM      1  N   UNL     1       0.536  -1.401   0.644  0.00  0.00    -0.326 N 
ATOM      2  C   UNL     1       0.355   0.943   0.496  0.00  0.00    +0.044 C 
ATOM      3  C   UNL     1      -0.931   0.212   0.138  0.00  0.00    +0.003 C 
ATOM      4  C   UNL     1       1.345  -0.212   0.863  0.00  0.00    +0.099 C 
ATOM      5  C   UNL     1       0.751   1.865  -0.663  0.00  0.00    +0.006 C 
ATOM      6  C   UNL     1      -2.103   1.012  -0.320  0.00  0.00    +0.135 C 
ATOM      7  C   UNL     1      -0.413   2.783  -1.058  0.00  0.00    +0.003 C 
ATOM      8  C   UNL     1      -1.669   1.980  -1.429  0.00  0.00    +0.034 C 
ATOM      9  CA  UNL     1      -0.739  -1.108   0.245  0.00  0.00    +0.116 C 
ATOM     10  H   UNL     1       0.870  -2.318   0.770  0.00  0.00    +0.147 HD
ENDROOT
BRANCH   4  11
ATOM     11  C   UNL     1       2.600  -0.306   0.067  0.00  0.00    +0.034 C 
ATOM     12  C   UNL     1       3.805   0.207   0.368  0.00  0.00    -0.025 C 
ATOM     13  C   UNL     1       4.173   1.004   1.579  0.00  0.00    +0.031 C 
BRANCH  11  15
ATOM     14  O   UNL     1       1.498  -1.120  -1.891  0.00  0.00    -0.283 OA
ATOM     15  C   UNL     1       2.520  -1.057  -1.217  0.00  0.00    +0.231 C 
ENDBRANCH  11  15
ENDBRANCH   4  11
BRANCH   6  16
ATOM     16  O   UNL     1      -2.600   1.752   0.793  0.00  0.00    -0.349 OA
ATOM     17  C   UNL     1      -3.410   0.942   1.632  0.00  0.00    +0.174 C 
ENDBRANCH   6  16
BRANCH   9  19
ATOM     18  OXT UNL     1      -2.857  -1.968  -0.406  0.00  0.00    -0.244 OA
ATOM     19  C   UNL     1      -1.708  -2.157  -0.030  0.00  0.00    +0.351 C 
BRANCH  19  20
ATOM     20  O   UNL     1      -1.152  -3.371   0.190  0.00  0.00    -0.476 OA
ATOM     21  H   UNL     1      -0.263  -3.434   0.478  0.00  0.00    +0.295 HD
ENDBRANCH  19  20
ENDBRANCH   9  19
TORSDOF 5
