REMARK  Name = 2972
REMARK  1 active torsions:
REMARK  status: ('A' for Active; 'I' for Inactive)
REMARK    1  A    between atoms: C_4  and  O_10
REMARK                            x       y       z     vdW  Elec       q    Type
REMARK                         _______ _______ _______ _____ _____    ______ ____
ROOT
ATOM      1  O   UNL     1      -2.703   0.450   0.006  0.00  0.00    -0.283 OA
ATOM      2  N   UNL     1       1.351   0.525   0.008  0.00  0.00    -0.285 N 
ATOM      3  C   UNL     1       0.679  -0.722  -0.005  0.00  0.00    +0.066 C 
ATOM      4  C   UNL     1      -0.676  -0.797   0.005  0.00  0.00    +0.182 C 
ATOM      5  C   UNL     1       0.596   1.689  -0.007  0.00  0.00    +0.069 C 
ATOM      6  C   UNL     1       1.517  -1.979  -0.015  0.00  0.00    +0.051 C 
ATOM      7  C   UNL     1       2.813   0.611   0.014  0.00  0.00    +0.117 C 
ATOM      8  C   UNL     1      -1.476   0.467   0.001  0.00  0.00    +0.231 C 
ATOM      9  C   UNL     1      -0.738   1.748  -0.012  0.00  0.00    +0.061 C 
ENDROOT
BRANCH   4  10
ATOM     10  O   UNL     1      -1.362  -1.992   0.005  0.00  0.00    -0.502 OA
ATOM     11  H   UNL     1      -0.891  -2.802   0.008  0.00  0.00    +0.292 HD
ENDBRANCH   4  10
TORSDOF 1
