REMARK  Name = 25229537
REMARK  4 active torsions:
REMARK  status: ('A' for Active; 'I' for Inactive)
REMARK    1  A    between atoms: N_1  and  S_15
REMARK    2  A    between atoms: C_8  and  C_12
REMARK    3  A    between atoms: S_15  and  C_18
REMARK    4  A    between atoms: C_19  and  N_26
REMARK                            x       y       z     vdW  Elec       q    Type
REMARK                         _______ _______ _______ _____ _____    ______ ____
ROOT
ATOM      1  N   UNL     1       0.032  -1.484   0.693  0.00  0.00    -0.166 N 
ATOM      2  N   UNL     1      -3.094  -1.853  -0.899  0.00  0.00    -0.242 NA
ATOM      3  C   UNL     1      -1.171  -0.971   0.273  0.00  0.00    +0.091 C 
ATOM      4  C   UNL     1      -1.859  -2.007  -0.358  0.00  0.00    +0.098 C 
ATOM      5  C   UNL     1       0.122  -2.808   0.346  0.00  0.00    +0.090 C 
ATOM      6  C   UNL     1      -1.038  -3.160  -0.307  0.00  0.00    +0.038 C 
ATOM      7  C   UNL     1      -1.726   0.303   0.384  0.00  0.00    +0.024 C 
ATOM      8  C   UNL     1      -2.992   0.473  -0.167  0.00  0.00    +0.074 C 
ATOM      9  C   UNL     1      -3.611  -0.609  -0.779  0.00  0.00    +0.103 C 
ENDROOT
BRANCH   8  12
ATOM     10  O   UNL     1      -4.794   1.933  -0.574  0.00  0.00    -0.270 OA
ATOM     11  N   UNL     1      -2.982   2.809   0.525  0.00  0.00    -0.325 N 
ATOM     12  C   UNL     1      -3.655   1.764  -0.102  0.00  0.00    +0.244 C 
ATOM     13  H   UNL     1      -3.401   3.697   0.588  0.00  0.00    +0.145 HD
ATOM     14  H   UNL     1      -2.086   2.659   0.906  0.00  0.00    +0.145 HD
ENDBRANCH   8  12
BRANCH   1  15
ATOM     15  S   UNL     1       1.220  -0.644   1.503  0.00  0.00    +0.082 S 
ATOM     16  O   UNL     1       2.453  -1.454   1.680  0.00  0.00    -0.149 OA
ATOM     17  O   UNL     1       0.648  -0.043   2.729  0.00  0.00    -0.149 OA
BRANCH  15  18
ATOM     18  C   UNL     1       1.806   0.747   0.522  0.00  0.00    +0.148 C 
ATOM     19  C   UNL     1       2.561   0.559  -0.636  0.00  0.00    +0.162 C 
ATOM     20  C   UNL     1       1.488   2.037   0.945  0.00  0.00    +0.022 C 
ATOM     21  C   UNL     1       2.997   1.661  -1.371  0.00  0.00    +0.025 C 
ATOM     22  C   UNL     1       1.923   3.140   0.210  0.00  0.00    +0.001 C 
ATOM     23  C   UNL     1       2.678   2.952  -0.947  0.00  0.00    +0.002 C 
BRANCH  19  26
ATOM     24  O   UNL     1       3.967  -1.268  -0.693  0.00  0.00    -0.126 OA
ATOM     25  O   UNL     1       2.124  -1.330  -1.884  0.00  0.00    -0.126 OA
ATOM     26  N   UNL     1       2.901  -0.744  -1.094  0.00  0.00    +0.059 N 
ENDBRANCH  19  26
ENDBRANCH  15  18
ENDBRANCH   1  15
TORSDOF 4
