REMARK  Name = 25243828
REMARK  6 active torsions:
REMARK  status: ('A' for Active; 'I' for Inactive)
REMARK    1  A    between atoms: C_1  and  C_18
REMARK    2  A    between atoms: C_4  and  O_7
REMARK    3  A    between atoms: O_7  and  C_9
REMARK    4  A    between atoms: C_11  and  C_17
REMARK    5  A    between atoms: C_18  and  C_21
REMARK    6  A    between atoms: C_26  and  O_27
REMARK                            x       y       z     vdW  Elec       q    Type
REMARK                         _______ _______ _______ _____ _____    ______ ____
ROOT
ATOM      1  C   UNL     1       1.354  -2.678   0.094  0.00  0.00    -0.019 C 
ATOM      2  C   UNL     1       0.251  -2.248   0.831  0.00  0.00    +0.033 C 
ATOM      3  C   UNL     1       1.177  -3.537  -0.991  0.00  0.00    -0.004 C 
ATOM      4  C   UNL     1      -1.030  -2.678   0.484  0.00  0.00    +0.147 C 
ATOM      5  C   UNL     1      -0.104  -3.967  -1.338  0.00  0.00    +0.003 C 
ATOM      6  C   UNL     1      -1.208  -3.537  -0.601  0.00  0.00    +0.038 C 
ENDROOT
BRANCH   4   7
ATOM      7  O   UNL     1      -2.107  -2.261   1.204  0.00  0.00    -0.436 OA
BRANCH   7   9
ATOM      8  N   UNL     1      -2.234  -0.469  -0.284  0.00  0.00    -0.210 NA
ATOM      9  C   UNL     1      -2.741  -1.098   0.800  0.00  0.00    +0.230 C 
ATOM     10  C   UNL     1      -3.841  -0.650   1.513  0.00  0.00    +0.058 C 
ATOM     11  C   UNL     1      -3.969   1.194  -0.026  0.00  0.00    +0.091 C 
ATOM     12  C   UNL     1      -4.462   0.519   1.085  0.00  0.00    +0.010 C 
ATOM     13  C   UNL     1      -2.863   0.664  -0.670  0.00  0.00    +0.106 C 
BRANCH  11  17
ATOM     14  F   UNL     1      -5.688   2.837   0.239  0.00  0.00    -0.166 F 
ATOM     15  F   UNL     1      -3.772   3.529  -0.507  0.00  0.00    -0.166 F 
ATOM     16  F   UNL     1      -5.073   2.348  -1.788  0.00  0.00    -0.166 F 
ATOM     17  C   UNL     1      -4.610   2.448  -0.507  0.00  0.00    +0.420 C 
ENDBRANCH  11  17
ENDBRANCH   7   9
ENDBRANCH   4   7
BRANCH   1  18
ATOM     18  C   UNL     1       2.736  -2.217   0.468  0.00  0.00    +0.027 C 
BRANCH  18  21
ATOM     19  O   UNL     1       4.374   3.707   0.909  0.00  0.00    -0.226 OA
ATOM     20  N   UNL     1       4.360   1.693  -0.256  0.00  0.00    -0.246 N 
ATOM     21  C   UNL     1       3.113  -0.925  -0.253  0.00  0.00    +0.008 C 
ATOM     22  C   UNL     1       2.455   0.290   0.420  0.00  0.00    +0.022 C 
ATOM     23  C   UNL     1       4.640  -0.751  -0.300  0.00  0.00    +0.022 C 
ATOM     24  C   UNL     1       2.898   1.596  -0.238  0.00  0.00    +0.097 C 
ATOM     25  C   UNL     1       5.023   0.579  -0.947  0.00  0.00    +0.097 C 
ATOM     26  C   UNL     1       4.978   2.792   0.349  0.00  0.00    +0.402 C 
BRANCH  26  27
ATOM     27  O   UNL     1       6.341   2.820   0.307  0.00  0.00    -0.466 OA
ATOM     28  H   UNL     1       6.810   2.129  -0.117  0.00  0.00    +0.297 HD
ENDBRANCH  26  27
ENDBRANCH  18  21
ENDBRANCH   1  18
TORSDOF 6
