REMARK  Name = 54685524
REMARK  7 active torsions:
REMARK  status: ('A' for Active; 'I' for Inactive)
REMARK    1  A    between atoms: C_1  and  C_4
REMARK    2  A    between atoms: C_1  and  C_17
REMARK    3  A    between atoms: C_1  and  C_29
REMARK    4  A    between atoms: C_5  and  O_13
REMARK    5  A    between atoms: C_18  and  O_26
REMARK    6  A    between atoms: C_29  and  O_30
REMARK    7  A    between atoms: O_30  and  C_31
REMARK                            x       y       z     vdW  Elec       q    Type
REMARK                         _______ _______ _______ _____ _____    ______ ____
ROOT
ATOM      1  C   UNL     1      -0.056  -1.327   0.649  0.00  0.00    +0.162 C 
ENDROOT
BRANCH   1   4
ATOM      2  O   UNL     1      -3.801  -0.835   0.905  0.00  0.00    -0.421 OA
ATOM      3  O   UNL     1      -2.375  -2.409   1.722  0.00  0.00    -0.245 OA
ATOM      4  C   UNL     1      -1.391  -0.667   0.432  0.00  0.00    +0.102 A 
ATOM      5  C   UNL     1      -1.602   0.464  -0.270  0.00  0.00    +0.140 A 
ATOM      6  C   UNL     1      -2.951   1.012  -0.425  0.00  0.00    +0.068 A 
ATOM      7  C   UNL     1      -2.535  -1.380   1.072  0.00  0.00    +0.345 A 
ATOM      8  C   UNL     1      -4.015   0.342   0.169  0.00  0.00    +0.152 A 
ATOM      9  C   UNL     1      -3.233   2.181  -1.145  0.00  0.00    +0.006 C 
ATOM     10  C   UNL     1      -5.331   0.797   0.068  0.00  0.00    +0.038 C 
ATOM     11  C   UNL     1      -4.546   2.651  -1.256  0.00  0.00    +0.000 C 
ATOM     12  C   UNL     1      -5.594   1.959  -0.650  0.00  0.00    +0.003 C 
BRANCH   5  13
ATOM     13  O   UNL     1      -0.612   1.196  -0.889  0.00  0.00    -0.505 OA
ATOM     14  H   UNL     1       0.281   0.915  -0.838  0.00  0.00    +0.292 HD
ENDBRANCH   5  13
ENDBRANCH   1   4
BRANCH   1  17
ATOM     15  O   UNL     1       2.433   1.152   2.015  0.00  0.00    -0.421 OA
ATOM     16  O   UNL     1       0.789  -0.094   2.976  0.00  0.00    -0.245 OA
ATOM     17  C   UNL     1       1.068  -0.355   0.626  0.00  0.00    +0.102 A 
ATOM     18  C   UNL     1       1.763   0.014  -0.467  0.00  0.00    +0.140 A 
ATOM     19  C   UNL     1       2.848   0.993  -0.374  0.00  0.00    +0.068 A 
ATOM     20  C   UNL     1       1.399   0.226   1.960  0.00  0.00    +0.345 A 
ATOM     21  C   UNL     1       3.152   1.535   0.870  0.00  0.00    +0.152 A 
ATOM     22  C   UNL     1       3.604   1.418  -1.475  0.00  0.00    +0.006 C 
ATOM     23  C   UNL     1       4.170   2.474   1.046  0.00  0.00    +0.038 C 
ATOM     24  C   UNL     1       4.628   2.359  -1.317  0.00  0.00    +0.000 C 
ATOM     25  C   UNL     1       4.910   2.886  -0.057  0.00  0.00    +0.003 C 
BRANCH  18  26
ATOM     26  O   UNL     1       1.538  -0.470  -1.738  0.00  0.00    -0.505 OA
ATOM     27  H   UNL     1       0.861  -1.101  -1.886  0.00  0.00    +0.292 HD
ENDBRANCH  18  26
ENDBRANCH   1  17
BRANCH   1  29
ATOM     28  O   UNL     1      -0.603  -2.502  -1.411  0.00  0.00    -0.249 OA
ATOM     29  C   UNL     1       0.163  -2.318  -0.472  0.00  0.00    +0.325 C 
BRANCH  29  30
ATOM     30  O   UNL     1       1.367  -2.941  -0.293  0.00  0.00    -0.448 OA
BRANCH  30  31
ATOM     31  C   UNL     1       1.732  -3.882  -1.307  0.00  0.00    +0.209 C 
ATOM     32  C   UNL     1       3.080  -4.479  -0.964  0.00  0.00    +0.051 C 
ENDBRANCH  30  31
ENDBRANCH  29  30
ENDBRANCH   1  29
TORSDOF 7
