REMARK  Name = 12162152
REMARK  6 active torsions:
REMARK  status: ('A' for Active; 'I' for Inactive)
REMARK    1  A    between atoms: C_1  and  C_2
REMARK    2  A    between atoms: C_1  and  C_8
REMARK    3  A    between atoms: C_1  and  C_12
REMARK    4  A    between atoms: C_1  and  C_13
REMARK    5  A    between atoms: C_13  and  C_14
REMARK    6  A    between atoms: C_14  and  N_16
REMARK                            x       y       z     vdW  Elec       q    Type
REMARK                         _______ _______ _______ _____ _____    ______ ____
ROOT
ATOM      1  C   UNL     1       0.153   0.856   0.117  0.00  0.00    +0.096 C 
ENDROOT
BRANCH   1   2
ATOM      2  C   UNL     1       1.239  -0.242   0.032  0.00  0.00    -0.010 C 
ATOM      3  C   UNL     1       1.896  -0.406  -1.157  0.00  0.00    -0.003 C 
ATOM      4  C   UNL     1       1.484  -0.992   1.150  0.00  0.00    -0.003 C 
ATOM      5  C   UNL     1       2.875  -1.396  -1.234  0.00  0.00    -0.000 C 
ATOM      6  C   UNL     1       2.463  -1.982   1.073  0.00  0.00    -0.000 C 
ATOM      7  C   UNL     1       3.159  -2.184  -0.119  0.00  0.00    -0.000 C 
ENDBRANCH   1   2
BRANCH   1   8
ATOM      8  C   UNL     1       0.566   1.905   1.240  0.00  0.00    +0.017 C 
ATOM      9  C   UNL     1       1.904   2.611   0.953  0.00  0.00    +0.001 C 
ATOM     10  C   UNL     1      -0.501   2.978   1.522  0.00  0.00    +0.001 C 
ENDBRANCH   1   8
BRANCH   1  12
ATOM     11  N   UNL     1      -0.169   2.201  -2.146  0.00  0.00    -0.196 NA
ATOM     12  C   UNL     1      -0.024   1.605  -1.161  0.00  0.00    +0.075 C 
ENDBRANCH   1  12
BRANCH   1  13
ATOM     13  C   UNL     1      -1.232   0.204   0.488  0.00  0.00    -0.003 C 
BRANCH  13  14
ATOM     14  C   UNL     1      -1.815  -0.856  -0.483  0.00  0.00    -0.057 C 
ATOM     15  C   UNL     1      -2.125  -0.211  -1.837  0.00  0.00    -0.023 C 
BRANCH  14  16
ATOM     16  N   UNL     1      -3.032  -1.472   0.041  0.00  0.00    +0.385 N 
ATOM     17  C   UNL     1      -4.082  -0.468   0.215  0.00  0.00    -0.101 C 
ATOM     18  C   UNL     1      -2.759  -2.150   1.308  0.00  0.00    -0.101 C 
ATOM     19  H   UNL     1      -3.357  -2.166  -0.633  0.00  0.00    -0.080 HD
ENDBRANCH  14  16
ENDBRANCH  13  14
ENDBRANCH   1  13
TORSDOF 6
