REMARK  Name = 4369560
REMARK  5 active torsions:
REMARK  status: ('A' for Active; 'I' for Inactive)
REMARK    1  A    between atoms: C_1  and  N_2
REMARK    2  A    between atoms: C_1  and  C_7
REMARK    3  A    between atoms: C_1  and  C_10
REMARK    4  A    between atoms: C_7  and  C_9
REMARK    5  A    between atoms: C_10  and  C_11
REMARK                            x       y       z     vdW  Elec       q    Type
REMARK                         _______ _______ _______ _____ _____    ______ ____
ROOT
ATOM      1  C   UNL     1      -1.443   0.977  -0.351  0.00  0.00    -0.001 C 
ENDROOT
BRANCH   1   2
ATOM      2  N   UNL     1      -2.469   2.014  -0.453  0.00  0.00    +0.386 N 
ATOM      3  H   UNL     1      -2.066   2.850  -0.876  0.00  0.00    -0.089 HD
ATOM      4  H   UNL     1      -2.818   2.239   0.478  0.00  0.00    -0.089 HD
ATOM      5  H   UNL     1      -3.237   1.676  -1.032  0.00  0.00    -0.089 HD
ENDBRANCH   1   2
BRANCH   1   7
ATOM      6  O   UNL     1      -2.131  -0.410   1.506  0.00  0.00    -0.297 OA
ATOM      7  C   UNL     1      -2.129  -0.227   0.288  0.00  0.00    +0.147 C 
BRANCH   7   9
ATOM      8 CL   UNL     1      -1.670  -2.446  -1.096  0.00  0.00    -0.105 Cl
ATOM      9  C   UNL     1      -2.827  -1.193  -0.636  0.00  0.00    +0.157 C 
ENDBRANCH   7   9
ENDBRANCH   1   7
BRANCH   1  10
ATOM     10  C   UNL     1      -0.263   1.485   0.489  0.00  0.00    +0.012 C 
BRANCH  10  11
ATOM     11  C   UNL     1       1.002   0.691   0.256  0.00  0.00    -0.024 C 
ATOM     12  C   UNL     1       1.259  -0.420   1.041  0.00  0.00    -0.004 C 
ATOM     13  C   UNL     1       1.879   1.090  -0.740  0.00  0.00    -0.004 C 
ATOM     14  C   UNL     1       2.426  -1.153   0.825  0.00  0.00    -0.000 C 
ATOM     15  C   UNL     1       3.046   0.357  -0.956  0.00  0.00    -0.000 C 
ATOM     16  C   UNL     1       3.320  -0.765  -0.173  0.00  0.00    -0.000 C 
ENDBRANCH  10  11
ENDBRANCH   1  10
TORSDOF 5
