REMARK  Name = 5326871
REMARK  3 active torsions:
REMARK  status: ('A' for Active; 'I' for Inactive)
REMARK    1  A    between atoms: C_1  and  C_3
REMARK    2  A    between atoms: C_1  and  O_12
REMARK    3  A    between atoms: O_12  and  C_14
REMARK                            x       y       z     vdW  Elec       q    Type
REMARK                         _______ _______ _______ _____ _____    ______ ____
ROOT
ATOM      1  C   UNL     1       0.309   1.246  -0.722  0.00  0.00    +0.232 C 
ENDROOT
BRANCH   1   3
ATOM      2  C   UNL     1      -1.829  -0.059  -0.301  0.00  0.00    -0.000 C 
ATOM      3  C   UNL     1      -1.125   1.157  -0.297  0.00  0.00    +0.021 C 
ATOM      4  C   UNL     1      -3.182  -0.076   0.112  0.00  0.00    -0.000 C 
ATOM      5  C   UNL     1      -1.747   2.338   0.107  0.00  0.00    -0.001 C 
ATOM      6  C   UNL     1      -1.219  -1.257  -0.706  0.00  0.00    -0.000 C 
ATOM      7  C   UNL     1      -3.792   1.123   0.517  0.00  0.00    -0.000 C 
ATOM      8  C   UNL     1      -3.886  -1.291   0.108  0.00  0.00    -0.000 C 
ATOM      9  C   UNL     1      -3.078   2.321   0.514  0.00  0.00    -0.000 C 
ATOM     10  C   UNL     1      -1.933  -2.455  -0.703  0.00  0.00    -0.000 C 
ATOM     11  C   UNL     1      -3.264  -2.473  -0.297  0.00  0.00    -0.000 C 
ENDBRANCH   1   3
BRANCH   1  12
ATOM     12  O   UNL     1       1.143   1.045   0.410  0.00  0.00    -0.468 OA
BRANCH  12  14
ATOM     13  N   UNL     1       3.979  -1.259   0.543  0.00  0.00    -0.226 NA
ATOM     14  C   UNL     1       2.381   0.503   0.178  0.00  0.00    +0.170 C 
ATOM     15  C   UNL     1       2.769  -0.692   0.747  0.00  0.00    +0.160 C 
ATOM     16  C   UNL     1       3.270   1.167  -0.650  0.00  0.00    +0.041 C 
ATOM     17  C   UNL     1       4.524   0.615  -0.883  0.00  0.00    +0.024 C 
ATOM     18  C   UNL     1       4.827  -0.590  -0.269  0.00  0.00    +0.101 C 
ATOM     19  N   UNL     1       1.852  -1.364   1.593  0.00  0.00    -0.340 N 
ATOM     20  H   UNL     1       2.104  -2.219   2.012  0.00  0.00    +0.144 HD
ATOM     21  H   UNL     1       0.962  -0.977   1.761  0.00  0.00    +0.144 HD
ENDBRANCH  12  14
ENDBRANCH   1  12
TORSDOF 3
