REMARK  Name = 12229396
REMARK  3 active torsions:
REMARK  status: ('A' for Active; 'I' for Inactive)
REMARK    1  A    between atoms: C_1  and  C_13
REMARK    2  A    between atoms: C_2  and  C_7
REMARK    3  A    between atoms: C_13  and  N_14
REMARK                            x       y       z     vdW  Elec       q    Type
REMARK                         _______ _______ _______ _____ _____    ______ ____
ROOT
ATOM      1  C   UNL     1       1.347   1.057   0.020  0.00  0.00    -0.002 C 
ATOM      2  C   UNL     1      -1.347   0.333   0.007  0.00  0.00    -0.000 C 
ATOM      3  C   UNL     1       0.678   0.836   1.224  0.00  0.00    -0.003 C 
ATOM      4  C   UNL     1       0.668   0.917  -1.190  0.00  0.00    -0.003 C 
ATOM      5  C   UNL     1      -0.669   0.473   1.218  0.00  0.00    -0.000 C 
ATOM      6  C   UNL     1      -0.679   0.554  -1.197  0.00  0.00    -0.000 C 
ENDROOT
BRANCH   2   7
ATOM      7  C   UNL     1      -2.744  -0.043   0.000  0.00  0.00    -0.000 C 
ATOM      8  C   UNL     1      -3.105  -1.390  -0.043  0.00  0.00    -0.000 C 
ATOM      9  C   UNL     1      -3.732   0.942   0.037  0.00  0.00    -0.000 C 
ATOM     10  C   UNL     1      -4.452  -1.752  -0.050  0.00  0.00    +0.000 C 
ATOM     11  C   UNL     1      -5.079   0.580   0.030  0.00  0.00    +0.000 C 
ATOM     12  C   UNL     1      -5.439  -0.767  -0.013  0.00  0.00    +0.000 C 
ENDBRANCH   2   7
BRANCH   1  13
ATOM     13  C   UNL     1       2.787   1.444   0.027  0.00  0.00    +0.124 C 
BRANCH  13  14
ATOM     14  N   UNL     1       3.668   0.273  -0.016  0.00  0.00    -0.264 N 
ATOM     15  N   UNL     1       4.908  -1.396   0.697  0.00  0.00    -0.225 NA
ATOM     16  C   UNL     1       4.135  -0.317  -1.140  0.00  0.00    +0.088 C 
ATOM     17  C   UNL     1       4.145  -0.390   1.063  0.00  0.00    +0.168 C 
ATOM     18  C   UNL     1       4.907  -1.355  -0.675  0.00  0.00    +0.117 C 
ENDBRANCH  13  14
ENDBRANCH   1  13
TORSDOF 3
