REMARK  Name = 4177750
REMARK  5 active torsions:
REMARK  status: ('A' for Active; 'I' for Inactive)
REMARK    1  A    between atoms: N_3  and  C_17
REMARK    2  A    between atoms: C_8  and  N_23
REMARK    3  A    between atoms: N_23  and  C_25
REMARK    4  A    between atoms: C_25  and  C_26
REMARK    5  A    between atoms: C_26  and  O_27
REMARK                            x       y       z     vdW  Elec       q    Type
REMARK                         _______ _______ _______ _____ _____    ______ ____
ROOT
ATOM      1  O   UNL     1       1.228  -2.413   0.283  0.00  0.00    -0.269 OA
ATOM      2  O   UNL     1       2.113   2.146  -0.459  0.00  0.00    -0.269 OA
ATOM      3  N   UNL     1       1.788  -0.156  -0.085  0.00  0.00    -0.201 N 
ATOM      4  C   UNL     1      -0.983   0.378  -0.108  0.00  0.00    +0.010 C 
ATOM      5  C   UNL     1      -2.376   0.647  -0.119  0.00  0.00    +0.013 C 
ATOM      6  C   UNL     1      -0.546  -0.947  -0.022  0.00  0.00    +0.055 C 
ATOM      7  C   UNL     1      -0.083   1.446  -0.183  0.00  0.00    +0.054 C 
ATOM      8  C   UNL     1      -3.288  -0.417  -0.059  0.00  0.00    +0.045 C 
ATOM      9  C   UNL     1       0.901  -1.250   0.050  0.00  0.00    +0.259 C 
ATOM     10  C   UNL     1       1.374   1.189  -0.232  0.00  0.00    +0.259 C 
ATOM     11  C   UNL     1      -1.471  -2.000   0.036  0.00  0.00    +0.006 C 
ATOM     12  C   UNL     1      -2.825   1.974  -0.190  0.00  0.00    +0.001 C 
ATOM     13  C   UNL     1      -2.837  -1.732   0.014  0.00  0.00    +0.014 C 
ATOM     14  C   UNL     1      -0.549   2.767  -0.253  0.00  0.00    +0.005 C 
ATOM     15  C   UNL     1      -1.917   3.026  -0.252  0.00  0.00    +0.000 C 
ENDROOT
BRANCH   3  17
ATOM     16 BR   UNL     1       6.667   1.558   1.084  0.00  0.00    -0.049 Br
ATOM     17  C   UNL     1       3.210  -0.430  -0.073  0.00  0.00    +0.062 C 
ATOM     18  C   UNL     1       4.090   0.528   0.413  0.00  0.00    +0.022 C 
ATOM     19  C   UNL     1       3.676  -1.648  -0.550  0.00  0.00    +0.015 C 
ATOM     20  C   UNL     1       5.459   0.263   0.424  0.00  0.00    +0.036 C 
ATOM     21  C   UNL     1       5.045  -1.914  -0.540  0.00  0.00    +0.002 C 
ATOM     22  C   UNL     1       5.937  -0.958  -0.053  0.00  0.00    +0.007 C 
ENDBRANCH   3  17
BRANCH   8  23
ATOM     23  N   UNL     1      -4.687  -0.201  -0.072  0.00  0.00    -0.331 N 
ATOM     24  H   UNL     1      -5.024   0.723  -0.123  0.00  0.00    +0.147 HD
BRANCH  23  25
ATOM     25  C   UNL     1      -5.620  -1.265  -0.013  0.00  0.00    +0.119 C 
BRANCH  25  26
ATOM     26  C   UNL     1      -7.036  -0.720  -0.080  0.00  0.00    +0.158 C 
BRANCH  26  27
ATOM     27  O   UNL     1      -7.269   0.129   1.037  0.00  0.00    -0.380 OA
ATOM     28  H   UNL     1      -8.174   0.477   0.995  0.00  0.00    +0.211 HD
ENDBRANCH  26  27
ENDBRANCH  25  26
ENDBRANCH  23  25
ENDBRANCH   8  23
TORSDOF 5
