REMARK  Name = 24883481
REMARK  6 active torsions:
REMARK  status: ('A' for Active; 'I' for Inactive)
REMARK    1  A    between atoms: C_1  and  C_11
REMARK    2  A    between atoms: C_11  and  C_13
REMARK    3  A    between atoms: C_13  and  O_14
REMARK    4  A    between atoms: O_14  and  C_15
REMARK    5  A    between atoms: C_15  and  C_16
REMARK    6  A    between atoms: C_16  and  N_17
REMARK                            x       y       z     vdW  Elec       q    Type
REMARK                         _______ _______ _______ _____ _____    ______ ____
ROOT
ATOM      1  C   UNL     1       0.716  -0.965  -0.482  0.00  0.00    -0.011 C 
ATOM      2  C   UNL     1       1.557   0.140  -0.276  0.00  0.00    -0.003 C 
ATOM      3  C   UNL     1       2.870  -0.070   0.208  0.00  0.00    -0.000 C 
ATOM      4  C   UNL     1       1.164  -2.260  -0.216  0.00  0.00    -0.004 C 
ATOM      5  C   UNL     1       1.124   1.450  -0.538  0.00  0.00    -0.000 C 
ATOM      6  C   UNL     1       3.304  -1.380   0.471  0.00  0.00    -0.000 C 
ATOM      7  C   UNL     1       2.455  -2.467   0.260  0.00  0.00    -0.000 C 
ATOM      8  C   UNL     1       3.711   1.036   0.416  0.00  0.00    -0.000 C 
ATOM      9  C   UNL     1       1.973   2.537  -0.327  0.00  0.00    -0.000 C 
ATOM     10  C   UNL     1       3.264   2.330   0.149  0.00  0.00    -0.000 C 
ENDROOT
BRANCH   1  11
ATOM     11  C   UNL     1      -0.683  -0.814  -0.993  0.00  0.00    +0.136 C 
BRANCH  11  13
ATOM     12  O   UNL     1      -1.356  -0.023   1.207  0.00  0.00    -0.250 OA
ATOM     13  C   UNL     1      -1.654  -0.319   0.058  0.00  0.00    +0.321 C 
BRANCH  13  14
ATOM     14  O   UNL     1      -2.907  -0.257  -0.484  0.00  0.00    -0.451 OA
BRANCH  14  15
ATOM     15  C   UNL     1      -3.938   0.200   0.397  0.00  0.00    +0.185 C 
BRANCH  15  16
ATOM     16  C   UNL     1      -5.258   0.210  -0.358  0.00  0.00    -0.038 C 
BRANCH  16  17
ATOM     17  N   UNL     1      -6.341   0.652   0.507  0.00  0.00    +0.383 N 
ATOM     18  H   UNL     1      -7.216   0.652  -0.017  0.00  0.00    -0.089 HD
ATOM     19  H   UNL     1      -6.146   1.596   0.842  0.00  0.00    -0.089 HD
ATOM     20  H   UNL     1      -6.421   0.019   1.303  0.00  0.00    -0.089 HD
ENDBRANCH  16  17
ENDBRANCH  15  16
ENDBRANCH  14  15
ENDBRANCH  13  14
ENDBRANCH  11  13
ENDBRANCH   1  11
TORSDOF 6
