REMARK  Name = 54723704
REMARK  6 active torsions:
REMARK  status: ('A' for Active; 'I' for Inactive)
REMARK    1  A    between atoms: C_3  and  C_14
REMARK    2  A    between atoms: C_4  and  O_12
REMARK    3  A    between atoms: C_14  and  C_15
REMARK    4  A    between atoms: C_14  and  C_21
REMARK    5  A    between atoms: C_21  and  C_22
REMARK    6  A    between atoms: C_22  and  O_24
REMARK                            x       y       z     vdW  Elec       q    Type
REMARK                         _______ _______ _______ _____ _____    ______ ____
ROOT
ATOM      1  O   UNL     1      -2.108  -0.653   1.651  0.00  0.00    -0.421 OA
ATOM      2  O   UNL     1      -0.118  -1.444   2.417  0.00  0.00    -0.245 OA
ATOM      3  C   UNL     1      -0.072  -0.359   0.299  0.00  0.00    +0.091 A 
ATOM      4  C   UNL     1      -0.785   0.279  -0.648  0.00  0.00    +0.139 A 
ATOM      5  C   UNL     1      -0.741  -0.864   1.533  0.00  0.00    +0.345 A 
ATOM      6  C   UNL     1      -2.227   0.486  -0.492  0.00  0.00    +0.068 A 
ATOM      7  C   UNL     1      -2.848   0.011   0.657  0.00  0.00    +0.152 A 
ATOM      8  C   UNL     1      -3.022   1.140  -1.444  0.00  0.00    +0.006 C 
ATOM      9  C   UNL     1      -4.216   0.166   0.883  0.00  0.00    +0.038 C 
ATOM     10  C   UNL     1      -4.396   1.303  -1.233  0.00  0.00    +0.000 C 
ATOM     11  C   UNL     1      -4.992   0.816  -0.070  0.00  0.00    +0.003 C 
ENDROOT
BRANCH   4  12
ATOM     12  O   UNL     1      -0.258   0.787  -1.816  0.00  0.00    -0.506 OA
ATOM     13  H   UNL     1       0.658   0.697  -1.995  0.00  0.00    +0.292 HD
ENDBRANCH   4  12
BRANCH   3  14
ATOM     14  C   UNL     1       1.406  -0.638   0.243  0.00  0.00    +0.056 C 
BRANCH  14  15
ATOM     15  C   UNL     1       2.197   0.657   0.203  0.00  0.00    -0.018 C 
ATOM     16  C   UNL     1       2.521   1.313   1.391  0.00  0.00    -0.004 C 
ATOM     17  C   UNL     1       2.599   1.191  -1.021  0.00  0.00    -0.004 C 
ATOM     18  C   UNL     1       3.248   2.503   1.354  0.00  0.00    -0.000 C 
ATOM     19  C   UNL     1       3.326   2.381  -1.058  0.00  0.00    -0.000 C 
ATOM     20  C   UNL     1       3.650   3.037   0.130  0.00  0.00    -0.000 C 
ENDBRANCH  14  15
BRANCH  14  21
ATOM     21  C   UNL     1       1.732  -1.592  -0.931  0.00  0.00    +0.038 C 
BRANCH  21  22
ATOM     22  C   UNL     1       1.348  -3.056  -0.666  0.00  0.00    +0.111 C 
ATOM     23  C   UNL     1       1.698  -3.938  -1.858  0.00  0.00    +0.032 C 
BRANCH  22  24
ATOM     24  O   UNL     1       2.056  -3.526   0.477  0.00  0.00    -0.384 OA
ATOM     25  H   UNL     1       1.840  -2.971   1.242  0.00  0.00    +0.210 HD
ENDBRANCH  22  24
ENDBRANCH  21  22
ENDBRANCH  14  21
ENDBRANCH   3  14
TORSDOF 6
