REMARK  Name = 16045340
REMARK  6 active torsions:
REMARK  status: ('A' for Active; 'I' for Inactive)
REMARK    1  A    between atoms: C_2  and  O_8
REMARK    2  A    between atoms: C_4  and  O_20
REMARK    3  A    between atoms: O_8  and  C_9
REMARK    4  A    between atoms: C_9  and  C_13
REMARK    5  A    between atoms: O_20  and  C_22
REMARK    6  A    between atoms: C_25  and  C_29
REMARK                            x       y       z     vdW  Elec       q    Type
REMARK                         _______ _______ _______ _____ _____    ______ ____
ROOT
ATOM      1 CL   UNL     1      -3.902  -3.073  -1.066  0.00  0.00    -0.079 Cl
ATOM      2  C   UNL     1      -2.859   0.959   0.659  0.00  0.00    +0.142 C 
ATOM      3  C   UNL     1      -2.013  -0.121   0.888  0.00  0.00    +0.075 C 
ATOM      4  C   UNL     1      -2.328  -1.373   0.358  0.00  0.00    +0.159 C 
ATOM      5  C   UNL     1      -4.018   0.800  -0.096  0.00  0.00    +0.038 C 
ATOM      6  C   UNL     1      -3.487  -1.537  -0.399  0.00  0.00    +0.092 C 
ATOM      7  C   UNL     1      -4.332  -0.451  -0.626  0.00  0.00    +0.018 C 
ENDROOT
BRANCH   2   8
ATOM      8  O   UNL     1      -2.550   2.186   1.179  0.00  0.00    -0.469 OA
BRANCH   8   9
ATOM      9  C   UNL     1      -1.754   3.044   0.361  0.00  0.00    +0.248 C 
BRANCH   9  13
ATOM     10  N   UNL     1       0.194   2.619   1.843  0.00  0.00    -0.228 N 
ATOM     11  N   UNL     1       1.521   2.376   1.877  0.00  0.00    -0.128 NA
ATOM     12  N   UNL     1       3.114   2.171   0.059  0.00  0.00    -0.192 NA
ATOM     13  C   UNL     1      -0.324   2.773   0.586  0.00  0.00    +0.093 C 
ATOM     14  C   UNL     1       0.745   2.618  -0.254  0.00  0.00    +0.060 C 
ATOM     15  C   UNL     1       1.873   2.372   0.587  0.00  0.00    +0.050 C 
ATOM     16  C   UNL     1       0.711   2.689  -1.638  0.00  0.00    +0.065 C 
ATOM     17  C   UNL     1       1.992   2.480  -2.159  0.00  0.00    +0.001 C 
ATOM     18  C   UNL     1       3.100   2.238  -1.310  0.00  0.00    +0.105 C 
ATOM     19  H   UNL     1      -0.356   2.681   2.656  0.00  0.00    +0.175 HD
ENDBRANCH   9  13
ENDBRANCH   8   9
ENDBRANCH   2   8
BRANCH   4  20
ATOM     20  O   UNL     1      -1.483  -2.416   0.594  0.00  0.00    -0.452 OA
BRANCH  20  22
ATOM     21 CL   UNL     1       1.691  -1.101  -3.158  0.00  0.00    -0.082 Cl
ATOM     22  C   UNL     1      -0.178  -2.299   0.149  0.00  0.00    +0.147 C 
ATOM     23  C   UNL     1       0.858  -2.668   0.989  0.00  0.00    +0.048 C 
ATOM     24  C   UNL     1       0.058  -1.817  -1.126  0.00  0.00    +0.049 C 
ATOM     25  C   UNL     1       2.173  -2.550   0.539  0.00  0.00    +0.072 C 
ATOM     26  C   UNL     1       1.373  -1.699  -1.576  0.00  0.00    +0.061 C 
ATOM     27  C   UNL     1       2.431  -2.065  -0.743  0.00  0.00    +0.022 C 
BRANCH  25  29
ATOM     28  N   UNL     1       4.137  -3.231   2.089  0.00  0.00    -0.191 NA
ATOM     29  C   UNL     1       3.255  -2.925   1.393  0.00  0.00    +0.101 C 
ENDBRANCH  25  29
ENDBRANCH  20  22
ENDBRANCH   4  20
TORSDOF 6
