REMARK  Name = 5289162
REMARK  6 active torsions:
REMARK  status: ('A' for Active; 'I' for Inactive)
REMARK    1  A    between atoms: C_1  and  N_8
REMARK    2  A    between atoms: C_2  and  C_20
REMARK    3  A    between atoms: C_5  and  O_23
REMARK    4  A    between atoms: C_9  and  C_13
REMARK    5  A    between atoms: C_20  and  O_21
REMARK    6  A    between atoms: O_23  and  C_26
REMARK                            x       y       z     vdW  Elec       q    Type
REMARK                         _______ _______ _______ _____ _____    ______ ____
ROOT
ATOM      1  C   UNL     1       0.041   0.271  -0.538  0.00  0.00    +0.057 C 
ATOM      2  C   UNL     1       0.785   1.361  -0.118  0.00  0.00    +0.092 C 
ATOM      3  C   UNL     1       0.631  -0.794  -1.198  0.00  0.00    +0.018 C 
ATOM      4  C   UNL     1       2.158   1.387  -0.365  0.00  0.00    +0.046 C 
ATOM      5  C   UNL     1       2.767   0.322  -1.029  0.00  0.00    +0.160 C 
ATOM      6  C   UNL     1       2.003  -0.769  -1.445  0.00  0.00    +0.040 C 
ENDROOT
BRANCH   1   8
ATOM      7  O   UNL     1      -1.976  -1.834  -1.238  0.00  0.00    -0.270 OA
ATOM      8  N   UNL     1      -1.355   0.224  -0.297  0.00  0.00    -0.280 N 
ATOM      9  C   UNL     1      -2.263  -0.784  -0.644  0.00  0.00    +0.250 C 
ATOM     10  H   UNL     1      -1.735   1.000   0.174  0.00  0.00    +0.155 HD
BRANCH   9  13
ATOM     11 CL   UNL     1      -3.635  -2.812   1.218  0.00  0.00    -0.082 Cl
ATOM     12 CL   UNL     1      -7.952   0.365   0.746  0.00  0.00    -0.082 Cl
ATOM     13  C   UNL     1      -3.653  -0.535  -0.284  0.00  0.00    +0.064 C 
ATOM     14  C   UNL     1      -4.364  -1.394   0.554  0.00  0.00    +0.063 C 
ATOM     15  C   UNL     1      -4.271   0.603  -0.803  0.00  0.00    +0.006 C 
ATOM     16  C   UNL     1      -5.694  -1.115   0.873  0.00  0.00    +0.023 C 
ATOM     17  C   UNL     1      -5.600   0.881  -0.484  0.00  0.00    +0.012 C 
ATOM     18  C   UNL     1      -6.311   0.023   0.354  0.00  0.00    +0.059 C 
ENDBRANCH   9  13
ENDBRANCH   1   8
BRANCH   2  20
ATOM     19  O   UNL     1      -0.980   2.882   0.425  0.00  0.00    -0.245 OA
ATOM     20  C   UNL     1       0.180   2.490   0.577  0.00  0.00    +0.339 C 
BRANCH  20  21
ATOM     21  O   UNL     1       1.043   3.090   1.440  0.00  0.00    -0.477 OA
ATOM     22  H   UNL     1       1.917   2.764   1.530  0.00  0.00    +0.295 HD
ENDBRANCH  20  21
ENDBRANCH   2  20
BRANCH   5  23
ATOM     23  O   UNL     1       4.106   0.346  -1.269  0.00  0.00    -0.392 OA
BRANCH  23  26
ATOM     24  N   UNL     1       4.345  -0.699   0.784  0.00  0.00    -0.162 NA
ATOM     25  N   UNL     1       6.258  -0.157  -0.578  0.00  0.00    -0.185 NA
ATOM     26  C   UNL     1       4.943  -0.196  -0.308  0.00  0.00    +0.196 C 
ATOM     27  C   UNL     1       5.189  -1.218   1.699  0.00  0.00    +0.110 C 
ATOM     28  C   UNL     1       7.044  -0.693   0.379  0.00  0.00    +0.167 C 
ATOM     29  C   UNL     1       6.561  -1.243   1.549  0.00  0.00    +0.022 C 
ENDBRANCH  23  26
ENDBRANCH   5  23
TORSDOF 6
