REMARK  Name = 194777
REMARK  10 active torsions:
REMARK  status: ('A' for Active; 'I' for Inactive)
REMARK    1  A    between atoms: N_2  and  C_17
REMARK    2  A    between atoms: C_3  and  C_5
REMARK    3  A    between atoms: C_5  and  C_6
REMARK    4  A    between atoms: C_5  and  C_10
REMARK    5  A    between atoms: C_6  and  C_7
REMARK    6  A    between atoms: C_10  and  C_13
REMARK    7  A    between atoms: N_12  and  O_15
REMARK    8  A    between atoms: C_17  and  C_20
REMARK    9  A    between atoms: C_17  and  C_23
REMARK   10  A    between atoms: C_23  and  C_24
REMARK                            x       y       z     vdW  Elec       q    Type
REMARK                         _______ _______ _______ _____ _____    ______ ____
ROOT
ATOM      1  O   UNL     1      -1.339   0.368  -1.574  0.00  0.00    -0.275 OA
ATOM      2  N   UNL     1      -0.454   0.345   0.569  0.00  0.00    -0.298 N 
ATOM      3  C   UNL     1      -1.458   0.548  -0.362  0.00  0.00    +0.223 C 
ATOM      4  H   UNL     1      -0.647   0.517   1.519  0.00  0.00    +0.150 HD
ENDROOT
BRANCH   3   5
ATOM      5  C   UNL     1      -2.780   1.028   0.237  0.00  0.00    +0.086 C 
BRANCH   5   6
ATOM      6  C   UNL     1      -2.641   2.389   0.948  0.00  0.00    +0.010 C 
BRANCH   6   7
ATOM      7  C   UNL     1      -2.112   3.538   0.063  0.00  0.00    +0.000 C 
ATOM      8  C   UNL     1      -3.077   3.899  -1.067  0.00  0.00    +0.000 C 
ATOM      9  C   UNL     1      -0.753   3.149  -0.526  0.00  0.00    +0.000 C 
ENDBRANCH   6   7
ENDBRANCH   5   6
BRANCH   5  10
ATOM     10  C   UNL     1      -3.345  -0.041   1.190  0.00  0.00    +0.096 C 
BRANCH  10  13
ATOM     11  O   UNL     1      -2.597  -2.207   0.477  0.00  0.00    -0.273 OA
ATOM     12  N   UNL     1      -4.737  -1.536  -0.085  0.00  0.00    -0.197 N 
ATOM     13  C   UNL     1      -3.506  -1.380   0.500  0.00  0.00    +0.245 C 
ATOM     14  H   UNL     1      -5.431  -0.839  -0.036  0.00  0.00    +0.182 HD
BRANCH  12  15
ATOM     15  O   UNL     1      -4.945  -2.748  -0.756  0.00  0.00    -0.295 OA
ATOM     16  H   UNL     1      -5.839  -2.759  -1.132  0.00  0.00    +0.241 HD
ENDBRANCH  12  15
ENDBRANCH  10  13
ENDBRANCH   5  10
ENDBRANCH   3   5
BRANCH   2  17
ATOM     17  C   UNL     1       0.866  -0.110   0.199  0.00  0.00    +0.153 C 
BRANCH  17  20
ATOM     18  O   UNL     1       0.630  -2.320   1.168  0.00  0.00    -0.273 OA
ATOM     19  N   UNL     1       0.983  -2.130  -1.120  0.00  0.00    -0.301 N 
ATOM     20  C   UNL     1       0.825  -1.634   0.167  0.00  0.00    +0.241 C 
ATOM     21  C   UNL     1       0.935  -3.539  -1.439  0.00  0.00    +0.111 C 
ATOM     22  H   UNL     1       1.135  -1.490  -1.853  0.00  0.00    +0.150 HD
ENDBRANCH  17  20
BRANCH  17  23
ATOM     23  C   UNL     1       1.940   0.373   1.180  0.00  0.00    +0.055 C 
BRANCH  23  24
ATOM     24  C   UNL     1       3.327   0.353   0.584  0.00  0.00    -0.020 C 
ATOM     25  C   UNL     1       4.103  -0.789   0.706  0.00  0.00    -0.004 C 
ATOM     26  C   UNL     1       3.799   1.477  -0.076  0.00  0.00    -0.004 C 
ATOM     27  C   UNL     1       5.384  -0.807   0.155  0.00  0.00    -0.000 C 
ATOM     28  C   UNL     1       5.080   1.458  -0.628  0.00  0.00    -0.000 C 
ATOM     29  C   UNL     1       5.873   0.316  -0.512  0.00  0.00    -0.000 C 
ENDBRANCH  23  24
ENDBRANCH  17  23
ENDBRANCH   2  17
TORSDOF 10
