REMARK  Name = 16741209
REMARK  15 active torsions:
REMARK  status: ('A' for Active; 'I' for Inactive)
REMARK    1  A    between atoms: C_1  and  N_3
REMARK    2  A    between atoms: C_1  and  C_15
REMARK    3  A    between atoms: C_1  and  C_18
REMARK    4  A    between atoms: C_4  and  C_6
REMARK    5  A    between atoms: C_6  and  O_7
REMARK    6  A    between atoms: O_7  and  C_8
REMARK    7  A    between atoms: C_15  and  O_16
REMARK    8  A    between atoms: C_18  and  O_19
REMARK    9  A    between atoms: O_19  and  N_20
REMARK   10  A    between atoms: C_21  and  C_23
REMARK   11  A    between atoms: C_21  and  C_26
REMARK   12  A    between atoms: C_23  and  O_24
REMARK   13  A    between atoms: C_26  and  C_27
REMARK   14  A    between atoms: C_27  and  C_29
REMARK   15  A    between atoms: C_29  and  O_30
REMARK                            x       y       z     vdW  Elec       q    Type
REMARK                         _______ _______ _______ _____ _____    ______ ____
ROOT
ATOM      1  C   UNK A   1      -2.129   2.549  -0.306  0.00  0.00    +0.218 C 
ENDROOT
BRANCH   1   3
ATOM      2  O   UNK A   0      -0.018   1.124  -1.688  0.00  0.00    -0.271 OA
ATOM      3  N   UNK A   1      -0.735   2.483   0.058  0.00  0.00    -0.291 N 
ATOM      4  C   UNK A   0       0.207   1.771  -0.669  0.00  0.00    +0.267 C 
ATOM      5  H   UNK A   1      -0.438   2.967   0.863  0.00  0.00    +0.150 HD
BRANCH   4   6
ATOM      6  C   UNK A   0       1.588   1.879  -0.058  0.00  0.00    +0.289 C 
BRANCH   6   7
ATOM      7  O   UNK A   0       2.530   1.158  -0.823  0.00  0.00    -0.466 OA
BRANCH   7   8
ATOM      8  C   UNK A   0       3.607   0.626  -0.153  0.00  0.00    +0.139 C 
ATOM      9  C   UNK A   0       4.099   1.256   0.989  0.00  0.00    +0.037 C 
ATOM     10  C   UNK A   0       4.206  -0.546  -0.617  0.00  0.00    +0.037 C 
ATOM     11  C   UNK A   0       5.192   0.717   1.668  0.00  0.00    +0.003 C 
ATOM     12  C   UNK A   0       5.298  -1.086   0.062  0.00  0.00    +0.003 C 
ATOM     13  C   UNK A   0       5.792  -0.455   1.204  0.00  0.00    +0.000 C 
ENDBRANCH   7   8
ENDBRANCH   6   7
ENDBRANCH   4   6
ENDBRANCH   1   3
BRANCH   1  15
ATOM     14  O   UNK A   1      -2.289   4.524   1.109  0.00  0.00    -0.248 OA
ATOM     15  C   UNK A   1      -2.640   3.914   0.107  0.00  0.00    +0.336 C 
BRANCH  15  16
ATOM     16  O   UNK A   1      -3.587   4.380  -0.748  0.00  0.00    -0.479 OA
ATOM     17  H   UNK A   1      -3.825   3.880  -1.504  0.00  0.00    +0.295 HD
ENDBRANCH  15  16
ENDBRANCH   1  15
BRANCH   1  18
ATOM     18  C   UNK A   1      -2.938   1.450   0.366  0.00  0.00    +0.269 C 
BRANCH  18  19
ATOM     19  O   UNK A   1      -2.454   0.186  -0.062  0.00  0.00    -0.375 OA
BRANCH  19  20
ATOM     20  N   UNK A   1      -3.213  -0.807   0.569  0.00  0.00    -0.081 NA
ATOM     21  C   UNK A   1      -2.815  -1.988   0.214  0.00  0.00    +0.172 C 
BRANCH  21  23
ATOM     22  O   UNK A   1      -3.585  -3.296   2.050  0.00  0.00    -0.244 OA
ATOM     23  C   UNK A   1      -3.539  -3.139   0.847  0.00  0.00    +0.355 C 
BRANCH  23  24
ATOM     24  O   UNK A   1      -4.109  -3.884  -0.109  0.00  0.00    -0.476 OA
ATOM     25  H   UNK A   1      -3.997  -3.654  -1.010  0.00  0.00    +0.295 HD
ENDBRANCH  23  24
ENDBRANCH  21  23
BRANCH  21  26
ATOM     26  C   UNK A   1      -1.685  -2.329  -0.731  0.00  0.00    +0.068 C 
BRANCH  26  27
ATOM     27  C   UNK A   1      -0.343  -2.328  -0.003  0.00  0.00    +0.116 C 
BRANCH  27  29
ATOM     28  O   UNK A   1       0.866  -2.388  -2.121  0.00  0.00    -0.250 OA
ATOM     29  C   UNK A   1       0.828  -2.612  -0.919  0.00  0.00    +0.314 C 
BRANCH  29  30
ATOM     30  O   UNK A   1       1.867  -3.161  -0.236  0.00  0.00    -0.480 OA
ATOM     31  H   UNK A   1       1.793  -3.315   0.685  0.00  0.00    +0.295 HD
ENDBRANCH  29  30
ENDBRANCH  27  29
ENDBRANCH  26  27
ENDBRANCH  21  26
ENDBRANCH  19  20
ENDBRANCH  18  19
ENDBRANCH   1  18
TORSDOF 15
