REMARK  Name = 42609673
REMARK  12 active torsions:
REMARK  status: ('A' for Active; 'I' for Inactive)
REMARK    1  A    between atoms: C_1  and  C_4
REMARK    2  A    between atoms: C_1  and  C_16
REMARK    3  A    between atoms: C_1  and  C_33
REMARK    4  A    between atoms: N_3  and  C_6
REMARK    5  A    between atoms: C_6  and  C_9
REMARK    6  A    between atoms: C_6  and  C_12
REMARK    7  A    between atoms: C_16  and  C_19
REMARK    8  A    between atoms: C_16  and  C_23
REMARK    9  A    between atoms: N_18  and  O_21
REMARK   10  A    between atoms: C_23  and  N_25
REMARK   11  A    between atoms: C_26  and  C_30
REMARK   12  A    between atoms: C_33  and  C_34
REMARK                            x       y       z     vdW  Elec       q    Type
REMARK                         _______ _______ _______ _____ _____    ______ ____
ROOT
ATOM      1  C   UNL     1      -1.587  -1.065   0.149  0.00  0.00    +0.087 C 
ENDROOT
BRANCH   1   4
ATOM      2  O   UNL     1       0.083  -0.160  -1.369  0.00  0.00    -0.275 OA
ATOM      3  N   UNL     1       0.807  -1.139   0.602  0.00  0.00    -0.298 N 
ATOM      4  C   UNL     1      -0.158  -0.725  -0.303  0.00  0.00    +0.223 C 
ATOM      5  H   UNL     1       0.515  -1.585   1.430  0.00  0.00    +0.150 HD
BRANCH   3   6
ATOM      6  C   UNL     1       2.221  -0.947   0.384  0.00  0.00    +0.148 C 
BRANCH   6   9
ATOM      7  O   UNL     1       2.219  -3.272  -0.313  0.00  0.00    -0.273 OA
ATOM      8  N   UNL     1       3.603  -1.786  -1.429  0.00  0.00    -0.301 N 
ATOM      9  C   UNL     1       2.668  -2.137  -0.466  0.00  0.00    +0.240 C 
ATOM     10  C   UNL     1       4.144  -2.749  -2.357  0.00  0.00    +0.111 C 
ATOM     11  H   UNL     1       3.908  -0.851  -1.480  0.00  0.00    +0.150 HD
ENDBRANCH   6   9
BRANCH   6  12
ATOM     12  C   UNL     1       3.019  -0.770   1.709  0.00  0.00    +0.025 C 
ATOM     13  C   UNL     1       2.441   0.423   2.502  0.00  0.00    +0.002 C 
ATOM     14  C   UNL     1       2.887  -2.026   2.593  0.00  0.00    +0.002 C 
ATOM     15  C   UNL     1       4.516  -0.504   1.459  0.00  0.00    +0.002 C 
ENDBRANCH   6  12
ENDBRANCH   3   6
ENDBRANCH   1   4
BRANCH   1  16
ATOM     16  C   UNL     1      -2.448   0.223   0.305  0.00  0.00    +0.107 C 
BRANCH  16  19
ATOM     17  O   UNL     1      -4.237  -0.716   1.659  0.00  0.00    -0.273 OA
ATOM     18  N   UNL     1      -4.779   0.277  -0.350  0.00  0.00    -0.197 N 
ATOM     19  C   UNL     1      -3.906  -0.132   0.629  0.00  0.00    +0.246 C 
ATOM     20  H   UNL     1      -4.474   0.742  -1.163  0.00  0.00    +0.182 HD
BRANCH  18  21
ATOM     21  O   UNL     1      -6.131  -0.010  -0.121  0.00  0.00    -0.295 OA
ATOM     22  H   UNL     1      -6.662   0.316  -0.864  0.00  0.00    +0.241 HD
ENDBRANCH  18  21
ENDBRANCH  16  19
BRANCH  16  23
ATOM     23  C   UNL     1      -1.872   1.214   1.329  0.00  0.00    +0.099 C 
BRANCH  23  25
ATOM     24  O   UNL     1      -1.924   3.708  -0.092  0.00  0.00    -0.268 OA
ATOM     25  N   UNL     1      -0.736   1.931   0.807  0.00  0.00    -0.299 N 
ATOM     26  C   UNL     1      -0.860   3.136   0.130  0.00  0.00    +0.270 C 
ATOM     27  H   UNL     1       0.163   1.551   0.935  0.00  0.00    +0.150 HD
BRANCH  26  30
ATOM     28  S   UNL     1       0.385   5.224  -1.222  0.00  0.00    -0.061 S 
ATOM     29  N   UNL     1       1.581   3.178  -0.192  0.00  0.00    -0.232 NA
ATOM     30  C   UNL     1       0.404   3.736  -0.369  0.00  0.00    +0.164 C 
ATOM     31  C   UNL     1       2.090   5.131  -1.376  0.00  0.00    +0.058 C 
ATOM     32  C   UNL     1       2.546   3.979  -0.770  0.00  0.00    +0.107 C 
ENDBRANCH  26  30
ENDBRANCH  23  25
ENDBRANCH  16  23
ENDBRANCH   1  16
BRANCH   1  33
ATOM     33  C   UNL     1      -2.187  -2.102  -0.831  0.00  0.00    +0.010 C 
BRANCH  33  34
ATOM     34  C   UNL     1      -1.409  -3.424  -0.990  0.00  0.00    +0.000 C 
ATOM     35  C   UNL     1      -1.276  -4.190   0.326  0.00  0.00    +0.000 C 
ATOM     36  C   UNL     1      -2.102  -4.307  -2.032  0.00  0.00    +0.000 C 
ENDBRANCH  33  34
ENDBRANCH   1  33
TORSDOF 12
