REMARK  Name = 3781
REMARK  3 active torsions:
REMARK  status: ('A' for Active; 'I' for Inactive)
REMARK    1  A    between atoms: N_2  and  C_15
REMARK    2  A    between atoms: C_15  and  C_16
REMARK    3  A    between atoms: C_16  and  N_18
REMARK                            x       y       z     vdW  Elec       q    Type
REMARK                         _______ _______ _______ _____ _____    ______ ____
ROOT
ATOM      1  S   UNL     1       2.662  -1.041   0.903  0.00  0.00    -0.083 S 
ATOM      2  N   UNL     1       0.027   0.046  -0.359  0.00  0.00    -0.274 N 
ATOM      3  N   UNL     1       0.939   2.247  -0.732  0.00  0.00    -0.228 NA
ATOM      4  C   UNL     1       0.114  -1.361  -0.224  0.00  0.00    +0.059 C 
ATOM      5  C   UNL     1       1.106   0.970  -0.279  0.00  0.00    +0.141 C 
ATOM      6  C   UNL     1       1.260  -1.971   0.322  0.00  0.00    +0.043 C 
ATOM      7  C   UNL     1       2.341   0.576   0.249  0.00  0.00    +0.061 C 
ATOM      8  C   UNL     1      -0.924  -2.221  -0.646  0.00  0.00    +0.015 C 
ATOM      9  C   UNL     1       1.340  -3.370   0.452  0.00  0.00    +0.008 C 
ATOM     10  C   UNL     1       3.389   1.507   0.303  0.00  0.00    +0.011 C 
ATOM     11  C   UNL     1      -0.838  -3.611  -0.518  0.00  0.00    +0.001 C 
ATOM     12  C   UNL     1       0.294  -4.186   0.035  0.00  0.00    +0.001 C 
ATOM     13  C   UNL     1       1.970   3.118  -0.667  0.00  0.00    +0.100 C 
ATOM     14  C   UNL     1       3.209   2.799  -0.163  0.00  0.00    +0.021 C 
ENDROOT
BRANCH   2  15
ATOM     15  C   UNL     1      -1.262   0.625  -0.761  0.00  0.00    +0.076 C 
BRANCH  15  16
ATOM     16  C   UNL     1      -2.187   0.775   0.452  0.00  0.00    -0.038 C 
ATOM     17  C   UNL     1      -1.573   1.655   1.541  0.00  0.00    -0.021 C 
BRANCH  16  18
ATOM     18  N   UNL     1      -3.449   1.375   0.018  0.00  0.00    +0.387 N 
ATOM     19  C   UNL     1      -4.379   1.475   1.141  0.00  0.00    -0.101 C 
ATOM     20  C   UNL     1      -4.039   0.593  -1.067  0.00  0.00    -0.101 C 
ATOM     21  H   UNL     1      -3.260   2.316  -0.329  0.00  0.00    -0.080 HD
ENDBRANCH  16  18
ENDBRANCH  15  16
ENDBRANCH   2  15
TORSDOF 3
