REMARK  Name = 4636204
REMARK  4 active torsions:
REMARK  status: ('A' for Active; 'I' for Inactive)
REMARK    1  A    between atoms: N_2  and  C_16
REMARK    2  A    between atoms: C_5  and  C_10
REMARK    3  A    between atoms: C_16  and  C_17
REMARK    4  A    between atoms: C_17  and  C_18
REMARK                            x       y       z     vdW  Elec       q    Type
REMARK                         _______ _______ _______ _____ _____    ______ ____
ROOT
ATOM      1  S   UNL     1       1.238  -1.230   1.165  0.00  0.00    -0.072 S 
ATOM      2  N   UNL     1       3.307   0.151   0.336  0.00  0.00    -0.312 N 
ATOM      3  N   UNL     1      -0.169   1.027  -0.204  0.00  0.00    -0.150 NA
ATOM      4  N   UNL     1       1.225   1.036  -0.292  0.00  0.00    -0.127 NA
ATOM      5  C   UNL     1      -0.813  -0.095  -0.088  0.00  0.00    +0.092 C 
ATOM      6  C   UNL     1      -0.140  -1.437   0.026  0.00  0.00    +0.112 C 
ATOM      7  C   UNL     1       1.939   0.137   0.318  0.00  0.00    +0.177 C 
ATOM      8  H   UNL     1       3.778  -0.574   0.807  0.00  0.00    +0.149 HD
ENDROOT
BRANCH   5  10
ATOM      9 CL   UNL     1      -6.804   0.061  -0.033  0.00  0.00    -0.082 Cl
ATOM     10  C   UNL     1      -2.303  -0.057  -0.074  0.00  0.00    +0.016 C 
ATOM     11  C   UNL     1      -3.026  -1.135  -0.574  0.00  0.00    +0.002 C 
ATOM     12  C   UNL     1      -2.959   1.058   0.438  0.00  0.00    +0.002 C 
ATOM     13  C   UNL     1      -4.420  -1.099  -0.561  0.00  0.00    +0.011 C 
ATOM     14  C   UNL     1      -4.354   1.094   0.451  0.00  0.00    +0.011 C 
ATOM     15  C   UNL     1      -5.084   0.016  -0.049  0.00  0.00    +0.058 C 
ENDBRANCH   5  10
BRANCH   2  16
ATOM     16  C   UNL     1       4.092   1.180  -0.304  0.00  0.00    +0.093 C 
BRANCH  16  17
ATOM     17  C   UNL     1       5.581   0.958  -0.050  0.00  0.00    +0.047 C 
BRANCH  17  18
ATOM     18  C   UNL     1       6.072  -0.344  -0.618  0.00  0.00    -0.024 C 
ATOM     19  C   UNL     1       6.619  -1.320   0.115  0.00  0.00    -0.005 C 
ENDBRANCH  17  18
ENDBRANCH  16  17
ENDBRANCH   2  16
TORSDOF 4
