REMARK  Name = 397
REMARK  2 active torsions:
REMARK  status: ('A' for Active; 'I' for Inactive)
REMARK    1  A    between atoms: C_3  and  C_11
REMARK    2  A    between atoms: C_11  and  C_14
REMARK                            x       y       z     vdW  Elec       q    Type
REMARK                         _______ _______ _______ _____ _____    ______ ____
ROOT
ATOM      1  N   UNL     1      -0.932   2.045   0.152  0.00  0.00    -0.312 N 
ATOM      2  C   UNL     1      -0.570  -0.111  -0.290  0.00  0.00    +0.011 C 
ATOM      3  C   UNL     1       0.639   0.614  -0.488  0.00  0.00    +0.003 C 
ATOM      4  C   UNL     1      -1.539   0.810   0.111  0.00  0.00    +0.048 C 
ATOM      5  C   UNL     1       0.384   1.937  -0.208  0.00  0.00    +0.058 C 
ATOM      6  C   UNL     1      -0.933  -1.467  -0.415  0.00  0.00    +0.001 C 
ATOM      7  C   UNL     1      -2.859   0.442   0.395  0.00  0.00    +0.015 C 
ATOM      8  C   UNL     1      -2.249  -1.850  -0.134  0.00  0.00    +0.000 C 
ATOM      9  C   UNL     1      -3.196  -0.908   0.264  0.00  0.00    +0.001 C 
ATOM     10  H   UNL     1      -1.380   2.885   0.405  0.00  0.00    +0.152 HD
ENDROOT
BRANCH   3  11
ATOM     11  C   UNL     1       1.939   0.057  -0.915  0.00  0.00    +0.112 C 
BRANCH  11  14
ATOM     12  O   UNL     1       2.449  -0.350   1.424  0.00  0.00    -0.275 OA
ATOM     13  N   UNL     1       4.053  -0.836  -0.148  0.00  0.00    -0.329 N 
ATOM     14  C   UNL     1       2.813  -0.384   0.252  0.00  0.00    +0.224 C 
ATOM     15  H   UNL     1       4.703  -1.147   0.523  0.00  0.00    +0.145 HD
ATOM     16  H   UNL     1       4.289  -0.846  -1.104  0.00  0.00    +0.145 HD
ENDBRANCH  11  14
ENDBRANCH   3  11
TORSDOF 2
