REMARK  Name = 448002
REMARK  8 active torsions:
REMARK  status: ('A' for Active; 'I' for Inactive)
REMARK    1  A    between atoms: N_1  and  S_2
REMARK    2  A    between atoms: N_1  and  C_13
REMARK    3  A    between atoms: N_1  and  C_17
REMARK    4  A    between atoms: S_2  and  C_5
REMARK    5  A    between atoms: C_10  and  O_11
REMARK    6  A    between atoms: C_13  and  C_14
REMARK    7  A    between atoms: C_17  and  C_20
REMARK    8  A    between atoms: N_19  and  O_22
REMARK                            x       y       z     vdW  Elec       q    Type
REMARK                         _______ _______ _______ _____ _____    ______ ____
ROOT
ATOM      1  N   UNL     1      -1.241  -0.304  -0.202  0.00  0.00    -0.146 NA
ENDROOT
BRANCH   1   2
ATOM      2  S   UNL     1      -0.129  -0.823  -1.417  0.00  0.00    +0.064 S 
ATOM      3  O   UNL     1      -0.251   0.037  -2.580  0.00  0.00    -0.153 OA
ATOM      4  O   UNL     1      -0.225  -2.262  -1.581  0.00  0.00    -0.153 OA
BRANCH   2   5
ATOM      5  C   UNL     1       1.442  -0.483  -0.673  0.00  0.00    +0.122 C 
ATOM      6  C   UNL     1       2.027   0.753  -0.873  0.00  0.00    +0.023 C 
ATOM      7  C   UNL     1       2.048  -1.460   0.094  0.00  0.00    +0.023 C 
ATOM      8  C   UNL     1       3.264   1.022  -0.286  0.00  0.00    +0.038 C 
ATOM      9  C   UNL     1       3.285  -1.192   0.681  0.00  0.00    +0.038 C 
ATOM     10  C   UNL     1       3.893   0.049   0.491  0.00  0.00    +0.139 C 
BRANCH  10  11
ATOM     11  O   UNL     1       5.100   0.310   1.063  0.00  0.00    -0.471 OA
ATOM     12  C   UNL     1       5.666   1.598   0.826  0.00  0.00    +0.252 C 
ENDBRANCH  10  11
ENDBRANCH   2   5
ENDBRANCH   1   2
BRANCH   1  13
ATOM     13  C   UNL     1      -1.490  -1.209   0.942  0.00  0.00    +0.096 C 
BRANCH  13  14
ATOM     14  C   UNL     1      -2.956  -1.656   1.005  0.00  0.00    +0.018 C 
ATOM     15  C   UNL     1      -3.244  -2.507   2.243  0.00  0.00    +0.001 C 
ATOM     16  C   UNL     1      -3.394  -2.388  -0.265  0.00  0.00    +0.001 C 
ENDBRANCH  13  14
ENDBRANCH   1  13
BRANCH   1  17
ATOM     17  C   UNL     1      -1.190   1.123   0.212  0.00  0.00    +0.182 C 
BRANCH  17  20
ATOM     18  O   UNL     1      -3.257   1.400  -0.995  0.00  0.00    -0.271 OA
ATOM     19  N   UNL     1      -2.802   2.784   0.797  0.00  0.00    -0.196 N 
ATOM     20  C   UNL     1      -2.525   1.760  -0.076  0.00  0.00    +0.262 C 
ATOM     21  H   UNL     1      -2.183   3.037   1.519  0.00  0.00    +0.182 HD
BRANCH  19  22
ATOM     22  O   UNL     1      -4.020   3.447   0.596  0.00  0.00    -0.295 OA
ATOM     23  H   UNL     1      -4.120   4.148   1.259  0.00  0.00    +0.241 HD
ENDBRANCH  19  22
ENDBRANCH  17  20
ENDBRANCH   1  17
TORSDOF 8
