REMARK  Name = 10250490
REMARK  6 active torsions:
REMARK  status: ('A' for Active; 'I' for Inactive)
REMARK    1  A    between atoms: N_2  and  C_18
REMARK    2  A    between atoms: C_3  and  C_6
REMARK    3  A    between atoms: C_5  and  N_12
REMARK    4  A    between atoms: C_18  and  C_19
REMARK    5  A    between atoms: C_19  and  N_21
REMARK    6  A    between atoms: C_22  and  C_26
REMARK                            x       y       z     vdW  Elec       q    Type
REMARK                         _______ _______ _______ _____ _____    ______ ____
ROOT
ATOM      1  O   UNL     1      -1.626   0.947   1.355  0.00  0.00    -0.270 OA
ATOM      2  N   UNL     1      -1.258   2.741  -0.066  0.00  0.00    -0.299 N 
ATOM      3  C   UNL     1      -0.861   1.581   0.608  0.00  0.00    +0.246 C 
ATOM      4  H   UNL     1      -0.601   3.194  -0.643  0.00  0.00    +0.150 HD
ENDROOT
BRANCH   3   6
ATOM      5  C   UNL     1       3.153   0.314   0.058  0.00  0.00    +0.058 C 
ATOM      6  C   UNL     1       0.514   1.146   0.419  0.00  0.00    +0.053 C 
ATOM      7  C   UNL     1       2.163  -0.618   0.371  0.00  0.00    +0.015 C 
ATOM      8  C   UNL     1       2.822   1.663  -0.075  0.00  0.00    +0.015 C 
ATOM      9  C   UNL     1       0.844  -0.202   0.551  0.00  0.00    +0.006 C 
ATOM     10  C   UNL     1       1.503   2.079   0.106  0.00  0.00    +0.006 C 
BRANCH   5  12
ATOM     11  O   UNL     1       4.420  -1.874   1.462  0.00  0.00    -0.269 OA
ATOM     12  N   UNL     1       4.524  -0.119  -0.128  0.00  0.00    -0.233 N 
ATOM     13  C   UNL     1       5.017  -1.236   0.595  0.00  0.00    +0.257 C 
ATOM     14  C   UNL     1       5.372   0.569  -0.998  0.00  0.00    +0.072 C 
ATOM     15  C   UNL     1       6.427  -1.645   0.308  0.00  0.00    +0.059 C 
ATOM     16  C   UNL     1       6.641   0.204  -1.213  0.00  0.00    +0.017 C 
ATOM     17  C   UNL     1       7.179  -0.942  -0.543  0.00  0.00    +0.006 C 
ENDBRANCH   5  12
ENDBRANCH   3   6
BRANCH   2  18
ATOM     18  C   UNL     1      -2.582   3.312   0.038  0.00  0.00    +0.111 C 
BRANCH  18  19
ATOM     19  C   UNL     1      -3.530   2.759  -1.013  0.00  0.00    +0.111 C 
BRANCH  19  21
ATOM     20  O   UNL     1      -5.509   1.397   0.558  0.00  0.00    -0.270 OA
ATOM     21  N   UNL     1      -3.699   1.336  -0.891  0.00  0.00    -0.299 N 
ATOM     22  C   UNL     1      -4.690   0.764  -0.103  0.00  0.00    +0.252 C 
ATOM     23  H   UNL     1      -3.087   0.744  -1.386  0.00  0.00    +0.150 HD
BRANCH  22  26
ATOM     24 CL   UNL     1      -3.503  -4.512  -0.965  0.00  0.00    -0.075 Cl
ATOM     25  S   UNL     1      -3.556  -1.543  -0.965  0.00  0.00    -0.071 S 
ATOM     26  C   UNL     1      -4.716  -0.721  -0.062  0.00  0.00    +0.084 C 
ATOM     27  C   UNL     1      -5.574  -1.492   0.624  0.00  0.00    +0.012 C 
ATOM     28  C   UNL     1      -5.276  -2.869   0.407  0.00  0.00    +0.019 C 
ATOM     29  C   UNL     1      -4.201  -3.039  -0.437  0.00  0.00    +0.087 C 
ENDBRANCH  22  26
ENDBRANCH  19  21
ENDBRANCH  18  19
ENDBRANCH   2  18
TORSDOF 6
