REMARK  Name = 40428878
REMARK  4 active torsions:
REMARK  status: ('A' for Active; 'I' for Inactive)
REMARK    1  A    between atoms: N_1  and  O_10
REMARK    2  A    between atoms: C_4  and  C_12
REMARK    3  A    between atoms: C_12  and  S_13
REMARK    4  A    between atoms: S_13  and  S_14
REMARK                            x       y       z     vdW  Elec       q    Type
REMARK                         _______ _______ _______ _____ _____    ______ ____
ROOT
ATOM      1  N   UNL     1       2.498   0.392  -0.597  0.00  0.00    -0.175 NA
ATOM      2  C   UNL     1       1.277   1.036  -0.046  0.00  0.00    +0.070 C 
ATOM      3  C   UNL     1       2.596  -0.982  -0.051  0.00  0.00    +0.070 C 
ATOM      4  C   UNL     1       0.437  -0.158   0.360  0.00  0.00    +0.029 C 
ATOM      5  C   UNL     1       1.178  -1.274   0.355  0.00  0.00    +0.019 C 
ATOM      6  C   UNL     1       0.640   1.847  -1.182  0.00  0.00    +0.018 C 
ATOM      7  C   UNL     1       1.521   1.951   1.168  0.00  0.00    +0.018 C 
ATOM      8  C   UNL     1       3.052  -1.910  -1.182  0.00  0.00    +0.018 C 
ATOM      9  C   UNL     1       3.522  -1.149   1.164  0.00  0.00    +0.018 C 
ENDROOT
BRANCH   1  10
ATOM     10  O   UNL     1       3.680   1.158  -0.303  0.00  0.00    -0.311 OA
ATOM     11  H   UNL     1       3.587   2.051  -0.672  0.00  0.00    +0.237 HD
ENDBRANCH   1  10
BRANCH   4  12
ATOM     12  C   UNL     1      -0.998  -0.062   0.739  0.00  0.00    +0.082 C 
BRANCH  12  13
ATOM     13  S   UNL     1      -2.041  -0.320  -0.715  0.00  0.00    +0.007 S 
BRANCH  13  14
ATOM     14  S   UNL     1      -3.976  -0.138   0.075  0.00  0.00    +0.033 S 
ATOM     15  O   UNL     1      -4.136   1.233   0.521  0.00  0.00    -0.162 OA
ATOM     16  O   UNL     1      -4.178  -1.245   0.990  0.00  0.00    -0.162 OA
ATOM     17  C   UNL     1      -5.072  -0.379  -1.297  0.00  0.00    +0.189 C 
ENDBRANCH  13  14
ENDBRANCH  12  13
ENDBRANCH   4  12
TORSDOF 4
