REMARK  Name = 24916788
REMARK  2 active torsions:
REMARK  status: ('A' for Active; 'I' for Inactive)
REMARK    1  A    between atoms: C_17  and  O_22
REMARK    2  A    between atoms: C_20  and  O_24
REMARK                            x       y       z     vdW  Elec       q    Type
REMARK                         _______ _______ _______ _____ _____    ______ ____
ROOT
ATOM      1 CL   UNL     1       3.034  -2.566   0.317  0.00  0.00    -0.079 Cl
ATOM      2  O   UNL     1      -0.823   1.953   0.184  0.00  0.00    -0.445 OA
ATOM      3  O   UNL     1       0.066  -3.309   1.295  0.00  0.00    -0.296 OA
ATOM      4  O   UNL     1       0.309   2.201   2.195  0.00  0.00    -0.245 OA
ATOM      5  C   UNL     1      -2.202  -2.721  -0.250  0.00  0.00    +0.008 C 
ATOM      6  C   UNL     1      -3.174  -2.324  -1.368  0.00  0.00    +0.005 C 
ATOM      7  C   UNL     1      -1.250  -1.611   0.186  0.00  0.00    +0.065 C 
ATOM      8  C   UNL     1      -4.194  -1.238  -1.004  0.00  0.00    +0.026 C 
ATOM      9  C   UNL     1       0.776  -1.063   1.704  0.00  0.00    +0.092 C 
ATOM     10  C   UNL     1      -0.120  -2.112   1.074  0.00  0.00    +0.155 C 
ATOM     11  C   UNL     1       1.554  -0.275   0.682  0.00  0.00    +0.008 C 
ATOM     12  C   UNL     1       1.266   1.060   0.352  0.00  0.00    +0.107 C 
ATOM     13  C   UNL     1      -3.654   0.158  -1.128  0.00  0.00    -0.031 C 
ATOM     14  C   UNL     1       2.596  -0.913  -0.010  0.00  0.00    +0.088 C 
ATOM     15  C   UNL     1      -3.140   2.456  -0.258  0.00  0.00    +0.073 C 
ATOM     16  C   UNL     1      -3.692   1.064  -0.140  0.00  0.00    -0.027 C 
ATOM     17  C   UNL     1       1.995   1.738  -0.632  0.00  0.00    +0.143 C 
ATOM     18  C   UNL     1      -1.963   2.668   0.692  0.00  0.00    +0.213 C 
ATOM     19  C   UNL     1       0.213   1.810   1.046  0.00  0.00    +0.344 C 
ATOM     20  C   UNL     1       3.325  -0.241  -0.994  0.00  0.00    +0.147 C 
ATOM     21  C   UNL     1       3.023   1.083  -1.305  0.00  0.00    +0.074 C 
ENDROOT
BRANCH  17  22
ATOM     22  O   UNL     1       1.714   3.029  -0.967  0.00  0.00    -0.505 OA
ATOM     23  H   UNL     1       1.026   3.488  -0.526  0.00  0.00    +0.292 HD
ENDBRANCH  17  22
BRANCH  20  24
ATOM     24  O   UNL     1       4.342  -0.847  -1.672  0.00  0.00    -0.505 OA
ATOM     25  H   UNL     1       4.566  -1.737  -1.483  0.00  0.00    +0.292 HD
ENDBRANCH  20  24
TORSDOF 2
