REMARK  Name = 5171
REMARK  4 active torsions:
REMARK  status: ('A' for Active; 'I' for Inactive)
REMARK    1  A    between atoms: N_1  and  C_19
REMARK    2  A    between atoms: C_3  and  C_14
REMARK    3  A    between atoms: C_5  and  C_7
REMARK    4  A    between atoms: C_19  and  C_20
REMARK                            x       y       z     vdW  Elec       q    Type
REMARK                         _______ _______ _______ _____ _____    ______ ____
ROOT
ATOM      1  N   UNL     1      -1.617  -1.471   0.511  0.00  0.00    -0.245 NA
ATOM      2  N   UNL     1       0.237  -2.681   0.332  0.00  0.00    -0.255 NA
ATOM      3  C   UNL     1      -0.601  -0.575   0.331  0.00  0.00    +0.122 C 
ATOM      4  C   UNL     1      -1.065  -2.722   0.504  0.00  0.00    +0.201 C 
ATOM      5  C   UNL     1       0.530  -1.346   0.224  0.00  0.00    +0.074 C 
ENDROOT
BRANCH   5   7
ATOM      6  F   UNL     1       5.694   0.577  -0.552  0.00  0.00    -0.204 F 
ATOM      7  C   UNL     1       1.862  -0.850   0.023  0.00  0.00    +0.015 C 
ATOM      8  C   UNL     1       2.666  -0.546   1.122  0.00  0.00    +0.004 C 
ATOM      9  C   UNL     1       2.353  -0.672  -1.270  0.00  0.00    +0.004 C 
ATOM     10  C   UNL     1       3.960  -0.064   0.928  0.00  0.00    +0.030 C 
ATOM     11  C   UNL     1       3.647  -0.190  -1.464  0.00  0.00    +0.030 C 
ATOM     12  C   UNL     1       4.451   0.114  -0.365  0.00  0.00    +0.140 C 
ENDBRANCH   5   7
BRANCH   3  14
ATOM     13  N   UNL     1      -1.174   3.621   0.183  0.00  0.00    -0.242 NA
ATOM     14  C   UNL     1      -0.794   0.856   0.281  0.00  0.00    +0.001 C 
ATOM     15  C   UNL     1      -1.043   1.482  -0.935  0.00  0.00    +0.018 C 
ATOM     16  C   UNL     1      -0.735   1.608   1.447  0.00  0.00    +0.018 C 
ATOM     17  C   UNL     1      -1.224   2.855  -0.930  0.00  0.00    +0.099 C 
ATOM     18  C   UNL     1      -0.930   2.976   1.346  0.00  0.00    +0.099 C 
ENDBRANCH   3  14
BRANCH   1  19
ATOM     19  C   UNL     1      -3.022  -1.179   0.679  0.00  0.00    +0.074 C 
BRANCH  19  20
ATOM     20  C   UNL     1      -3.748  -1.137  -0.626  0.00  0.00    +0.016 C 
ATOM     21  C   UNL     1      -5.213  -0.835  -0.628  0.00  0.00    +0.001 C 
ATOM     22  C   UNL     1      -4.234   0.180  -1.140  0.00  0.00    +0.001 C 
ENDBRANCH  19  20
ENDBRANCH   1  19
TORSDOF 4
