REMARK  Name = 11516136
REMARK  2 active torsions:
REMARK  status: ('A' for Active; 'I' for Inactive)
REMARK    1  A    between atoms: C_2  and  N_8
REMARK    2  A    between atoms: C_4  and  C_25
REMARK                            x       y       z     vdW  Elec       q    Type
REMARK                         _______ _______ _______ _____ _____    ______ ____
ROOT
ATOM      1  N   UNL     1      -2.099  -2.589   0.791  0.00  0.00    +0.389 N 
ATOM      2  C   UNL     1      -0.195  -1.275   0.893  0.00  0.00    -0.081 C 
ATOM      3  C   UNL     1      -1.372  -0.309   0.772  0.00  0.00    -0.035 C 
ATOM      4  C   UNL     1      -2.603  -1.214   0.750  0.00  0.00    +0.015 C 
ATOM      5  C   UNL     1      -0.732  -2.554   0.273  0.00  0.00    -0.102 C 
ATOM      6  H   UNL     1      -2.679  -3.194   0.210  0.00  0.00    -0.084 HD
ATOM      7  H   UNL     1      -2.120  -2.958   1.742  0.00  0.00    -0.084 HD
ENDROOT
BRANCH   2   8
ATOM      8  N   UNL     1       1.018  -0.797   0.251  0.00  0.00    +0.389 N 
ATOM      9  N   UNL     1       3.757   0.003   0.119  0.00  0.00    -0.257 N 
ATOM     10  N   UNL     1       5.402   1.675   0.396  0.00  0.00    -0.203 NA
ATOM     11  N   UNL     1       5.938  -0.411  -0.687  0.00  0.00    -0.181 NA
ATOM     12  C   UNL     1       1.450   0.473   0.847  0.00  0.00    -0.055 C 
ATOM     13  C   UNL     1       2.090  -1.793   0.368  0.00  0.00    -0.055 C 
ATOM     14  C   UNL     1       2.694   1.016   0.141  0.00  0.00    +0.079 C 
ATOM     15  C   UNL     1       3.357  -1.326  -0.353  0.00  0.00    +0.079 C 
ATOM     16  C   UNL     1       5.075   0.436  -0.064  0.00  0.00    +0.090 C 
ATOM     17  C   UNL     1       6.681   2.060   0.204  0.00  0.00    +0.165 C 
ATOM     18  C   UNL     1       7.200   0.039  -0.845  0.00  0.00    +0.108 C 
ATOM     19  C   UNL     1       7.632   1.277  -0.417  0.00  0.00    +0.022 C 
ATOM     20  H   UNL     1       0.816  -0.646  -0.738  0.00  0.00    -0.080 HD
ENDBRANCH   2   8
BRANCH   4  25
ATOM     21  F   UNL     1      -5.243   2.779  -0.282  0.00  0.00    -0.202 F 
ATOM     22  F   UNL     1      -6.753   1.986   1.080  0.00  0.00    -0.202 F 
ATOM     23  O   UNL     1      -3.102  -1.694  -1.520  0.00  0.00    -0.277 OA
ATOM     24  N   UNL     1      -4.423  -0.127  -0.453  0.00  0.00    -0.276 N 
ATOM     25  C   UNL     1      -3.390  -1.044  -0.513  0.00  0.00    +0.206 C 
ATOM     26  C   UNL     1      -4.800   0.687   0.702  0.00  0.00    +0.160 C 
ATOM     27  C   UNL     1      -5.279   0.157  -1.598  0.00  0.00    +0.099 C 
ATOM     28  C   UNL     1      -5.838   1.645   0.154  0.00  0.00    +0.284 C 
ATOM     29  C   UNL     1      -6.466   0.900  -1.008  0.00  0.00    +0.090 C 
ENDBRANCH   4  25
TORSDOF 2
