REMARK  Name = 444705
REMARK  6 active torsions:
REMARK  status: ('A' for Active; 'I' for Inactive)
REMARK    1  A    between atoms: C_3  and  C_14
REMARK    2  A    between atoms: C_12  and  C_18
REMARK    3  A    between atoms: C_18  and  C_19
REMARK    4  A    between atoms: C_19  and  C_20
REMARK    5  A    between atoms: C_20  and  C_22
REMARK    6  A    between atoms: C_22  and  O_23
REMARK                            x       y       z     vdW  Elec       q    Type
REMARK                         _______ _______ _______ _____ _____    ______ ____
ROOT
ATOM      1  C   UNL     1      -3.400   0.745   0.829  0.00  0.00    +0.008 C 
ATOM      2  C   UNL     1      -3.366  -0.779   0.429  0.00  0.00    +0.019 C 
ATOM      3  C   UNL     1      -2.129   1.410   0.213  0.00  0.00    +0.022 C 
ATOM      4  C   UNL     1      -1.893  -0.985   0.152  0.00  0.00    -0.027 C 
ATOM      5  C   UNL     1      -1.216   0.234   0.023  0.00  0.00    -0.026 C 
ATOM      6  C   UNL     1      -3.408   0.999   2.346  0.00  0.00    +0.001 C 
ATOM      7  C   UNL     1      -3.896  -1.729   1.513  0.00  0.00    +0.004 C 
ATOM      8  C   UNL     1      -4.171  -1.024  -0.861  0.00  0.00    +0.004 C 
ATOM      9  C   UNL     1      -1.211  -2.186  -0.007  0.00  0.00    -0.009 C 
ATOM     10  C   UNL     1       0.144   0.272  -0.255  0.00  0.00    -0.002 C 
ATOM     11  C   UNL     1       0.157  -2.154  -0.284  0.00  0.00    -0.019 C 
ATOM     12  C   UNL     1       0.831  -0.932  -0.407  0.00  0.00    +0.030 C 
ATOM     13  C   UNL     1       0.886  -3.450  -0.439  0.00  0.00    +0.031 C 
ENDROOT
BRANCH   3  14
ATOM     14  C   UNL     1      -2.403   2.153  -1.091  0.00  0.00    +0.004 C 
ATOM     15  C   UNL     1      -3.362   3.319  -0.856  0.00  0.00    +0.000 C 
ATOM     16  C   UNL     1      -1.099   2.651  -1.712  0.00  0.00    +0.000 C 
ENDBRANCH   3  14
BRANCH  12  18
ATOM     17  O   UNL     1       2.803  -1.793  -1.354  0.00  0.00    -0.291 OA
ATOM     18  C   UNL     1       2.260  -0.891  -0.687  0.00  0.00    +0.173 C 
BRANCH  18  19
ATOM     19  C   UNL     1       3.111   0.276  -0.159  0.00  0.00    +0.081 C 
BRANCH  19  20
ATOM     20  C   UNL     1       4.548  -0.120   0.159  0.00  0.00    +0.117 C 
BRANCH  20  22
ATOM     21  O   UNL     1       4.857   2.175   0.844  0.00  0.00    -0.250 OA
ATOM     22  C   UNL     1       5.331   1.058   0.677  0.00  0.00    +0.314 C 
BRANCH  22  23
ATOM     23  O   UNL     1       6.628   0.752   0.929  0.00  0.00    -0.480 OA
ATOM     24  H   UNL     1       6.940  -0.120   0.785  0.00  0.00    +0.295 HD
ENDBRANCH  22  23
ENDBRANCH  20  22
ENDBRANCH  19  20
ENDBRANCH  18  19
ENDBRANCH  12  18
TORSDOF 6
