REMARK  Name = 150889
REMARK  6 active torsions:
REMARK  status: ('A' for Active; 'I' for Inactive)
REMARK    1  A    between atoms: C_2  and  O_8
REMARK    2  A    between atoms: C_3  and  O_10
REMARK    3  A    between atoms: C_4  and  O_12
REMARK    4  A    between atoms: C_6  and  O_14
REMARK    5  A    between atoms: O_14  and  C_15
REMARK    6  A    between atoms: C_16  and  N_23
REMARK                            x       y       z     vdW  Elec       q    Type
REMARK                         _______ _______ _______ _____ _____    ______ ____
ROOT
ATOM      1  O   UNL     1       0.806   0.191   0.893  0.00  0.00    -0.319 OA
ATOM      2  C   UNL     1       3.292  -0.629  -0.277  0.00  0.00    +0.173 C 
ATOM      3  C   UNL     1       3.231   0.331   0.912  0.00  0.00    +0.167 C 
ATOM      4  C   UNL     1       1.998  -0.582  -1.088  0.00  0.00    +0.210 C 
ATOM      5  C   UNL     1       1.962   0.062   1.729  0.00  0.00    +0.148 C 
ATOM      6  C   UNL     1       0.781  -0.753  -0.177  0.00  0.00    +0.318 C 
ATOM      7  C   UNL     1       1.800   1.041   2.886  0.00  0.00    +0.035 C 
ENDROOT
BRANCH   2   8
ATOM      8  O   UNL     1       4.388  -0.291  -1.123  0.00  0.00    -0.379 OA
ATOM      9  H   UNL     1       5.212  -0.320  -0.612  0.00  0.00    +0.211 HD
ENDBRANCH   2   8
BRANCH   3  10
ATOM     10  O   UNL     1       3.202   1.679   0.439  0.00  0.00    -0.379 OA
ATOM     11  H   UNL     1       4.002   1.856  -0.080  0.00  0.00    +0.211 HD
ENDBRANCH   3  10
BRANCH   4  12
ATOM     12  O   UNL     1       2.003  -1.645  -2.042  0.00  0.00    -0.377 OA
ATOM     13  H   UNL     1       2.770  -1.550  -2.628  0.00  0.00    +0.211 HD
ENDBRANCH   4  12
BRANCH   6  14
ATOM     14  O   UNL     1      -0.390  -0.554  -0.968  0.00  0.00    -0.449 OA
BRANCH  14  15
ATOM     15  C   UNL     1      -1.591  -0.666  -0.322  0.00  0.00    +0.164 C 
ATOM     16  C   UNL     1      -2.482   0.403  -0.276  0.00  0.00    +0.177 C 
ATOM     17  C   UNL     1      -1.911  -1.875   0.292  0.00  0.00    +0.039 C 
ATOM     18  C   UNL     1      -3.700   0.264   0.389  0.00  0.00    +0.027 C 
ATOM     19  C   UNL     1      -3.130  -2.014   0.957  0.00  0.00    +0.003 C 
ATOM     20  C   UNL     1      -4.024  -0.944   1.006  0.00  0.00    +0.002 C 
BRANCH  16  23
ATOM     21  O   UNL     1      -2.997   2.580  -0.835  0.00  0.00    -0.126 OA
ATOM     22  O   UNL     1      -1.071   1.760  -1.495  0.00  0.00    -0.126 OA
ATOM     23  N   UNL     1      -2.168   1.642  -0.899  0.00  0.00    +0.061 N 
ENDBRANCH  16  23
ENDBRANCH  14  15
ENDBRANCH   6  14
TORSDOF 6
