REMARK  Name = 23647311
REMARK  4 active torsions:
REMARK  status: ('A' for Active; 'I' for Inactive)
REMARK    1  A    between atoms: N_3  and  C_22
REMARK    2  A    between atoms: C_5  and  N_18
REMARK    3  A    between atoms: C_22  and  C_23
REMARK    4  A    between atoms: C_24  and  C_30
REMARK                            x       y       z     vdW  Elec       q    Type
REMARK                         _______ _______ _______ _____ _____    ______ ____
ROOT
ATOM      1  O   UNL     1      -1.183   2.562   1.359  0.00  0.00    -0.274 OA
ATOM      2  N   UNL     1       0.244  -1.705  -0.092  0.00  0.00    -0.273 N 
ATOM      3  N   UNL     1      -0.426   0.460   0.658  0.00  0.00    -0.217 N 
ATOM      4  N   UNL     1      -1.943  -1.070  -0.341  0.00  0.00    -0.376 NA
ATOM      5  C   UNL     1       0.548  -4.080   0.423  0.00  0.00    -0.045 C 
ATOM      6  C   UNL     1       1.425  -4.220  -0.828  0.00  0.00    -0.018 C 
ATOM      7  C   UNL     1       0.601  -2.648   0.969  0.00  0.00    +0.073 C 
ATOM      8  C   UNL     1       1.035  -3.178  -1.877  0.00  0.00    +0.019 C 
ATOM      9  C   UNL     1       1.069  -1.766  -1.296  0.00  0.00    +0.094 C 
ATOM     10  C   UNL     1      -0.733  -0.784   0.064  0.00  0.00    +0.247 C 
ATOM     11  C   UNL     1      -1.388   1.463   0.851  0.00  0.00    +0.243 C 
ATOM     12  C   UNL     1      -2.966  -0.128  -0.187  0.00  0.00    +0.124 C 
ATOM     13  C   UNL     1      -2.748   1.125   0.389  0.00  0.00    +0.151 C 
ATOM     14  C   UNL     1      -3.795   2.042   0.527  0.00  0.00    -0.010 C 
ATOM     15  C   UNL     1      -4.254  -0.453  -0.627  0.00  0.00    +0.028 C 
ATOM     16  C   UNL     1      -5.073   1.705   0.084  0.00  0.00    -0.004 C 
ATOM     17  C   UNL     1      -5.303   0.458  -0.492  0.00  0.00    +0.002 C 
ENDROOT
BRANCH   5  18
ATOM     18  N   UNL     1       0.971  -5.023   1.457  0.00  0.00    +0.383 N 
ATOM     19  H   UNL     1       0.933  -5.973   1.087  0.00  0.00    -0.089 HD
ATOM     20  H   UNL     1       0.350  -4.947   2.262  0.00  0.00    -0.089 HD
ATOM     21  H   UNL     1       1.926  -4.808   1.743  0.00  0.00    -0.089 HD
ENDBRANCH   5  18
BRANCH   3  22
ATOM     22  C   UNL     1       0.941   0.737   1.098  0.00  0.00    +0.129 C 
BRANCH  22  23
ATOM     23  C   UNL     1       1.763   1.369   0.012  0.00  0.00    +0.008 C 
ATOM     24  C   UNL     1       3.098   1.717   0.217  0.00  0.00    +0.066 C 
ATOM     25  C   UNL     1       1.163   1.607  -1.224  0.00  0.00    -0.002 C 
ATOM     26  C   UNL     1       3.833   2.303  -0.814  0.00  0.00    +0.010 C 
ATOM     27  C   UNL     1       1.897   2.193  -2.255  0.00  0.00    -0.000 C 
ATOM     28  C   UNL     1       3.232   2.541  -2.050  0.00  0.00    +0.001 C 
BRANCH  24  30
ATOM     29  N   UNL     1       4.255   1.293   2.498  0.00  0.00    -0.191 NA
ATOM     30  C   UNL     1       3.737   1.483   1.476  0.00  0.00    +0.100 C 
ENDBRANCH  24  30
ENDBRANCH  22  23
ENDBRANCH   3  22
TORSDOF 4
