REMARK  Name = 9954980
REMARK  5 active torsions:
REMARK  status: ('A' for Active; 'I' for Inactive)
REMARK    1  A    between atoms: N_2  and  C_18
REMARK    2  A    between atoms: C_3  and  C_5
REMARK    3  A    between atoms: C_10  and  N_12
REMARK    4  A    between atoms: C_19  and  N_24
REMARK    5  A    between atoms: C_25  and  C_29
REMARK                            x       y       z     vdW  Elec       q    Type
REMARK                         _______ _______ _______ _____ _____    ______ ____
ROOT
ATOM      1  O   UNL     1       0.744   3.254  -1.300  0.00  0.00    -0.270 OA
ATOM      2  N   UNL     1       1.530   2.005   0.488  0.00  0.00    -0.301 N 
ATOM      3  C   UNL     1       0.567   2.417  -0.420  0.00  0.00    +0.246 C 
ATOM      4  H   UNL     1       1.290   1.326   1.159  0.00  0.00    +0.150 HD
ENDROOT
BRANCH   3   5
ATOM      5  C   UNL     1      -0.774   1.794  -0.269  0.00  0.00    +0.053 C 
ATOM      6  C   UNL     1      -1.884   2.492  -0.697  0.00  0.00    +0.006 C 
ATOM      7  C   UNL     1      -0.865   0.538   0.294  0.00  0.00    +0.006 C 
ATOM      8  C   UNL     1      -3.143   1.908  -0.554  0.00  0.00    +0.015 C 
ATOM      9  C   UNL     1      -2.124  -0.046   0.436  0.00  0.00    +0.015 C 
ATOM     10  C   UNL     1      -3.263   0.639   0.012  0.00  0.00    +0.058 C 
BRANCH  10  12
ATOM     11  O   UNL     1      -3.820  -2.193  -0.170  0.00  0.00    -0.269 OA
ATOM     12  N   UNL     1      -4.571   0.031   0.160  0.00  0.00    -0.233 N 
ATOM     13  C   UNL     1      -4.707  -1.379   0.089  0.00  0.00    +0.257 C 
ATOM     14  C   UNL     1      -5.704   0.825   0.350  0.00  0.00    +0.072 C 
ATOM     15  C   UNL     1      -6.083  -1.927   0.299  0.00  0.00    +0.059 C 
ATOM     16  C   UNL     1      -6.929   0.313   0.502  0.00  0.00    +0.017 C 
ATOM     17  C   UNL     1      -7.120  -1.106   0.482  0.00  0.00    +0.006 C 
ENDBRANCH  10  12
ENDBRANCH   3   5
BRANCH   2  18
ATOM     18  C   UNL     1       2.865   2.533   0.487  0.00  0.00    +0.090 C 
ATOM     19  C   UNL     1       3.853   1.741  -0.374  0.00  0.00    +0.090 C 
ATOM     20  C   UNL     1       3.506   2.552   1.875  0.00  0.00    +0.021 C 
ATOM     21  C   UNL     1       5.198   2.256   0.128  0.00  0.00    +0.021 C 
ATOM     22  C   UNL     1       5.013   2.439   1.635  0.00  0.00    +0.003 C 
BRANCH  19  24
ATOM     23  O   UNL     1       2.278  -0.078  -1.949  0.00  0.00    -0.270 OA
ATOM     24  N   UNL     1       3.745   0.313  -0.195  0.00  0.00    -0.300 N 
ATOM     25  C   UNL     1       2.954  -0.491  -1.010  0.00  0.00    +0.252 C 
ATOM     26  H   UNL     1       4.252  -0.111   0.535  0.00  0.00    +0.150 HD
BRANCH  25  29
ATOM     27 CL   UNL     1       3.887  -5.320   1.397  0.00  0.00    -0.075 Cl
ATOM     28  S   UNL     1       3.853  -2.450   0.634  0.00  0.00    -0.071 S 
ATOM     29  C   UNL     1       2.930  -1.939  -0.679  0.00  0.00    +0.084 C 
ATOM     30  C   UNL     1       2.245  -2.899  -1.319  0.00  0.00    +0.012 C 
ATOM     31  C   UNL     1       2.480  -4.162  -0.703  0.00  0.00    +0.019 C 
ATOM     32  C   UNL     1       3.336  -4.062   0.372  0.00  0.00    +0.087 C 
ENDBRANCH  25  29
ENDBRANCH  19  24
ENDBRANCH   2  18
TORSDOF 5
