REMARK  Name = 11963565
REMARK  13 active torsions:
REMARK  status: ('A' for Active; 'I' for Inactive)
REMARK    1  A    between atoms: C_1  and  O_2
REMARK    2  A    between atoms: C_1  and  C_5
REMARK    3  A    between atoms: C_1  and  C_13
REMARK    4  A    between atoms: O_2  and  C_4
REMARK    5  A    between atoms: C_5  and  O_6
REMARK    6  A    between atoms: O_6  and  C_8
REMARK    7  A    between atoms: C_8  and  C_9
REMARK    8  A    between atoms: C_9  and  C_10
REMARK    9  A    between atoms: C_10  and  C_11
REMARK   10  A    between atoms: C_13  and  O_14
REMARK   11  A    between atoms: O_14  and  P_15
REMARK   12  A    between atoms: P_15  and  O_17
REMARK   13  A    between atoms: P_15  and  O_19
REMARK                            x       y       z     vdW  Elec       q    Type
REMARK                         _______ _______ _______ _____ _____    ______ ____
ROOT
ATOM      1  C   UNL     1      -1.262   1.214   0.418  0.00  0.00    +0.243 C 
ENDROOT
BRANCH   1   2
ATOM      2  O   UNL     1      -1.238   1.635  -0.948  0.00  0.00    -0.438 OA
BRANCH   2   4
ATOM      3  O   UNL     1      -1.611   3.828  -0.306  0.00  0.00    -0.238 OA
ATOM      4  C   UNL     1      -1.426   2.966  -1.150  0.00  0.00    +0.418 C 
ENDBRANCH   2   4
ENDBRANCH   1   2
BRANCH   1   5
ATOM      5  C   UNL     1       0.155   1.317   0.966  0.00  0.00    +0.254 C 
BRANCH   5   6
ATOM      6  O   UNL     1       1.012   0.461   0.204  0.00  0.00    -0.444 OA
BRANCH   6   8
ATOM      7  O   UNL     1       2.809   1.098   1.502  0.00  0.00    -0.250 OA
ATOM      8  C   UNL     1       2.324   0.450   0.586  0.00  0.00    +0.317 C 
BRANCH   8   9
ATOM      9  C   UNL     1       3.086  -0.499  -0.311  0.00  0.00    +0.110 C 
BRANCH   9  10
ATOM     10  C   UNL     1       4.572  -0.549   0.039  0.00  0.00    +0.012 C 
BRANCH  10  11
ATOM     11  C   UNL     1       5.320  -1.541  -0.850  0.00  0.00    +0.001 C 
ATOM     12  C   UNL     1       6.792  -1.622  -0.479  0.00  0.00    +0.000 C 
ENDBRANCH  10  11
ENDBRANCH   9  10
ENDBRANCH   8   9
ENDBRANCH   6   8
ENDBRANCH   5   6
ENDBRANCH   1   5
BRANCH   1  13
ATOM     13  C   UNL     1      -1.780  -0.218   0.479  0.00  0.00    +0.201 C 
BRANCH  13  14
ATOM     14  O   UNL     1      -3.107  -0.274  -0.036  0.00  0.00    -0.269 OA
BRANCH  14  15
ATOM     15  P   UNL     1      -3.856  -1.706  -0.067  0.00  0.00    +0.473 P 
ATOM     16  O   UNL     1      -5.250  -1.683  -0.623  0.00  0.00    -0.227 OA
BRANCH  15  17
ATOM     17  O   UNL     1      -2.812  -2.636  -0.878  0.00  0.00    -0.303 OA
ATOM     18  H   UNL     1      -1.941  -2.593  -0.452  0.00  0.00    +0.222 HD
ENDBRANCH  15  17
BRANCH  15  19
ATOM     19  O   UNL     1      -3.728  -2.241   1.454  0.00  0.00    -0.303 OA
ATOM     20  H   UNL     1      -2.797  -2.220   1.726  0.00  0.00    +0.222 HD
ENDBRANCH  15  19
ENDBRANCH  14  15
ENDBRANCH  13  14
ENDBRANCH   1  13
TORSDOF 13
