REMARK  Name = 9912519
REMARK  5 active torsions:
REMARK  status: ('A' for Active; 'I' for Inactive)
REMARK    1  A    between atoms: N_3  and  C_29
REMARK    2  A    between atoms: C_21  and  O_22
REMARK    3  A    between atoms: O_22  and  S_23
REMARK    4  A    between atoms: S_23  and  N_26
REMARK    5  A    between atoms: C_29  and  C_31
REMARK                            x       y       z     vdW  Elec       q    Type
REMARK                         _______ _______ _______ _____ _____    ______ ____
ROOT
ATOM      1  O   UNL     1       3.520   2.365   0.621  0.00  0.00    -0.274 OA
ATOM      2  O   UNL     1       4.088  -2.096   1.848  0.00  0.00    -0.274 OA
ATOM      3  N   UNL     1       3.835   0.118   1.162  0.00  0.00    -0.226 N 
ATOM      4  C   UNL     1       1.147  -0.324   0.550  0.00  0.00    +0.018 C 
ATOM      5  C   UNL     1      -0.395  -0.529   0.518  0.00  0.00    +0.005 C 
ATOM      6  C   UNL     1       1.536   1.074   1.085  0.00  0.00    +0.070 C 
ATOM      7  C   UNL     1      -1.073   0.562  -0.358  0.00  0.00    +0.022 C 
ATOM      8  C   UNL     1       0.799   2.158   0.268  0.00  0.00    +0.009 C 
ATOM      9  C   UNL     1      -0.713   1.953   0.195  0.00  0.00    +0.005 C 
ATOM     10  C   UNL     1      -0.812  -1.909  -0.010  0.00  0.00    +0.005 C 
ATOM     11  C   UNL     1       1.873  -1.398   1.357  0.00  0.00    +0.086 C 
ATOM     12  C   UNL     1      -2.572   0.330  -0.531  0.00  0.00    -0.026 C 
ATOM     13  C   UNL     1       3.048   1.260   0.904  0.00  0.00    +0.231 C 
ATOM     14  C   UNL     1       1.241   1.278   2.588  0.00  0.00    +0.009 C 
ATOM     15  C   UNL     1      -2.313  -2.109   0.167  0.00  0.00    +0.026 C 
ATOM     16  C   UNL     1      -3.137  -0.943  -0.311  0.00  0.00    -0.023 C 
ATOM     17  C   UNL     1       3.364  -1.170   1.470  0.00  0.00    +0.232 C 
ATOM     18  C   UNL     1      -3.414   1.353  -1.005  0.00  0.00    -0.001 C 
ATOM     19  C   UNL     1      -4.516  -1.143  -0.499  0.00  0.00    +0.035 C 
ATOM     20  C   UNL     1      -4.781   1.140  -1.198  0.00  0.00    +0.039 C 
ATOM     21  C   UNL     1      -5.334  -0.107  -0.939  0.00  0.00    +0.172 C 
ENDROOT
BRANCH  21  22
ATOM     22  O   UNL     1      -6.665  -0.317  -1.122  0.00  0.00    -0.349 OA
BRANCH  22  23
ATOM     23  S   UNL     1      -7.789  -0.082   0.050  0.00  0.00    +0.086 S 
ATOM     24  O   UNL     1      -7.841   1.336   0.354  0.00  0.00    -0.046 OA
ATOM     25  O   UNL     1      -7.565  -1.060   1.099  0.00  0.00    -0.046 OA
BRANCH  23  26
ATOM     26  N   UNL     1      -9.261  -0.494  -0.730  0.00  0.00    -0.194 NA
ATOM     27  H   UNL     1      -9.449   0.175  -1.476  0.00  0.00    +0.145 HD
ATOM     28  H   UNL     1     -10.023  -0.471  -0.052  0.00  0.00    +0.145 HD
ENDBRANCH  23  26
ENDBRANCH  22  23
ENDBRANCH  21  22
BRANCH   3  29
ATOM     29  C   UNL     1       5.285   0.285   1.148  0.00  0.00    +0.129 C 
BRANCH  29  31
ATOM     30  N   UNL     1       6.810  -1.560  -1.762  0.00  0.00    -0.243 NA
ATOM     31  C   UNL     1       5.868   0.017  -0.209  0.00  0.00    +0.017 C 
ATOM     32  C   UNL     1       6.006   1.041  -1.129  0.00  0.00    +0.001 C 
ATOM     33  C   UNL     1       6.276  -1.252  -0.559  0.00  0.00    +0.096 C 
ATOM     34  C   UNL     1       6.551   0.764  -2.378  0.00  0.00    +0.020 C 
ATOM     35  C   UNL     1       6.934  -0.541  -2.643  0.00  0.00    +0.099 C 
ENDBRANCH  29  31
ENDBRANCH   3  29
TORSDOF 5
