REMARK  Name = 1498
REMARK  6 active torsions:
REMARK  status: ('A' for Active; 'I' for Inactive)
REMARK    1  A    between atoms: C_1  and  O_15
REMARK    2  A    between atoms: C_4  and  C_13
REMARK    3  A    between atoms: O_15  and  C_16
REMARK    4  A    between atoms: C_16  and  C_17
REMARK    5  A    between atoms: C_17  and  C_18
REMARK    6  A    between atoms: C_18  and  C_21
REMARK                            x       y       z     vdW  Elec       q    Type
REMARK                         _______ _______ _______ _____ _____    ______ ____
ROOT
ATOM      1  C   UNL     1      -0.622  -0.018   0.592  0.00  0.00    +0.131 C 
ATOM      2  C   UNL     1      -1.341   1.171   0.474  0.00  0.00    +0.012 C 
ATOM      3  C   UNL     1      -1.279  -1.244   0.485  0.00  0.00    +0.012 C 
ATOM      4  C   UNL     1      -3.375  -0.091   0.143  0.00  0.00    +0.065 C 
ATOM      5  C   UNL     1      -2.718   1.135   0.250  0.00  0.00    +0.009 C 
ATOM      6  C   UNL     1      -2.656  -1.280   0.261  0.00  0.00    +0.009 C 
ATOM      7  C   UNL     1      -0.655   2.493   0.585  0.00  0.00    +0.034 C 
ATOM      8  C   UNL     1      -0.527  -2.528   0.609  0.00  0.00    +0.034 C 
ENDROOT
BRANCH   4  13
ATOM      9  N   UNL     1      -5.545   0.966  -0.207  0.00  0.00    -0.106 NA
ATOM     10  N   UNL     1      -5.481  -1.297  -0.198  0.00  0.00    -0.086 NA
ATOM     11  N   UNL     1      -6.737   0.385  -0.400  0.00  0.00    -0.113 N 
ATOM     12  N   UNL     1      -6.747  -0.955  -0.402  0.00  0.00    -0.018 NA
ATOM     13  C   UNL     1      -4.792  -0.128  -0.086  0.00  0.00    +0.074 C 
ATOM     14  C   UNL     1      -7.938   1.155  -0.593  0.00  0.00    +0.163 C 
ENDBRANCH   4  13
BRANCH   1  15
ATOM     15  O   UNL     1       0.724   0.017   0.811  0.00  0.00    -0.476 OA
BRANCH  15  16
ATOM     16  C   UNL     1       1.566   0.034  -0.339  0.00  0.00    +0.206 C 
BRANCH  16  17
ATOM     17  C   UNL     1       3.019   0.052   0.116  0.00  0.00    +0.055 C 
BRANCH  17  18
ATOM     18  C   UNL     1       3.980   0.086  -1.073  0.00  0.00    +0.071 C 
BRANCH  18  21
ATOM     19  O   UNL     1       5.948  -1.165  -0.494  0.00  0.00    -0.358 OA
ATOM     20  N   UNL     1       7.265  -1.016  -0.075  0.00  0.00    -0.082 NA
ATOM     21  C   UNL     1       5.418   0.059  -0.622  0.00  0.00    +0.154 C 
ATOM     22  C   UNL     1       6.293   1.030  -0.316  0.00  0.00    +0.054 C 
ATOM     23  C   UNL     1       7.448   0.304   0.025  0.00  0.00    +0.101 C 
ATOM     24  C   UNL     1       8.753   0.833   0.452  0.00  0.00    +0.056 C 
ENDBRANCH  18  21
ENDBRANCH  17  18
ENDBRANCH  16  17
ENDBRANCH  15  16
ENDBRANCH   1  15
TORSDOF 6
