REMARK  Name = 65777
REMARK  9 active torsions:
REMARK  status: ('A' for Active; 'I' for Inactive)
REMARK    1  A    between atoms: C_2  and  C_3
REMARK    2  A    between atoms: C_2  and  O_14
REMARK    3  A    between atoms: C_3  and  O_6
REMARK    4  A    between atoms: O_6  and  C_8
REMARK    5  A    between atoms: O_14  and  C_15
REMARK    6  A    between atoms: C_15  and  C_16
REMARK    7  A    between atoms: C_16  and  O_17
REMARK    8  A    between atoms: O_17  and  C_19
REMARK    9  A    between atoms: C_19  and  C_21
REMARK                            x       y       z     vdW  Elec       q    Type
REMARK                         _______ _______ _______ _____ _____    ______ ____
ROOT
ATOM      1  O   UNL     1      -1.775   0.752  -2.332  0.00  0.00    -0.246 OA
ATOM      2  C   UNL     1      -1.264   0.810  -1.220  0.00  0.00    +0.354 C 
ENDROOT
BRANCH   2   3
ATOM      3  C   UNL     1      -1.631   1.850  -0.165  0.00  0.00    +0.221 C 
ATOM      4  C   UNL     1      -2.712   2.794  -0.691  0.00  0.00    +0.055 C 
ATOM      5  C   UNL     1      -0.376   2.623   0.227  0.00  0.00    +0.055 C 
BRANCH   3   6
ATOM      6  O   UNL     1      -2.132   1.205   0.998  0.00  0.00    -0.472 OA
BRANCH   6   8
ATOM      7 CL   UNL     1      -6.937  -2.101   0.325  0.00  0.00    -0.082 Cl
ATOM      8  C   UNL     1      -3.254   0.433   0.842  0.00  0.00    +0.139 C 
ATOM      9  C   UNL     1      -3.123  -0.915   0.531  0.00  0.00    +0.038 C 
ATOM     10  C   UNL     1      -4.511   1.007   0.996  0.00  0.00    +0.038 C 
ATOM     11  C   UNL     1      -4.264  -1.701   0.370  0.00  0.00    +0.015 C 
ATOM     12  C   UNL     1      -5.652   0.221   0.836  0.00  0.00    +0.015 C 
ATOM     13  C   UNL     1      -5.529  -1.132   0.523  0.00  0.00    +0.058 C 
ENDBRANCH   6   8
ENDBRANCH   3   6
ENDBRANCH   2   3
BRANCH   2  14
ATOM     14  O   UNL     1      -0.272  -0.009  -0.762  0.00  0.00    -0.442 OA
BRANCH  14  15
ATOM     15  C   UNL     1       0.184  -1.004  -1.684  0.00  0.00    +0.256 C 
BRANCH  15  16
ATOM     16  C   UNL     1       1.278  -1.823  -1.026  0.00  0.00    +0.256 C 
BRANCH  16  17
ATOM     17  O   UNL     1       2.362  -0.965  -0.691  0.00  0.00    -0.441 OA
BRANCH  17  19
ATOM     18  O   UNL     1       3.533  -2.745   0.183  0.00  0.00    -0.245 OA
ATOM     19  C   UNL     1       3.430  -1.558  -0.089  0.00  0.00    +0.343 C 
BRANCH  19  21
ATOM     20  N   UNL     1       5.221   1.713   0.117  0.00  0.00    -0.242 NA
ATOM     21  C   UNL     1       4.487  -0.560   0.209  0.00  0.00    +0.095 C 
ATOM     22  C   UNL     1       5.652  -0.958   0.821  0.00  0.00    +0.010 C 
ATOM     23  C   UNL     1       4.299   0.754  -0.126  0.00  0.00    +0.105 C 
ATOM     24  C   UNL     1       6.624   0.000   1.088  0.00  0.00    +0.021 C 
ATOM     25  C   UNL     1       6.362   1.310   0.720  0.00  0.00    +0.099 C 
ENDBRANCH  19  21
ENDBRANCH  17  19
ENDBRANCH  16  17
ENDBRANCH  15  16
ENDBRANCH  14  15
ENDBRANCH   2  14
TORSDOF 9
