REMARK  Name = 449127
REMARK  2 active torsions:
REMARK  status: ('A' for Active; 'I' for Inactive)
REMARK    1  A    between atoms: C_4  and  C_8
REMARK    2  A    between atoms: C_5  and  S_14
REMARK                            x       y       z     vdW  Elec       q    Type
REMARK                         _______ _______ _______ _____ _____    ______ ____
ROOT
ATOM      1  N   UNL     1      -1.266  -1.641  -0.081  0.00  0.00    -0.200 N 
ATOM      2  N   UNL     1      -1.673   0.491   0.174  0.00  0.00    -0.327 NA
ATOM      3  N   UNL     1      -2.606  -1.587  -0.032  0.00  0.00    -0.107 NA
ATOM      4  C   UNL     1      -0.722  -0.402   0.042  0.00  0.00    +0.211 C 
ATOM      5  C   UNL     1      -2.801  -0.276   0.123  0.00  0.00    +0.132 C 
ATOM      6  H   UNL     1      -0.746  -2.469  -0.191  0.00  0.00    +0.178 HD
ENDROOT
BRANCH   4   8
ATOM      7 CL   UNL     1       5.150   0.576  -0.038  0.00  0.00    -0.082 Cl
ATOM      8  C   UNL     1       0.701  -0.165   0.023  0.00  0.00    +0.046 C 
ATOM      9  C   UNL     1       1.193   1.133   0.155  0.00  0.00    +0.005 C 
ATOM     10  C   UNL     1       1.584  -1.234  -0.127  0.00  0.00    +0.005 C 
ATOM     11  C   UNL     1       2.569   1.363   0.136  0.00  0.00    +0.012 C 
ATOM     12  C   UNL     1       2.960  -1.005  -0.146  0.00  0.00    +0.012 C 
ATOM     13  C   UNL     1       3.452   0.293  -0.015  0.00  0.00    +0.058 C 
ENDBRANCH   4   8
BRANCH   5  14
ATOM     14  S   UNL     1      -4.405   0.405   0.252  0.00  0.00    -0.028 S 
ATOM     15  C   UNL     1      -4.135   2.046  -0.466  0.00  0.00    +0.086 C 
ENDBRANCH   5  14
TORSDOF 2
