REMARK  Name = 11314340
REMARK  7 active torsions:
REMARK  status: ('A' for Active; 'I' for Inactive)
REMARK    1  A    between atoms: C_2  and  C_10
REMARK    2  A    between atoms: C_3  and  O_18
REMARK    3  A    between atoms: O_18  and  C_19
REMARK    4  A    between atoms: C_19  and  C_20
REMARK    5  A    between atoms: C_20  and  N_21
REMARK    6  A    between atoms: C_20  and  C_25
REMARK    7  A    between atoms: C_25  and  C_26
REMARK                            x       y       z     vdW  Elec       q    Type
REMARK                         _______ _______ _______ _____ _____    ______ ____
ROOT
ATOM      1  N   UNL     1      -0.669  -3.943   1.413  0.00  0.00    -0.239 NA
ATOM      2  C   UNL     1      -1.458  -1.912   0.380  0.00  0.00    +0.022 C 
ATOM      3  C   UNL     1       0.778  -2.668  -0.044  0.00  0.00    +0.158 C 
ATOM      4  C   UNL     1      -0.234  -1.736  -0.247  0.00  0.00    +0.040 C 
ATOM      5  C   UNL     1      -1.629  -3.017   1.192  0.00  0.00    +0.099 C 
ATOM      6  C   UNL     1       0.513  -3.743   0.788  0.00  0.00    +0.136 C 
ENDROOT
BRANCH   2  10
ATOM      7  N   UNL     1      -4.670   2.827  -0.549  0.00  0.00    -0.280 N 
ATOM      8  N   UNL     1      -5.510   1.790  -0.361  0.00  0.00    -0.173 NA
ATOM      9  C   UNL     1      -3.329   1.167  -0.222  0.00  0.00    +0.032 A 
ATOM     10  C   UNL     1      -2.534  -0.957   0.189  0.00  0.00    +0.002 C 
ATOM     11  C   UNL     1      -4.704   0.733  -0.153  0.00  0.00    +0.102 A 
ATOM     12  C   UNL     1      -2.192   0.386  -0.062  0.00  0.00    +0.003 C 
ATOM     13  C   UNL     1      -3.345   2.509  -0.476  0.00  0.00    +0.053 A 
ATOM     14  C   UNL     1      -3.880  -1.437   0.266  0.00  0.00    +0.002 C 
ATOM     15  C   UNL     1      -5.017  -0.615   0.099  0.00  0.00    +0.021 C 
ATOM     16  C   UNL     1      -2.289   3.519  -0.658  0.00  0.00    +0.051 C 
ATOM     17  H   UNL     1      -4.988   3.742  -0.726  0.00  0.00    +0.189 HD
ENDBRANCH   2  10
BRANCH   3  18
ATOM     18  O   UNL     1       1.987  -2.527  -0.643  0.00  0.00    -0.476 OA
BRANCH  18  19
ATOM     19  C   UNL     1       2.433  -1.197  -0.913  0.00  0.00    +0.184 C 
BRANCH  19  20
ATOM     20  C   UNL     1       3.965  -1.143  -0.928  0.00  0.00    -0.017 C 
BRANCH  20  21
ATOM     21  N   UNL     1       4.450  -2.065  -1.959  0.00  0.00    +0.384 N 
ATOM     22  H   UNL     1       5.469  -2.043  -1.984  0.00  0.00    -0.089 HD
ATOM     23  H   UNL     1       4.081  -1.783  -2.868  0.00  0.00    -0.089 HD
ATOM     24  H   UNL     1       4.135  -3.012  -1.744  0.00  0.00    -0.089 HD
ENDBRANCH  20  21
BRANCH  20  25
ATOM     25  C   UNL     1       4.521   0.263  -1.238  0.00  0.00    +0.008 C 
BRANCH  25  26
ATOM     26  C   UNL     1       4.146   1.324  -0.232  0.00  0.00    -0.024 C 
ATOM     27  C   UNL     1       2.982   2.055  -0.417  0.00  0.00    -0.004 C 
ATOM     28  C   UNL     1       4.971   1.549   0.859  0.00  0.00    -0.004 C 
ATOM     29  C   UNL     1       2.635   3.035   0.512  0.00  0.00    -0.000 C 
ATOM     30  C   UNL     1       4.623   2.530   1.788  0.00  0.00    -0.000 C 
ATOM     31  C   UNL     1       3.456   3.273   1.615  0.00  0.00    -0.000 C 
ENDBRANCH  25  26
ENDBRANCH  20  25
ENDBRANCH  19  20
ENDBRANCH  18  19
ENDBRANCH   3  18
TORSDOF 7
