REMARK  Name = 46937133
REMARK  12 active torsions:
REMARK  status: ('A' for Active; 'I' for Inactive)
REMARK    1  A    between atoms: N_2  and  C_4
REMARK    2  A    between atoms: N_2  and  C_11
REMARK    3  A    between atoms: C_3  and  C_18
REMARK    4  A    between atoms: C_4  and  C_5
REMARK    5  A    between atoms: C_11  and  C_12
REMARK    6  A    between atoms: C_18  and  O_19
REMARK    7  A    between atoms: C_18  and  C_21
REMARK    8  A    between atoms: C_21  and  C_24
REMARK    9  A    between atoms: N_23  and  N_25
REMARK   10  A    between atoms: N_23  and  C_28
REMARK   11  A    between atoms: C_28  and  C_30
REMARK   12  A    between atoms: C_30  and  O_31
REMARK                            x       y       z     vdW  Elec       q    Type
REMARK                         _______ _______ _______ _____ _____    ______ ____
ROOT
ATOM      1  O   UNL     1       1.593   0.621   2.764  0.00  0.00    -0.272 OA
ATOM      2  N   UNL     1       1.585   0.428   0.455  0.00  0.00    -0.269 N 
ATOM      3  C   UNL     1       1.084   0.168   1.734  0.00  0.00    +0.254 C 
ENDROOT
BRANCH   2   4
ATOM      4  C   UNL     1       1.525  -0.482  -0.688  0.00  0.00    +0.121 C 
BRANCH   4   5
ATOM      5  C   UNL     1       2.705  -1.409  -0.730  0.00  0.00    -0.002 C 
ATOM      6  C   UNL     1       3.859  -1.038  -1.420  0.00  0.00    -0.003 C 
ATOM      7  C   UNL     1       2.647  -2.641  -0.080  0.00  0.00    -0.003 C 
ATOM      8  C   UNL     1       4.955  -1.900  -1.460  0.00  0.00    -0.000 C 
ATOM      9  C   UNL     1       3.743  -3.503  -0.120  0.00  0.00    -0.000 C 
ATOM     10  C   UNL     1       4.897  -3.132  -0.810  0.00  0.00    -0.000 C 
ENDBRANCH   4   5
ENDBRANCH   2   4
BRANCH   2  11
ATOM     11  C   UNL     1       2.268   1.691   0.199  0.00  0.00    +0.121 C 
BRANCH  11  12
ATOM     12  C   UNL     1       1.311   2.774  -0.209  0.00  0.00    -0.002 C 
ATOM     13  C   UNL     1       1.008   2.966  -1.557  0.00  0.00    -0.003 C 
ATOM     14  C   UNL     1       0.725   3.588   0.760  0.00  0.00    -0.003 C 
ATOM     15  C   UNL     1       0.120   3.972  -1.936  0.00  0.00    -0.000 C 
ATOM     16  C   UNL     1      -0.163   4.594   0.381  0.00  0.00    -0.000 C 
ATOM     17  C   UNL     1      -0.466   4.786  -0.967  0.00  0.00    -0.000 C 
ENDBRANCH  11  12
ENDBRANCH   2  11
BRANCH   3  18
ATOM     18  C   UNL     1      -0.148  -0.729   1.838  0.00  0.00    +0.196 C 
BRANCH  18  19
ATOM     19  O   UNL     1      -0.437  -0.941   3.216  0.00  0.00    -0.375 OA
ATOM     20  H   UNL     1       0.321  -1.370   3.643  0.00  0.00    +0.211 HD
ENDBRANCH  18  19
BRANCH  18  21
ATOM     21  C   UNL     1      -1.366  -0.052   1.202  0.00  0.00    +0.125 C 
BRANCH  21  24
ATOM     22  O   UNL     1      -2.394  -2.232   1.163  0.00  0.00    -0.273 OA
ATOM     23  N   UNL     1      -3.665  -0.469   0.381  0.00  0.00    -0.216 N 
ATOM     24  C   UNL     1      -2.509  -1.029   0.918  0.00  0.00    +0.242 C 
BRANCH  23  25
ATOM     25  N   UNL     1      -3.735   0.899   0.131  0.00  0.00    -0.250 NA
ATOM     26  H   UNL     1      -2.853   1.339   0.395  0.00  0.00    +0.141 HD
ATOM     27  H   UNL     1      -4.495   1.306   0.677  0.00  0.00    +0.141 HD
ENDBRANCH  23  25
BRANCH  23  28
ATOM     28  C   UNL     1      -4.847  -1.251   0.059  0.00  0.00    +0.220 C 
BRANCH  28  30
ATOM     29  O   UNL     1      -5.740  -2.455  -1.824  0.00  0.00    -0.248 OA
ATOM     30  C   UNL     1      -4.833  -1.781  -1.352  0.00  0.00    +0.336 C 
BRANCH  30  31
ATOM     31  O   UNL     1      -3.723  -1.440  -2.047  0.00  0.00    -0.479 OA
ATOM     32  H   UNL     1      -3.057  -0.922  -1.641  0.00  0.00    +0.295 HD
ENDBRANCH  30  31
ENDBRANCH  28  30
ENDBRANCH  23  28
ENDBRANCH  21  24
ENDBRANCH  18  21
ENDBRANCH   3  18
TORSDOF 12
