REMARK  Name = 680935
REMARK  2 active torsions:
REMARK  status: ('A' for Active; 'I' for Inactive)
REMARK    1  A    between atoms: N_2  and  C_11
REMARK    2  A    between atoms: C_3  and  C_7
REMARK                            x       y       z     vdW  Elec       q    Type
REMARK                         _______ _______ _______ _____ _____    ______ ____
ROOT
ATOM      1  O   UNL     1       0.610   1.757  -0.009  0.00  0.00    -0.268 OA
ATOM      2  N   UNL     1      -0.177  -0.455  -0.021  0.00  0.00    -0.279 N 
ATOM      3  C   UNL     1       0.790   0.544  -0.021  0.00  0.00    +0.264 C 
ATOM      4  H   UNL     1       0.151  -1.384  -0.032  0.00  0.00    +0.155 HD
ENDROOT
BRANCH   3   7
ATOM      5  N   UNL     1       3.239   0.877  -0.003  0.00  0.00    -0.232 N 
ATOM      6  N   UNL     1       4.402   0.204   0.012  0.00  0.00    -0.180 NA
ATOM      7  C   UNL     1       2.194   0.054  -0.005  0.00  0.00    +0.120 C 
ATOM      8  C   UNL     1       2.611  -1.215   0.007  0.00  0.00    +0.043 C 
ATOM      9  C   UNL     1       4.012  -1.074   0.018  0.00  0.00    +0.119 C 
ATOM     10  H   UNL     1       3.169   1.859  -0.011  0.00  0.00    +0.175 HD
ENDBRANCH   3   7
BRANCH   2  11
ATOM     11  C   UNL     1      -1.562  -0.285  -0.009  0.00  0.00    +0.051 C 
ATOM     12  C   UNL     1      -2.107   0.999   0.006  0.00  0.00    +0.015 C 
ATOM     13  C   UNL     1      -2.402  -1.399  -0.012  0.00  0.00    +0.015 C 
ATOM     14  C   UNL     1      -3.491   1.169   0.018  0.00  0.00    +0.001 C 
ATOM     15  C   UNL     1      -3.786  -1.229   0.001  0.00  0.00    +0.001 C 
ATOM     16  C   UNL     1      -4.331   0.055   0.016  0.00  0.00    +0.000 C 
ENDBRANCH   2  11
TORSDOF 2
