REMARK  Name = 46937155
REMARK  5 active torsions:
REMARK  status: ('A' for Active; 'I' for Inactive)
REMARK    1  A    between atoms: N_2  and  C_10
REMARK    2  A    between atoms: C_3  and  C_19
REMARK    3  A    between atoms: C_19  and  C_21
REMARK    4  A    between atoms: C_19  and  O_27
REMARK    5  A    between atoms: O_27  and  C_29
REMARK                            x       y       z     vdW  Elec       q    Type
REMARK                         _______ _______ _______ _____ _____    ______ ____
ROOT
ATOM      1  O   UNL     1       1.364  -2.506  -0.689  0.00  0.00    -0.270 OA
ATOM      2  N   UNL     1       0.045  -0.723   0.096  0.00  0.00    -0.281 N 
ATOM      3  C   UNL     1       1.241  -1.414  -0.141  0.00  0.00    +0.271 C 
ATOM      4  H   UNL     1       0.132   0.140   0.561  0.00  0.00    +0.155 HD
ENDROOT
BRANCH   2  10
ATOM      5  O   UNL     1      -1.155   1.423   1.087  0.00  0.00    -0.282 OA
ATOM      6  O   UNL     1      -5.971  -0.352  -0.370  0.00  0.00    -0.270 OA
ATOM      7  O   UNL     1      -3.293   2.855   1.605  0.00  0.00    -0.266 OA
ATOM      8  N   UNL     1      -4.643   1.248   0.615  0.00  0.00    -0.246 N 
ATOM      9  C   UNL     1      -2.384  -0.329   0.037  0.00  0.00    +0.061 C 
ATOM     10  C   UNL     1      -1.256  -1.106  -0.246  0.00  0.00    +0.054 C 
ATOM     11  C   UNL     1      -3.654  -0.770  -0.334  0.00  0.00    +0.058 C 
ATOM     12  C   UNL     1      -1.403  -2.328  -0.903  0.00  0.00    +0.015 C 
ATOM     13  C   UNL     1      -2.226   0.958   0.728  0.00  0.00    +0.250 C 
ATOM     14  C   UNL     1      -3.796  -1.997  -0.992  0.00  0.00    +0.005 C 
ATOM     15  C   UNL     1      -4.856   0.041  -0.041  0.00  0.00    +0.252 C 
ATOM     16  C   UNL     1      -2.670  -2.772  -1.275  0.00  0.00    +0.001 C 
ATOM     17  C   UNL     1      -3.438   1.786   1.029  0.00  0.00    +0.291 C 
ATOM     18  H   UNL     1      -5.446   1.783   0.808  0.00  0.00    +0.158 HD
ENDBRANCH   2  10
BRANCH   3  19
ATOM     19  C   UNL     1       2.453  -0.653   0.392  0.00  0.00    +0.267 C 
BRANCH  19  21
ATOM     20 CL   UNL     1       2.803   4.544   0.661  0.00  0.00    -0.082 Cl
ATOM     21  C   UNL     1       2.634   0.669  -0.317  0.00  0.00    +0.027 C 
ATOM     22  C   UNL     1       2.635   1.858   0.414  0.00  0.00    +0.011 C 
ATOM     23  C   UNL     1       2.800   0.702  -1.701  0.00  0.00    -0.000 C 
ATOM     24  C   UNL     1       2.803   3.078  -0.240  0.00  0.00    +0.057 C 
ATOM     25  C   UNL     1       2.968   1.922  -2.355  0.00  0.00    +0.001 C 
ATOM     26  C   UNL     1       2.970   3.111  -1.625  0.00  0.00    +0.011 C 
ENDBRANCH  19  21
BRANCH  19  27
ATOM     27  O   UNL     1       3.624  -1.435   0.206  0.00  0.00    -0.438 OA
BRANCH  27  29
ATOM     28  O   UNL     1       3.291  -2.455   2.252  0.00  0.00    -0.250 OA
ATOM     29  C   UNL     1       3.930  -2.301   1.220  0.00  0.00    +0.318 C 
ATOM     30  C   UNL     1       5.183  -3.054   0.888  0.00  0.00    +0.121 C 
ENDBRANCH  27  29
ENDBRANCH  19  27
ENDBRANCH   3  19
TORSDOF 5
