REMARK  Name = 25102779
REMARK  5 active torsions:
REMARK  status: ('A' for Active; 'I' for Inactive)
REMARK    1  A    between atoms: C_2  and  C_18
REMARK    2  A    between atoms: C_5  and  O_8
REMARK    3  A    between atoms: O_8  and  C_9
REMARK    4  A    between atoms: C_14  and  C_17
REMARK    5  A    between atoms: C_18  and  C_23
REMARK                            x       y       z     vdW  Elec       q    Type
REMARK                         _______ _______ _______ _____ _____    ______ ____
ROOT
ATOM      1 BR   UNL     1       1.105   2.502  -2.920  0.00  0.00    -0.046 Br
ATOM      2  C   UNL     1      -1.203   1.925   0.487  0.00  0.00    -0.016 C 
ATOM      3  C   UNL     1      -0.785   2.181  -0.819  0.00  0.00    +0.006 C 
ATOM      4  C   UNL     1      -0.263   1.637   1.476  0.00  0.00    -0.001 C 
ATOM      5  C   UNL     1       1.513   1.861  -0.146  0.00  0.00    +0.151 C 
ATOM      6  C   UNL     1       0.573   2.149  -1.135  0.00  0.00    +0.069 C 
ATOM      7  C   UNL     1       1.095   1.605   1.160  0.00  0.00    +0.038 C 
ENDROOT
BRANCH   5   8
ATOM      8  O   UNL     1       2.848   1.822  -0.422  0.00  0.00    -0.453 OA
BRANCH   8   9
ATOM      9  C   UNL     1       3.516   0.631  -0.194  0.00  0.00    +0.146 C 
ATOM     10  C   UNL     1       5.426  -0.561   0.680  0.00  0.00    -0.018 C 
ATOM     11  C   UNL     1       4.753   0.638   0.450  0.00  0.00    +0.033 C 
ATOM     12  C   UNL     1       2.952  -0.575  -0.609  0.00  0.00    +0.048 C 
ATOM     13  C   UNL     1       4.863  -1.768   0.265  0.00  0.00    +0.006 C 
ATOM     14  C   UNL     1       3.626  -1.775  -0.379  0.00  0.00    +0.071 C 
ATOM     15  C   UNL     1       6.749  -0.553   1.369  0.00  0.00    +0.031 C 
BRANCH  14  17
ATOM     16  N   UNL     1       2.579  -4.015  -1.149  0.00  0.00    -0.191 NA
ATOM     17  C   UNL     1       3.049  -3.011  -0.804  0.00  0.00    +0.101 C 
ENDBRANCH  14  17
ENDBRANCH   8   9
ENDBRANCH   5   8
BRANCH   2  18
ATOM     18  C   UNL     1      -2.685   1.961   0.834  0.00  0.00    +0.070 C 
BRANCH  18  23
ATOM     19  N   UNL     1      -3.171  -0.173   2.010  0.00  0.00    -0.231 N 
ATOM     20  N   UNL     1      -3.823  -1.352   1.928  0.00  0.00    -0.126 NA
ATOM     21  N   UNL     1      -5.214  -2.224   0.141  0.00  0.00    -0.103 NA
ATOM     22  N   UNL     1      -5.678  -1.867  -1.089  0.00  0.00    -0.107 NA
ATOM     23  C   UNL     1      -3.327   0.637   0.918  0.00  0.00    +0.057 C 
ATOM     24  C   UNL     1      -4.137  -0.069   0.071  0.00  0.00    +0.078 C 
ATOM     25  C   UNL     1      -4.421  -1.293   0.734  0.00  0.00    +0.072 C 
ATOM     26  C   UNL     1      -4.572   0.350  -1.168  0.00  0.00    +0.031 C 
ATOM     27  C   UNL     1      -5.370  -0.662  -1.688  0.00  0.00    +0.110 C 
ATOM     28  H   UNL     1      -2.627   0.082   2.790  0.00  0.00    +0.175 HD
ENDBRANCH  18  23
ENDBRANCH   2  18
TORSDOF 5
