REMARK  Name = 40466973
REMARK  11 active torsions:
REMARK  status: ('A' for Active; 'I' for Inactive)
REMARK    1  A    between atoms: N_1  and  C_7
REMARK    2  A    between atoms: N_1  and  C_21
REMARK    3  A    between atoms: N_6  and  C_17
REMARK    4  A    between atoms: C_10  and  C_13
REMARK    5  A    between atoms: C_17  and  C_20
REMARK    6  A    between atoms: C_21  and  C_23
REMARK    7  A    between atoms: C_21  and  C_27
REMARK    8  A    between atoms: C_23  and  O_24
REMARK    9  A    between atoms: O_24  and  C_25
REMARK   10  A    between atoms: C_27  and  C_28
REMARK   11  A    between atoms: C_28  and  C_29
REMARK                            x       y       z     vdW  Elec       q    Type
REMARK                         _______ _______ _______ _____ _____    ______ ____
ROOT
ATOM      1  N   UNL     1       0.854  -0.070   0.911  0.00  0.00    +0.400 N 
ATOM      2  H   UNL     1       1.071  -0.744   1.645  0.00  0.00    -0.083 HD
ATOM      3  H   UNL     1       1.133   0.879   1.158  0.00  0.00    -0.083 HD
ENDROOT
BRANCH   1   7
ATOM      4  S   UNL     1      -2.851  -1.157   2.009  0.00  0.00    -0.136 S 
ATOM      5  O   UNL     1      -0.214   2.205   0.010  0.00  0.00    -0.277 OA
ATOM      6  N   UNL     1      -2.348   1.385  -0.359  0.00  0.00    -0.270 N 
ATOM      7  C   UNL     1      -0.634  -0.051   0.711  0.00  0.00    +0.029 C 
ATOM      8  C   UNL     1      -1.280  -0.238   2.083  0.00  0.00    +0.046 C 
ATOM      9  C   UNL     1      -1.030   1.282   0.086  0.00  0.00    +0.207 C 
ATOM     10  C   UNL     1      -3.892   0.008   1.038  0.00  0.00    +0.095 C 
ATOM     11  C   UNL     1      -3.308   0.276  -0.359  0.00  0.00    +0.110 C 
BRANCH  10  13
ATOM     12  S   UNL     1      -6.586   0.327   1.708  0.00  0.00    -0.090 S 
ATOM     13  C   UNL     1      -5.309  -0.539   0.966  0.00  0.00    +0.019 C 
ATOM     14  C   UNL     1      -5.752  -1.694   0.360  0.00  0.00    +0.004 C 
ATOM     15  C   UNL     1      -7.158  -1.870   0.507  0.00  0.00    +0.007 C 
ATOM     16  C   UNL     1      -7.736  -0.843   1.220  0.00  0.00    +0.035 C 
ENDBRANCH  10  13
BRANCH   6  17
ATOM     17  C   UNL     1      -2.844   2.664  -0.853  0.00  0.00    +0.208 C 
BRANCH  17  20
ATOM     18  O   UNL     1      -1.455   2.748  -2.752  0.00  0.00    -0.244 OA
ATOM     19  O   UNL     1      -3.714   2.985  -3.016  0.00  0.00    -0.244 OA
ATOM     20  C   UNL     1      -2.652   2.811  -2.355  0.00  0.00    +0.385 C 
ENDBRANCH  17  20
ENDBRANCH   6  17
ENDBRANCH   1   7
BRANCH   1  21
ATOM     21  C   UNL     1       1.614  -0.442  -0.304  0.00  0.00    +0.041 C 
BRANCH  21  23
ATOM     22  O   UNL     1       1.087  -2.741   0.278  0.00  0.00    -0.252 OA
ATOM     23  C   UNL     1       1.572  -1.942  -0.513  0.00  0.00    +0.297 C 
BRANCH  23  24
ATOM     24  O   UNL     1       2.115  -2.255  -1.727  0.00  0.00    -0.450 OA
BRANCH  24  25
ATOM     25  C   UNL     1       2.099  -3.644  -2.071  0.00  0.00    +0.208 C 
ATOM     26  C   UNL     1       2.732  -3.821  -3.435  0.00  0.00    +0.051 C 
ENDBRANCH  24  25
ENDBRANCH  23  24
ENDBRANCH  21  23
BRANCH  21  27
ATOM     27  C   UNL     1       3.027   0.156  -0.241  0.00  0.00    -0.006 C 
BRANCH  27  28
ATOM     28  C   UNL     1       3.961  -0.365   0.863  0.00  0.00    +0.025 C 
BRANCH  28  29
ATOM     29  C   UNL     1       5.340   0.242   0.868  0.00  0.00    -0.022 C 
ATOM     30  C   UNL     1       6.365  -0.350   0.130  0.00  0.00    -0.004 C 
ATOM     31  C   UNL     1       5.592   1.396   1.610  0.00  0.00    -0.004 C 
ATOM     32  C   UNL     1       7.642   0.212   0.135  0.00  0.00    -0.000 C 
ATOM     33  C   UNL     1       6.868   1.958   1.614  0.00  0.00    -0.000 C 
ATOM     34  C   UNL     1       7.894   1.366   0.876  0.00  0.00    -0.000 C 
ENDBRANCH  28  29
ENDBRANCH  27  28
ENDBRANCH  21  27
ENDBRANCH   1  21
TORSDOF 11
