REMARK  Name = 54685311
REMARK  4 active torsions:
REMARK  status: ('A' for Active; 'I' for Inactive)
REMARK    1  A    between atoms: C_11  and  C_16
REMARK    2  A    between atoms: C_12  and  O_14
REMARK    3  A    between atoms: C_16  and  C_17
REMARK    4  A    between atoms: C_16  and  C_23
REMARK                            x       y       z     vdW  Elec       q    Type
REMARK                         _______ _______ _______ _____ _____    ______ ____
ROOT
ATOM      1  O   UNL     1       1.607   1.647   1.168  0.00  0.00    -0.426 OA
ATOM      2  O   UNL     1      -0.355   2.446   1.944  0.00  0.00    -0.245 OA
ATOM      3  C   UNL     1       2.451  -0.592  -1.792  0.00  0.00    +0.032 C 
ATOM      4  C   UNL     1       1.700   0.241  -0.782  0.00  0.00    +0.042 A 
ATOM      5  C   UNL     1       2.573  -2.061  -1.381  0.00  0.00    +0.005 C 
ATOM      6  C   UNL     1       3.101  -2.318   0.036  0.00  0.00    +0.000 C 
ATOM      7  C   UNL     1       4.432  -1.635   0.365  0.00  0.00    +0.000 C 
ATOM      8  C   UNL     1       4.317  -0.356   1.206  0.00  0.00    +0.008 C 
ATOM      9  C   UNL     1       3.810   0.885   0.466  0.00  0.00    +0.064 C 
ATOM     10  C   UNL     1       2.326   0.886   0.218  0.00  0.00    +0.125 A 
ATOM     11  C   UNL     1      -0.465   1.044   0.030  0.00  0.00    +0.091 A 
ATOM     12  C   UNL     1       0.252   0.330  -0.859  0.00  0.00    +0.135 A 
ATOM     13  C   UNL     1       0.250   1.768   1.119  0.00  0.00    +0.345 A 
ENDROOT
BRANCH  12  14
ATOM     14  O   UNL     1      -0.304  -0.380  -1.903  0.00  0.00    -0.506 OA
ATOM     15  H   UNL     1       0.248  -0.859  -2.490  0.00  0.00    +0.292 HD
ENDBRANCH  12  14
BRANCH  11  16
ATOM     16  C   UNL     1      -1.960   1.192   0.053  0.00  0.00    +0.054 C 
BRANCH  16  17
ATOM     17  C   UNL     1      -2.637  -0.151   0.263  0.00  0.00    -0.018 C 
ATOM     18  C   UNL     1      -1.957  -1.180   0.914  0.00  0.00    -0.004 C 
ATOM     19  C   UNL     1      -3.938  -0.355  -0.194  0.00  0.00    -0.004 C 
ATOM     20  C   UNL     1      -2.578  -2.413   1.108  0.00  0.00    -0.000 C 
ATOM     21  C   UNL     1      -4.560  -1.589  -0.001  0.00  0.00    -0.000 C 
ATOM     22  C   UNL     1      -3.880  -2.618   0.650  0.00  0.00    -0.000 C 
ENDBRANCH  16  17
BRANCH  16  23
ATOM     23  C   UNL     1      -2.436   1.931  -1.216  0.00  0.00    +0.009 C 
ATOM     24  C   UNL     1      -1.750   3.278  -1.414  0.00  0.00    +0.001 C 
ENDBRANCH  16  23
ENDBRANCH  11  16
TORSDOF 4
