447656
  -OEChem-10051721173D

 49 52  0     0  0  0  0  0  0999 V2000
   -2.3978    0.3303   -0.2900 O   0  0  0  0  0  0  0  0  0  0  0  0
    6.6398    0.8364   -0.4329 O   0  0  0  0  0  0  0  0  0  0  0  0
   -0.5826   -1.1378   -0.0653 N   0  0  0  0  0  0  0  0  0  0  0  0
   -4.0840   -2.2606   -0.1348 N   0  0  0  0  0  0  0  0  0  0  0  0
   -0.8600   -3.5526    0.1440 N   0  0  0  0  0  0  0  0  0  0  0  0
   -3.1780   -4.2839    0.0968 N   0  0  0  0  0  0  0  0  0  0  0  0
    1.2609   -2.5649    0.1577 N   0  0  0  0  0  0  0  0  0  0  0  0
    5.2873    2.4241    0.5205 N   0  0  0  0  0  0  0  0  0  0  0  0
   -2.1843    2.7010   -0.4931 C   0  0  0  0  0  0  0  0  0  0  0  0
   -3.1405    2.9276    0.6856 C   0  0  0  0  0  0  0  0  0  0  0  0
   -1.1917    3.8641   -0.6229 C   0  0  0  0  0  0  0  0  0  0  0  0
   -3.8542    4.2736    0.5818 C   0  0  0  0  0  0  0  0  0  0  0  0
   -1.9086    5.2085   -0.7244 C   0  0  0  0  0  0  0  0  0  0  0  0
   -2.8647    5.4263    0.4443 C   0  0  0  0  0  0  0  0  0  0  0  0
   -1.4433    1.3741   -0.3392 C   0  0  0  0  0  0  0  0  0  0  0  0
   -1.9175   -0.9486   -0.1489 C   0  0  0  0  0  0  0  0  0  0  0  0
   -2.7340   -2.0590   -0.0868 C   0  0  0  0  0  0  0  0  0  0  0  0
   -2.1936   -3.3297    0.0573 C   0  0  0  0  0  0  0  0  0  0  0  0
   -0.1420   -2.4110    0.0742 C   0  0  0  0  0  0  0  0  0  0  0  0
   -4.3012   -3.6084   -0.0210 C   0  0  0  0  0  0  0  0  0  0  0  0
    2.3219   -1.6427    0.1259 C   0  0  0  0  0  0  0  0  0  0  0  0
    2.1367   -0.3432    0.6042 C   0  0  0  0  0  0  0  0  0  0  0  0
    3.5662   -2.0218   -0.3839 C   0  0  0  0  0  0  0  0  0  0  0  0
    4.4299    0.1899    0.0629 C   0  0  0  0  0  0  0  0  0  0  0  0
    3.1891    0.5717    0.5726 C   0  0  0  0  0  0  0  0  0  0  0  0
    4.6185   -1.1068   -0.4153 C   0  0  0  0  0  0  0  0  0  0  0  0
    5.5274    1.1435    0.0307 C   0  0  0  0  0  0  0  0  0  0  0  0
   -2.7921    2.6513   -1.4073 H   0  0  0  0  0  0  0  0  0  0  0  0
   -2.5842    2.8871    1.6310 H   0  0  0  0  0  0  0  0  0  0  0  0
   -3.8953    2.1337    0.7276 H   0  0  0  0  0  0  0  0  0  0  0  0
   -0.5634    3.7223   -1.5103 H   0  0  0  0  0  0  0  0  0  0  0  0
   -0.5184    3.8791    0.2438 H   0  0  0  0  0  0  0  0  0  0  0  0
   -4.4789    4.4285    1.4688 H   0  0  0  0  0  0  0  0  0  0  0  0
   -4.5267    4.2640   -0.2848 H   0  0  0  0  0  0  0  0  0  0  0  0
   -2.4680    5.2530   -1.6670 H   0  0  0  0  0  0  0  0  0  0  0  0
   -1.1707    6.0181   -0.7527 H   0  0  0  0  0  0  0  0  0  0  0  0
   -3.4103    6.3663    0.3044 H   0  0  0  0  0  0  0  0  0  0  0  0
   -2.2890    5.5256    1.3728 H   0  0  0  0  0  0  0  0  0  0  0  0
   -0.8479    1.3848    0.5825 H   0  0  0  0  0  0  0  0  0  0  0  0
   -0.7738    1.2271   -1.1961 H   0  0  0  0  0  0  0  0  0  0  0  0
   -4.7948   -1.5482   -0.2355 H   0  0  0  0  0  0  0  0  0  0  0  0
   -5.2967   -4.0287   -0.0314 H   0  0  0  0  0  0  0  0  0  0  0  0
    1.5470   -3.5388    0.1234 H   0  0  0  0  0  0  0  0  0  0  0  0
    1.2060   -0.0179    1.0564 H   0  0  0  0  0  0  0  0  0  0  0  0
    3.7263   -3.0290   -0.7606 H   0  0  0  0  0  0  0  0  0  0  0  0
    2.9750    1.5564    0.9702 H   0  0  0  0  0  0  0  0  0  0  0  0
    5.5760   -1.4280   -0.8170 H   0  0  0  0  0  0  0  0  0  0  0  0
    4.4149    2.7588    0.9083 H   0  0  0  0  0  0  0  0  0  0  0  0
    6.0354    3.1102    0.5031 H   0  0  0  0  0  0  0  0  0  0  0  0
  1 15  1  0  0  0  0
  1 16  1  0  0  0  0
  2 27  2  0  0  0  0
  3 16  2  0  0  0  0
  3 19  1  0  0  0  0
  4 17  1  0  0  0  0
  4 20  1  0  0  0  0
  4 41  1  0  0  0  0
  5 18  1  0  0  0  0
  5 19  2  0  0  0  0
  6 18  1  0  0  0  0
  6 20  2  0  0  0  0
  7 19  1  0  0  0  0
  7 21  1  0  0  0  0
  7 43  1  0  0  0  0
  8 27  1  0  0  0  0
  8 48  1  0  0  0  0
  8 49  1  0  0  0  0
  9 10  1  0  0  0  0
  9 11  1  0  0  0  0
  9 15  1  0  0  0  0
  9 28  1  0  0  0  0
 10 12  1  0  0  0  0
 10 29  1  0  0  0  0
 10 30  1  0  0  0  0
 11 13  1  0  0  0  0
 11 31  1  0  0  0  0
 11 32  1  0  0  0  0
 12 14  1  0  0  0  0
 12 33  1  0  0  0  0
 12 34  1  0  0  0  0
 13 14  1  0  0  0  0
 13 35  1  0  0  0  0
 13 36  1  0  0  0  0
 14 37  1  0  0  0  0
 14 38  1  0  0  0  0
 15 39  1  0  0  0  0
 15 40  1  0  0  0  0
 16 17  1  0  0  0  0
 17 18  2  0  0  0  0
 20 42  1  0  0  0  0
 21 22  2  0  0  0  0
 21 23  1  0  0  0  0
 22 25  1  0  0  0  0
 22 44  1  0  0  0  0
 23 26  2  0  0  0  0
 23 45  1  0  0  0  0
 24 25  2  0  0  0  0
 24 26  1  0  0  0  0
 24 27  1  0  0  0  0
 25 46  1  0  0  0  0
 26 47  1  0  0  0  0
M  END
> <DATABASE_ID>
DB08241

> <DATABASE_NAME>
drugbank

> <ORIGINAL_SOURCE>
PUBCHEM

> <ORIGINAL_SOURCE_URL>
https://pubchem.ncbi.nlm.nih.gov/rest/pug/compound/inchikey/RUUOIINPNMNPIU-UHFFFAOYSA-N/SDF?record_type=3d

> <SMILES>
NC(=O)C1=CC=C(NC2=NC(OCC3CCCCC3)=C3N=CNC3=N2)C=C1

> <INCHI_IDENTIFIER>
InChI=1S/C19H22N6O2/c20-16(26)13-6-8-14(9-7-13)23-19-24-17-15(21-11-22-17)18(25-19)27-10-12-4-2-1-3-5-12/h6-9,11-12H,1-5,10H2,(H2,20,26)(H2,21,22,23,24,25)

> <INCHI_KEY>
RUUOIINPNMNPIU-UHFFFAOYSA-N

> <FORMULA>
C19H22N6O2

> <MOLECULAR_WEIGHT>
366.417

> <EXACT_MASS>
366.180423978

> <JCHEM_ACCEPTOR_COUNT>
6

> <JCHEM_AVERAGE_POLARIZABILITY>
40.055419651403135

> <JCHEM_BIOAVAILABILITY>
1

> <JCHEM_DONOR_COUNT>
3

> <JCHEM_FORMAL_CHARGE>
0

> <JCHEM_GHOSE_FILTER>
1

> <JCHEM_IUPAC>
4-{[6-(cyclohexylmethoxy)-9H-purin-2-yl]amino}benzamide

> <ALOGPS_LOGP>
3.48

> <JCHEM_LOGP>
3.223877318333334

> <ALOGPS_LOGS>
-4.07

> <JCHEM_MDDR_LIKE_RULE>
1

> <JCHEM_NUMBER_OF_RINGS>
4

> <JCHEM_PHYSIOLOGICAL_CHARGE>
0

> <JCHEM_PKA>
12.90874327623236

> <JCHEM_PKA_STRONGEST_ACIDIC>
8.951792651972172

> <JCHEM_PKA_STRONGEST_BASIC>
2.377645075664547

> <JCHEM_POLAR_SURFACE_AREA>
118.81

> <JCHEM_REFRACTIVITY>
101.6177

> <JCHEM_ROTATABLE_BOND_COUNT>
6

> <JCHEM_RULE_OF_FIVE>
1

> <ALOGPS_SOLUBILITY>
3.14e-02 g/l

> <JCHEM_TRADITIONAL_IUPAC>
4-{[6-(cyclohexylmethoxy)-9H-purin-2-yl]amino}benzamide

> <JCHEM_VEBER_RULE>
0

> <DRUGBANK_ID>
DB08241

> <DRUG_GROUPS>
experimental

> <GENERIC_NAME>
4-(6-CYCLOHEXYLMETHOXY-9H-PURIN-2-YLAMINO)--BENZAMIDE

$$$$
