REMARK  Name = 25023881
REMARK  18 active torsions:
REMARK  status: ('A' for Active; 'I' for Inactive)
REMARK    1  A    between atoms: C_1  and  P_2
REMARK    2  A    between atoms: C_1  and  P_8
REMARK    3  A    between atoms: C_1  and  C_14
REMARK    4  A    between atoms: C_1  and  C_22
REMARK    5  A    between atoms: P_2  and  O_4
REMARK    6  A    between atoms: P_2  and  O_6
REMARK    7  A    between atoms: P_8  and  O_10
REMARK    8  A    between atoms: P_8  and  O_12
REMARK    9  A    between atoms: C_14  and  C_15
REMARK   10  A    between atoms: C_16  and  C_17
REMARK   11  A    between atoms: C_17  and  C_18
REMARK   12  A    between atoms: C_18  and  C_19
REMARK   13  A    between atoms: C_19  and  C_20
REMARK   14  A    between atoms: C_22  and  C_23
REMARK   15  A    between atoms: C_24  and  C_25
REMARK   16  A    between atoms: C_25  and  C_26
REMARK   17  A    between atoms: C_26  and  C_27
REMARK   18  A    between atoms: C_27  and  C_28
REMARK                            x       y       z     vdW  Elec       q    Type
REMARK                         _______ _______ _______ _____ _____    ______ ____
ROOT
ATOM      1  C   UNL     1      -1.196   1.295   0.028  0.00  0.00    +0.194 C 
ENDROOT
BRANCH   1   2
ATOM      2  P   UNL     1      -1.265   1.109  -1.850  0.00  0.00    +0.347 P 
ATOM      3  O   UNL     1      -1.013  -0.281  -2.355  0.00  0.00    -0.258 OA
BRANCH   2   4
ATOM      4  O   UNL     1      -2.702   1.742  -2.235  0.00  0.00    -0.323 OA
ATOM      5  H   UNL     1      -2.831   1.691  -3.195  0.00  0.00    +0.220 HD
ENDBRANCH   2   4
BRANCH   2   6
ATOM      6  O   UNL     1      -0.226   2.229  -2.377  0.00  0.00    -0.323 OA
ATOM      7  H   UNL     1      -0.193   2.209  -3.346  0.00  0.00    +0.220 HD
ENDBRANCH   2   6
ENDBRANCH   1   2
BRANCH   1   8
ATOM      8  P   UNL     1      -0.981   3.093   0.634  0.00  0.00    +0.347 P 
ATOM      9  O   UNL     1       0.302   3.743   0.208  0.00  0.00    -0.258 OA
BRANCH   8  10
ATOM     10  O   UNL     1      -2.321   3.823   0.101  0.00  0.00    -0.323 OA
ATOM     11  H   UNL     1      -2.307   4.757   0.363  0.00  0.00    +0.220 HD
ENDBRANCH   8  10
BRANCH   8  12
ATOM     12  O   UNL     1      -1.208   2.991   2.231  0.00  0.00    -0.323 OA
ATOM     13  H   UNL     1      -1.116   3.871   2.627  0.00  0.00    +0.220 HD
ENDBRANCH   8  12
ENDBRANCH   1   8
BRANCH   1  14
ATOM     14  C   UNL     1      -0.024   0.434   0.598  0.00  0.00    +0.049 C 
BRANCH  14  15
ATOM     15  C   UNL     1       1.339   0.817   0.099  0.00  0.00    -0.029 C 
ATOM     16  C   UNL     1       2.328   1.254   0.893  0.00  0.00    -0.031 C 
BRANCH  16  17
ATOM     17  C   UNL     1       3.694   1.624   0.394  0.00  0.00    +0.026 C 
BRANCH  17  18
ATOM     18  C   UNL     1       4.810   0.784   1.024  0.00  0.00    +0.005 C 
BRANCH  18  19
ATOM     19  C   UNL     1       4.680  -0.731   0.833  0.00  0.00    +0.000 C 
BRANCH  19  20
ATOM     20  C   UNL     1       4.760  -1.168  -0.630  0.00  0.00    +0.000 C 
ATOM     21  C   UNL     1       4.718  -2.683  -0.759  0.00  0.00    +0.000 C 
ENDBRANCH  19  20
ENDBRANCH  18  19
ENDBRANCH  17  18
ENDBRANCH  16  17
ENDBRANCH  14  15
ENDBRANCH   1  14
BRANCH   1  22
ATOM     22  C   UNL     1      -2.547   0.778   0.639  0.00  0.00    +0.049 C 
BRANCH  22  23
ATOM     23  C   UNL     1      -2.889  -0.657   0.352  0.00  0.00    -0.029 C 
ATOM     24  C   UNL     1      -3.026  -1.594   1.301  0.00  0.00    -0.031 C 
BRANCH  24  25
ATOM     25  C   UNL     1      -3.376  -3.026   1.015  0.00  0.00    +0.026 C 
BRANCH  25  26
ATOM     26  C   UNL     1      -2.255  -3.967   1.463  0.00  0.00    +0.005 C 
BRANCH  26  27
ATOM     27  C   UNL     1      -0.942  -3.754   0.702  0.00  0.00    +0.000 C 
BRANCH  27  28
ATOM     28  C   UNL     1      -0.998  -4.014  -0.805  0.00  0.00    +0.000 C 
ATOM     29  C   UNL     1       0.342  -3.840  -1.502  0.00  0.00    +0.000 C 
ENDBRANCH  27  28
ENDBRANCH  26  27
ENDBRANCH  25  26
ENDBRANCH  24  25
ENDBRANCH  22  23
ENDBRANCH   1  22
TORSDOF 18
