REMARK  Name = 447655
REMARK  6 active torsions:
REMARK  status: ('A' for Active; 'I' for Inactive)
REMARK    1  A    between atoms: N_4  and  C_14
REMARK    2  A    between atoms: C_6  and  O_26
REMARK    3  A    between atoms: C_15  and  S_20
REMARK    4  A    between atoms: S_20  and  N_23
REMARK    5  A    between atoms: O_26  and  C_27
REMARK    6  A    between atoms: C_27  and  C_28
REMARK                            x       y       z     vdW  Elec       q    Type
REMARK                         _______ _______ _______ _____ _____    ______ ____
ROOT
ATOM      1  N   UNL     1      -0.874  -1.057   0.029  0.00  0.00    -0.293 NA
ATOM      2  N   UNL     1      -4.511  -0.726  -0.406  0.00  0.00    -0.266 NA
ATOM      3  N   UNL     1      -2.075  -3.180   0.022  0.00  0.00    -0.316 NA
ATOM      4  N   UNL     1       0.248  -3.097   0.282  0.00  0.00    -0.238 N 
ATOM      5  N   UNL     1      -4.478  -2.950  -0.267  0.00  0.00    -0.296 N 
ATOM      6  C   UNL     1      -2.019  -0.360  -0.145  0.00  0.00    +0.288 C 
ATOM      7  C   UNL     1      -3.200  -1.067  -0.236  0.00  0.00    +0.215 C 
ATOM      8  C   UNL     1      -3.205  -2.453  -0.152  0.00  0.00    +0.196 C 
ATOM      9  C   UNL     1      -0.972  -2.406   0.100  0.00  0.00    +0.207 C 
ATOM     10  C   UNL     1      -5.239  -1.887  -0.418  0.00  0.00    +0.164 C 
ATOM     11  H   UNL     1      -4.868   0.186  -0.503  0.00  0.00    +0.126 HD
ATOM     12  H   UNL     1       0.147  -4.075   0.329  0.00  0.00    +0.166 HD
ATOM     13  H   UNL     1      -4.761  -3.893  -0.241  0.00  0.00    +0.150 HD
ENDROOT
BRANCH   4  14
ATOM     14  C   UNL     1       1.579  -2.659   0.407  0.00  0.00    +0.060 C 
ATOM     15  C   UNL     1       3.314  -1.051  -0.100  0.00  0.00    +0.123 C 
ATOM     16  C   UNL     1       1.994  -1.485  -0.225  0.00  0.00    +0.035 C 
ATOM     17  C   UNL     1       2.491  -3.397   1.167  0.00  0.00    +0.015 C 
ATOM     18  C   UNL     1       4.222  -1.790   0.659  0.00  0.00    +0.020 C 
ATOM     19  C   UNL     1       3.810  -2.963   1.292  0.00  0.00    +0.003 C 
BRANCH  15  20
ATOM     20  S   UNL     1       3.830   0.417  -0.891  0.00  0.00    +0.057 S 
ATOM     21  O   UNL     1       5.269   0.345  -1.099  0.00  0.00    -0.153 OA
ATOM     22  O   UNL     1       2.947   0.667  -2.022  0.00  0.00    -0.153 OA
BRANCH  20  23
ATOM     23  N   UNL     1       3.505   1.574   0.324  0.00  0.00    -0.203 NA
ATOM     24  H   UNL     1       3.766   2.501  -0.012  0.00  0.00    +0.144 HD
ATOM     25  H   UNL     1       4.046   1.350   1.159  0.00  0.00    +0.144 HD
ENDBRANCH  20  23
ENDBRANCH  15  20
ENDBRANCH   4  14
BRANCH   6  26
ATOM     26  O   UNL     1      -1.955   1.010  -0.221  0.00  0.00    -0.453 OA
BRANCH  26  27
ATOM     27  C   UNL     1      -0.674   1.601  -0.111  0.00  0.00    +0.208 C 
BRANCH  27  28
ATOM     28  C   UNL     1      -0.830   3.117  -0.216  0.00  0.00    +0.044 C 
ATOM     29  C   UNL     1      -1.743   3.647   0.898  0.00  0.00    +0.004 C 
ATOM     30  C   UNL     1       0.540   3.807  -0.173  0.00  0.00    +0.004 C 
ATOM     31  C   UNL     1      -1.872   5.167   0.846  0.00  0.00    +0.000 C 
ATOM     32  C   UNL     1       0.407   5.327  -0.223  0.00  0.00    +0.000 C 
ATOM     33  C   UNL     1      -0.508   5.849   0.880  0.00  0.00    +0.000 C 
ENDBRANCH  27  28
ENDBRANCH  26  27
ENDBRANCH   6  26
TORSDOF 6
