REMARK  Name = 42611257
REMARK  7 active torsions:
REMARK  status: ('A' for Active; 'I' for Inactive)
REMARK    1  A    between atoms: C_2  and  C_6
REMARK    2  A    between atoms: C_2  and  C_22
REMARK    3  A    between atoms: C_10  and  C_14
REMARK    4  A    between atoms: C_23  and  N_28
REMARK    5  A    between atoms: N_28  and  S_30
REMARK    6  A    between atoms: S_30  and  C_33
REMARK    7  A    between atoms: C_33  and  C_34
REMARK                            x       y       z     vdW  Elec       q    Type
REMARK                         _______ _______ _______ _____ _____    ______ ____
ROOT
ATOM      1  O   UNL     1      -4.368   1.350  -0.994  0.00  0.00    -0.286 OA
ATOM      2  C   UNL     1      -3.232   1.073  -0.552  0.00  0.00    +0.201 C 
ENDROOT
BRANCH   2   6
ATOM      3  N   UNL     1      -2.094   3.658   1.692  0.00  0.00    -0.297 N 
ATOM      4  N   UNL     1       0.314   3.694   1.663  0.00  0.00    -0.229 NA
ATOM      5  C   UNL     1      -1.096   2.170   0.359  0.00  0.00    +0.036 C 
ATOM      6  C   UNL     1      -2.503   2.010   0.254  0.00  0.00    +0.056 C 
ATOM      7  C   UNL     1      -0.875   3.205   1.263  0.00  0.00    +0.132 C 
ATOM      8  C   UNL     1       0.032   1.556  -0.210  0.00  0.00    +0.004 C 
ATOM      9  C   UNL     1      -3.091   2.939   1.085  0.00  0.00    +0.066 C 
ATOM     10  C   UNL     1       1.288   2.025   0.170  0.00  0.00    +0.019 C 
ATOM     11  C   UNL     1       1.364   3.067   1.085  0.00  0.00    +0.100 C 
ATOM     12  H   UNL     1      -2.233   4.388   2.338  0.00  0.00    +0.154 HD
BRANCH  10  14
ATOM     13 CL   UNL     1       6.234  -0.402  -2.094  0.00  0.00    -0.082 Cl
ATOM     14  C   UNL     1       2.488   1.435  -0.378  0.00  0.00    +0.002 C 
ATOM     15  C   UNL     1       2.497   0.092  -0.755  0.00  0.00    +0.001 C 
ATOM     16  C   UNL     1       3.638   2.210  -0.531  0.00  0.00    +0.001 C 
ATOM     17  C   UNL     1       3.655  -0.476  -1.286  0.00  0.00    +0.011 C 
ATOM     18  C   UNL     1       4.796   1.642  -1.061  0.00  0.00    +0.011 C 
ATOM     19  C   UNL     1       4.805   0.299  -1.439  0.00  0.00    +0.058 C 
ENDBRANCH  10  14
ENDBRANCH   2   6
BRANCH   2  22
ATOM     20  F   UNL     1      -2.544  -0.875   1.371  0.00  0.00    -0.203 F 
ATOM     21  F   UNL     1      -2.824   0.248  -3.231  0.00  0.00    -0.204 F 
ATOM     22  C   UNL     1      -2.696  -0.284  -0.920  0.00  0.00    +0.095 C 
ATOM     23  C   UNL     1      -1.877  -2.459  -0.259  0.00  0.00    +0.092 C 
ATOM     24  C   UNL     1      -2.375  -1.201   0.081  0.00  0.00    +0.160 C 
ATOM     25  C   UNL     1      -2.519  -0.625  -2.261  0.00  0.00    +0.145 C 
ATOM     26  C   UNL     1      -1.701  -2.800  -1.601  0.00  0.00    +0.020 C 
ATOM     27  C   UNL     1      -2.022  -1.883  -2.601  0.00  0.00    +0.031 C 
BRANCH  23  28
ATOM     28  N   UNL     1      -1.548  -3.400   0.763  0.00  0.00    -0.217 N 
ATOM     29  H   UNL     1      -2.253  -3.836   1.295  0.00  0.00    +0.173 HD
BRANCH  28  30
ATOM     30  S   UNL     1       0.115  -3.752   1.039  0.00  0.00    +0.054 S 
ATOM     31  O   UNL     1       0.200  -4.903   1.920  0.00  0.00    -0.154 OA
ATOM     32  O   UNL     1       0.865  -3.716  -0.200  0.00  0.00    -0.154 OA
BRANCH  30  33
ATOM     33  C   UNL     1       0.581  -2.331   2.001  0.00  0.00    +0.172 C 
BRANCH  33  34
ATOM     34  C   UNL     1       2.048  -2.385   2.394  0.00  0.00    +0.027 C 
ATOM     35  C   UNL     1       2.444  -1.182   3.233  0.00  0.00    +0.002 C 
ENDBRANCH  33  34
ENDBRANCH  30  33
ENDBRANCH  28  30
ENDBRANCH  23  28
ENDBRANCH   2  22
TORSDOF 7
