REMARK  Name = 3581192
REMARK  6 active torsions:
REMARK  status: ('A' for Active; 'I' for Inactive)
REMARK    1  A    between atoms: N_1  and  C_3
REMARK    2  A    between atoms: N_1  and  C_12
REMARK    3  A    between atoms: C_4  and  N_11
REMARK    4  A    between atoms: C_12  and  C_13
REMARK    5  A    between atoms: C_13  and  C_14
REMARK    6  A    between atoms: C_14  and  N_15
REMARK                            x       y       z     vdW  Elec       q    Type
REMARK                         _______ _______ _______ _____ _____    ______ ____
ROOT
ATOM      1  N   UNL     1       0.710  -0.127  -0.002  0.00  0.00    -0.331 N 
ATOM      2  H   UNL     1       0.789  -1.108  -0.002  0.00  0.00    +0.147 HD
ENDROOT
BRANCH   1   3
ATOM      3  C   UNL     1      -0.560   0.428  -0.001  0.00  0.00    +0.067 C 
ATOM      4  C   UNL     1      -1.723  -0.367   0.000  0.00  0.00    +0.156 C 
ATOM      5  C   UNL     1      -0.714   1.828  -0.001  0.00  0.00    +0.016 C 
ATOM      6  C   UNL     1      -2.990   0.215   0.001  0.00  0.00    +0.025 C 
ATOM      7  C   UNL     1      -1.981   2.410   0.000  0.00  0.00    +0.001 C 
ATOM      8  C   UNL     1      -3.119   1.604   0.001  0.00  0.00    +0.002 C 
BRANCH   4  11
ATOM      9  O   UNL     1      -2.671  -2.469   0.001  0.00  0.00    -0.126 OA
ATOM     10  O   UNL     1      -0.482  -2.311  -0.002  0.00  0.00    -0.126 OA
ATOM     11  N   UNL     1      -1.620  -1.787   0.000  0.00  0.00    +0.059 N 
ENDBRANCH   4  11
ENDBRANCH   1   3
BRANCH   1  12
ATOM     12  C   UNL     1       1.925   0.653  -0.003  0.00  0.00    +0.085 C 
BRANCH  12  13
ATOM     13  C   UNL     1       3.156  -0.251   0.007  0.00  0.00    -0.003 C 
BRANCH  13  14
ATOM     14  C   UNL     1       4.464   0.541   0.004  0.00  0.00    -0.084 C 
BRANCH  14  15
ATOM     15  N   UNL     1       5.605  -0.368  -0.004  0.00  0.00    +0.380 N 
ATOM     16  H   UNL     1       6.470   0.173  -0.006  0.00  0.00    -0.089 HD
ATOM     17  H   UNL     1       5.568  -0.953  -0.839  0.00  0.00    -0.089 HD
ATOM     18  H   UNL     1       5.575  -0.959   0.826  0.00  0.00    -0.089 HD
ENDBRANCH  14  15
ENDBRANCH  13  14
ENDBRANCH  12  13
ENDBRANCH   1  12
TORSDOF 6
