REMARK  Name = 11691442
REMARK  5 active torsions:
REMARK  status: ('A' for Active; 'I' for Inactive)
REMARK    1  A    between atoms: C_10  and  C_19
REMARK    2  A    between atoms: C_11  and  C_27
REMARK    3  A    between atoms: N_26  and  C_29
REMARK    4  A    between atoms: C_29  and  C_30
REMARK    5  A    between atoms: C_30  and  O_31
REMARK                            x       y       z     vdW  Elec       q    Type
REMARK                         _______ _______ _______ _____ _____    ______ ____
ROOT
ATOM      1 BR   UNL     1      -2.932   2.695   0.213  0.00  0.00    -0.047 Br
ATOM      2  O   UNL     1      -0.199   3.861  -0.211  0.00  0.00    -0.270 OA
ATOM      3  O   UNL     1       3.969   1.932  -0.332  0.00  0.00    -0.270 OA
ATOM      4  N   UNL     1      -1.656  -1.113   0.631  0.00  0.00    -0.321 N 
ATOM      5  N   UNL     1       2.027   3.231  -0.332  0.00  0.00    -0.248 N 
ATOM      6  C   UNL     1      -0.614   0.824   0.260  0.00  0.00    +0.028 A 
ATOM      7  C   UNL     1      -0.414  -0.553   0.435  0.00  0.00    +0.061 A 
ATOM      8  C   UNL     1       0.530   1.588   0.044  0.00  0.00    +0.060 C 
ATOM      9  C   UNL     1       1.793   1.008   0.006  0.00  0.00    +0.058 C 
ATOM     10  C   UNL     1       1.988  -0.346   0.179  0.00  0.00    +0.007 C 
ATOM     11  C   UNL     1      -2.624  -0.145   0.586  0.00  0.00    +0.120 A 
ATOM     12  C   UNL     1       0.865  -1.155   0.400  0.00  0.00    +0.017 C 
ATOM     13  C   UNL     1      -2.009   1.065   0.357  0.00  0.00    +0.056 A 
ATOM     14  C   UNL     1       0.677   3.021  -0.174  0.00  0.00    +0.252 C 
ATOM     15  C   UNL     1       2.764   2.074  -0.238  0.00  0.00    +0.252 C 
ATOM     16  C   UNL     1      -1.902  -2.524   0.852  0.00  0.00    +0.131 C 
ATOM     17  H   UNL     1       2.424   4.117  -0.496  0.00  0.00    +0.158 HD
ENDROOT
BRANCH  10  19
ATOM     18 CL   UNL     1       3.024  -1.319  -2.558  0.00  0.00    -0.082 Cl
ATOM     19  C   UNL     1       3.301  -0.952   0.140  0.00  0.00    +0.011 C 
ATOM     20  C   UNL     1       3.862  -1.424  -1.049  0.00  0.00    +0.058 C 
ATOM     21  C   UNL     1       4.018  -1.059   1.334  0.00  0.00    +0.001 C 
ATOM     22  C   UNL     1       5.132  -2.001  -1.044  0.00  0.00    +0.011 C 
ATOM     23  C   UNL     1       5.288  -1.636   1.339  0.00  0.00    +0.000 C 
ATOM     24  C   UNL     1       5.845  -2.107   0.150  0.00  0.00    +0.001 C 
ENDBRANCH  10  19
BRANCH  11  27
ATOM     25  O   UNL     1      -4.463  -0.930   1.811  0.00  0.00    -0.269 OA
ATOM     26  N   UNL     1      -4.891  -0.061  -0.296  0.00  0.00    -0.297 N 
ATOM     27  C   UNL     1      -4.022  -0.415   0.755  0.00  0.00    +0.262 C 
ATOM     28  H   UNL     1      -4.496   0.340  -1.104  0.00  0.00    +0.150 HD
BRANCH  26  29
ATOM     29  C   UNL     1      -6.324  -0.248  -0.267  0.00  0.00    +0.122 C 
BRANCH  29  30
ATOM     30  C   UNL     1      -6.721  -1.606  -0.817  0.00  0.00    +0.158 C 
BRANCH  30  31
ATOM     31  O   UNL     1      -6.311  -1.703  -2.175  0.00  0.00    -0.380 OA
ATOM     32  H   UNL     1      -6.564  -2.570  -2.528  0.00  0.00    +0.211 HD
ENDBRANCH  30  31
ENDBRANCH  29  30
ENDBRANCH  26  29
ENDBRANCH  11  27
TORSDOF 5
