REMARK  Name = 1548992
REMARK  7 active torsions:
REMARK  status: ('A' for Active; 'I' for Inactive)
REMARK    1  A    between atoms: S_1  and  C_2
REMARK    2  A    between atoms: S_1  and  C_11
REMARK    3  A    between atoms: C_2  and  C_5
REMARK    4  A    between atoms: C_11  and  C_12
REMARK    5  A    between atoms: C_12  and  N_13
REMARK    6  A    between atoms: N_13  and  C_16
REMARK    7  A    between atoms: C_16  and  N_17
REMARK                            x       y       z     vdW  Elec       q    Type
REMARK                         _______ _______ _______ _____ _____    ______ ____
ROOT
ATOM      1  S   UNL     1       0.309  -0.871  -0.441  0.00  0.00    -0.132 S 
ENDROOT
BRANCH   1   2
ATOM      2  C   UNL     1       1.540  -0.715   0.873  0.00  0.00    +0.099 C 
BRANCH   2   5
ATOM      3  N   UNL     1       4.525   0.923  -0.350  0.00  0.00    -0.319 N 
ATOM      4  N   UNL     1       3.768  -1.149  -0.093  0.00  0.00    -0.318 N 
ATOM      5  C   UNL     1       2.846  -0.240   0.330  0.00  0.00    +0.043 C 
ATOM      6  C   UNL     1       3.275   1.045   0.188  0.00  0.00    +0.033 C 
ATOM      7  C   UNL     1       2.668   2.351   0.491  0.00  0.00    +0.048 C 
ATOM      8  C   UNL     1       4.778  -0.412  -0.500  0.00  0.00    +0.181 C 
ATOM      9  H   UNL     1       5.132   1.661  -0.585  0.00  0.00    +0.148 HD
ATOM     10  H   UNL     1       3.696  -2.131  -0.093  0.00  0.00    +0.148 HD
ENDBRANCH   2   5
ENDBRANCH   1   2
BRANCH   1  11
ATOM     11  C   UNL     1      -1.085  -1.447   0.574  0.00  0.00    +0.079 C 
BRANCH  11  12
ATOM     12  C   UNL     1      -2.319  -1.753  -0.263  0.00  0.00    +0.100 C 
BRANCH  12  13
ATOM     13  N   UNL     1      -2.825  -0.595  -0.973  0.00  0.00    -0.315 N 
ATOM     14  H   UNL     1      -2.462  -0.437  -1.875  0.00  0.00    +0.148 HD
BRANCH  13  16
ATOM     15  S   UNL     1      -4.204   1.589  -1.516  0.00  0.00    -0.019 S 
ATOM     16  C   UNL     1      -3.762   0.311  -0.515  0.00  0.00    +0.131 C 
BRANCH  16  17
ATOM     17  N   UNL     1      -4.263   0.077   0.753  0.00  0.00    -0.315 N 
ATOM     18  C   UNL     1      -5.251   0.886   1.444  0.00  0.00    +0.110 C 
ATOM     19  H   UNL     1      -3.917  -0.710   1.232  0.00  0.00    +0.148 HD
ENDBRANCH  16  17
ENDBRANCH  13  16
ENDBRANCH  12  13
ENDBRANCH  11  12
ENDBRANCH   1  11
TORSDOF 7
