REMARK  Name = 54693872
REMARK  4 active torsions:
REMARK  status: ('A' for Active; 'I' for Inactive)
REMARK    1  A    between atoms: C_3  and  C_14
REMARK    2  A    between atoms: C_4  and  O_12
REMARK    3  A    between atoms: C_14  and  C_16
REMARK    4  A    between atoms: C_14  and  C_22
REMARK                            x       y       z     vdW  Elec       q    Type
REMARK                         _______ _______ _______ _____ _____    ______ ____
ROOT
ATOM      1  O   UNL     1      -2.455  -0.665   1.579  0.00  0.00    -0.421 OA
ATOM      2  O   UNL     1      -0.703  -1.948   2.256  0.00  0.00    -0.245 OA
ATOM      3  C   UNL     1      -0.408  -0.761   0.214  0.00  0.00    +0.091 A 
ATOM      4  C   UNL     1      -0.955   0.089  -0.676  0.00  0.00    +0.139 A 
ATOM      5  C   UNL     1      -1.175  -1.180   1.424  0.00  0.00    +0.345 A 
ATOM      6  C   UNL     1      -2.309   0.614  -0.481  0.00  0.00    +0.068 A 
ATOM      7  C   UNL     1      -3.021   0.218   0.645  0.00  0.00    +0.152 A 
ATOM      8  C   UNL     1      -2.931   1.499  -1.373  0.00  0.00    +0.006 C 
ATOM      9  C   UNL     1      -4.316   0.671   0.905  0.00  0.00    +0.038 C 
ATOM     10  C   UNL     1      -4.229   1.962  -1.128  0.00  0.00    +0.000 C 
ATOM     11  C   UNL     1      -4.920   1.548   0.010  0.00  0.00    +0.003 C 
ENDROOT
BRANCH   4  12
ATOM     12  O   UNL     1      -0.325   0.540  -1.816  0.00  0.00    -0.506 OA
ATOM     13  H   UNL     1       0.544   0.252  -2.016  0.00  0.00    +0.292 HD
ENDBRANCH   4  12
BRANCH   3  14
ATOM     14  C   UNL     1       0.964  -1.371   0.114  0.00  0.00    +0.054 C 
BRANCH  14  16
ATOM     15 BR   UNL     1       5.260   3.094   0.369  0.00  0.00    -0.049 Br
ATOM     16  C   UNL     1       2.019  -0.276   0.177  0.00  0.00    -0.018 C 
ATOM     17  C   UNL     1       2.440   0.217   1.412  0.00  0.00    -0.003 C 
ATOM     18  C   UNL     1       2.563   0.236  -1.001  0.00  0.00    -0.003 C 
ATOM     19  C   UNL     1       3.406   1.221   1.469  0.00  0.00    +0.006 C 
ATOM     20  C   UNL     1       3.530   1.240  -0.944  0.00  0.00    +0.006 C 
ATOM     21  C   UNL     1       3.951   1.733   0.291  0.00  0.00    +0.035 C 
ENDBRANCH  14  16
BRANCH  14  22
ATOM     22  C   UNL     1       1.114  -2.302  -1.128  0.00  0.00    +0.008 C 
ATOM     23  C   UNL     1       0.018  -3.378  -1.169  0.00  0.00    +0.001 C 
ATOM     24  C   UNL     1       2.482  -3.001  -1.151  0.00  0.00    +0.001 C 
ENDBRANCH  14  22
ENDBRANCH   3  14
TORSDOF 4
