REMARK  Name = 510684
REMARK  10 active torsions:
REMARK  status: ('A' for Active; 'I' for Inactive)
REMARK    1  A    between atoms: N_1  and  C_2
REMARK    2  A    between atoms: N_1  and  C_17
REMARK    3  A    between atoms: N_1  and  C_24
REMARK    4  A    between atoms: C_5  and  C_9
REMARK    5  A    between atoms: C_9  and  C_10
REMARK    6  A    between atoms: C_10  and  C_12
REMARK    7  A    between atoms: C_12  and  C_14
REMARK    8  A    between atoms: C_14  and  O_15
REMARK    9  A    between atoms: C_17  and  C_18
REMARK   10  A    between atoms: C_24  and  C_25
REMARK                            x       y       z     vdW  Elec       q    Type
REMARK                         _______ _______ _______ _____ _____    ______ ____
ROOT
ATOM      1  N   UNL     1      -1.815  -0.478  -0.066  0.00  0.00    -0.300 N 
ENDROOT
BRANCH   1   2
ATOM      2  C   UNL     1      -0.937   0.151  -0.974  0.00  0.00    +0.048 C 
ATOM      3  C   UNL     1       0.393   0.373  -0.617  0.00  0.00    +0.017 C 
ATOM      4  C   UNL     1      -1.399   0.549  -2.228  0.00  0.00    +0.015 C 
ATOM      5  C   UNL     1       1.261   0.993  -1.515  0.00  0.00    +0.036 C 
ATOM      6  C   UNL     1      -0.530   1.169  -3.126  0.00  0.00    +0.001 C 
ATOM      7  C   UNL     1       0.800   1.391  -2.770  0.00  0.00    +0.003 C 
BRANCH   5   9
ATOM      8  O   UNL     1       3.429   1.793  -1.933  0.00  0.00    -0.291 OA
ATOM      9  C   UNL     1       2.649   1.224  -1.144  0.00  0.00    +0.181 C 
BRANCH   9  10
ATOM     10  C   UNL     1       3.153   0.784   0.238  0.00  0.00    +0.145 C 
BRANCH  10  12
ATOM     11  O   UNL     1       5.428   1.549  -0.204  0.00  0.00    -0.284 OA
ATOM     12  C   UNL     1       4.609   1.039   0.545  0.00  0.00    +0.255 C 
BRANCH  12  14
ATOM     13  O   UNL     1       4.356   0.121   2.728  0.00  0.00    -0.242 OA
ATOM     14  C   UNL     1       5.100   0.596   1.894  0.00  0.00    +0.374 C 
BRANCH  14  15
ATOM     15  O   UNL     1       6.407   0.862   2.015  0.00  0.00    -0.475 OA
ATOM     16  H   UNL     1       6.879   1.232   1.295  0.00  0.00    +0.295 HD
ENDBRANCH  14  15
ENDBRANCH  12  14
ENDBRANCH  10  12
ENDBRANCH   9  10
ENDBRANCH   5   9
ENDBRANCH   1   2
BRANCH   1  17
ATOM     17  C   UNL     1      -2.464  -1.726  -0.418  0.00  0.00    +0.118 C 
BRANCH  17  18
ATOM     18  C   UNL     1      -1.536  -2.885  -0.187  0.00  0.00    -0.002 C 
ATOM     19  C   UNL     1      -0.701  -3.310  -1.213  0.00  0.00    -0.003 C 
ATOM     20  C   UNL     1      -1.524  -3.519   1.049  0.00  0.00    -0.003 C 
ATOM     21  C   UNL     1       0.161  -4.386  -0.999  0.00  0.00    -0.000 C 
ATOM     22  C   UNL     1      -0.662  -4.595   1.263  0.00  0.00    -0.000 C 
ATOM     23  C   UNL     1       0.180  -5.028   0.239  0.00  0.00    -0.000 C 
ENDBRANCH  17  18
ENDBRANCH   1  17
BRANCH   1  24
ATOM     24  C   UNL     1      -2.070   0.109   1.234  0.00  0.00    +0.118 C 
BRANCH  24  25
ATOM     25  C   UNL     1      -3.100   1.199   1.129  0.00  0.00    -0.002 C 
ATOM     26  C   UNL     1      -2.692   2.505   0.887  0.00  0.00    -0.003 C 
ATOM     27  C   UNL     1      -4.445   0.888   1.274  0.00  0.00    -0.003 C 
ATOM     28  C   UNL     1      -3.648   3.517   0.790  0.00  0.00    -0.000 C 
ATOM     29  C   UNL     1      -5.400   1.900   1.176  0.00  0.00    -0.000 C 
ATOM     30  C   UNL     1      -5.002   3.214   0.934  0.00  0.00    -0.000 C 
ENDBRANCH  24  25
ENDBRANCH   1  24
TORSDOF 10
