REMARK  Name = 46937157
REMARK  6 active torsions:
REMARK  status: ('A' for Active; 'I' for Inactive)
REMARK    1  A    between atoms: C_5  and  O_19
REMARK    2  A    between atoms: C_7  and  O_21
REMARK    3  A    between atoms: C_8  and  O_23
REMARK    4  A    between atoms: C_9  and  C_25
REMARK    5  A    between atoms: C_10  and  C_12
REMARK    6  A    between atoms: C_25  and  O_26
REMARK                            x       y       z     vdW  Elec       q    Type
REMARK                         _______ _______ _______ _____ _____    ______ ____
ROOT
ATOM      1  O   UNL     1       1.719  -0.909   0.519  0.00  0.00    -0.328 OA
ATOM      2  O   UNL     1       0.810   0.335  -1.292  0.00  0.00    -0.260 OA
ATOM      3  N   UNL     1      -0.578  -0.077  -1.515  0.00  0.00    -0.184 NA
ATOM      4  C   UNL     1       1.080   0.313   0.119  0.00  0.00    +0.234 C 
ATOM      5  C   UNL     1       1.959   1.504   0.520  0.00  0.00    +0.193 C 
ATOM      6  C   UNL     1      -0.293   0.358   0.766  0.00  0.00    +0.083 C 
ATOM      7  C   UNL     1       3.363   1.377  -0.070  0.00  0.00    +0.171 C 
ATOM      8  C   UNL     1       3.965   0.010   0.261  0.00  0.00    +0.169 C 
ATOM      9  C   UNL     1       2.993  -1.119  -0.098  0.00  0.00    +0.176 C 
ATOM     10  C   UNL     1      -1.105  -0.476  -0.205  0.00  0.00    +0.107 C 
ATOM     11  H   UNL     1      -0.613  -0.863  -2.165  0.00  0.00    +0.155 HD
ENDROOT
BRANCH  10  12
ATOM     12  C   UNL     1      -2.597  -0.283  -0.079  0.00  0.00    -0.006 C 
ATOM     13  C   UNL     1      -3.421  -1.375   0.194  0.00  0.00    -0.003 C 
ATOM     14  C   UNL     1      -3.152   0.987  -0.235  0.00  0.00    -0.003 C 
ATOM     15  C   UNL     1      -4.799  -1.197   0.311  0.00  0.00    -0.005 C 
ATOM     16  C   UNL     1      -4.530   1.165  -0.118  0.00  0.00    -0.005 C 
ATOM     17  C   UNL     1      -5.354   0.073   0.155  0.00  0.00    -0.022 C 
ATOM     18  C   UNL     1      -6.827   0.264   0.284  0.00  0.00    +0.031 C 
ENDBRANCH  10  12
BRANCH   5  19
ATOM     19  O   UNL     1       1.367   2.721   0.071  0.00  0.00    -0.378 OA
ATOM     20  H   UNL     1       0.476   2.804   0.445  0.00  0.00    +0.211 HD
ENDBRANCH   5  19
BRANCH   7  21
ATOM     21  O   UNL     1       4.183   2.398   0.500  0.00  0.00    -0.379 OA
ATOM     22  H   UNL     1       3.806   3.268   0.294  0.00  0.00    +0.211 HD
ENDBRANCH   7  21
BRANCH   8  23
ATOM     23  O   UNL     1       5.178  -0.127  -0.475  0.00  0.00    -0.379 OA
ATOM     24  H   UNL     1       5.783   0.594  -0.238  0.00  0.00    +0.211 HD
ENDBRANCH   8  23
BRANCH   9  25
ATOM     25  C   UNL     1       3.497  -2.481   0.373  0.00  0.00    +0.169 C 
BRANCH  25  26
ATOM     26  O   UNL     1       2.542  -3.462   0.014  0.00  0.00    -0.379 OA
ATOM     27  H   UNL     1       2.848  -4.334   0.308  0.00  0.00    +0.211 HD
ENDBRANCH  25  26
ENDBRANCH   9  25
TORSDOF 6
