REMARK  Name = 2710
REMARK  3 active torsions:
REMARK  status: ('A' for Active; 'I' for Inactive)
REMARK    1  A    between atoms: C_1  and  N_2
REMARK    2  A    between atoms: C_1  and  C_12
REMARK    3  A    between atoms: C_1  and  C_18
REMARK                            x       y       z     vdW  Elec       q    Type
REMARK                         _______ _______ _______ _____ _____    ______ ____
ROOT
ATOM      1  C   UNL     1       0.082   0.259  -0.623  0.00  0.00    -0.012 C 
ENDROOT
BRANCH   1   2
ATOM      2  N   UNL     1       1.246  -0.377  -0.011  0.00  0.00    +0.390 N 
ATOM      3  N   UNL     1       3.733  -1.848  -0.120  0.00  0.00    +0.383 N 
ATOM      4  C   UNL     1       2.488   0.258  -0.468  0.00  0.00    -0.100 C 
ATOM      5  C   UNL     1       1.269  -1.815  -0.305  0.00  0.00    -0.100 C 
ATOM      6  C   UNL     1       3.710  -0.410   0.173  0.00  0.00    -0.101 C 
ATOM      7  C   UNL     1       2.490  -2.484   0.335  0.00  0.00    -0.101 C 
ATOM      8  C   UNL     1       4.897  -2.484   0.494  0.00  0.00    -0.101 C 
ATOM      9  H   UNL     1       1.176  -0.257   1.000  0.00  0.00    -0.079 HD
ATOM     10  H   UNL     1       3.805  -1.969  -1.130  0.00  0.00    -0.080 HD
ENDBRANCH   1   2
BRANCH   1  12
ATOM     11 CL   UNL     1      -5.023  -2.655   0.593  0.00  0.00    -0.082 Cl
ATOM     12  C   UNL     1      -1.212  -0.480  -0.314  0.00  0.00    -0.038 C 
ATOM     13  C   UNL     1      -1.629  -1.480  -1.169  0.00  0.00    -0.005 C 
ATOM     14  C   UNL     1      -1.930  -0.128   0.811  0.00  0.00    -0.005 C 
ATOM     15  C   UNL     1      -2.816  -2.157  -0.887  0.00  0.00    +0.011 C 
ATOM     16  C   UNL     1      -3.116  -0.805   1.093  0.00  0.00    +0.011 C 
ATOM     17  C   UNL     1      -3.559  -1.820   0.244  0.00  0.00    +0.058 C 
ENDBRANCH   1  12
BRANCH   1  18
ATOM     18  C   UNL     1      -0.016   1.739  -0.282  0.00  0.00    -0.038 C 
ATOM     19  C   UNL     1      -0.604   2.596  -1.190  0.00  0.00    -0.006 C 
ATOM     20  C   UNL     1       0.485   2.180   0.926  0.00  0.00    -0.006 C 
ATOM     21  C   UNL     1      -0.694   3.952  -0.878  0.00  0.00    -0.000 C 
ATOM     22  C   UNL     1       0.394   3.537   1.239  0.00  0.00    -0.000 C 
ATOM     23  C   UNL     1      -0.195   4.423   0.337  0.00  0.00    -0.000 C 
ENDBRANCH   1  18
TORSDOF 3
