24963046
  -OEChem-10051721193D

 61 65  0     0  0  0  0  0  0999 V2000
    9.4839    1.7155   -1.3827 O   0  0  0  0  0  0  0  0  0  0  0  0
   -7.5227    0.8251   -0.9290 O   0  0  0  0  0  0  0  0  0  0  0  0
   -5.9956    1.8684    0.4671 N   0  0  0  0  0  0  0  0  0  0  0  0
    7.2987    0.3135   -0.2160 N   0  0  0  0  0  0  0  0  0  0  0  0
    4.0971   -0.4196    1.5151 N   0  0  0  0  0  0  0  0  0  0  0  0
    2.2180   -0.4947    0.1494 N   0  0  0  0  0  0  0  0  0  0  0  0
    2.0616   -0.8987    2.5199 N   0  0  0  0  0  0  0  0  0  0  0  0
   -6.7572    3.0705    0.6644 C   0  0  0  0  0  0  0  0  0  0  0  0
   -6.0893    4.3602    1.0418 C   0  0  0  0  0  0  0  0  0  0  0  0
   -6.6935    4.1994   -0.3224 C   0  0  0  0  0  0  0  0  0  0  0  0
   -6.4327    0.8034   -0.3301 C   0  0  0  0  0  0  0  0  0  0  0  0
   -5.5429   -0.3405   -0.4524 C   0  0  0  0  0  0  0  0  0  0  0  0
    8.6905   -0.0086    0.1288 C   0  0  0  0  0  0  0  0  0  0  0  0
    7.1890    1.7287   -0.5963 C   0  0  0  0  0  0  0  0  0  0  0  0
    6.4035    0.0044    0.8970 C   0  0  0  0  0  0  0  0  0  0  0  0
    9.6071    0.3341   -1.0422 C   0  0  0  0  0  0  0  0  0  0  0  0
    8.1403    2.0295   -1.7509 C   0  0  0  0  0  0  0  0  0  0  0  0
    4.9660   -0.1064    0.4058 C   0  0  0  0  0  0  0  0  0  0  0  0
   -4.1659   -0.1728   -0.3072 C   0  0  0  0  0  0  0  0  0  0  0  0
   -6.0675   -1.6061   -0.7152 C   0  0  0  0  0  0  0  0  0  0  0  0
   -3.3132   -1.2705   -0.4245 C   0  0  0  0  0  0  0  0  0  0  0  0
   -3.8379   -2.5360   -0.6873 C   0  0  0  0  0  0  0  0  0  0  0  0
   -5.2150   -2.7038   -0.8327 C   0  0  0  0  0  0  0  0  0  0  0  0
   -1.8891   -1.0705   -0.2697 C   0  0  0  0  0  0  0  0  0  0  0  0
   -1.2991   -1.1791    0.9856 C   0  0  0  0  0  0  0  0  0  0  0  0
    0.0855   -0.9855    1.1305 C   0  0  0  0  0  0  0  0  0  0  0  0
    2.7305   -0.6136    1.3911 C   0  0  0  0  0  0  0  0  0  0  0  0
   -1.1004   -0.7701   -1.3747 C   0  0  0  0  0  0  0  0  0  0  0  0
    0.8927   -0.6817    0.0221 C   0  0  0  0  0  0  0  0  0  0  0  0
   -2.9555   -3.7357   -0.8197 C   0  0  0  0  0  0  0  0  0  0  0  0
    0.2759   -0.5790   -1.2224 C   0  0  0  0  0  0  0  0  0  0  0  0
    0.7374   -1.0798    2.3569 C   0  0  0  0  0  0  0  0  0  0  0  0
   -7.7187    2.8761    1.1293 H   0  0  0  0  0  0  0  0  0  0  0  0
   -5.0088    4.3818    1.1135 H   0  0  0  0  0  0  0  0  0  0  0  0
   -6.5990    5.0057    1.7464 H   0  0  0  0  0  0  0  0  0  0  0  0
   -7.6103    4.7351   -0.5355 H   0  0  0  0  0  0  0  0  0  0  0  0
   -6.0179    4.1123   -1.1645 H   0  0  0  0  0  0  0  0  0  0  0  0
   -5.1290    1.7960    0.9918 H   0  0  0  0  0  0  0  0  0  0  0  0
    8.7916   -1.0765    0.3539 H   0  0  0  0  0  0  0  0  0  0  0  0
    9.0023    0.5580    1.0160 H   0  0  0  0  0  0  0  0  0  0  0  0
    7.4403    2.3734    0.2562 H   0  0  0  0  0  0  0  0  0  0  0  0
    6.1771    1.9824   -0.9254 H   0  0  0  0  0  0  0  0  0  0  0  0
    6.6762   -0.9654    1.3356 H   0  0  0  0  0  0  0  0  0  0  0  0
    6.4909    0.7416    1.7064 H   0  0  0  0  0  0  0  0  0  0  0  0
   10.6502    0.1517   -0.7647 H   0  0  0  0  0  0  0  0  0  0  0  0
    9.3858   -0.2812   -1.9229 H   0  0  0  0  0  0  0  0  0  0  0  0
    7.8684    1.4721   -2.6557 H   0  0  0  0  0  0  0  0  0  0  0  0
    8.1040    3.0959   -1.9957 H   0  0  0  0  0  0  0  0  0  0  0  0
    4.6276    0.8314   -0.0461 H   0  0  0  0  0  0  0  0  0  0  0  0
    4.8962   -0.8927   -0.3563 H   0  0  0  0  0  0  0  0  0  0  0  0
   -3.7314    0.8088   -0.1330 H   0  0  0  0  0  0  0  0  0  0  0  0
   -7.1379   -1.7581   -0.8273 H   0  0  0  0  0  0  0  0  0  0  0  0
   -5.6414   -3.6825   -1.0365 H   0  0  0  0  0  0  0  0  0  0  0  0
    4.4859   -0.5050    2.4474 H   0  0  0  0  0  0  0  0  0  0  0  0
   -1.9061   -1.4144    1.8583 H   0  0  0  0  0  0  0  0  0  0  0  0
   -1.5375   -0.6805   -2.3666 H   0  0  0  0  0  0  0  0  0  0  0  0
   -2.2525   -3.6111   -1.6497 H   0  0  0  0  0  0  0  0  0  0  0  0
   -2.4005   -3.9140    0.1070 H   0  0  0  0  0  0  0  0  0  0  0  0
   -3.5341   -4.6434   -1.0249 H   0  0  0  0  0  0  0  0  0  0  0  0
    0.8711   -0.3451   -2.1031 H   0  0  0  0  0  0  0  0  0  0  0  0
    0.1967   -1.3106    3.2701 H   0  0  0  0  0  0  0  0  0  0  0  0
  1 16  1  0  0  0  0
  1 17  1  0  0  0  0
  2 11  2  0  0  0  0
  3  8  1  0  0  0  0
  3 11  1  0  0  0  0
  3 38  1  0  0  0  0
  4 13  1  0  0  0  0
  4 14  1  0  0  0  0
  4 15  1  0  0  0  0
  5 18  1  0  0  0  0
  5 27  1  0  0  0  0
  5 54  1  0  0  0  0
  6 27  1  0  0  0  0
  6 29  2  0  0  0  0
  7 27  2  0  0  0  0
  7 32  1  0  0  0  0
  8  9  1  0  0  0  0
  8 10  1  0  0  0  0
  8 33  1  0  0  0  0
  9 10  1  0  0  0  0
  9 34  1  0  0  0  0
  9 35  1  0  0  0  0
 10 36  1  0  0  0  0
 10 37  1  0  0  0  0
 11 12  1  0  0  0  0
 12 19  2  0  0  0  0
 12 20  1  0  0  0  0
 13 16  1  0  0  0  0
 13 39  1  0  0  0  0
 13 40  1  0  0  0  0
 14 17  1  0  0  0  0
 14 41  1  0  0  0  0
 14 42  1  0  0  0  0
 15 18  1  0  0  0  0
 15 43  1  0  0  0  0
 15 44  1  0  0  0  0
 16 45  1  0  0  0  0
 16 46  1  0  0  0  0
 17 47  1  0  0  0  0
 17 48  1  0  0  0  0
 18 49  1  0  0  0  0
 18 50  1  0  0  0  0
 19 21  1  0  0  0  0
 19 51  1  0  0  0  0
 20 23  2  0  0  0  0
 20 52  1  0  0  0  0
 21 22  2  0  0  0  0
 21 24  1  0  0  0  0
 22 23  1  0  0  0  0
 22 30  1  0  0  0  0
 23 53  1  0  0  0  0
 24 25  2  0  0  0  0
 24 28  1  0  0  0  0
 25 26  1  0  0  0  0
 25 55  1  0  0  0  0
 26 29  1  0  0  0  0
 26 32  2  0  0  0  0
 28 31  2  0  0  0  0
 28 56  1  0  0  0  0
 29 31  1  0  0  0  0
 30 57  1  0  0  0  0
 30 58  1  0  0  0  0
 30 59  1  0  0  0  0
 31 60  1  0  0  0  0
 32 61  1  0  0  0  0
M  END
> <DATABASE_ID>
DB08351

> <DATABASE_NAME>
drugbank

> <ORIGINAL_SOURCE>
PUBCHEM

> <ORIGINAL_SOURCE_URL>
https://pubchem.ncbi.nlm.nih.gov/rest/pug/compound/inchikey/MNEXDVSJIUQQRH-UHFFFAOYSA-N/SDF?record_type=3d

> <SMILES>
CC1=CC=C(C=C1C1=CC2=C(C=C1)N=C(NCCN1CCOCC1)N=C2)C(=O)NC1CC1

> <INCHI_IDENTIFIER>
InChI=1S/C25H29N5O2/c1-17-2-3-19(24(31)28-21-5-6-21)15-22(17)18-4-7-23-20(14-18)16-27-25(29-23)26-8-9-30-10-12-32-13-11-30/h2-4,7,14-16,21H,5-6,8-13H2,1H3,(H,28,31)(H,26,27,29)

> <INCHI_KEY>
MNEXDVSJIUQQRH-UHFFFAOYSA-N

> <FORMULA>
C25H29N5O2

> <MOLECULAR_WEIGHT>
431.5301

> <EXACT_MASS>
431.232125197

> <JCHEM_ACCEPTOR_COUNT>
6

> <JCHEM_AVERAGE_POLARIZABILITY>
49.81894477469898

> <JCHEM_BIOAVAILABILITY>
1

> <JCHEM_DONOR_COUNT>
2

> <JCHEM_FORMAL_CHARGE>
0

> <JCHEM_GHOSE_FILTER>
1

> <JCHEM_IUPAC>
N-cyclopropyl-4-methyl-3-(2-{[2-(morpholin-4-yl)ethyl]amino}quinazolin-6-yl)benzamide

> <ALOGPS_LOGP>
3.02

> <JCHEM_LOGP>
3.077298406333333

> <ALOGPS_LOGS>
-4.47

> <JCHEM_MDDR_LIKE_RULE>
1

> <JCHEM_NUMBER_OF_RINGS>
5

> <JCHEM_PHYSIOLOGICAL_CHARGE>
0

> <JCHEM_PKA>
15.702157282682922

> <JCHEM_PKA_STRONGEST_ACIDIC>
15.099109975388117

> <JCHEM_PKA_STRONGEST_BASIC>
6.408967273487065

> <JCHEM_POLAR_SURFACE_AREA>
79.38000000000001

> <JCHEM_REFRACTIVITY>
127.39759999999995

> <JCHEM_ROTATABLE_BOND_COUNT>
7

> <JCHEM_RULE_OF_FIVE>
1

> <ALOGPS_SOLUBILITY>
1.46e-02 g/l

> <JCHEM_TRADITIONAL_IUPAC>
N-cyclopropyl-4-methyl-3-(2-{[2-(morpholin-4-yl)ethyl]amino}quinazolin-6-yl)benzamide

> <JCHEM_VEBER_RULE>
0

> <DRUGBANK_ID>
DB08351

> <DRUG_GROUPS>
experimental

> <GENERIC_NAME>
N-cyclopropyl-4-methyl-3-{2-[(2-morpholin-4-ylethyl)amino]quinazolin-6-yl}benzamide

$$$$
