REMARK  Name = 5288720
REMARK  5 active torsions:
REMARK  status: ('A' for Active; 'I' for Inactive)
REMARK    1  A    between atoms: N_3  and  C_20
REMARK    2  A    between atoms: C_20  and  C_21
REMARK    3  A    between atoms: C_21  and  C_22
REMARK    4  A    between atoms: C_22  and  C_24
REMARK    5  A    between atoms: C_24  and  O_25
REMARK                            x       y       z     vdW  Elec       q    Type
REMARK                         _______ _______ _______ _____ _____    ______ ____
ROOT
ATOM      1  O   UNL     1       2.869   2.551   0.774  0.00  0.00    -0.287 OA
ATOM      2  O   UNL     1       0.250  -3.084  -0.974  0.00  0.00    -0.267 OA
ATOM      3  N   UNL     1      -0.164  -0.795  -0.710  0.00  0.00    -0.295 N 
ATOM      4  C   UNL     1       0.347   0.443  -0.345  0.00  0.00    +0.066 A 
ATOM      5  C   UNL     1       1.621   0.593   0.067  0.00  0.00    +0.055 A 
ATOM      6  C   UNL     1      -0.324   1.750  -0.327  0.00  0.00    +0.019 C 
ATOM      7  C   UNL     1       2.535  -0.535   0.154  0.00  0.00    +0.009 A 
ATOM      8  C   UNL     1       0.596   2.702   0.112  0.00  0.00    +0.040 C 
ATOM      9  C   UNL     1       2.049  -1.800  -0.208  0.00  0.00    +0.056 A 
ATOM     10  C   UNL     1       1.853   2.021   0.378  0.00  0.00    +0.197 C 
ATOM     11  C   UNL     1       0.638  -1.959  -0.664  0.00  0.00    +0.261 A 
ATOM     12  C   UNL     1      -1.603   2.185  -0.641  0.00  0.00    +0.002 C 
ATOM     13  C   UNL     1       3.864  -0.417   0.578  0.00  0.00    +0.000 C 
ATOM     14  C   UNL     1       0.317   4.051   0.256  0.00  0.00    +0.003 C 
ATOM     15  C   UNL     1       2.883  -2.926  -0.146  0.00  0.00    +0.005 C 
ATOM     16  C   UNL     1      -1.922   3.546  -0.507  0.00  0.00    +0.000 C 
ATOM     17  C   UNL     1      -0.969   4.472  -0.062  0.00  0.00    +0.000 C 
ATOM     18  C   UNL     1       4.693  -1.540   0.640  0.00  0.00    +0.000 C 
ATOM     19  C   UNL     1       4.203  -2.791   0.279  0.00  0.00    +0.000 C 
ENDROOT
BRANCH   3  20
ATOM     20  C   UNL     1      -1.549  -0.897  -1.147  0.00  0.00    +0.110 C 
BRANCH  20  21
ATOM     21  C   UNL     1      -2.516  -1.164   0.005  0.00  0.00    +0.036 C 
BRANCH  21  22
ATOM     22  C   UNL     1      -3.977  -1.319  -0.428  0.00  0.00    +0.111 C 
BRANCH  22  24
ATOM     23  O   UNL     1      -4.575  -1.804   1.883  0.00  0.00    -0.250 OA
ATOM     24  C   UNL     1      -4.911  -1.625   0.721  0.00  0.00    +0.314 C 
BRANCH  24  25
ATOM     25  O   UNL     1      -6.207  -1.658   0.312  0.00  0.00    -0.480 OA
ATOM     26  H   UNL     1      -6.417  -1.515  -0.590  0.00  0.00    +0.295 HD
ENDBRANCH  24  25
ENDBRANCH  22  24
ENDBRANCH  21  22
ENDBRANCH  20  21
ENDBRANCH   3  20
TORSDOF 5
