REMARK  Name = 23586165
REMARK  7 active torsions:
REMARK  status: ('A' for Active; 'I' for Inactive)
REMARK    1  A    between atoms: N_4  and  C_24
REMARK    2  A    between atoms: C_5  and  C_18
REMARK    3  A    between atoms: C_5  and  C_26
REMARK    4  A    between atoms: C_7  and  C_12
REMARK    5  A    between atoms: C_26  and  C_27
REMARK    6  A    between atoms: C_27  and  C_28
REMARK    7  A    between atoms: C_28  and  N_29
REMARK                            x       y       z     vdW  Elec       q    Type
REMARK                         _______ _______ _______ _____ _____    ______ ____
ROOT
ATOM      1  O   UNL     1      -3.095  -1.267  -0.459  0.00  0.00    -0.251 OA
ATOM      2  N   UNL     1      -0.884  -0.597  -0.308  0.00  0.00    -0.165 N 
ATOM      3  N   UNL     1       0.400  -0.791  -0.730  0.00  0.00    -0.179 NA
ATOM      4  N   UNL     1      -1.502  -2.297  -1.777  0.00  0.00    -0.287 N 
ATOM      5  C   UNL     1      -1.013   0.468   0.718  0.00  0.00    +0.108 C 
ATOM      6  C   UNL     1       0.440   0.961   0.868  0.00  0.00    +0.072 C 
ATOM      7  C   UNL     1       1.155   0.054  -0.100  0.00  0.00    +0.081 C 
ATOM      8  C   UNL     1      -1.922  -1.380  -0.818  0.00  0.00    +0.323 C 
ATOM      9  H   UNL     1      -0.545  -2.323  -2.008  0.00  0.00    +0.151 HD
ENDROOT
BRANCH   7  12
ATOM     10  F   UNL     1       2.540  -1.623  -1.901  0.00  0.00    -0.204 F 
ATOM     11  F   UNL     1       5.470   2.054   0.895  0.00  0.00    -0.204 F 
ATOM     12  C   UNL     1       2.619   0.137  -0.307  0.00  0.00    +0.045 C 
ATOM     13  C   UNL     1       3.251  -0.719  -1.212  0.00  0.00    +0.141 C 
ATOM     14  C   UNL     1       3.371   1.073   0.404  0.00  0.00    +0.033 C 
ATOM     15  C   UNL     1       4.750   1.155   0.211  0.00  0.00    +0.140 C 
ATOM     16  C   UNL     1       4.630  -0.638  -1.404  0.00  0.00    +0.032 C 
ATOM     17  C   UNL     1       5.379   0.299  -0.693  0.00  0.00    +0.032 C 
ENDBRANCH   7  12
BRANCH   5  18
ATOM     18  C   UNL     1      -1.912   1.608   0.224  0.00  0.00    -0.004 C 
ATOM     19  C   UNL     1      -2.989   2.025   1.001  0.00  0.00    -0.003 C 
ATOM     20  C   UNL     1      -1.646   2.218  -0.998  0.00  0.00    -0.003 C 
ATOM     21  C   UNL     1      -3.807   3.062   0.552  0.00  0.00    -0.000 C 
ATOM     22  C   UNL     1      -2.464   3.255  -1.448  0.00  0.00    -0.000 C 
ATOM     23  C   UNL     1      -3.544   3.677  -0.672  0.00  0.00    -0.000 C 
ENDBRANCH   5  18
BRANCH   4  24
ATOM     24  C   UNL     1      -2.391  -3.213  -2.454  0.00  0.00    +0.091 C 
ATOM     25  C   UNL     1      -3.822  -3.045  -1.987  0.00  0.00    +0.023 C 
ENDBRANCH   4  24
BRANCH   5  26
ATOM     26  C   UNL     1      -1.456  -0.177   2.047  0.00  0.00    +0.023 C 
BRANCH  26  27
ATOM     27  C   UNL     1      -0.529  -1.323   2.442  0.00  0.00    -0.022 C 
BRANCH  27  28
ATOM     28  C   UNL     1      -0.955  -1.934   3.775  0.00  0.00    -0.086 C 
BRANCH  28  29
ATOM     29  N   UNL     1      -0.073  -3.040   4.130  0.00  0.00    +0.380 N 
ATOM     30  H   UNL     1      -0.369  -3.438   5.021  0.00  0.00    -0.089 HD
ATOM     31  H   UNL     1       0.884  -2.699   4.211  0.00  0.00    -0.089 HD
ATOM     32  H   UNL     1      -0.119  -3.757   3.406  0.00  0.00    -0.089 HD
ENDBRANCH  28  29
ENDBRANCH  27  28
ENDBRANCH  26  27
ENDBRANCH   5  26
TORSDOF 7
