REMARK  Name = 121750
REMARK  6 active torsions:
REMARK  status: ('A' for Active; 'I' for Inactive)
REMARK    1  A    between atoms: O_1  and  N_2
REMARK    2  A    between atoms: O_1  and  C_16
REMARK    3  A    between atoms: C_16  and  C_17
REMARK    4  A    between atoms: C_17  and  C_18
REMARK    5  A    between atoms: C_18  and  O_19
REMARK    6  A    between atoms: O_19  and  C_23
REMARK                            x       y       z     vdW  Elec       q    Type
REMARK                         _______ _______ _______ _____ _____    ______ ____
ROOT
ATOM      1  O   UNL     1      -1.795   0.733  -0.464  0.00  0.00    -0.252 OA
ENDROOT
BRANCH   1   2
ATOM      2  N   UNL     1      -3.071   0.241  -0.273  0.00  0.00    -0.181 N 
ATOM      3  N   UNL     1      -4.636  -1.512   0.416  0.00  0.00    -0.178 NA
ATOM      4  N   UNL     1      -5.376   0.548  -0.520  0.00  0.00    -0.304 NA
ATOM      5  N   UNL     1      -3.882   2.222  -1.193  0.00  0.00    -0.317 N 
ATOM      6  N   UNL     1      -6.896  -1.107   0.175  0.00  0.00    -0.293 N 
ATOM      7  C   UNL     1      -3.233  -1.091   0.263  0.00  0.00    +0.188 C 
ATOM      8  C   UNL     1      -2.599  -1.160   1.658  0.00  0.00    +0.051 C 
ATOM      9  C   UNL     1      -2.567  -2.108  -0.672  0.00  0.00    +0.051 C 
ATOM     10  C   UNL     1      -4.151   0.988  -0.658  0.00  0.00    +0.280 C 
ATOM     11  C   UNL     1      -5.588  -0.708   0.033  0.00  0.00    +0.142 C 
ATOM     12  H   UNL     1      -2.950   2.526  -1.284  0.00  0.00    +0.146 HD
ATOM     13  H   UNL     1      -4.621   2.804  -1.485  0.00  0.00    +0.146 HD
ATOM     14  H   UNL     1      -7.103  -1.989   0.561  0.00  0.00    +0.155 HD
ATOM     15  H   UNL     1      -7.626  -0.511  -0.110  0.00  0.00    +0.155 HD
ENDBRANCH   1   2
BRANCH   1  16
ATOM     16  C   UNL     1      -1.466   1.456   0.717  0.00  0.00    +0.178 C 
BRANCH  16  17
ATOM     17  C   UNL     1      -0.066   2.037   0.592  0.00  0.00    +0.082 C 
BRANCH  17  18
ATOM     18  C   UNL     1       0.986   0.956   0.415  0.00  0.00    +0.208 C 
BRANCH  18  19
ATOM     19  O   UNL     1       2.265   1.569   0.321  0.00  0.00    -0.474 OA
BRANCH  19  23
ATOM     20 CL   UNL     1       4.932   2.941   0.133  0.00  0.00    -0.079 Cl
ATOM     21 CL   UNL     1       3.844  -3.196  -0.216  0.00  0.00    -0.081 Cl
ATOM     22 CL   UNL     1       6.853  -2.027  -0.458  0.00  0.00    -0.081 Cl
ATOM     23  C   UNL     1       3.338   0.737   0.139  0.00  0.00    +0.150 C 
ATOM     24  C   UNL     1       4.629   1.245   0.036  0.00  0.00    +0.092 C 
ATOM     25  C   UNL     1       3.110  -0.633   0.059  0.00  0.00    +0.050 C 
ATOM     26  C   UNL     1       4.184  -1.504  -0.125  0.00  0.00    +0.071 C 
ATOM     27  C   UNL     1       5.703   0.375  -0.149  0.00  0.00    +0.027 C 
ATOM     28  C   UNL     1       5.481  -1.000  -0.229  0.00  0.00    +0.069 C 
ENDBRANCH  19  23
ENDBRANCH  18  19
ENDBRANCH  17  18
ENDBRANCH  16  17
ENDBRANCH   1  16
TORSDOF 6
