REMARK  Name = 5289460
REMARK  10 active torsions:
REMARK  status: ('A' for Active; 'I' for Inactive)
REMARK    1  A    between atoms: N_2  and  C_22
REMARK    2  A    between atoms: C_3  and  C_8
REMARK    3  A    between atoms: C_5  and  N_14
REMARK    4  A    between atoms: N_14  and  S_16
REMARK    5  A    between atoms: S_16  and  N_19
REMARK    6  A    between atoms: C_22  and  C_25
REMARK    7  A    between atoms: N_24  and  C_27
REMARK    8  A    between atoms: C_27  and  C_28
REMARK    9  A    between atoms: C_27  and  C_32
REMARK   10  A    between atoms: C_32  and  C_36
REMARK                            x       y       z     vdW  Elec       q    Type
REMARK                         _______ _______ _______ _____ _____    ______ ____
ROOT
ATOM      1  O   UNL     1       2.415  -1.944   0.857  0.00  0.00    -0.268 OA
ATOM      2  N   UNL     1       1.245   0.068   0.547  0.00  0.00    -0.245 N 
ATOM      3  C   UNL     1       1.288   1.364  -0.021  0.00  0.00    +0.055 C 
ATOM      4  C   UNL     1       2.362  -0.803   0.400  0.00  0.00    +0.268 C 
ATOM      5  C   UNL     1       3.517  -0.261  -0.363  0.00  0.00    +0.120 C 
ATOM      6  C   UNL     1       2.358   1.809  -0.704  0.00  0.00    +0.016 C 
ATOM      7  C   UNL     1       3.513   0.968  -0.882  0.00  0.00    +0.022 C 
ENDROOT
BRANCH   3   8
ATOM      8  C   UNL     1       0.152   2.263   0.123  0.00  0.00    +0.014 C 
ATOM      9  C   UNL     1      -0.866   2.260  -0.831  0.00  0.00    +0.001 C 
ATOM     10  C   UNL     1       0.080   3.127   1.216  0.00  0.00    +0.001 C 
ATOM     11  C   UNL     1      -1.954   3.121  -0.693  0.00  0.00    +0.000 C 
ATOM     12  C   UNL     1      -1.008   3.988   1.354  0.00  0.00    +0.000 C 
ATOM     13  C   UNL     1      -2.026   3.985   0.400  0.00  0.00    +0.000 C 
ENDBRANCH   3   8
BRANCH   5  14
ATOM     14  N   UNL     1       4.667  -1.047  -0.558  0.00  0.00    -0.201 N 
ATOM     15  H   UNL     1       4.670  -1.842  -1.138  0.00  0.00    +0.175 HD
BRANCH  14  16
ATOM     16  S   UNL     1       6.063  -0.518   0.288  0.00  0.00    +0.110 S 
ATOM     17  O   UNL     1       6.228   0.914   0.110  0.00  0.00    -0.138 OA
ATOM     18  O   UNL     1       6.035  -1.094   1.620  0.00  0.00    -0.138 OA
BRANCH  16  19
ATOM     19  N   UNL     1       7.291  -1.318  -0.609  0.00  0.00    -0.165 NA
ATOM     20  C   UNL     1       7.276  -1.192  -2.080  0.00  0.00    +0.112 C 
ATOM     21  H   UNL     1       7.226  -2.312  -0.391  0.00  0.00    +0.150 HD
ENDBRANCH  16  19
ENDBRANCH  14  16
ENDBRANCH   5  14
BRANCH   2  22
ATOM     22  C   UNL     1       0.087  -0.372   1.269  0.00  0.00    +0.183 C 
BRANCH  22  25
ATOM     23  O   UNL     1      -0.528  -1.592  -0.724  0.00  0.00    -0.273 OA
ATOM     24  N   UNL     1      -2.197  -0.900   0.739  0.00  0.00    -0.298 N 
ATOM     25  C   UNL     1      -0.881  -1.039   0.315  0.00  0.00    +0.243 C 
ATOM     26  H   UNL     1      -2.366  -0.438   1.592  0.00  0.00    +0.150 HD
BRANCH  24  27
ATOM     27  C   UNL     1      -3.327  -1.397  -0.003  0.00  0.00    +0.138 C 
BRANCH  27  28
ATOM     28  C   UNL     1      -3.729  -2.835   0.375  0.00  0.00    +0.025 C 
ATOM     29  C   UNL     1      -3.747  -3.015   1.897  0.00  0.00    +0.002 C 
ATOM     30  C   UNL     1      -2.836  -3.906  -0.261  0.00  0.00    +0.002 C 
ENDBRANCH  27  28
BRANCH  27  32
ATOM     31  O   UNL     1      -4.652   0.201   1.241  0.00  0.00    -0.286 OA
ATOM     32  C   UNL     1      -4.471  -0.407   0.185  0.00  0.00    +0.262 C 
BRANCH  32  36
ATOM     33  F   UNL     1      -4.985  -0.901  -2.079  0.00  0.00    -0.163 F 
ATOM     34  F   UNL     1      -5.350   1.133  -1.388  0.00  0.00    -0.163 F 
ATOM     35  F   UNL     1      -6.654  -0.491  -0.740  0.00  0.00    -0.163 F 
ATOM     36  C   UNL     1      -5.363  -0.168  -1.001  0.00  0.00    +0.453 C 
ENDBRANCH  32  36
ENDBRANCH  27  32
ENDBRANCH  24  27
ENDBRANCH  22  25
ENDBRANCH   2  22
TORSDOF 10
