6575388
  -OEChem-10131916283D

 20 20  0     1  0  0  0  0  0999 V2000
    1.9208   -0.0148    1.2874 O   0  5  0  0  0  0  0  0  0  0  0  0
    2.6553   -0.0026   -0.8794 O   0  0  0  0  0  0  0  0  0  0  0  0
   -1.7670    1.2231   -0.2340 N   0  3  0  0  0  0  0  0  0  0  0  0
    0.3480    0.0033   -0.4596 C   0  0  2  0  0  0  0  0  0  0  0  0
   -0.3068    1.2612    0.0840 C   0  0  0  0  0  0  0  0  0  0  0  0
   -0.3268   -1.2614    0.0621 C   0  0  0  0  0  0  0  0  0  0  0  0
   -1.8290   -1.2351   -0.2160 C   0  0  0  0  0  0  0  0  0  0  0  0
   -2.4763    0.0318    0.3226 C   0  0  0  0  0  0  0  0  0  0  0  0
    1.7818   -0.0056    0.0329 C   0  0  0  0  0  0  0  0  0  0  0  0
    0.3170    0.0109   -1.5567 H   0  0  0  0  0  0  0  0  0  0  0  0
   -0.2261    1.3684    1.1715 H   0  0  0  0  0  0  0  0  0  0  0  0
    0.0953    2.1643   -0.3871 H   0  0  0  0  0  0  0  0  0  0  0  0
   -0.1783   -1.3796    1.1432 H   0  0  0  0  0  0  0  0  0  0  0  0
    0.1175   -2.1468   -0.4088 H   0  0  0  0  0  0  0  0  0  0  0  0
   -1.8962    1.2523   -1.2552 H   0  0  0  0  0  0  0  0  0  0  0  0
   -2.2123    2.0786    0.1255 H   0  0  0  0  0  0  0  0  0  0  0  0
   -1.9985   -1.3029   -1.2980 H   0  0  0  0  0  0  0  0  0  0  0  0
   -2.3039   -2.1130    0.2358 H   0  0  0  0  0  0  0  0  0  0  0  0
   -3.5230    0.1104    0.0150 H   0  0  0  0  0  0  0  0  0  0  0  0
   -2.4133    0.0953    1.4139 H   0  0  0  0  0  0  0  0  0  0  0  0
  1  9  1  0  0  0  0
  2  9  2  0  0  0  0
  3  5  1  0  0  0  0
  3  8  1  0  0  0  0
  3 15  1  0  0  0  0
  3 16  1  0  0  0  0
  4  5  1  0  0  0  0
  4  6  1  0  0  0  0
  4  9  1  0  0  0  0
  4 10  1  0  0  0  0
  5 11  1  0  0  0  0
  5 12  1  0  0  0  0
  6  7  1  0  0  0  0
  6 13  1  0  0  0  0
  6 14  1  0  0  0  0
  7  8  1  0  0  0  0
  7 17  1  0  0  0  0
  7 18  1  0  0  0  0
  8 19  1  0  0  0  0
  8 20  1  0  0  0  0
M  CHG  2   1  -1   3   1
M  END
> <DATABASE_ID>
DB08849

> <DATABASE_NAME>
drugbank

> <ORIGINAL_SOURCE>
PUBCHEM

> <ORIGINAL_SOURCE_URL>
https://pubchem.ncbi.nlm.nih.gov/rest/pug/compound/inchikey/XJLSEXAGTJCILF-YFKPBYRVSA-N/SDF?record_type=3d

> <SMILES>
OC(=O)[C@H]1CCCNC1

> <INCHI_IDENTIFIER>
InChI=1S/C6H11NO2/c8-6(9)5-2-1-3-7-4-5/h5,7H,1-4H2,(H,8,9)/t5-/m0/s1

> <INCHI_KEY>
XJLSEXAGTJCILF-YFKPBYRVSA-N

> <FORMULA>
C6H11NO2

> <MOLECULAR_WEIGHT>
129.159

> <EXACT_MASS>
129.078978598

> <JCHEM_ACCEPTOR_COUNT>
3

> <JCHEM_ATOM_COUNT>
20

> <JCHEM_AVERAGE_POLARIZABILITY>
13.189352916541011

> <JCHEM_BIOAVAILABILITY>
1

> <JCHEM_DONOR_COUNT>
2

> <JCHEM_FORMAL_CHARGE>
0

> <JCHEM_GHOSE_FILTER>
0

> <JCHEM_IUPAC>
(3S)-piperidine-3-carboxylic acid

> <ALOGPS_LOGP>
-2.36

> <JCHEM_LOGP>
-2.435624186233799

> <ALOGPS_LOGS>
0.16

> <JCHEM_MDDR_LIKE_RULE>
0

> <JCHEM_NUMBER_OF_RINGS>
1

> <JCHEM_PHYSIOLOGICAL_CHARGE>
0

> <JCHEM_PKA_STRONGEST_ACIDIC>
3.793972525745448

> <JCHEM_PKA_STRONGEST_BASIC>
10.240815714921297

> <JCHEM_POLAR_SURFACE_AREA>
49.33

> <JCHEM_REFRACTIVITY>
32.9213

> <JCHEM_ROTATABLE_BOND_COUNT>
1

> <JCHEM_RULE_OF_FIVE>
1

> <ALOGPS_SOLUBILITY>
1.88e+02 g/l

> <JCHEM_TRADITIONAL_IUPAC>
(+)-nipecotic acid

> <JCHEM_VEBER_RULE>
0

> <DRUGBANK_ID>
DB08849

> <DRUG_GROUPS>
experimental

> <GENERIC_NAME>
Nipecotic acid

$$$$
