REMARK  Name = 10831270
REMARK  3 active torsions:
REMARK  status: ('A' for Active; 'I' for Inactive)
REMARK    1  A    between atoms: C_3  and  O_11
REMARK    2  A    between atoms: C_8  and  O_9
REMARK    3  A    between atoms: O_11  and  C_12
REMARK                            x       y       z     vdW  Elec       q    Type
REMARK                         _______ _______ _______ _____ _____    ______ ____
ROOT
ATOM      1 BR   UNL     1      -1.966  -3.148  -0.333  0.00  0.00    -0.046 Br
ATOM      2 BR   UNL     1      -4.056   2.113   0.637  0.00  0.00    -0.046 Br
ATOM      3  C   UNL     1      -0.360   0.660  -0.523  0.00  0.00    +0.146 C 
ATOM      4  C   UNL     1      -1.399   1.500  -0.166  0.00  0.00    +0.047 C 
ATOM      5  C   UNL     1      -0.521  -0.713  -0.576  0.00  0.00    +0.047 C 
ATOM      6  C   UNL     1      -1.762  -1.264  -0.260  0.00  0.00    +0.072 C 
ATOM      7  C   UNL     1      -2.641   0.948   0.150  0.00  0.00    +0.072 C 
ATOM      8  C   UNL     1      -2.822  -0.434   0.103  0.00  0.00    +0.146 C 
ENDROOT
BRANCH   8   9
ATOM      9  O   UNL     1      -4.038  -0.974   0.413  0.00  0.00    -0.505 OA
ATOM     10  H   UNL     1      -4.160  -1.902   0.381  0.00  0.00    +0.292 HD
ENDBRANCH   8   9
BRANCH   3  11
ATOM     11  O   UNL     1       0.872   1.207  -0.839  0.00  0.00    -0.453 OA
BRANCH  11  12
ATOM     12  C   UNL     1       1.980   0.619  -0.310  0.00  0.00    +0.145 C 
ATOM     13  C   UNL     1       2.001   0.256   1.036  0.00  0.00    +0.037 C 
ATOM     14  C   UNL     1       3.094   0.381  -1.114  0.00  0.00    +0.037 C 
ATOM     15  C   UNL     1       3.137  -0.346   1.579  0.00  0.00    +0.003 C 
ATOM     16  C   UNL     1       4.230  -0.221  -0.572  0.00  0.00    +0.003 C 
ATOM     17  C   UNL     1       4.251  -0.584   0.775  0.00  0.00    +0.000 C 
ENDBRANCH  11  12
ENDBRANCH   3  11
TORSDOF 3
