REMARK  Name = 6857727
REMARK  5 active torsions:
REMARK  status: ('A' for Active; 'I' for Inactive)
REMARK    1  A    between atoms: C_4  and  N_13
REMARK    2  A    between atoms: C_8  and  N_12
REMARK    3  A    between atoms: N_13  and  C_15
REMARK    4  A    between atoms: C_15  and  C_16
REMARK    5  A    between atoms: C_16  and  N_18
REMARK                            x       y       z     vdW  Elec       q    Type
REMARK                         _______ _______ _______ _____ _____    ______ ____
ROOT
ATOM      1  O   UNL     1      -3.081  -2.576   0.340  0.00  0.00    -0.241 OA
ATOM      2  N   UNL     1      -1.724  -2.441   0.104  0.00  0.00    -0.047 NA
ATOM      3  N   UNL     1      -3.732  -1.355   0.323  0.00  0.00    -0.047 NA
ATOM      4  C   UNL     1      -0.309  -0.446  -0.327  0.00  0.00    +0.071 C 
ATOM      5  C   UNL     1      -1.510  -1.130  -0.062  0.00  0.00    +0.158 A 
ATOM      6  C   UNL     1      -0.449   0.949  -0.444  0.00  0.00    +0.018 C 
ATOM      7  C   UNL     1      -2.787  -0.439   0.077  0.00  0.00    +0.167 A 
ATOM      8  C   UNL     1      -2.904   0.958  -0.045  0.00  0.00    +0.165 C 
ATOM      9  C   UNL     1      -1.692   1.621  -0.309  0.00  0.00    +0.027 C 
ENDROOT
BRANCH   8  12
ATOM     10  O   UNL     1      -4.187   2.873  -0.023  0.00  0.00    -0.126 OA
ATOM     11  O   UNL     1      -5.179   0.947   0.330  0.00  0.00    -0.126 OA
ATOM     12  N   UNL     1      -4.143   1.621   0.093  0.00  0.00    +0.059 N 
ENDBRANCH   8  12
BRANCH   4  13
ATOM     13  N   UNL     1       0.938  -1.070  -0.468  0.00  0.00    -0.303 N 
ATOM     14  C   UNL     1       1.047  -2.524  -0.340  0.00  0.00    +0.112 C 
BRANCH  13  15
ATOM     15  C   UNL     1       2.132  -0.311  -0.754  0.00  0.00    +0.112 C 
BRANCH  15  16
ATOM     16  C   UNL     1       2.801   0.132   0.537  0.00  0.00    +0.115 C 
BRANCH  16  18
ATOM     17  O   UNL     1       6.327   0.894  -0.018  0.00  0.00    -0.275 OA
ATOM     18  N   UNL     1       4.024   0.894   0.294  0.00  0.00    -0.276 N 
ATOM     19  C   UNL     1       3.846   2.335   0.170  0.00  0.00    +0.115 C 
ATOM     20  C   UNL     1       5.274   0.284   0.187  0.00  0.00    +0.226 C 
ATOM     21  C   UNL     1       5.310  -1.216   0.336  0.00  0.00    +0.095 C 
ENDBRANCH  16  18
ENDBRANCH  15  16
ENDBRANCH  13  15
ENDBRANCH   4  13
TORSDOF 5
