REMARK  Name = 6857724
REMARK  8 active torsions:
REMARK  status: ('A' for Active; 'I' for Inactive)
REMARK    1  A    between atoms: C_1  and  C_4
REMARK    2  A    between atoms: C_1  and  C_20
REMARK    3  A    between atoms: N_3  and  C_6
REMARK    4  A    between atoms: C_7  and  O_12
REMARK    5  A    between atoms: C_8  and  O_14
REMARK    6  A    between atoms: C_9  and  C_17
REMARK    7  A    between atoms: C_17  and  O_18
REMARK    8  A    between atoms: C_20  and  C_31
REMARK                            x       y       z     vdW  Elec       q    Type
REMARK                         _______ _______ _______ _____ _____    ______ ____
ROOT
ATOM      1  C   UNL     1      -0.147  -0.597   0.590  0.00  0.00    +0.086 C 
ENDROOT
BRANCH   1   4
ATOM      2  O   UNL     1       1.419  -0.245   2.389  0.00  0.00    -0.275 OA
ATOM      3  N   UNL     1       2.147  -0.045   0.166  0.00  0.00    -0.279 N 
ATOM      4  C   UNL     1       1.220  -0.270   1.179  0.00  0.00    +0.226 C 
ATOM      5  H   UNL     1       1.812  -0.125  -0.756  0.00  0.00    +0.155 HD
BRANCH   3   6
ATOM      6  C   UNL     1       3.517   0.283   0.308  0.00  0.00    +0.119 C 
ATOM      7  C   UNL     1       4.420  -0.118  -0.665  0.00  0.00    +0.156 C 
ATOM      8  C   UNL     1       3.931   1.003   1.419  0.00  0.00    +0.150 C 
ATOM      9  C   UNL     1       5.769   0.209  -0.524  0.00  0.00    +0.110 C 
ATOM     10  C   UNL     1       5.280   1.329   1.560  0.00  0.00    +0.038 C 
ATOM     11  C   UNL     1       6.199   0.932   0.589  0.00  0.00    +0.013 C 
BRANCH   7  12
ATOM     12  O   UNL     1       4.002  -0.826  -1.755  0.00  0.00    -0.504 OA
ATOM     13  H   UNL     1       3.096  -1.046  -1.851  0.00  0.00    +0.292 HD
ENDBRANCH   7  12
BRANCH   8  14
ATOM     14  O   UNL     1       3.050   1.402   2.380  0.00  0.00    -0.504 OA
ATOM     15  H   UNL     1       2.141   1.191   2.299  0.00  0.00    +0.292 HD
ENDBRANCH   8  14
BRANCH   9  17
ATOM     16  O   UNL     1       6.672  -1.207  -2.228  0.00  0.00    -0.245 OA
ATOM     17  C   UNL     1       6.747  -0.196  -1.524  0.00  0.00    +0.341 C 
BRANCH  17  18
ATOM     18  O   UNL     1       7.787   0.677  -1.615  0.00  0.00    -0.477 OA
ATOM     19  H   UNL     1       7.811   1.435  -1.065  0.00  0.00    +0.295 HD
ENDBRANCH  17  18
ENDBRANCH   9  17
ENDBRANCH   3   6
ENDBRANCH   1   4
BRANCH   1  20
ATOM     20  C   UNL     1      -1.225  -0.857   1.628  0.00  0.00    +0.017 C 
BRANCH  20  31
ATOM     21  O   UNL     1      -3.333   2.271  -0.471  0.00  0.00    -0.361 OA
ATOM     22  O   UNL     1      -1.563  -3.362   0.436  0.00  0.00    -0.291 OA
ATOM     23  C   UNL     1      -4.191  -0.410  -0.950  0.00  0.00    +0.024 C 
ATOM     24  C   UNL     1      -3.006  -0.057   0.024  0.00  0.00    +0.038 C 
ATOM     25  C   UNL     1      -5.492   1.364  -0.030  0.00  0.00    +0.028 C 
ATOM     26  C   UNL     1      -4.567   1.919  -1.148  0.00  0.00    +0.093 C 
ATOM     27  C   UNL     1      -3.260   1.350   0.651  0.00  0.00    +0.116 C 
ATOM     28  C   UNL     1      -5.569  -0.140  -0.317  0.00  0.00    +0.007 C 
ATOM     29  C   UNL     1      -4.230   0.704  -2.027  0.00  0.00    +0.031 C 
ATOM     30  C   UNL     1      -4.651   1.560   1.223  0.00  0.00    +0.032 C 
ATOM     31  C   UNL     1      -2.578  -1.214   0.971  0.00  0.00    +0.059 C 
ATOM     32  C   UNL     1      -4.072  -1.786  -1.520  0.00  0.00    -0.024 C 
ATOM     33  C   UNL     1      -5.099   3.114  -1.906  0.00  0.00    +0.030 C 
ATOM     34  C   UNL     1      -2.377  -2.489   0.128  0.00  0.00    +0.172 C 
ATOM     35  C   UNL     1      -3.556  -1.575   2.094  0.00  0.00    +0.008 C 
ATOM     36  C   UNL     1      -3.243  -2.725  -1.056  0.00  0.00    +0.033 C 
ENDBRANCH  20  31
ENDBRANCH   1  20
TORSDOF 8
