REMARK  Name = 446676
REMARK  1 active torsions:
REMARK  status: ('A' for Active; 'I' for Inactive)
REMARK    1  A    between atoms: C_11  and  N_16
REMARK                            x       y       z     vdW  Elec       q    Type
REMARK                         _______ _______ _______ _____ _____    ______ ____
ROOT
ATOM      1  O   UNL     1       2.045  -0.621   1.756  0.00  0.00    -0.277 OA
ATOM      2  N   UNL     1       1.611  -1.296  -0.421  0.00  0.00    -0.306 N 
ATOM      3  C   UNL     1      -2.102   1.664  -0.554  0.00  0.00    -0.000 C 
ATOM      4  C   UNL     1      -2.779   0.931   0.611  0.00  0.00    -0.000 C 
ATOM      5  C   UNL     1      -1.127   2.752  -0.085  0.00  0.00    -0.000 C 
ATOM      6  C   UNL     1      -3.501  -0.363   0.208  0.00  0.00    +0.000 C 
ATOM      7  C   UNL     1       0.195   2.211   0.483  0.00  0.00    -0.002 C 
ATOM      8  C   UNL     1      -2.639  -1.422  -0.494  0.00  0.00    +0.000 C 
ATOM      9  C   UNL     1       1.164   1.712  -0.601  0.00  0.00    -0.013 C 
ATOM     10  C   UNL     1      -1.323  -1.721   0.227  0.00  0.00    +0.002 C 
ATOM     11  C   UNL     1       2.381   0.991   0.005  0.00  0.00    +0.013 C 
ATOM     12  C   UNL     1      -0.424  -2.663  -0.581  0.00  0.00    +0.021 C 
ATOM     13  C   UNL     1       1.035  -2.600  -0.122  0.00  0.00    +0.089 C 
ATOM     14  C   UNL     1       2.018  -0.390   0.547  0.00  0.00    +0.202 C 
ATOM     15  H   UNL     1       1.717  -1.042  -1.366  0.00  0.00    +0.149 HD
ENDROOT
BRANCH  11  16
ATOM     16  N   UNL     1       3.448   0.814  -0.980  0.00  0.00    +0.387 N 
ATOM     17  H   UNL     1       3.712   1.723  -1.362  0.00  0.00    -0.089 HD
ATOM     18  H   UNL     1       3.118   0.212  -1.735  0.00  0.00    -0.089 HD
ATOM     19  H   UNL     1       4.257   0.385  -0.532  0.00  0.00    -0.089 HD
ENDBRANCH  11  16
TORSDOF 1
