REMARK  Name = 3344
REMARK  3 active torsions:
REMARK  status: ('A' for Active; 'I' for Inactive)
REMARK    1  A    between atoms: N_3  and  C_14
REMARK    2  A    between atoms: C_14  and  C_15
REMARK    3  A    between atoms: C_15  and  C_16
REMARK                            x       y       z     vdW  Elec       q    Type
REMARK                         _______ _______ _______ _____ _____    ______ ____
ROOT
ATOM      1  O   UNL     1      -3.326  -0.900  -0.040  0.00  0.00    -0.440 OA
ATOM      2  O   UNL     1      -5.175  -2.080  -0.700  0.00  0.00    -0.226 OA
ATOM      3  N   UNL     1      -0.162   0.772  -0.155  0.00  0.00    +0.387 N 
ATOM      4  N   UNL     1      -5.318   0.113   0.061  0.00  0.00    -0.267 N 
ATOM      5  C   UNL     1      -3.054   0.489   0.265  0.00  0.00    +0.151 C 
ATOM      6  C   UNL     1      -2.057   0.562   1.424  0.00  0.00    +0.019 C 
ATOM      7  C   UNL     1      -2.461   1.157  -0.985  0.00  0.00    +0.019 C 
ATOM      8  C   UNL     1      -0.672   0.049   1.017  0.00  0.00    -0.074 C 
ATOM      9  C   UNL     1      -1.062   0.620  -1.305  0.00  0.00    -0.074 C 
ATOM     10  C   UNL     1      -4.417   1.059   0.634  0.00  0.00    +0.132 C 
ATOM     11  C   UNL     1      -4.668  -1.052  -0.274  0.00  0.00    +0.402 C 
ATOM     12  H   UNL     1      -0.117   1.764   0.081  0.00  0.00    -0.080 HD
ATOM     13  H   UNL     1      -6.280   0.273  -0.077  0.00  0.00    +0.153 HD
ENDROOT
BRANCH   3  14
ATOM     14  C   UNL     1       1.184   0.311  -0.495  0.00  0.00    -0.073 C 
BRANCH  14  15
ATOM     15  C   UNL     1       2.162   0.584   0.648  0.00  0.00    +0.004 C 
BRANCH  15  16
ATOM     16  C   UNL     1       3.559   0.133   0.302  0.00  0.00    -0.024 C 
ATOM     17  C   UNL     1       3.952  -1.161   0.608  0.00  0.00    -0.004 C 
ATOM     18  C   UNL     1       4.427   1.019  -0.318  0.00  0.00    -0.004 C 
ATOM     19  C   UNL     1       5.244  -1.579   0.287  0.00  0.00    -0.000 C 
ATOM     20  C   UNL     1       5.718   0.602  -0.639  0.00  0.00    -0.000 C 
ATOM     21  C   UNL     1       6.127  -0.697  -0.336  0.00  0.00    -0.000 C 
ENDBRANCH  15  16
ENDBRANCH  14  15
ENDBRANCH   3  14
TORSDOF 3
