REMARK  Name = 5564
REMARK  3 active torsions:
REMARK  status: ('A' for Active; 'I' for Inactive)
REMARK    1  A    between atoms: O_1  and  C_4
REMARK    2  A    between atoms: O_1  and  C_11
REMARK    3  A    between atoms: C_12  and  O_17
REMARK                            x       y       z     vdW  Elec       q    Type
REMARK                         _______ _______ _______ _____ _____    ______ ____
ROOT
ATOM      1  O   UNL     1      -0.004   1.164  -0.641  0.00  0.00    -0.450 OA
ENDROOT
BRANCH   1   4
ATOM      2 CL   UNL     1      -1.993   2.648   1.055  0.00  0.00    -0.079 Cl
ATOM      3 CL   UNL     1      -4.975  -1.790   0.395  0.00  0.00    -0.082 Cl
ATOM      4  C   UNL     1      -1.183   0.485  -0.384  0.00  0.00    +0.156 C 
ATOM      5  C   UNL     1      -2.175   1.068   0.386  0.00  0.00    +0.093 C 
ATOM      6  C   UNL     1      -1.335  -0.782  -0.920  0.00  0.00    +0.039 C 
ATOM      7  C   UNL     1      -3.354   0.362   0.628  0.00  0.00    +0.026 C 
ATOM      8  C   UNL     1      -2.513  -1.488  -0.678  0.00  0.00    +0.015 C 
ATOM      9  C   UNL     1      -3.522  -0.917   0.096  0.00  0.00    +0.059 C 
ENDBRANCH   1   4
BRANCH   1  11
ATOM     10 CL   UNL     1       4.996  -1.299   1.209  0.00  0.00    -0.082 Cl
ATOM     11  C   UNL     1       1.158   0.591  -0.222  0.00  0.00    +0.179 C 
ATOM     12  C   UNL     1       2.158   0.264  -1.138  0.00  0.00    +0.169 C 
ATOM     13  C   UNL     1       1.345   0.334   1.136  0.00  0.00    +0.042 C 
ATOM     14  C   UNL     1       3.345  -0.321  -0.696  0.00  0.00    +0.051 C 
ATOM     15  C   UNL     1       2.532  -0.250   1.578  0.00  0.00    +0.015 C 
ATOM     16  C   UNL     1       3.532  -0.578   0.662  0.00  0.00    +0.061 C 
BRANCH  12  17
ATOM     17  O   UNL     1       1.987   0.510  -2.467  0.00  0.00    -0.503 OA
ATOM     18  H   UNL     1       1.193   0.903  -2.772  0.00  0.00    +0.292 HD
ENDBRANCH  12  17
ENDBRANCH   1  11
TORSDOF 3
