REMARK  Name = 445314
REMARK  5 active torsions:
REMARK  status: ('A' for Active; 'I' for Inactive)
REMARK    1  A    between atoms: C_2  and  C_13
REMARK    2  A    between atoms: C_6  and  C_17
REMARK    3  A    between atoms: C_7  and  O_10
REMARK    4  A    between atoms: C_13  and  O_14
REMARK    5  A    between atoms: C_17  and  O_18
REMARK                            x       y       z     vdW  Elec       q    Type
REMARK                         _______ _______ _______ _____ _____    ______ ____
ROOT
ATOM      1  O   UNL     1       1.203  -1.144  -0.461  0.00  0.00    -0.345 OA
ATOM      2  C   UNL     1      -0.859   0.670   0.085  0.00  0.00    +0.113 C 
ATOM      3  C   UNL     1      -0.953  -0.165  -1.199  0.00  0.00    +0.047 C 
ATOM      4  C   UNL     1      -0.115  -1.428  -0.962  0.00  0.00    +0.148 C 
ATOM      5  C   UNL     1       0.601   1.127   0.271  0.00  0.00    +0.056 C 
ATOM      6  C   UNL     1       1.581   0.227  -0.496  0.00  0.00    +0.214 C 
ATOM      7  C   UNL     1      -0.809  -2.307   0.099  0.00  0.00    +0.159 C 
ATOM      8  C   UNL     1      -1.316  -0.152   1.274  0.00  0.00    -0.018 C 
ATOM      9  C   UNL     1      -1.316  -1.496   1.264  0.00  0.00    +0.001 C 
ENDROOT
BRANCH   7  10
ATOM     10  O   UNL     1      -1.923  -2.982  -0.474  0.00  0.00    -0.378 OA
ATOM     11  H   UNL     1      -1.625  -3.514  -1.229  0.00  0.00    +0.211 HD
ENDBRANCH   7  10
BRANCH   2  13
ATOM     12  O   UNL     1      -2.720   2.065   0.757  0.00  0.00    -0.250 OA
ATOM     13  C   UNL     1      -1.788   1.847  -0.003  0.00  0.00    +0.317 C 
BRANCH  13  14
ATOM     14  O   UNL     1      -1.454   2.643  -1.048  0.00  0.00    -0.480 OA
ATOM     15  H   UNL     1      -0.726   2.419  -1.594  0.00  0.00    +0.295 HD
ENDBRANCH  13  14
ENDBRANCH   2  13
BRANCH   6  17
ATOM     16  O   UNL     1       3.501  -0.694   0.638  0.00  0.00    -0.248 OA
ATOM     17  C   UNL     1       2.929   0.267   0.145  0.00  0.00    +0.341 C 
BRANCH  17  18
ATOM     18  O   UNL     1       3.439   1.522   0.109  0.00  0.00    -0.479 OA
ATOM     19  H   UNL     1       2.948   2.216  -0.285  0.00  0.00    +0.295 HD
ENDBRANCH  17  18
ENDBRANCH   6  17
TORSDOF 5
