REMARK  Name = 11610553
REMARK  5 active torsions:
REMARK  status: ('A' for Active; 'I' for Inactive)
REMARK    1  A    between atoms: C_1  and  C_9
REMARK    2  A    between atoms: C_4  and  O_19
REMARK    3  A    between atoms: C_10  and  C_14
REMARK    4  A    between atoms: O_19  and  C_20
REMARK    5  A    between atoms: C_20  and  C_22
REMARK                            x       y       z     vdW  Elec       q    Type
REMARK                         _______ _______ _______ _____ _____    ______ ____
ROOT
ATOM      1  C   UNL     1       2.681   1.224  -0.139  0.00  0.00    +0.015 C 
ATOM      2  C   UNL     1       1.903   1.187   1.018  0.00  0.00    +0.004 C 
ATOM      3  C   UNL     1       2.072   1.158  -1.392  0.00  0.00    +0.004 C 
ATOM      4  C   UNL     1      -0.085   1.017  -0.331  0.00  0.00    +0.139 C 
ATOM      5  C   UNL     1       0.515   1.083   0.921  0.00  0.00    +0.037 C 
ATOM      6  C   UNL     1       0.685   1.054  -1.489  0.00  0.00    +0.037 C 
ENDROOT
BRANCH   1   9
ATOM      7  N   UNL     1       4.754   2.537  -0.008  0.00  0.00    -0.236 N 
ATOM      8  N   UNL     1       6.091   2.442   0.088  0.00  0.00    -0.180 NA
ATOM      9  C   UNL     1       4.116   1.331  -0.039  0.00  0.00    +0.067 C 
ATOM     10  C   UNL     1       5.106   0.381   0.042  0.00  0.00    +0.036 C 
ATOM     11  C   UNL     1       6.300   1.123   0.118  0.00  0.00    +0.119 C 
ATOM     12  H   UNL     1       4.278   3.397  -0.051  0.00  0.00    +0.174 HD
BRANCH  10  14
ATOM     13  N   UNL     1       4.465  -3.801   0.045  0.00  0.00    -0.242 NA
ATOM     14  C   UNL     1       4.890  -1.034   0.043  0.00  0.00    +0.006 C 
ATOM     15  C   UNL     1       4.699  -1.714   1.243  0.00  0.00    +0.021 C 
ATOM     16  C   UNL     1       4.867  -1.742  -1.156  0.00  0.00    +0.021 C 
ATOM     17  C   UNL     1       4.493  -3.083   1.191  0.00  0.00    +0.099 C 
ATOM     18  C   UNL     1       4.654  -3.110  -1.101  0.00  0.00    +0.099 C 
ENDBRANCH  10  14
ENDBRANCH   1   9
BRANCH   4  19
ATOM     19  O   UNL     1      -1.448   0.915  -0.426  0.00  0.00    -0.468 OA
BRANCH  19  20
ATOM     20  C   UNL     1      -2.175   0.883   0.795  0.00  0.00    +0.264 C 
BRANCH  20  22
ATOM     21  N   UNL     1      -4.099  -0.537   0.421  0.00  0.00    -0.406 NA
ATOM     22  C   UNL     1      -3.630   0.729   0.502  0.00  0.00    +0.152 C 
ATOM     23  C   UNL     1      -6.283   0.373  -0.036  0.00  0.00    +0.026 C 
ATOM     24  C   UNL     1      -5.407  -0.716   0.156  0.00  0.00    +0.113 C 
ATOM     25  C   UNL     1      -4.409   1.855   0.329  0.00  0.00    +0.031 C 
ATOM     26  C   UNL     1      -5.756   1.668   0.056  0.00  0.00    +0.005 C 
ATOM     27  C   UNL     1      -7.643   0.150  -0.311  0.00  0.00    +0.002 C 
ATOM     28  C   UNL     1      -5.932  -2.002   0.065  0.00  0.00    +0.085 C 
ATOM     29  C   UNL     1      -8.141  -1.147  -0.397  0.00  0.00    -0.004 C 
ATOM     30  C   UNL     1      -7.284  -2.224  -0.209  0.00  0.00    -0.019 C 
ENDBRANCH  20  22
ENDBRANCH  19  20
ENDBRANCH   4  19
TORSDOF 5
