REMARK  Name = 24875311
REMARK  4 active torsions:
REMARK  status: ('A' for Active; 'I' for Inactive)
REMARK    1  A    between atoms: C_1  and  C_9
REMARK    2  A    between atoms: C_4  and  O_14
REMARK    3  A    between atoms: C_6  and  O_16
REMARK    4  A    between atoms: C_8  and  C_12
REMARK                            x       y       z     vdW  Elec       q    Type
REMARK                         _______ _______ _______ _____ _____    ______ ____
ROOT
ATOM      1  C   UNL     1      -0.173  -0.403  -0.087  0.00  0.00    +0.009 C 
ATOM      2  C   UNL     1      -0.923   0.203   0.921  0.00  0.00    +0.040 C 
ATOM      3  C   UNL     1      -0.806  -0.887  -1.232  0.00  0.00    +0.004 C 
ATOM      4  C   UNL     1      -2.306   0.325   0.784  0.00  0.00    +0.167 C 
ATOM      5  C   UNL     1      -2.189  -0.766  -1.369  0.00  0.00    +0.040 C 
ATOM      6  C   UNL     1      -2.939  -0.160  -0.361  0.00  0.00    +0.167 C 
ENDROOT
BRANCH   1   9
ATOM      7  S   UNL     1       1.883  -1.935   0.801  0.00  0.00    -0.087 S 
ATOM      8  C   UNL     1       2.255   0.341  -0.331  0.00  0.00    -0.016 C 
ATOM      9  C   UNL     1       1.257  -0.527   0.054  0.00  0.00    +0.026 C 
ATOM     10  C   UNL     1       3.551  -0.156  -0.008  0.00  0.00    +0.003 C 
ATOM     11  C   UNL     1       3.493  -1.385   0.612  0.00  0.00    +0.035 C 
BRANCH   8  12
ATOM     12  C   UNL     1       2.028   1.645  -1.002  0.00  0.00    +0.027 C 
ATOM     13  C   UNL     1       2.185   2.832  -0.051  0.00  0.00    +0.005 C 
ENDBRANCH   8  12
ENDBRANCH   1   9
BRANCH   4  14
ATOM     14  O   UNL     1      -3.027   0.919   1.775  0.00  0.00    -0.503 OA
ATOM     15  H   UNL     1      -2.594   1.242   2.541  0.00  0.00    +0.292 HD
ENDBRANCH   4  14
BRANCH   6  16
ATOM     16  O   UNL     1      -4.288  -0.046  -0.506  0.00  0.00    -0.503 OA
ATOM     17  H   UNL     1      -4.800   0.360   0.166  0.00  0.00    +0.292 HD
ENDBRANCH   6  16
TORSDOF 4
