REMARK  Name = 6914647
REMARK  12 active torsions:
REMARK  status: ('A' for Active; 'I' for Inactive)
REMARK    1  A    between atoms: N_2  and  C_5
REMARK    2  A    between atoms: C_3  and  C_20
REMARK    3  A    between atoms: C_5  and  C_9
REMARK    4  A    between atoms: N_8  and  C_11
REMARK    5  A    between atoms: C_11  and  C_13
REMARK    6  A    between atoms: C_11  and  C_16
REMARK    7  A    between atoms: C_13  and  O_14
REMARK    8  A    between atoms: C_16  and  C_17
REMARK    9  A    between atoms: C_20  and  O_21
REMARK   10  A    between atoms: C_20  and  C_23
REMARK   11  A    between atoms: C_23  and  C_24
REMARK   12  A    between atoms: C_23  and  N_31
REMARK                            x       y       z     vdW  Elec       q    Type
REMARK                         _______ _______ _______ _____ _____    ______ ____
ROOT
ATOM      1  O   UNL     1      -2.609  -2.382   1.824  0.00  0.00    -0.273 OA
ATOM      2  N   UNL     1      -1.483  -1.696  -0.087  0.00  0.00    -0.296 N 
ATOM      3  C   UNL     1      -2.613  -1.895   0.695  0.00  0.00    +0.248 C 
ATOM      4  H   UNL     1      -1.593  -1.298  -0.980  0.00  0.00    +0.150 HD
ENDROOT
BRANCH   2   5
ATOM      5  C   UNL     1      -0.158  -2.045   0.352  0.00  0.00    +0.149 C 
ATOM      6  C   UNL     1       0.198  -3.470  -0.042  0.00  0.00    +0.031 C 
BRANCH   5   9
ATOM      7  O   UNL     1       0.662  -0.558  -1.377  0.00  0.00    -0.273 OA
ATOM      8  N   UNL     1       1.911  -0.808   0.563  0.00  0.00    -0.295 N 
ATOM      9  C   UNL     1       0.819  -1.051  -0.262  0.00  0.00    +0.241 C 
ATOM     10  H   UNL     1       1.946  -1.251   1.441  0.00  0.00    +0.150 HD
BRANCH   8  11
ATOM     11  C   UNL     1       2.994   0.063   0.187  0.00  0.00    +0.171 C 
BRANCH  11  13
ATOM     12  O   UNL     1       2.236   1.300   2.143  0.00  0.00    -0.248 OA
ATOM     13  C   UNL     1       2.973   1.219   1.168  0.00  0.00    +0.335 C 
BRANCH  13  14
ATOM     14  O   UNL     1       3.867   2.170   0.762  0.00  0.00    -0.443 OA
ATOM     15  C   UNL     1       3.920   3.351   1.570  0.00  0.00    +0.256 C 
ENDBRANCH  13  14
ENDBRANCH  11  13
BRANCH  11  16
ATOM     16  C   UNL     1       4.355  -0.638   0.231  0.00  0.00    +0.031 C 
BRANCH  16  17
ATOM     17  C   UNL     1       4.519  -1.792  -0.778  0.00  0.00    +0.002 C 
ATOM     18  C   UNL     1       4.277  -1.274  -2.199  0.00  0.00    +0.000 C 
ATOM     19  C   UNL     1       5.900  -2.445  -0.697  0.00  0.00    +0.000 C 
ENDBRANCH  16  17
ENDBRANCH  11  16
ENDBRANCH   8  11
ENDBRANCH   5   9
ENDBRANCH   2   5
BRANCH   3  20
ATOM     20  C   UNL     1      -3.896  -1.423   0.013  0.00  0.00    +0.170 C 
BRANCH  20  21
ATOM     21  O   UNL     1      -4.958  -2.291   0.382  0.00  0.00    -0.377 OA
ATOM     22  H   UNL     1      -5.777  -1.998  -0.047  0.00  0.00    +0.211 HD
ENDBRANCH  20  21
BRANCH  20  23
ATOM     23  C   UNL     1      -4.232   0.059   0.306  0.00  0.00    -0.006 C 
BRANCH  23  24
ATOM     24  C   UNL     1      -3.148   1.032  -0.130  0.00  0.00    -0.040 C 
ATOM     25  C   UNL     1      -2.545   1.829   0.822  0.00  0.00    -0.007 C 
ATOM     26  C   UNL     1      -2.800   1.090  -1.464  0.00  0.00    -0.007 C 
ATOM     27  C   UNL     1      -1.180   2.799  -0.920  0.00  0.00    -0.022 C 
ATOM     28  C   UNL     1      -1.550   2.722   0.423  0.00  0.00    -0.005 C 
ATOM     29  C   UNL     1      -1.805   1.983  -1.863  0.00  0.00    -0.005 C 
ATOM     30  C   UNL     1      -0.117   3.753  -1.347  0.00  0.00    +0.031 C 
ENDBRANCH  23  24
BRANCH  23  31
ATOM     31  N   UNL     1      -5.539   0.397  -0.277  0.00  0.00    +0.386 N 
ATOM     32  H   UNL     1      -6.237  -0.276   0.039  0.00  0.00    -0.089 HD
ATOM     33  H   UNL     1      -5.475   0.369  -1.294  0.00  0.00    -0.089 HD
ATOM     34  H   UNL     1      -5.812   1.334   0.021  0.00  0.00    -0.089 HD
ENDBRANCH  23  31
ENDBRANCH  20  23
ENDBRANCH   3  20
TORSDOF 12
