REMARK  Name = 66451
REMARK  7 active torsions:
REMARK  status: ('A' for Active; 'I' for Inactive)
REMARK    1  A    between atoms: C_1  and  S_7
REMARK    2  A    between atoms: C_4  and  N_19
REMARK    3  A    between atoms: S_7  and  C_10
REMARK    4  A    between atoms: C_15  and  N_16
REMARK    5  A    between atoms: N_19  and  C_21
REMARK    6  A    between atoms: C_21  and  C_23
REMARK    7  A    between atoms: C_23  and  O_24
REMARK                            x       y       z     vdW  Elec       q    Type
REMARK                         _______ _______ _______ _____ _____    ______ ____
ROOT
ATOM      1  C   UNL     1       0.166  -1.189   0.035  0.00  0.00    +0.110 C 
ATOM      2  C   UNL     1      -0.556  -0.773   1.136  0.00  0.00    +0.020 C 
ATOM      3  C   UNL     1      -0.369  -1.173  -1.239  0.00  0.00    +0.020 C 
ATOM      4  C   UNL     1      -2.426  -0.299  -0.319  0.00  0.00    +0.045 C 
ATOM      5  C   UNL     1      -1.865  -0.324   0.958  0.00  0.00    +0.016 C 
ATOM      6  C   UNL     1      -1.678  -0.724  -1.418  0.00  0.00    +0.016 C 
ENDROOT
BRANCH   1   7
ATOM      7  S   UNL     1       1.829  -1.759   0.262  0.00  0.00    +0.027 S 
ATOM      8  O   UNL     1       2.147  -2.652  -0.844  0.00  0.00    -0.164 OA
ATOM      9  O   UNL     1       1.872  -2.258   1.630  0.00  0.00    -0.164 OA
BRANCH   7  10
ATOM     10  C   UNL     1       2.908  -0.394   0.117  0.00  0.00    +0.110 C 
ATOM     11  C   UNL     1       3.245   0.351   1.247  0.00  0.00    +0.020 C 
ATOM     12  C   UNL     1       3.433  -0.049  -1.128  0.00  0.00    +0.020 C 
ATOM     13  C   UNL     1       4.106   1.442   1.132  0.00  0.00    +0.015 C 
ATOM     14  C   UNL     1       4.294   1.042  -1.244  0.00  0.00    +0.015 C 
ATOM     15  C   UNL     1       4.631   1.787  -0.114  0.00  0.00    +0.042 C 
BRANCH  15  16
ATOM     16  N   UNL     1       5.503   2.890  -0.230  0.00  0.00    -0.357 N 
ATOM     17  H   UNL     1       5.741   3.416   0.567  0.00  0.00    +0.142 HD
ATOM     18  H   UNL     1       5.874   3.133  -1.109  0.00  0.00    +0.142 HD
ENDBRANCH  15  16
ENDBRANCH   7  10
ENDBRANCH   1   7
BRANCH   4  19
ATOM     19  N   UNL     1      -3.748   0.156  -0.500  0.00  0.00    -0.324 N 
ATOM     20  H   UNL     1      -4.123   0.164  -1.411  0.00  0.00    +0.147 HD
BRANCH  19  21
ATOM     21  C   UNL     1      -4.570   0.606   0.580  0.00  0.00    +0.198 C 
BRANCH  21  23
ATOM     22  O   UNL     1      -6.225   0.955  -1.137  0.00  0.00    -0.248 OA
ATOM     23  C   UNL     1      -5.920   0.992   0.048  0.00  0.00    +0.334 C 
BRANCH  23  24
ATOM     24  O   UNL     1      -6.779   1.373   1.027  0.00  0.00    -0.479 OA
ATOM     25  H   UNL     1      -6.496   1.384   1.921  0.00  0.00    +0.295 HD
ENDBRANCH  23  24
ENDBRANCH  21  23
ENDBRANCH  19  21
ENDBRANCH   4  19
TORSDOF 7
