REMARK  Name = 46937120
REMARK  6 active torsions:
REMARK  status: ('A' for Active; 'I' for Inactive)
REMARK    1  A    between atoms: N_2  and  C_6
REMARK    2  A    between atoms: C_3  and  C_25
REMARK    3  A    between atoms: C_9  and  C_12
REMARK    4  A    between atoms: C_12  and  O_13
REMARK    5  A    between atoms: O_13  and  C_15
REMARK    6  A    between atoms: C_21  and  N_28
REMARK                            x       y       z     vdW  Elec       q    Type
REMARK                         _______ _______ _______ _____ _____    ______ ____
ROOT
ATOM      1  O   UNL     1       1.718  -2.799  -0.738  0.00  0.00    -0.270 OA
ATOM      2  N   UNL     1       0.360  -1.209   0.344  0.00  0.00    -0.281 N 
ATOM      3  C   UNL     1       1.556  -1.819  -0.009  0.00  0.00    +0.245 C 
ATOM      4  H   UNL     1       0.430  -0.429   0.942  0.00  0.00    +0.155 HD
ENDROOT
BRANCH   2   6
ATOM      5 CL   UNL     1      -5.109  -2.767  -1.342  0.00  0.00    -0.082 Cl
ATOM      6  C   UNL     1      -0.950  -1.574  -0.053  0.00  0.00    +0.050 C 
ATOM      7  C   UNL     1      -2.046  -0.841   0.401  0.00  0.00    +0.015 C 
ATOM      8  C   UNL     1      -1.143  -2.666  -0.899  0.00  0.00    +0.016 C 
ATOM      9  C   UNL     1      -3.336  -1.200   0.009  0.00  0.00    +0.033 C 
ATOM     10  C   UNL     1      -2.432  -3.025  -1.291  0.00  0.00    +0.012 C 
ATOM     11  C   UNL     1      -3.529  -2.292  -0.838  0.00  0.00    +0.057 C 
BRANCH   9  12
ATOM     12  C   UNL     1      -4.484  -0.390   0.518  0.00  0.00    +0.233 C 
BRANCH  12  13
ATOM     13  O   UNL     1      -4.969   0.445  -0.524  0.00  0.00    -0.469 OA
BRANCH  13  15
ATOM     14  N   UNL     1      -7.574   2.107   1.435  0.00  0.00    -0.239 NA
ATOM     15  C   UNL     1      -6.007   1.284  -0.212  0.00  0.00    +0.158 C 
ATOM     16  C   UNL     1      -6.549   2.139  -1.165  0.00  0.00    +0.040 C 
ATOM     17  C   UNL     1      -6.550   1.306   1.062  0.00  0.00    +0.136 C 
ATOM     18  C   UNL     1      -7.603   2.978  -0.820  0.00  0.00    +0.024 C 
ATOM     19  C   UNL     1      -8.075   2.924   0.481  0.00  0.00    +0.099 C 
ENDBRANCH  13  15
ENDBRANCH  12  13
ENDBRANCH   9  12
ENDBRANCH   2   6
BRANCH   3  25
ATOM     20  F   UNL     1       3.501   0.712   3.205  0.00  0.00    -0.233 F 
ATOM     21  C   UNL     1       4.690   0.406   0.430  0.00  0.00    -0.050 C 
ATOM     22  C   UNL     1       5.131  -0.185   1.776  0.00  0.00    +0.019 C 
ATOM     23  C   UNL     1       3.756  -0.569  -0.309  0.00  0.00    +0.010 C 
ATOM     24  C   UNL     1       3.918  -0.471   2.667  0.00  0.00    +0.181 C 
ATOM     25  C   UNL     1       2.716  -1.161   0.597  0.00  0.00    +0.028 C 
ATOM     26  C   UNL     1       2.775  -1.109   1.935  0.00  0.00    +0.009 C 
BRANCH  21  28
ATOM     27  O   UNL     1       7.530   2.530  -1.813  0.00  0.00    -0.358 OA
ATOM     28  N   UNL     1       5.858   0.719  -0.390  0.00  0.00    +0.392 N 
ATOM     29  C   UNL     1       5.450   1.289  -1.682  0.00  0.00    -0.045 C 
ATOM     30  C   UNL     1       6.753   1.650   0.310  0.00  0.00    -0.045 C 
ATOM     31  C   UNL     1       7.958   1.972  -0.570  0.00  0.00    +0.119 C 
ATOM     32  C   UNL     1       6.686   1.618  -2.515  0.00  0.00    +0.119 C 
ATOM     33  H   UNL     1       6.362  -0.151  -0.562  0.00  0.00    -0.079 HD
ENDBRANCH  21  28
ENDBRANCH   3  25
TORSDOF 6
