REMARK  Name = 25147495
REMARK  4 active torsions:
REMARK  status: ('A' for Active; 'I' for Inactive)
REMARK    1  A    between atoms: C_2  and  C_18
REMARK    2  A    between atoms: C_3  and  O_16
REMARK    3  A    between atoms: C_5  and  N_8
REMARK    4  A    between atoms: C_18  and  N_19
REMARK                            x       y       z     vdW  Elec       q    Type
REMARK                         _______ _______ _______ _____ _____    ______ ____
ROOT
ATOM      1  O   UNL     1       0.187  -0.895  -1.252  0.00  0.00    -0.339 OA
ATOM      2  C   UNL     1       1.533  -0.954  -0.741  0.00  0.00    +0.123 C 
ATOM      3  C   UNL     1       1.484  -1.848   0.492  0.00  0.00    +0.140 C 
ATOM      4  C   UNL     1       0.078  -1.638   1.004  0.00  0.00    +0.083 C 
ATOM      5  C   UNL     1      -0.708  -1.461  -0.285  0.00  0.00    +0.201 C 
ENDROOT
BRANCH   5   8
ATOM      6  O   UNL     1      -3.349  -2.333   0.326  0.00  0.00    -0.252 OA
ATOM      7  O   UNL     1      -4.967   1.971   0.261  0.00  0.00    -0.270 OA
ATOM      8  N   UNL     1      -1.848  -0.605  -0.133  0.00  0.00    -0.219 N 
ATOM      9  N   UNL     1      -4.143  -0.181   0.289  0.00  0.00    -0.236 N 
ATOM     10  C   UNL     1      -1.675   0.764  -0.292  0.00  0.00    +0.071 C 
ATOM     11  C   UNL     1      -3.122  -1.131   0.171  0.00  0.00    +0.315 C 
ATOM     12  C   UNL     1      -2.654   1.670  -0.178  0.00  0.00    +0.047 C 
ATOM     13  C   UNL     1      -4.025   1.192   0.141  0.00  0.00    +0.250 C 
ATOM     14  C   UNL     1      -2.445   3.140  -0.354  0.00  0.00    +0.037 C 
ATOM     15  H   UNL     1      -5.041  -0.525   0.501  0.00  0.00    +0.159 HD
ENDBRANCH   5   8
BRANCH   3  16
ATOM     16  O   UNL     1       1.623  -3.211   0.100  0.00  0.00    -0.382 OA
ATOM     17  H   UNL     1       2.521  -3.362  -0.232  0.00  0.00    +0.210 HD
ENDBRANCH   3  16
BRANCH   2  18
ATOM     18  C   UNL     1       1.977   0.468  -0.424  0.00  0.00    -0.045 C 
BRANCH  18  19
ATOM     19  N   UNL     1       3.319   0.488   0.139  0.00  0.00    +0.389 N 
ATOM     20  C   UNL     1       4.356   0.339  -0.882  0.00  0.00    -0.077 C 
ATOM     21  C   UNL     1       3.624   1.751   0.810  0.00  0.00    -0.077 C 
ATOM     22  C   UNL     1       5.618   0.774  -0.152  0.00  0.00    -0.025 C 
ATOM     23  C   UNL     1       5.137   1.699   0.962  0.00  0.00    -0.025 C 
ATOM     24  H   UNL     1       3.323  -0.294   0.794  0.00  0.00    -0.080 HD
ENDBRANCH  18  19
ENDBRANCH   2  18
TORSDOF 4
