REMARK  Name = 11963546
REMARK  7 active torsions:
REMARK  status: ('A' for Active; 'I' for Inactive)
REMARK    1  A    between atoms: N_1  and  C_31
REMARK    2  A    between atoms: C_2  and  C_25
REMARK    3  A    between atoms: C_9  and  C_15
REMARK    4  A    between atoms: C_16  and  C_23
REMARK    5  A    between atoms: C_31  and  C_32
REMARK    6  A    between atoms: C_32  and  C_33
REMARK    7  A    between atoms: C_33  and  O_34
REMARK                            x       y       z     vdW  Elec       q    Type
REMARK                         _______ _______ _______ _____ _____    ______ ____
ROOT
ATOM      1  N   UNL     1       1.751   0.601   0.458  0.00  0.00    -0.306 N 
ATOM      2  C   UNL     1       3.133   0.371   0.912  0.00  0.00    +0.096 C 
ATOM      3  C   UNL     1       3.159  -0.329   2.276  0.00  0.00    +0.029 C 
ATOM      4  C   UNL     1       2.325  -1.602   2.272  0.00  0.00    +0.030 C 
ATOM      5  C   UNL     1       0.715  -0.253   0.838  0.00  0.00    +0.044 C 
ATOM      6  C   UNL     1       0.947  -1.333   1.722  0.00  0.00    -0.009 C 
ATOM      7  C   UNL     1      -0.604  -0.089   0.367  0.00  0.00    +0.011 C 
ATOM      8  C   UNL     1      -0.092  -2.212   2.078  0.00  0.00    -0.003 C 
ATOM      9  C   UNL     1      -1.636  -0.958   0.737  0.00  0.00    -0.007 C 
ATOM     10  C   UNL     1      -1.379  -2.022   1.590  0.00  0.00    -0.004 C 
ENDROOT
BRANCH   9  15
ATOM     11  N   UNL     1      -4.633  -1.160  -1.471  0.00  0.00    -0.337 NA
ATOM     12  N   UNL     1      -5.159   0.241   0.418  0.00  0.00    -0.317 NA
ATOM     13  N   UNL     1      -3.543   0.656   2.094  0.00  0.00    -0.335 N 
ATOM     14  N   UNL     1      -6.754  -0.179  -1.251  0.00  0.00    -0.283 N 
ATOM     15  C   UNL     1      -2.973  -0.750   0.224  0.00  0.00    +0.138 C 
ATOM     16  C   UNL     1      -3.397  -1.326  -0.956  0.00  0.00    +0.112 C 
ATOM     17  C   UNL     1      -3.907   0.032   0.875  0.00  0.00    +0.178 C 
ATOM     18  C   UNL     1      -5.451  -0.376  -0.743  0.00  0.00    +0.196 C 
ATOM     19  H   UNL     1      -4.195   1.218   2.573  0.00  0.00    +0.144 HD
ATOM     20  H   UNL     1      -2.639   0.529   2.462  0.00  0.00    +0.144 HD
ATOM     21  H   UNL     1      -7.022  -0.606  -2.097  0.00  0.00    +0.156 HD
ATOM     22  H   UNL     1      -7.394   0.385  -0.760  0.00  0.00    +0.156 HD
BRANCH  16  23
ATOM     23  C   UNL     1      -2.484  -2.195  -1.759  0.00  0.00    +0.056 C 
ATOM     24  C   UNL     1      -1.682  -1.399  -2.784  0.00  0.00    +0.008 C 
ENDBRANCH  16  23
ENDBRANCH   9  15
BRANCH   2  25
ATOM     25  C   UNL     1       4.002  -0.330  -0.124  0.00  0.00    -0.004 C 
ATOM     26  C   UNL     1       3.453  -1.327  -0.926  0.00  0.00    -0.003 C 
ATOM     27  C   UNL     1       5.339   0.030  -0.263  0.00  0.00    -0.003 C 
ATOM     28  C   UNL     1       4.249  -1.969  -1.874  0.00  0.00    -0.000 C 
ATOM     29  C   UNL     1       6.135  -0.612  -1.212  0.00  0.00    -0.000 C 
ATOM     30  C   UNL     1       5.590  -1.611  -2.018  0.00  0.00    -0.000 C 
ENDBRANCH   2  25
BRANCH   1  31
ATOM     31  C   UNL     1       1.512   1.706  -0.465  0.00  0.00    +0.094 C 
BRANCH  31  32
ATOM     32  C   UNL     1       0.900   2.899   0.260  0.00  0.00    +0.053 C 
BRANCH  32  33
ATOM     33  C   UNL     1       0.629   4.080  -0.664  0.00  0.00    +0.144 C 
BRANCH  33  34
ATOM     34  O   UNL     1       0.078   5.143   0.102  0.00  0.00    -0.351 OA
ATOM     35  C   UNL     1      -0.221   6.270  -0.711  0.00  0.00    +0.174 C 
ENDBRANCH  33  34
ENDBRANCH  32  33
ENDBRANCH  31  32
ENDBRANCH   1  31
TORSDOF 7
