REMARK  Name = 11460087
REMARK  6 active torsions:
REMARK  status: ('A' for Active; 'I' for Inactive)
REMARK    1  A    between atoms: C_1  and  C_3
REMARK    2  A    between atoms: C_1  and  O_6
REMARK    3  A    between atoms: C_1  and  C_14
REMARK    4  A    between atoms: C_3  and  O_4
REMARK    5  A    between atoms: O_6  and  C_8
REMARK    6  A    between atoms: C_14  and  C_15
REMARK                            x       y       z     vdW  Elec       q    Type
REMARK                         _______ _______ _______ _____ _____    ______ ____
ROOT
ATOM      1  C   UNL     1       0.727  -1.575  -0.022  0.00  0.00    +0.267 C 
ENDROOT
BRANCH   1   3
ATOM      2  O   UNL     1       0.093  -3.853   0.552  0.00  0.00    -0.246 OA
ATOM      3  C   UNL     1       0.752  -3.086  -0.138  0.00  0.00    +0.355 C 
BRANCH   3   4
ATOM      4  O   UNL     1       1.587  -3.510  -1.122  0.00  0.00    -0.478 OA
ATOM      5  H   UNL     1       2.072  -2.886  -1.625  0.00  0.00    +0.295 HD
ENDBRANCH   3   4
ENDBRANCH   1   3
BRANCH   1   6
ATOM      6  O   UNL     1      -0.242  -1.238   0.964  0.00  0.00    -0.468 OA
BRANCH   6   8
ATOM      7 CL   UNL     1      -4.838   1.945  -0.832  0.00  0.00    -0.082 Cl
ATOM      8  C   UNL     1      -1.315  -0.496   0.546  0.00  0.00    +0.139 C 
ATOM      9  C   UNL     1      -2.157  -0.998  -0.440  0.00  0.00    +0.038 C 
ATOM     10  C   UNL     1      -1.550   0.753   1.110  0.00  0.00    +0.038 C 
ATOM     11  C   UNL     1      -3.249  -0.242  -0.867  0.00  0.00    +0.015 C 
ATOM     12  C   UNL     1      -2.642   1.509   0.683  0.00  0.00    +0.015 C 
ATOM     13  C   UNL     1      -3.491   1.012  -0.305  0.00  0.00    +0.058 C 
ENDBRANCH   6   8
ENDBRANCH   1   6
BRANCH   1  14
ATOM     14  C   UNL     1       2.091  -1.025   0.425  0.00  0.00    +0.082 C 
BRANCH  14  15
ATOM     15  C   UNL     1       2.236   0.435   0.157  0.00  0.00    -0.018 C 
ATOM     16  C   UNL     1       2.761   0.873  -1.059  0.00  0.00    -0.004 C 
ATOM     17  C   UNL     1       1.848   1.363   1.123  0.00  0.00    -0.004 C 
ATOM     18  C   UNL     1       2.897   2.238  -1.309  0.00  0.00    -0.000 C 
ATOM     19  C   UNL     1       1.984   2.729   0.873  0.00  0.00    -0.000 C 
ATOM     20  C   UNL     1       2.509   3.166  -0.343  0.00  0.00    -0.000 C 
ENDBRANCH  14  15
ENDBRANCH   1  14
TORSDOF 6
