REMARK  Name = 10172943
REMARK  7 active torsions:
REMARK  status: ('A' for Active; 'I' for Inactive)
REMARK    1  A    between atoms: O_1  and  C_3
REMARK    2  A    between atoms: O_1  and  C_19
REMARK    3  A    between atoms: C_4  and  C_11
REMARK    4  A    between atoms: C_19  and  C_20
REMARK    5  A    between atoms: C_20  and  N_21
REMARK    6  A    between atoms: C_20  and  C_25
REMARK    7  A    between atoms: C_25  and  C_27
REMARK                            x       y       z     vdW  Elec       q    Type
REMARK                         _______ _______ _______ _____ _____    ______ ____
ROOT
ATOM      1  O   UNL     1      -2.541   1.421   0.915  0.00  0.00    -0.476 OA
ENDROOT
BRANCH   1   3
ATOM      2  N   UNL     1      -0.353   4.147  -0.115  0.00  0.00    -0.239 NA
ATOM      3  C   UNL     1      -1.403   2.083   0.533  0.00  0.00    +0.158 C 
ATOM      4  C   UNL     1       0.934   2.105   0.027  0.00  0.00    +0.022 C 
ATOM      5  C   UNL     1      -0.203   1.406   0.414  0.00  0.00    +0.040 C 
ATOM      6  C   UNL     1      -1.437   3.434   0.264  0.00  0.00    +0.136 C 
ATOM      7  C   UNL     1       0.808   3.462  -0.225  0.00  0.00    +0.099 C 
BRANCH   4  11
ATOM      8  N   UNL     1       5.515  -1.418   0.512  0.00  0.00    -0.280 N 
ATOM      9  N   UNL     1       5.796  -0.504  -0.438  0.00  0.00    -0.173 NA
ATOM     10  C   UNL     1       3.731  -0.204   0.460  0.00  0.00    +0.032 A 
ATOM     11  C   UNL     1       2.208   1.438  -0.109  0.00  0.00    +0.002 C 
ATOM     12  C   UNL     1       4.701   0.273  -0.497  0.00  0.00    +0.102 A 
ATOM     13  C   UNL     1       2.470   0.320   0.713  0.00  0.00    +0.003 C 
ATOM     14  C   UNL     1       4.285  -1.285   1.086  0.00  0.00    +0.053 A 
ATOM     15  C   UNL     1       3.141   1.946  -1.073  0.00  0.00    +0.002 C 
ATOM     16  C   UNL     1       4.418   1.389  -1.306  0.00  0.00    +0.021 C 
ATOM     17  C   UNL     1       3.812  -2.198   2.140  0.00  0.00    +0.051 C 
ATOM     18  H   UNL     1       6.148  -2.126   0.771  0.00  0.00    +0.189 HD
ENDBRANCH   4  11
ENDBRANCH   1   3
BRANCH   1  19
ATOM     19  C   UNL     1      -3.773   1.923   0.415  0.00  0.00    +0.184 C 
BRANCH  19  20
ATOM     20  C   UNL     1      -4.830   0.818   0.288  0.00  0.00    -0.017 C 
BRANCH  20  21
ATOM     21  N   UNL     1      -6.082   1.419  -0.188  0.00  0.00    +0.384 N 
ATOM     22  H   UNL     1      -6.794   0.694  -0.277  0.00  0.00    -0.089 HD
ATOM     23  H   UNL     1      -5.925   1.856  -1.096  0.00  0.00    -0.089 HD
ATOM     24  H   UNL     1      -6.395   2.124   0.479  0.00  0.00    -0.089 HD
ENDBRANCH  20  21
BRANCH  20  25
ATOM     25  C   UNL     1      -4.415  -0.332  -0.668  0.00  0.00    +0.009 C 
BRANCH  25  27
ATOM     26  N   UNL     1      -2.623  -2.774   1.371  0.00  0.00    -0.312 N 
ATOM     27  C   UNL     1      -3.512  -1.333  -0.064  0.00  0.00    -0.008 C 
ATOM     28  C   UNL     1      -2.341  -1.884  -0.655  0.00  0.00    +0.011 C 
ATOM     29  C   UNL     1      -1.802  -2.785   0.266  0.00  0.00    +0.048 C 
ATOM     30  C   UNL     1      -3.659  -1.899   1.182  0.00  0.00    +0.058 C 
ATOM     31  C   UNL     1      -1.686  -1.703  -1.889  0.00  0.00    +0.001 C 
ATOM     32  C   UNL     1      -0.636  -3.517   0.013  0.00  0.00    +0.015 C 
ATOM     33  C   UNL     1      -0.519  -2.428  -2.156  0.00  0.00    +0.000 C 
ATOM     34  C   UNL     1      -0.004  -3.321  -1.218  0.00  0.00    +0.001 C 
ATOM     35  H   UNL     1      -2.484  -3.316   2.181  0.00  0.00    +0.152 HD
ENDBRANCH  25  27
ENDBRANCH  20  25
ENDBRANCH  19  20
ENDBRANCH   1  19
TORSDOF 7
