447649
  -OEChem-10051721163D

 46 49  0     0  0  0  0  0  0999 V2000
   -1.8498   -0.6874   -0.2845 O   0  0  0  0  0  0  0  0  0  0  0  0
    4.2418    4.3274    0.0418 O   0  0  0  0  0  0  0  0  0  0  0  0
    0.4767   -0.8903   -0.0669 N   0  0  0  0  0  0  0  0  0  0  0  0
   -1.7985   -3.7788   -0.1413 N   0  0  0  0  0  0  0  0  0  0  0  0
    1.5975   -3.0482    0.1311 N   0  0  0  0  0  0  0  0  0  0  0  0
    0.0846   -4.9505    0.0807 N   0  0  0  0  0  0  0  0  0  0  0  0
    2.8037   -1.0435    0.1493 N   0  0  0  0  0  0  0  0  0  0  0  0
   -2.9989    1.3982   -0.4764 C   0  0  0  0  0  0  0  0  0  0  0  0
   -3.9152    1.0469    0.7035 C   0  0  0  0  0  0  0  0  0  0  0  0
   -2.8267    2.9180   -0.6008 C   0  0  0  0  0  0  0  0  0  0  0  0
   -5.2598    1.7640    0.6061 C   0  0  0  0  0  0  0  0  0  0  0  0
   -4.1731    3.6321   -0.6959 C   0  0  0  0  0  0  0  0  0  0  0  0
   -5.0844    3.2735    0.4739 C   0  0  0  0  0  0  0  0  0  0  0  0
   -1.6423    0.7119   -0.3288 C   0  0  0  0  0  0  0  0  0  0  0  0
   -0.7361   -1.4796   -0.1494 C   0  0  0  0  0  0  0  0  0  0  0  0
   -0.7919   -2.8570   -0.0924 C   0  0  0  0  0  0  0  0  0  0  0  0
    0.3671   -3.6088    0.0456 C   0  0  0  0  0  0  0  0  0  0  0  0
    1.5542   -1.7000    0.0665 C   0  0  0  0  0  0  0  0  0  0  0  0
   -1.2246   -5.0180   -0.0338 C   0  0  0  0  0  0  0  0  0  0  0  0
    3.1675    0.3144    0.1217 C   0  0  0  0  0  0  0  0  0  0  0  0
    4.4093    0.6982   -0.3901 C   0  0  0  0  0  0  0  0  0  0  0  0
    2.2887    1.2861    0.6070 C   0  0  0  0  0  0  0  0  0  0  0  0
    4.7703    2.0453   -0.4163 C   0  0  0  0  0  0  0  0  0  0  0  0
    2.6496    2.6332    0.5807 C   0  0  0  0  0  0  0  0  0  0  0  0
    3.8905    3.0129    0.0689 C   0  0  0  0  0  0  0  0  0  0  0  0
   -3.4776    1.0206   -1.3907 H   0  0  0  0  0  0  0  0  0  0  0  0
   -3.4288    1.3206    1.6486 H   0  0  0  0  0  0  0  0  0  0  0  0
   -4.0969   -0.0335    0.7418 H   0  0  0  0  0  0  0  0  0  0  0  0
   -2.2291    3.1552   -1.4890 H   0  0  0  0  0  0  0  0  0  0  0  0
   -2.2746    3.3036    0.2659 H   0  0  0  0  0  0  0  0  0  0  0  0
   -5.8619    1.5397    1.4938 H   0  0  0  0  0  0  0  0  0  0  0  0
   -5.8144    1.3833   -0.2605 H   0  0  0  0  0  0  0  0  0  0  0  0
   -4.6644    3.3598   -1.6382 H   0  0  0  0  0  0  0  0  0  0  0  0
   -4.0142    4.7160   -0.7204 H   0  0  0  0  0  0  0  0  0  0  0  0
   -6.0627    3.7482    0.3385 H   0  0  0  0  0  0  0  0  0  0  0  0
   -4.6602    3.6742    1.4027 H   0  0  0  0  0  0  0  0  0  0  0  0
   -1.1521    1.0502    0.5928 H   0  0  0  0  0  0  0  0  0  0  0  0
   -1.0074    0.9677   -1.1865 H   0  0  0  0  0  0  0  0  0  0  0  0
   -2.7864   -3.5853   -0.2387 H   0  0  0  0  0  0  0  0  0  0  0  0
   -1.8151   -5.9231   -0.0460 H   0  0  0  0  0  0  0  0  0  0  0  0
    3.5853   -1.6907    0.1100 H   0  0  0  0  0  0  0  0  0  0  0  0
    5.1042   -0.0455   -0.7723 H   0  0  0  0  0  0  0  0  0  0  0  0
    1.3363    1.0348    1.0608 H   0  0  0  0  0  0  0  0  0  0  0  0
    5.7396    2.3281   -0.8180 H   0  0  0  0  0  0  0  0  0  0  0  0
    1.9644    3.3816    0.9698 H   0  0  0  0  0  0  0  0  0  0  0  0
    5.1311    4.4079   -0.3440 H   0  0  0  0  0  0  0  0  0  0  0  0
  1 14  1  0  0  0  0
  1 15  1  0  0  0  0
  2 25  1  0  0  0  0
  2 46  1  0  0  0  0
  3 15  2  0  0  0  0
  3 18  1  0  0  0  0
  4 16  1  0  0  0  0
  4 19  1  0  0  0  0
  4 39  1  0  0  0  0
  5 17  1  0  0  0  0
  5 18  2  0  0  0  0
  6 17  1  0  0  0  0
  6 19  2  0  0  0  0
  7 18  1  0  0  0  0
  7 20  1  0  0  0  0
  7 41  1  0  0  0  0
  8  9  1  0  0  0  0
  8 10  1  0  0  0  0
  8 14  1  0  0  0  0
  8 26  1  0  0  0  0
  9 11  1  0  0  0  0
  9 27  1  0  0  0  0
  9 28  1  0  0  0  0
 10 12  1  0  0  0  0
 10 29  1  0  0  0  0
 10 30  1  0  0  0  0
 11 13  1  0  0  0  0
 11 31  1  0  0  0  0
 11 32  1  0  0  0  0
 12 13  1  0  0  0  0
 12 33  1  0  0  0  0
 12 34  1  0  0  0  0
 13 35  1  0  0  0  0
 13 36  1  0  0  0  0
 14 37  1  0  0  0  0
 14 38  1  0  0  0  0
 15 16  1  0  0  0  0
 16 17  2  0  0  0  0
 19 40  1  0  0  0  0
 20 21  2  0  0  0  0
 20 22  1  0  0  0  0
 21 23  1  0  0  0  0
 21 42  1  0  0  0  0
 22 24  2  0  0  0  0
 22 43  1  0  0  0  0
 23 25  2  0  0  0  0
 23 44  1  0  0  0  0
 24 25  1  0  0  0  0
 24 45  1  0  0  0  0
M  END
> <DATABASE_ID>
DB08233

> <DATABASE_NAME>
drugbank

> <ORIGINAL_SOURCE>
PUBCHEM

> <ORIGINAL_SOURCE_URL>
https://pubchem.ncbi.nlm.nih.gov/rest/pug/compound/inchikey/RFSDQDHHBKYQOD-UHFFFAOYSA-N/SDF?record_type=3d

> <SMILES>
OC1=CC=C(NC2=NC(OCC3CCCCC3)=C3N=CNC3=N2)C=C1

> <INCHI_IDENTIFIER>
InChI=1S/C18H21N5O2/c24-14-8-6-13(7-9-14)21-18-22-16-15(19-11-20-16)17(23-18)25-10-12-4-2-1-3-5-12/h6-9,11-12,24H,1-5,10H2,(H2,19,20,21,22,23)

> <INCHI_KEY>
RFSDQDHHBKYQOD-UHFFFAOYSA-N

> <FORMULA>
C18H21N5O2

> <MOLECULAR_WEIGHT>
339.3916

> <EXACT_MASS>
339.169524941

> <JCHEM_ACCEPTOR_COUNT>
6

> <JCHEM_AVERAGE_POLARIZABILITY>
36.82717780491636

> <JCHEM_BIOAVAILABILITY>
1

> <JCHEM_DONOR_COUNT>
3

> <JCHEM_FORMAL_CHARGE>
0

> <JCHEM_GHOSE_FILTER>
1

> <JCHEM_IUPAC>
4-{[6-(cyclohexylmethoxy)-9H-purin-2-yl]amino}phenol

> <ALOGPS_LOGP>
4.28

> <JCHEM_LOGP>
4.069671702333333

> <ALOGPS_LOGS>
-3.90

> <JCHEM_MDDR_LIKE_RULE>
0

> <JCHEM_NUMBER_OF_RINGS>
4

> <JCHEM_PHYSIOLOGICAL_CHARGE>
0

> <JCHEM_PKA>
10.255226794284109

> <JCHEM_PKA_STRONGEST_ACIDIC>
8.929590808989138

> <JCHEM_PKA_STRONGEST_BASIC>
2.392364347953318

> <JCHEM_POLAR_SURFACE_AREA>
95.95

> <JCHEM_REFRACTIVITY>
94.52020000000002

> <JCHEM_ROTATABLE_BOND_COUNT>
5

> <JCHEM_RULE_OF_FIVE>
1

> <ALOGPS_SOLUBILITY>
4.26e-02 g/l

> <JCHEM_TRADITIONAL_IUPAC>
4-{[6-(cyclohexylmethoxy)-9H-purin-2-yl]amino}phenol

> <JCHEM_VEBER_RULE>
0

> <DRUGBANK_ID>
DB08233

> <DRUG_GROUPS>
experimental

> <GENERIC_NAME>
6-CYCLOHEXYLMETHYLOXY-2-(4'-HYDROXYANILINO)PURINE

$$$$
