REMARK  Name = 46937150
REMARK  7 active torsions:
REMARK  status: ('A' for Active; 'I' for Inactive)
REMARK    1  A    between atoms: C_2  and  C_3
REMARK    2  A    between atoms: C_2  and  C_10
REMARK    3  A    between atoms: C_3  and  C_5
REMARK    4  A    between atoms: C_5  and  O_6
REMARK    5  A    between atoms: C_5  and  C_8
REMARK    6  A    between atoms: C_10  and  P_11
REMARK    7  A    between atoms: P_11  and  O_14
REMARK                            x       y       z     vdW  Elec       q    Type
REMARK                         _______ _______ _______ _____ _____    ______ ____
ROOT
ATOM      1  O   UNL     1       0.559   0.683  -1.206  0.00  0.00    -0.295 OA
ATOM      2  C   UNL     1       0.511  -0.085  -0.245  0.00  0.00    +0.162 C 
ENDROOT
BRANCH   2   3
ATOM      3  C   UNL     1      -0.806  -0.672   0.263  0.00  0.00    +0.085 C 
ATOM      4  C   UNL     1      -1.034  -2.010  -0.442  0.00  0.00    +0.010 C 
BRANCH   3   5
ATOM      5  C   UNL     1      -2.001   0.286   0.082  0.00  0.00    +0.117 C 
BRANCH   5   6
ATOM      6  O   UNL     1      -2.394   0.301  -1.292  0.00  0.00    -0.384 OA
ATOM      7  H   UNL     1      -1.624   0.502  -1.846  0.00  0.00    +0.210 HD
ENDBRANCH   5   6
BRANCH   5   8
ATOM      8  C   UNL     1      -3.231  -0.034   0.943  0.00  0.00    +0.030 C 
ATOM      9  C   UNL     1      -4.403   0.907   0.716  0.00  0.00    +0.003 C 
ENDBRANCH   5   8
ENDBRANCH   3   5
ENDBRANCH   2   3
BRANCH   2  10
ATOM     10  C   UNL     1       1.766  -0.528   0.468  0.00  0.00    +0.147 C 
BRANCH  10  11
ATOM     11  P   UNL     1       3.276   0.224  -0.170  0.00  0.00    +0.207 P 
ATOM     12  O   UNL     1       3.376   1.646   0.321  0.00  0.00    -0.293 OA
ATOM     13  H   UNL     1       3.833  -0.236  -1.345  0.00  0.00    +0.129 HD
BRANCH  11  14
ATOM     14  O   UNL     1       4.382  -0.717   0.563  0.00  0.00    -0.345 OA
ATOM     15  H   UNL     1       4.283  -0.643   1.525  0.00  0.00    +0.217 HD
ENDBRANCH  11  14
ENDBRANCH  10  11
ENDBRANCH   2  10
TORSDOF 7
