REMARK  Name = 449244
REMARK  11 active torsions:
REMARK  status: ('A' for Active; 'I' for Inactive)
REMARK    1  A    between atoms: P_1  and  O_3
REMARK    2  A    between atoms: P_1  and  O_5
REMARK    3  A    between atoms: P_1  and  C_15
REMARK    4  A    between atoms: O_5  and  C_6
REMARK    5  A    between atoms: C_11  and  N_14
REMARK    6  A    between atoms: C_15  and  C_16
REMARK    7  A    between atoms: C_16  and  C_17
REMARK    8  A    between atoms: C_17  and  C_20
REMARK    9  A    between atoms: N_19  and  C_22
REMARK   10  A    between atoms: C_22  and  C_24
REMARK   11  A    between atoms: C_24  and  O_25
REMARK                            x       y       z     vdW  Elec       q    Type
REMARK                         _______ _______ _______ _____ _____    ______ ____
ROOT
ATOM      1  P   UNL     1      -0.762   2.159  -0.124  0.00  0.00    +0.388 P 
ATOM      2  O   UNL     1      -0.949   2.550   1.303  0.00  0.00    -0.244 OA
ENDROOT
BRANCH   1   3
ATOM      3  O   UNL     1      -1.463   3.110  -1.221  0.00  0.00    -0.315 OA
ATOM      4  H   UNL     1      -2.415   3.163  -1.042  0.00  0.00    +0.221 HD
ENDBRANCH   1   3
BRANCH   1   5
ATOM      5  O   UNL     1      -1.192   0.665  -0.535  0.00  0.00    -0.422 OA
BRANCH   5   6
ATOM      6  C   UNL     1      -2.439   0.138  -0.343  0.00  0.00    +0.147 C 
ATOM      7  C   UNL     1      -3.440   0.910   0.247  0.00  0.00    +0.039 C 
ATOM      8  C   UNL     1      -2.710  -1.173  -0.735  0.00  0.00    +0.039 C 
ATOM      9  C   UNL     1      -4.712   0.372   0.444  0.00  0.00    +0.027 C 
ATOM     10  C   UNL     1      -3.982  -1.712  -0.538  0.00  0.00    +0.027 C 
ATOM     11  C   UNL     1      -4.982  -0.939   0.051  0.00  0.00    +0.143 C 
BRANCH  11  14
ATOM     12  O   UNL     1      -7.163  -0.774   0.784  0.00  0.00    -0.126 OA
ATOM     13  O   UNL     1      -6.500  -2.668  -0.108  0.00  0.00    -0.126 OA
ATOM     14  N   UNL     1      -6.277  -1.487   0.252  0.00  0.00    +0.058 N 
ENDBRANCH  11  14
ENDBRANCH   5   6
ENDBRANCH   1   5
BRANCH   1  15
ATOM     15  C   UNL     1       0.969   2.206  -0.641  0.00  0.00    +0.129 C 
BRANCH  15  16
ATOM     16  C   UNL     1       1.870   1.274   0.158  0.00  0.00    +0.023 C 
BRANCH  16  17
ATOM     17  C   UNL     1       3.322   1.333  -0.311  0.00  0.00    +0.086 C 
BRANCH  17  20
ATOM     18  O   UNL     1       3.807  -0.359   1.351  0.00  0.00    -0.275 OA
ATOM     19  N   UNL     1       5.531   0.443   0.015  0.00  0.00    -0.295 N 
ATOM     20  C   UNL     1       4.217   0.374   0.455  0.00  0.00    +0.223 C 
ATOM     21  H   UNL     1       5.751   1.067  -0.713  0.00  0.00    +0.150 HD
BRANCH  19  22
ATOM     22  C   UNL     1       6.591  -0.362   0.578  0.00  0.00    +0.200 C 
BRANCH  22  24
ATOM     23  O   UNL     1       7.600  -2.515   0.201  0.00  0.00    -0.248 OA
ATOM     24  C   UNL     1       6.762  -1.683  -0.126  0.00  0.00    +0.334 C 
BRANCH  24  25
ATOM     25  O   UNL     1       5.902  -1.863  -1.156  0.00  0.00    -0.479 OA
ATOM     26  H   UNL     1       5.279  -1.196  -1.367  0.00  0.00    +0.295 HD
ENDBRANCH  24  25
ENDBRANCH  22  24
ENDBRANCH  19  22
ENDBRANCH  17  20
ENDBRANCH  16  17
ENDBRANCH  15  16
ENDBRANCH   1  15
TORSDOF 11
