REMARK  Name = 1854
REMARK  6 active torsions:
REMARK  status: ('A' for Active; 'I' for Inactive)
REMARK    1  A    between atoms: C_1  and  C_13
REMARK    2  A    between atoms: C_9  and  C_21
REMARK    3  A    between atoms: C_13  and  P_14
REMARK    4  A    between atoms: P_14  and  O_16
REMARK    5  A    between atoms: P_14  and  O_18
REMARK    6  A    between atoms: C_21  and  O_22
REMARK                            x       y       z     vdW  Elec       q    Type
REMARK                         _______ _______ _______ _____ _____    ______ ____
ROOT
ATOM      1  C   UNL     1       1.473   0.282  -0.449  0.00  0.00    +0.049 C 
ATOM      2  C   UNL     1      -0.798  -0.576  -0.283  0.00  0.00    -0.000 C 
ATOM      3  C   UNL     1      -1.275   0.743  -0.090  0.00  0.00    +0.000 C 
ATOM      4  C   UNL     1       0.579  -0.789  -0.461  0.00  0.00    +0.002 C 
ATOM      5  C   UNL     1       1.004   1.578  -0.259  0.00  0.00    +0.002 C 
ATOM      6  C   UNL     1      -0.361   1.809  -0.081  0.00  0.00    -0.000 C 
ATOM      7  C   UNL     1      -2.651   0.956   0.087  0.00  0.00    +0.006 C 
ATOM      8  C   UNL     1      -1.712  -1.642  -0.293  0.00  0.00    +0.000 C 
ATOM      9  C   UNL     1      -3.545  -0.115   0.075  0.00  0.00    +0.075 C 
ATOM     10  C   UNL     1      -3.076  -1.412  -0.115  0.00  0.00    +0.006 C 
ENDROOT
BRANCH   1  13
ATOM     11  F   UNL     1       3.224  -1.042  -1.412  0.00  0.00    -0.187 F 
ATOM     12  F   UNL     1       3.621   1.083  -1.162  0.00  0.00    -0.187 F 
ATOM     13  C   UNL     1       2.931   0.036  -0.639  0.00  0.00    +0.372 C 
BRANCH  13  14
ATOM     14  P   UNL     1       3.922  -0.329   0.782  0.00  0.00    +0.401 P 
ATOM     15  O   UNL     1       3.509  -1.559   1.535  0.00  0.00    -0.252 OA
BRANCH  14  16
ATOM     16  O   UNL     1       5.436  -0.361   0.213  0.00  0.00    -0.320 OA
ATOM     17  H   UNL     1       6.049  -0.558   0.938  0.00  0.00    +0.220 HD
ENDBRANCH  14  16
BRANCH  14  18
ATOM     18  O   UNL     1       3.884   1.038   1.644  0.00  0.00    -0.320 OA
ATOM     19  H   UNL     1       4.409   0.926   2.452  0.00  0.00    +0.220 HD
ENDBRANCH  14  18
ENDBRANCH  13  14
ENDBRANCH   1  13
BRANCH   9  21
ATOM     20  O   UNL     1      -5.508   1.212   0.434  0.00  0.00    -0.245 OA
ATOM     21  C   UNL     1      -4.968   0.122   0.259  0.00  0.00    +0.338 C 
BRANCH  21  22
ATOM     22  O   UNL     1      -5.688  -1.034   0.216  0.00  0.00    -0.477 OA
ATOM     23  H   UNL     1      -5.252  -1.852   0.081  0.00  0.00    +0.295 HD
ENDBRANCH  21  22
ENDBRANCH   9  21
TORSDOF 6
