REMARK  Name = 4697633
REMARK  3 active torsions:
REMARK  status: ('A' for Active; 'I' for Inactive)
REMARK    1  A    between atoms: C_2  and  C_7
REMARK    2  A    between atoms: C_4  and  C_15
REMARK    3  A    between atoms: N_14  and  N_17
REMARK                            x       y       z     vdW  Elec       q    Type
REMARK                         _______ _______ _______ _____ _____    ______ ____
ROOT
ATOM      1  O   UNL     1       0.748  -0.129  -0.110  0.00  0.00    -0.449 OA
ATOM      2  C   UNL     1      -0.269   0.754  -0.258  0.00  0.00    +0.146 C 
ATOM      3  C   UNL     1       0.200   2.031  -0.404  0.00  0.00    +0.041 C 
ATOM      4  C   UNL     1       1.893   0.600  -0.162  0.00  0.00    +0.200 C 
ATOM      5  C   UNL     1       1.610   1.934  -0.341  0.00  0.00    +0.045 C 
ENDROOT
BRANCH   2   7
ATOM      6 CL   UNL     1      -1.664   0.528   2.482  0.00  0.00    -0.082 Cl
ATOM      7  C   UNL     1      -1.593   0.172  -0.231  0.00  0.00    +0.045 C 
ATOM      8  C   UNL     1      -2.308   0.026   0.957  0.00  0.00    +0.061 C 
ATOM      9  C   UNL     1      -2.152  -0.247  -1.438  0.00  0.00    +0.004 C 
ATOM     10  C   UNL     1      -3.583  -0.540   0.939  0.00  0.00    +0.011 C 
ATOM     11  C   UNL     1      -3.427  -0.812  -1.456  0.00  0.00    +0.000 C 
ATOM     12  C   UNL     1      -4.142  -0.959  -0.268  0.00  0.00    +0.001 C 
ENDBRANCH   2   7
BRANCH   4  15
ATOM     13  O   UNL     1       4.257   0.464  -0.083  0.00  0.00    -0.266 OA
ATOM     14  N   UNL     1       3.070  -1.492   0.145  0.00  0.00    -0.247 N 
ATOM     15  C   UNL     1       3.130  -0.093  -0.030  0.00  0.00    +0.293 C 
ATOM     16  H   UNL     1       2.195  -1.941   0.189  0.00  0.00    +0.169 HD
BRANCH  14  17
ATOM     17  N   UNL     1       4.229  -2.239   0.257  0.00  0.00    -0.254 NA
ATOM     18  H   UNL     1       5.039  -1.623   0.191  0.00  0.00    +0.140 HD
ATOM     19  H   UNL     1       4.263  -2.927  -0.496  0.00  0.00    +0.140 HD
ENDBRANCH  14  17
ENDBRANCH   4  15
TORSDOF 3
