REMARK  Name = 9817381
REMARK  13 active torsions:
REMARK  status: ('A' for Active; 'I' for Inactive)
REMARK    1  A    between atoms: C_1  and  N_7
REMARK    2  A    between atoms: C_2  and  O_18
REMARK    3  A    between atoms: C_3  and  O_20
REMARK    4  A    between atoms: C_4  and  O_22
REMARK    5  A    between atoms: C_5  and  C_24
REMARK    6  A    between atoms: N_7  and  C_10
REMARK    7  A    between atoms: C_10  and  C_11
REMARK    8  A    between atoms: C_11  and  C_12
REMARK    9  A    between atoms: C_12  and  C_13
REMARK   10  A    between atoms: C_13  and  C_14
REMARK   11  A    between atoms: C_14  and  C_15
REMARK   12  A    between atoms: C_15  and  C_16
REMARK   13  A    between atoms: C_24  and  O_25
REMARK                            x       y       z     vdW  Elec       q    Type
REMARK                         _______ _______ _______ _____ _____    ______ ____
ROOT
ATOM      1  C   UNL     1       1.861  -0.865   0.662  0.00  0.00    -0.009 C 
ATOM      2  C   UNL     1       2.963  -1.740   0.030  0.00  0.00    +0.125 C 
ATOM      3  C   UNL     1       3.784  -0.998  -1.034  0.00  0.00    +0.166 C 
ATOM      4  C   UNL     1       4.374   0.321  -0.507  0.00  0.00    +0.160 C 
ATOM      5  C   UNL     1       3.432   1.097   0.386  0.00  0.00    +0.007 C 
ATOM      6  C   UNL     1       2.302   0.560   0.880  0.00  0.00    -0.049 C 
ENDROOT
BRANCH   1   7
ATOM      7  N   UNL     1       0.650  -0.878  -0.166  0.00  0.00    +0.389 N 
ATOM      8  H   UNL     1       0.541  -1.802  -0.583  0.00  0.00    -0.084 HD
ATOM      9  H   UNL     1       0.744  -0.168  -0.892  0.00  0.00    -0.084 HD
BRANCH   7  10
ATOM     10  C   UNL     1      -0.531  -0.572   0.634  0.00  0.00    -0.081 C 
BRANCH  10  11
ATOM     11  C   UNL     1      -1.780  -0.565  -0.246  0.00  0.00    -0.023 C 
BRANCH  11  12
ATOM     12  C   UNL     1      -3.031  -0.236   0.573  0.00  0.00    -0.002 C 
BRANCH  12  13
ATOM     13  C   UNL     1      -4.278  -0.194  -0.314  0.00  0.00    -0.000 C 
BRANCH  13  14
ATOM     14  C   UNL     1      -5.565   0.108   0.460  0.00  0.00    -0.000 C 
BRANCH  14  15
ATOM     15  C   UNL     1      -6.807   0.176  -0.432  0.00  0.00    -0.000 C 
BRANCH  15  16
ATOM     16  C   UNL     1      -8.100   0.417   0.351  0.00  0.00    +0.000 C 
ATOM     17  C   UNL     1      -9.334   0.512  -0.532  0.00  0.00    +0.000 C 
ENDBRANCH  15  16
ENDBRANCH  14  15
ENDBRANCH  13  14
ENDBRANCH  12  13
ENDBRANCH  11  12
ENDBRANCH  10  11
ENDBRANCH   7  10
ENDBRANCH   1   7
BRANCH   2  18
ATOM     18  O   UNL     1       3.828  -2.229   1.057  0.00  0.00    -0.384 OA
ATOM     19  H   UNL     1       3.304  -2.697   1.726  0.00  0.00    +0.210 HD
ENDBRANCH   2  18
BRANCH   3  20
ATOM     20  O   UNL     1       2.965  -0.706  -2.165  0.00  0.00    -0.379 OA
ATOM     21  H   UNL     1       2.585  -1.529  -2.510  0.00  0.00    +0.211 HD
ENDBRANCH   3  20
BRANCH   4  22
ATOM     22  O   UNL     1       5.563   0.021   0.224  0.00  0.00    -0.378 OA
ATOM     23  H   UNL     1       6.173  -0.477  -0.342  0.00  0.00    +0.211 HD
ENDBRANCH   4  22
BRANCH   5  24
ATOM     24  C   UNL     1       3.807   2.524   0.676  0.00  0.00    +0.161 C 
BRANCH  24  25
ATOM     25  O   UNL     1       3.897   3.247  -0.536  0.00  0.00    -0.377 OA
ATOM     26  H   UNL     1       4.139   4.167  -0.346  0.00  0.00    +0.211 HD
ENDBRANCH  24  25
ENDBRANCH   5  24
TORSDOF 13
