REMARK  Name = 3003141
REMARK  3 active torsions:
REMARK  status: ('A' for Active; 'I' for Inactive)
REMARK    1  A    between atoms: C_3  and  C_9
REMARK    2  A    between atoms: C_6  and  N_15
REMARK    3  A    between atoms: C_6  and  C_21
REMARK                            x       y       z     vdW  Elec       q    Type
REMARK                         _______ _______ _______ _____ _____    ______ ____
ROOT
ATOM      1  S   UNL     1       0.048  -0.860  -0.347  0.00  0.00    -0.101 S 
ATOM      2  S   UNL     1      -1.304   1.647   0.456  0.00  0.00    -0.104 S 
ATOM      3  C   UNL     1       1.105   0.637  -0.288  0.00  0.00    +0.087 C 
ATOM      4  C   UNL     1       0.494   1.587   0.747  0.00  0.00    +0.078 C 
ATOM      5  C   UNL     1      -1.440  -0.016  -0.036  0.00  0.00    +0.075 C 
ATOM      6  C   UNL     1      -2.630  -0.615  -0.170  0.00  0.00    +0.138 C 
ENDROOT
BRANCH   3   9
ATOM      7 CL   UNL     1       3.177   1.334  -2.471  0.00  0.00    -0.083 Cl
ATOM      8 CL   UNL     1       6.848  -0.767   0.858  0.00  0.00    -0.082 Cl
ATOM      9  C   UNL     1       2.555   0.297  -0.029  0.00  0.00    -0.001 C 
ATOM     10  C   UNL     1       3.551   0.578  -0.965  0.00  0.00    +0.055 C 
ATOM     11  C   UNL     1       2.887  -0.314   1.180  0.00  0.00    -0.002 C 
ATOM     12  C   UNL     1       4.879   0.249  -0.691  0.00  0.00    +0.022 C 
ATOM     13  C   UNL     1       4.215  -0.643   1.454  0.00  0.00    +0.011 C 
ATOM     14  C   UNL     1       5.211  -0.361   0.518  0.00  0.00    +0.058 C 
ENDBRANCH   3   9
BRANCH   6  15
ATOM     15  N   UNL     1      -3.894   0.011   0.064  0.00  0.00    -0.237 N 
ATOM     16  N   UNL     1      -5.988   0.218   0.610  0.00  0.00    -0.224 NA
ATOM     17  C   UNL     1      -4.140   1.313  -0.112  0.00  0.00    +0.092 C 
ATOM     18  C   UNL     1      -4.990  -0.628   0.490  0.00  0.00    +0.172 C 
ATOM     19  C   UNL     1      -5.465   1.431   0.235  0.00  0.00    +0.117 C 
ENDBRANCH   6  15
BRANCH   6  21
ATOM     20  N   UNL     1      -2.534  -3.103  -0.918  0.00  0.00    -0.189 NA
ATOM     21  C   UNL     1      -2.585  -1.993  -0.584  0.00  0.00    +0.117 C 
ENDBRANCH   6  21
TORSDOF 3
