REMARK  Name = 5289332
REMARK  14 active torsions:
REMARK  status: ('A' for Active; 'I' for Inactive)
REMARK    1  A    between atoms: C_1  and  C_4
REMARK    2  A    between atoms: C_1  and  N_18
REMARK    3  A    between atoms: C_1  and  C_29
REMARK    4  A    between atoms: N_3  and  C_6
REMARK    5  A    between atoms: C_6  and  C_7
REMARK    6  A    between atoms: C_6  and  C_11
REMARK    7  A    between atoms: C_7  and  C_8
REMARK    8  A    between atoms: C_11  and  O_12
REMARK    9  A    between atoms: C_11  and  C_14
REMARK   10  A    between atoms: C_14  and  O_15
REMARK   11  A    between atoms: C_19  and  O_21
REMARK   12  A    between atoms: O_21  and  C_22
REMARK   13  A    between atoms: C_22  and  C_23
REMARK   14  A    between atoms: C_29  and  C_30
REMARK                            x       y       z     vdW  Elec       q    Type
REMARK                         _______ _______ _______ _____ _____    ______ ____
ROOT
ATOM      1  C   UNL     1       0.241   1.249  -0.306  0.00  0.00    +0.151 C 
ENDROOT
BRANCH   1   4
ATOM      2  O   UNL     1       0.781  -0.213   1.551  0.00  0.00    -0.273 OA
ATOM      3  N   UNL     1       2.213  -0.141  -0.275  0.00  0.00    -0.302 N 
ATOM      4  C   UNL     1       1.094   0.236   0.450  0.00  0.00    +0.240 C 
ATOM      5  H   UNL     1       2.370   0.283  -1.149  0.00  0.00    +0.150 HD
BRANCH   3   6
ATOM      6  C   UNL     1       3.164  -1.130   0.194  0.00  0.00    +0.101 C 
BRANCH   6   7
ATOM      7  C   UNL     1       3.716  -1.897  -1.023  0.00  0.00    +0.022 C 
BRANCH   7   8
ATOM      8  C   UNL     1       4.636  -3.092  -0.706  0.00  0.00    +0.002 C 
ATOM      9  C   UNL     1       3.936  -4.162   0.132  0.00  0.00    +0.000 C 
ATOM     10  C   UNL     1       5.147  -3.711  -2.011  0.00  0.00    +0.000 C 
ENDBRANCH   7   8
ENDBRANCH   6   7
BRANCH   6  11
ATOM     11  C   UNL     1       4.254  -0.485   1.073  0.00  0.00    +0.158 C 
BRANCH  11  12
ATOM     12  O   UNL     1       3.662   0.132   2.217  0.00  0.00    -0.380 OA
ATOM     13  H   UNL     1       3.126  -0.521   2.695  0.00  0.00    +0.211 HD
ENDBRANCH  11  12
BRANCH  11  14
ATOM     14  C   UNL     1       5.096   0.550   0.327  0.00  0.00    +0.173 C 
BRANCH  14  15
ATOM     15  O   UNL     1       6.049   1.104   1.228  0.00  0.00    -0.348 OA
ATOM     16  C   UNL     1       6.873   2.066   0.585  0.00  0.00    +0.174 C 
ENDBRANCH  14  15
ENDBRANCH  11  14
ENDBRANCH   6  11
ENDBRANCH   3   6
ENDBRANCH   1   4
BRANCH   1  18
ATOM     17  O   UNL     1      -1.480  -0.642  -1.683  0.00  0.00    -0.226 OA
ATOM     18  N   UNL     1      -1.136   0.941  -0.022  0.00  0.00    -0.264 N 
ATOM     19  C   UNL     1      -1.883   0.022  -0.733  0.00  0.00    +0.402 C 
ATOM     20  H   UNL     1      -1.572   1.414   0.724  0.00  0.00    +0.153 HD
BRANCH  19  21
ATOM     21  O   UNL     1      -3.148  -0.044  -0.222  0.00  0.00    -0.430 OA
BRANCH  21  22
ATOM     22  C   UNL     1      -4.036  -0.963  -0.867  0.00  0.00    +0.237 C 
BRANCH  22  23
ATOM     23  C   UNL     1      -5.373  -0.912  -0.188  0.00  0.00    +0.021 C 
ATOM     24  C   UNL     1      -5.642  -1.760   0.886  0.00  0.00    -0.001 C 
ATOM     25  C   UNL     1      -6.346  -0.016  -0.630  0.00  0.00    -0.001 C 
ATOM     26  C   UNL     1      -6.885  -1.712   1.518  0.00  0.00    -0.000 C 
ATOM     27  C   UNL     1      -7.589   0.032   0.001  0.00  0.00    -0.000 C 
ATOM     28  C   UNL     1      -7.858  -0.817   1.075  0.00  0.00    -0.000 C 
ENDBRANCH  22  23
ENDBRANCH  21  22
ENDBRANCH  19  21
ENDBRANCH   1  18
BRANCH   1  29
ATOM     29  C   UNL     1       0.616   2.676   0.114  0.00  0.00    +0.029 C 
BRANCH  29  30
ATOM     30  C   UNL     1      -0.218   3.788  -0.555  0.00  0.00    +0.002 C 
ATOM     31  C   UNL     1       0.162   5.182  -0.056  0.00  0.00    +0.000 C 
ATOM     32  C   UNL     1      -0.045   3.719  -2.075  0.00  0.00    +0.000 C 
ENDBRANCH  29  30
ENDBRANCH   1  29
TORSDOF 14
