REMARK  Name = 440294
REMARK  2 active torsions:
REMARK  status: ('A' for Active; 'I' for Inactive)
REMARK    1  A    between atoms: C_1  and  O_11
REMARK    2  A    between atoms: C_2  and  O_13
REMARK                            x       y       z     vdW  Elec       q    Type
REMARK                         _______ _______ _______ _____ _____    ______ ____
ROOT
ATOM      1  C   UNL     1       1.136  -0.893   0.615  0.00  0.00    +0.164 C 
ATOM      2  C   UNL     1       2.203   0.103   0.121  0.00  0.00    +0.163 C 
ATOM      3  C   UNL     1      -0.273  -0.477   0.238  0.00  0.00    +0.007 C 
ATOM      4  C   UNL     1      -0.572   0.897   0.120  0.00  0.00    -0.002 C 
ATOM      5  C   UNL     1       1.776   1.532   0.275  0.00  0.00    +0.005 C 
ATOM      6  C   UNL     1       0.487   1.899   0.289  0.00  0.00    -0.002 C 
ATOM      7  C   UNL     1      -1.304  -1.416   0.100  0.00  0.00    -0.002 C 
ATOM      8  C   UNL     1      -1.885   1.304  -0.149  0.00  0.00    -0.000 C 
ATOM      9  C   UNL     1      -2.607  -1.001  -0.178  0.00  0.00    -0.000 C 
ATOM     10  C   UNL     1      -2.897   0.356  -0.302  0.00  0.00    -0.000 C 
ENDROOT
BRANCH   1  11
ATOM     11  O   UNL     1       1.445  -2.198   0.134  0.00  0.00    -0.377 OA
ATOM     12  H   UNL     1       2.351  -2.431   0.392  0.00  0.00    +0.211 HD
ENDBRANCH   1  11
BRANCH   2  13
ATOM     13  O   UNL     1       2.490  -0.106  -1.262  0.00  0.00    -0.377 OA
ATOM     14  H   UNL     1       2.771  -1.024  -1.399  0.00  0.00    +0.211 HD
ENDBRANCH   2  13
TORSDOF 2
