REMARK  Name = 24178109
REMARK  9 active torsions:
REMARK  status: ('A' for Active; 'I' for Inactive)
REMARK    1  A    between atoms: S_1  and  C_4
REMARK    2  A    between atoms: S_1  and  N_16
REMARK    3  A    between atoms: C_7  and  C_10
REMARK    4  A    between atoms: N_16  and  C_17
REMARK    5  A    between atoms: N_16  and  C_21
REMARK    6  A    between atoms: C_17  and  C_18
REMARK    7  A    between atoms: C_18  and  O_19
REMARK    8  A    between atoms: C_21  and  C_24
REMARK    9  A    between atoms: N_23  and  O_26
REMARK                            x       y       z     vdW  Elec       q    Type
REMARK                         _______ _______ _______ _____ _____    ______ ____
ROOT
ATOM      1  S   UNL     1      -1.658  -1.830  -0.555  0.00  0.00    +0.064 S 
ATOM      2  O   UNL     1      -1.888  -2.035  -1.974  0.00  0.00    -0.153 OA
ATOM      3  O   UNL     1      -1.812  -2.945   0.361  0.00  0.00    -0.153 OA
ENDROOT
BRANCH   1   4
ATOM      4  C   UNL     1      -0.003  -1.226  -0.374  0.00  0.00    +0.122 C 
ATOM      5  C   UNL     1       0.685  -1.426   0.823  0.00  0.00    +0.020 C 
ATOM      6  C   UNL     1       0.612  -0.548  -1.427  0.00  0.00    +0.020 C 
ATOM      7  C   UNL     1       2.603  -0.273  -0.087  0.00  0.00    +0.000 C 
ATOM      8  C   UNL     1       1.988  -0.950   0.966  0.00  0.00    +0.001 C 
ATOM      9  C   UNL     1       1.915  -0.072  -1.284  0.00  0.00    +0.001 C 
BRANCH   7  10
ATOM     10  C   UNL     1       3.955   0.222   0.061  0.00  0.00    +0.000 C 
ATOM     11  C   UNL     1       4.177   1.507   0.556  0.00  0.00    +0.000 C 
ATOM     12  C   UNL     1       5.036  -0.587  -0.290  0.00  0.00    +0.000 C 
ATOM     13  C   UNL     1       5.480   1.983   0.699  0.00  0.00    +0.000 C 
ATOM     14  C   UNL     1       6.339  -0.111  -0.146  0.00  0.00    +0.000 C 
ATOM     15  C   UNL     1       6.561   1.175   0.349  0.00  0.00    +0.000 C 
ENDBRANCH   7  10
ENDBRANCH   1   4
BRANCH   1  16
ATOM     16  N   UNL     1      -2.607  -0.500  -0.006  0.00  0.00    -0.144 NA
BRANCH  16  17
ATOM     17  C   UNL     1      -2.743  -0.305   1.460  0.00  0.00    +0.128 C 
BRANCH  17  18
ATOM     18  C   UNL     1      -3.931  -1.099   1.972  0.00  0.00    +0.156 C 
BRANCH  18  19
ATOM     19  O   UNL     1      -5.119  -0.626   1.349  0.00  0.00    -0.380 OA
ATOM     20  H   UNL     1      -5.879  -1.134   1.675  0.00  0.00    +0.211 HD
ENDBRANCH  18  19
ENDBRANCH  17  18
ENDBRANCH  16  17
BRANCH  16  21
ATOM     21  C   UNL     1      -2.476   0.791  -0.728  0.00  0.00    +0.182 C 
BRANCH  21  24
ATOM     22  O   UNL     1      -4.838   1.075  -1.106  0.00  0.00    -0.271 OA
ATOM     23  N   UNL     1      -3.658   2.746  -0.035  0.00  0.00    -0.196 N 
ATOM     24  C   UNL     1      -3.789   1.526  -0.652  0.00  0.00    +0.262 C 
ATOM     25  H   UNL     1      -2.794   3.065   0.314  0.00  0.00    +0.182 HD
BRANCH  23  26
ATOM     26  O   UNL     1      -4.828   3.509   0.068  0.00  0.00    -0.295 OA
ATOM     27  H   UNL     1      -4.630   4.346   0.516  0.00  0.00    +0.241 HD
ENDBRANCH  23  26
ENDBRANCH  21  24
ENDBRANCH  16  21
ENDBRANCH   1  16
TORSDOF 9
