REMARK  Name = 3604
REMARK  7 active torsions:
REMARK  status: ('A' for Active; 'I' for Inactive)
REMARK    1  A    between atoms: C_1  and  C_2
REMARK    2  A    between atoms: C_1  and  C_8
REMARK    3  A    between atoms: C_2  and  C_3
REMARK    4  A    between atoms: C_3  and  N_4
REMARK    5  A    between atoms: C_8  and  C_9
REMARK    6  A    between atoms: C_9  and  C_10
REMARK    7  A    between atoms: C_10  and  N_11
REMARK                            x       y       z     vdW  Elec       q    Type
REMARK                         _______ _______ _______ _____ _____    ______ ____
ROOT
ATOM      1  C   UNL     1      -0.582  -0.497   0.013  0.00  0.00    -0.002 C 
ENDROOT
BRANCH   1   2
ATOM      2  C   UNL     1      -1.930   0.226   0.037  0.00  0.00    -0.022 C 
BRANCH   2   3
ATOM      3  C   UNL     1      -3.082  -0.767   0.014  0.00  0.00    -0.073 C 
BRANCH   3   4
ATOM      4  N   UNL     1      -4.364  -0.022  -0.007  0.00  0.00    +0.386 N 
ATOM      5  C   UNL     1      -5.558  -0.988   0.002  0.00  0.00    -0.096 C 
ATOM      6  C   UNL     1      -4.484   0.894   1.219  0.00  0.00    -0.096 C 
ATOM      7  C   UNL     1      -4.469   0.851  -1.266  0.00  0.00    -0.096 C 
ENDBRANCH   3   4
ENDBRANCH   2   3
ENDBRANCH   1   2
BRANCH   1   8
ATOM      8  C   UNL     1       0.582   0.495   0.001  0.00  0.00    -0.002 C 
BRANCH   8   9
ATOM      9  C   UNL     1       1.930  -0.227   0.010  0.00  0.00    -0.022 C 
BRANCH   9  10
ATOM     10  C   UNL     1       3.082   0.766   0.033  0.00  0.00    -0.073 C 
BRANCH  10  11
ATOM     11  N   UNL     1       4.364   0.023  -0.004  0.00  0.00    +0.386 N 
ATOM     12  C   UNL     1       5.557   0.988   0.051  0.00  0.00    -0.096 C 
ATOM     13  C   UNL     1       4.474  -0.938   1.189  0.00  0.00    -0.096 C 
ATOM     14  C   UNL     1       4.480  -0.804  -1.293  0.00  0.00    -0.096 C 
ENDBRANCH  10  11
ENDBRANCH   9  10
ENDBRANCH   8   9
ENDBRANCH   1   8
TORSDOF 7
