REMARK  Name = 16058682
REMARK  8 active torsions:
REMARK  status: ('A' for Active; 'I' for Inactive)
REMARK    1  A    between atoms: C_1  and  O_20
REMARK    2  A    between atoms: C_3  and  O_22
REMARK    3  A    between atoms: C_3  and  C_27
REMARK    4  A    between atoms: C_4  and  O_24
REMARK    5  A    between atoms: C_5  and  C_7
REMARK    6  A    between atoms: C_10  and  S_13
REMARK    7  A    between atoms: S_13  and  C_14
REMARK    8  A    between atoms: C_27  and  O_28
REMARK                            x       y       z     vdW  Elec       q    Type
REMARK                         _______ _______ _______ _____ _____    ______ ____
ROOT
ATOM      1  C   UNL     1      -3.715   0.593   1.287  0.00  0.00    +0.145 C 
ATOM      2  C   UNL     1      -4.326  -0.210   0.135  0.00  0.00    +0.074 C 
ATOM      3  C   UNL     1      -3.277  -0.951  -0.706  0.00  0.00    +0.198 C 
ATOM      4  C   UNL     1      -2.621   1.548   0.784  0.00  0.00    +0.159 C 
ATOM      5  C   UNL     1      -1.634   0.875  -0.147  0.00  0.00    +0.005 C 
ATOM      6  C   UNL     1      -1.951  -0.251  -0.816  0.00  0.00    +0.009 C 
ENDROOT
BRANCH   5   7
ATOM      7  C   UNL     1      -0.278   1.466  -0.278  0.00  0.00    -0.001 C 
ATOM      8  C   UNL     1       0.740   1.081   0.595  0.00  0.00    +0.006 C 
ATOM      9  C   UNL     1      -0.021   2.407  -1.276  0.00  0.00    -0.000 C 
ATOM     10  C   UNL     1       2.014   1.637   0.470  0.00  0.00    +0.029 C 
ATOM     11  C   UNL     1       1.252   2.963  -1.401  0.00  0.00    +0.001 C 
ATOM     12  C   UNL     1       2.270   2.577  -0.528  0.00  0.00    +0.006 C 
BRANCH  10  13
ATOM     13  S   UNL     1       3.315   1.145   1.584  0.00  0.00    -0.087 S 
BRANCH  13  14
ATOM     14  C   UNL     1       4.023  -0.239   0.705  0.00  0.00    +0.029 C 
ATOM     15  C   UNL     1       5.062  -0.028  -0.199  0.00  0.00    +0.006 C 
ATOM     16  C   UNL     1       3.534  -1.524   0.926  0.00  0.00    +0.006 C 
ATOM     17  C   UNL     1       5.616  -1.109  -0.885  0.00  0.00    +0.001 C 
ATOM     18  C   UNL     1       4.088  -2.605   0.239  0.00  0.00    +0.001 C 
ATOM     19  C   UNL     1       5.128  -2.398  -0.666  0.00  0.00    +0.000 C 
ENDBRANCH  13  14
ENDBRANCH  10  13
ENDBRANCH   5   7
BRANCH   1  20
ATOM     20  O   UNL     1      -3.175  -0.295   2.261  0.00  0.00    -0.382 OA
ATOM     21  H   UNL     1      -3.871  -0.894   2.574  0.00  0.00    +0.210 HD
ENDBRANCH   1  20
BRANCH   3  22
ATOM     22  O   UNL     1      -3.829  -1.178  -2.000  0.00  0.00    -0.373 OA
ATOM     23  H   UNL     1      -4.034  -0.327  -2.418  0.00  0.00    +0.211 HD
ENDBRANCH   3  22
BRANCH   4  24
ATOM     24  O   UNL     1      -3.245   2.622   0.080  0.00  0.00    -0.378 OA
ATOM     25  H   UNL     1      -3.881   3.064   0.664  0.00  0.00    +0.211 HD
ENDBRANCH   4  24
BRANCH   3  27
ATOM     26  O   UNL     1      -2.065  -2.561   0.587  0.00  0.00    -0.247 OA
ATOM     27  C   UNL     1      -3.002  -2.325  -0.161  0.00  0.00    +0.342 C 
BRANCH  27  28
ATOM     28  O   UNL     1      -3.903  -3.240  -0.592  0.00  0.00    -0.478 OA
ATOM     29  H   UNL     1      -4.596  -2.981  -1.166  0.00  0.00    +0.295 HD
ENDBRANCH  27  28
ENDBRANCH   3  27
TORSDOF 8
