REMARK  Name = 3306
REMARK  6 active torsions:
REMARK  status: ('A' for Active; 'I' for Inactive)
REMARK    1  A    between atoms: C_1  and  C_2
REMARK    2  A    between atoms: C_1  and  O_10
REMARK    3  A    between atoms: C_1  and  C_12
REMARK    4  A    between atoms: C_5  and  O_8
REMARK    5  A    between atoms: C_12  and  N_13
REMARK    6  A    between atoms: N_13  and  C_16
REMARK                            x       y       z     vdW  Elec       q    Type
REMARK                         _______ _______ _______ _____ _____    ______ ____
ROOT
ATOM      1  C   UNL     1       0.686   0.836   0.438  0.00  0.00    +0.112 C 
ENDROOT
BRANCH   1   2
ATOM      2  C   UNL     1      -0.742   0.557   0.110  0.00  0.00    +0.005 C 
ATOM      3  C   UNL     1      -1.272  -0.716   0.326  0.00  0.00    +0.035 C 
ATOM      4  C   UNL     1      -1.548   1.568  -0.412  0.00  0.00    -0.002 C 
ATOM      5  C   UNL     1      -2.607  -0.976   0.020  0.00  0.00    +0.133 C 
ATOM      6  C   UNL     1      -2.884   1.308  -0.719  0.00  0.00    +0.003 C 
ATOM      7  C   UNL     1      -3.413   0.036  -0.502  0.00  0.00    +0.037 C 
BRANCH   5   8
ATOM      8  O   UNL     1      -3.125  -2.217   0.231  0.00  0.00    -0.506 OA
ATOM      9  H   UNL     1      -2.584  -2.897   0.582  0.00  0.00    +0.292 HD
ENDBRANCH   5   8
ENDBRANCH   1   2
BRANCH   1  10
ATOM     10  O   UNL     1       0.880   0.679   1.851  0.00  0.00    -0.382 OA
ATOM     11  H   UNL     1       1.807   0.859   2.071  0.00  0.00    +0.211 HD
ENDBRANCH   1  10
BRANCH   1  12
ATOM     12  C   UNL     1       1.651  -0.097  -0.319  0.00  0.00    -0.047 C 
BRANCH  12  13
ATOM     13  N   UNL     1       3.045   0.186   0.015  0.00  0.00    +0.386 N 
ATOM     14  H   UNL     1       3.178   0.072   1.020  0.00  0.00    -0.084 HD
ATOM     15  H   UNL     1       3.261   1.142  -0.265  0.00  0.00    -0.084 HD
BRANCH  13  16
ATOM     16  C   UNL     1       3.940  -0.720  -0.689  0.00  0.00    -0.082 C 
ATOM     17  C   UNL     1       5.390  -0.443  -0.350  0.00  0.00    -0.026 C 
ENDBRANCH  13  16
ENDBRANCH  12  13
ENDBRANCH   1  12
TORSDOF 6
