REMARK  Name = 46937126
REMARK  15 active torsions:
REMARK  status: ('A' for Active; 'I' for Inactive)
REMARK    1  A    between atoms: C_1  and  S_3
REMARK    2  A    between atoms: C_1  and  CA_7
REMARK    3  A    between atoms: C_1  and  C_25
REMARK    4  A    between atoms: S_3  and  O_5
REMARK    5  A    between atoms: CA_7  and  C_9
REMARK    6  A    between atoms: CA_7  and  N_12
REMARK    7  A    between atoms: C_9  and  O_10
REMARK    8  A    between atoms: N_12  and  C_15
REMARK    9  A    between atoms: C_16  and  C_24
REMARK   10  A    between atoms: C_25  and  O_26
REMARK   11  A    between atoms: O_26  and  C_28
REMARK   12  A    between atoms: C_28  and  C_29
REMARK   13  A    between atoms: C_29  and  C_30
REMARK   14  A    between atoms: C_33  and  O_36
REMARK   15  A    between atoms: C_35  and  O_38
REMARK                            x       y       z     vdW  Elec       q    Type
REMARK                         _______ _______ _______ _____ _____    ______ ____
ROOT
ATOM      1  C   UNL     1       1.610   2.552   0.059  0.00  0.00    +0.172 C 
ATOM      2  C   UNL     1       1.850   2.779   1.567  0.00  0.00    +0.029 C 
ENDROOT
BRANCH   1   3
ATOM      3  S   UNL     1       2.358   4.040  -0.802  0.00  0.00    -0.052 S 
ATOM      4  O   UNL     1       1.627   5.211  -0.266  0.00  0.00    -0.081 OA
BRANCH   3   5
ATOM      5  O   UNL     1       3.720   3.861   0.031  0.00  0.00    -0.278 OA
ATOM      6  H   UNL     1       4.350   4.552  -0.226  0.00  0.00    +0.242 HD
ENDBRANCH   3   5
ENDBRANCH   1   3
BRANCH   1   7
ATOM      7  CA  UNL     1       2.340   1.261  -0.417  0.00  0.00    +0.194 C 
BRANCH   7   9
ATOM      8  OXT UNL     1       1.173   0.253  -2.304  0.00  0.00    -0.248 OA
ATOM      9  C   UNL     1       2.116   0.911  -1.882  0.00  0.00    +0.334 C 
BRANCH   9  10
ATOM     10  O   UNL     1       3.083   1.409  -2.695  0.00  0.00    -0.479 OA
ATOM     11  H   UNL     1       3.789   1.908  -2.333  0.00  0.00    +0.295 HD
ENDBRANCH   9  10
ENDBRANCH   7   9
BRANCH   7  12
ATOM     12  N   UNL     1       1.896   0.110   0.352  0.00  0.00    -0.312 N 
ATOM     13  H   UNL     1       1.034   0.168   0.824  0.00  0.00    +0.148 HD
BRANCH  12  15
ATOM     14  N   UNL     1       2.100  -2.261   0.029  0.00  0.00    -0.253 N 
ATOM     15  C   UNL     1       2.620  -1.060   0.455  0.00  0.00    +0.108 C 
ATOM     16  C   UNL     1       3.887  -1.286   0.949  0.00  0.00    +0.071 C 
ATOM     17  C   UNL     1       3.046  -3.256   0.255  0.00  0.00    +0.057 C 
ATOM     18  C   UNL     1       4.157  -2.671   0.824  0.00  0.00    +0.021 C 
ATOM     19  C   UNL     1       0.851  -2.513  -0.540  0.00  0.00    +0.071 C 
ATOM     20  C   UNL     1       2.702  -4.588  -0.120  0.00  0.00    +0.015 C 
ATOM     21  C   UNL     1       0.532  -3.770  -0.891  0.00  0.00    +0.016 C 
ATOM     22  C   UNL     1       1.497  -4.834  -0.669  0.00  0.00    +0.003 C 
BRANCH  16  24
ATOM     23  O   UNL     1       5.895  -0.508   1.929  0.00  0.00    -0.283 OA
ATOM     24  C   UNL     1       4.754  -0.277   1.488  0.00  0.00    +0.237 C 
ENDBRANCH  16  24
ENDBRANCH  12  15
ENDBRANCH   7  12
ENDBRANCH   1   7
BRANCH   1  25
ATOM     25  C   UNL     1       0.096   2.532  -0.257  0.00  0.00    +0.232 C 
BRANCH  25  26
ATOM     26  O   UNL     1      -0.585   1.476   0.415  0.00  0.00    -0.446 OA
BRANCH  26  28
ATOM     27  O   UNL     1      -2.576   2.143  -0.539  0.00  0.00    -0.250 OA
ATOM     28  C   UNL     1      -1.932   1.394   0.183  0.00  0.00    +0.322 C 
BRANCH  28  29
ATOM     29  C   UNL     1      -2.497   0.232   0.964  0.00  0.00    +0.136 C 
BRANCH  29  30
ATOM     30  C   UNL     1      -3.975   0.037   0.743  0.00  0.00    -0.008 C 
ATOM     31  C   UNL     1      -4.423  -0.790  -0.286  0.00  0.00    +0.036 C 
ATOM     32  C   UNL     1      -4.895   0.684   1.569  0.00  0.00    -0.000 C 
ATOM     33  C   UNL     1      -5.791  -0.971  -0.490  0.00  0.00    +0.167 C 
ATOM     34  C   UNL     1      -6.263   0.503   1.364  0.00  0.00    +0.039 C 
ATOM     35  C   UNL     1      -6.711  -0.324   0.335  0.00  0.00    +0.167 C 
BRANCH  33  36
ATOM     36  O   UNL     1      -6.216  -1.784  -1.498  0.00  0.00    -0.503 OA
ATOM     37  H   UNL     1      -5.591  -2.214  -2.048  0.00  0.00    +0.292 HD
ENDBRANCH  33  36
BRANCH  35  38
ATOM     38  O   UNL     1      -8.049  -0.494   0.145  0.00  0.00    -0.503 OA
ATOM     39  H   UNL     1      -8.358  -1.048  -0.544  0.00  0.00    +0.292 HD
ENDBRANCH  35  38
ENDBRANCH  29  30
ENDBRANCH  28  29
ENDBRANCH  26  28
ENDBRANCH  25  26
ENDBRANCH   1  25
TORSDOF 15
