REMARK  Name = 446560
REMARK  8 active torsions:
REMARK  status: ('A' for Active; 'I' for Inactive)
REMARK    1  A    between atoms: C_1  and  C_19
REMARK    2  A    between atoms: C_2  and  C_9
REMARK    3  A    between atoms: N_8  and  CA_11
REMARK    4  A    between atoms: CA_11  and  CB_12
REMARK    5  A    between atoms: CA_11  and  C_16
REMARK    6  A    between atoms: C_16  and  O_17
REMARK    7  A    between atoms: C_19  and  C_20
REMARK    8  A    between atoms: C_20  and  C_26
REMARK                            x       y       z     vdW  Elec       q    Type
REMARK                         _______ _______ _______ _____ _____    ______ ____
ROOT
ATOM      1  C   UNL     1      -1.660   2.460   0.280  0.00  0.00    -0.022 C 
ATOM      2  C   UNL     1       1.026   1.895  -0.004  0.00  0.00    +0.053 C 
ATOM      3  C   UNL     1      -0.937   3.018  -0.775  0.00  0.00    -0.004 C 
ATOM      4  C   UNL     1      -1.024   1.617   1.192  0.00  0.00    -0.004 C 
ATOM      5  C   UNL     1       0.420   2.732  -0.919  0.00  0.00    +0.004 C 
ATOM      6  C   UNL     1       0.334   1.332   1.048  0.00  0.00    +0.004 C 
ENDROOT
BRANCH   2   9
ATOM      7  O   UNL     1       3.204   2.412  -0.700  0.00  0.00    -0.270 OA
ATOM      8  N   UNL     1       2.890   0.374   0.361  0.00  0.00    -0.293 N 
ATOM      9  C   ACE A   0       2.471   1.589  -0.157  0.00  0.00    +0.246 C 
ATOM     10  H   UNL     1       2.223  -0.218   0.778  0.00  0.00    +0.150 HD
BRANCH   8  11
ATOM     11  CA  UNL     1       4.269  -0.055   0.311  0.00  0.00    +0.171 C 
BRANCH  11  12
ATOM     12  CB  UNL     1       4.600  -0.928   1.541  0.00  0.00    +0.029 C 
ATOM     13  CG1 UNL     1       3.888  -2.284   1.497  0.00  0.00    +0.002 C 
ATOM     14  CG2 UNL     1       4.320  -0.226   2.873  0.00  0.00    +0.002 C 
ENDBRANCH  11  12
BRANCH  11  16
ATOM     15  OXT UNL     1       5.713  -1.052  -1.368  0.00  0.00    -0.248 OA
ATOM     16  C   UNL     1       4.586  -0.710  -1.030  0.00  0.00    +0.332 C 
BRANCH  16  17
ATOM     17  O   UNL     1       3.521  -0.843  -1.859  0.00  0.00    -0.479 OA
ATOM     18  H   UNL     1       2.670  -0.573  -1.574  0.00  0.00    +0.295 HD
ENDBRANCH  16  17
ENDBRANCH  11  16
ENDBRANCH   8  11
ENDBRANCH   2   9
BRANCH   1  19
ATOM     19  C   UNL     1      -3.111   2.767   0.433  0.00  0.00    +0.031 C 
BRANCH  19  20
ATOM     20  C   UNL     1      -4.045   1.786  -0.305  0.00  0.00    +0.033 C 
BRANCH  20  26
ATOM     21  O   UNL     1      -1.787   0.279  -1.960  0.00  0.00    -0.209 OA
ATOM     22  N   UNL     1      -4.368  -1.444   1.405  0.00  0.00    -0.300 N 
ATOM     23  N   UNL     1      -2.742  -2.893   0.373  0.00  0.00    -0.264 N 
ATOM     24  N   UNL     1      -1.425  -1.928  -1.380  0.00  0.00    -0.302 NA
ATOM     25  N   UNL     1      -1.146  -4.168  -0.703  0.00  0.00    -0.320 N 
ATOM     26  C   UNL     1      -3.963   0.379   0.214  0.00  0.00    +0.007 C 
ATOM     27  C   UNL     1      -3.096  -0.621  -0.240  0.00  0.00    +0.120 C 
ATOM     28  C   UNL     1      -3.379  -1.724   0.520  0.00  0.00    +0.115 C 
ATOM     29  C   UNL     1      -4.739  -0.130   1.221  0.00  0.00    +0.059 C 
ATOM     30  C   UNL     1      -2.063  -0.690  -1.262  0.00  0.00    +0.209 C 
ATOM     31  C   UNL     1      -1.757  -2.943  -0.607  0.00  0.00    +0.248 C 
ATOM     32  H   UNL     1      -4.753  -2.068   2.063  0.00  0.00    +0.153 HD
ATOM     33  H   UNL     1      -2.960  -3.676   0.929  0.00  0.00    +0.157 HD
ATOM     34  H   UNL     1      -1.420  -4.903  -0.109  0.00  0.00    +0.146 HD
ATOM     35  H   UNL     1      -0.432  -4.311  -1.366  0.00  0.00    +0.146 HD
ENDBRANCH  20  26
ENDBRANCH  19  20
ENDBRANCH   1  19
TORSDOF 8
