REMARK  Name = 199
REMARK  6 active torsions:
REMARK  status: ('A' for Active; 'I' for Inactive)
REMARK    1  A    between atoms: N_1  and  C_4
REMARK    2  A    between atoms: N_1  and  C_9
REMARK    3  A    between atoms: C_9  and  C_10
REMARK    4  A    between atoms: C_10  and  C_11
REMARK    5  A    between atoms: C_11  and  C_12
REMARK    6  A    between atoms: C_12  and  N_13
REMARK                            x       y       z     vdW  Elec       q    Type
REMARK                         _______ _______ _______ _____ _____    ______ ____
ROOT
ATOM      1  N   UNL     1       1.102  -0.147  -0.331  0.00  0.00    -0.240 NA
ENDROOT
BRANCH   1   4
ATOM      2  N   UNL     1       3.005  -1.469  -0.298  0.00  0.00    -0.370 N 
ATOM      3  N   UNL     1       3.164   0.597   0.651  0.00  0.00    -0.370 N 
ATOM      4  C   UNL     1       2.346  -0.300   0.000  0.00  0.00    +0.189 C 
ATOM      5  H   UNL     1       2.532  -2.195  -0.765  0.00  0.00    +0.159 HD
ATOM      6  H   UNL     1       3.950  -1.581  -0.044  0.00  0.00    +0.159 HD
ATOM      7  H   UNL     1       2.814   1.476   0.922  0.00  0.00    +0.159 HD
ATOM      8  H   UNL     1       4.099   0.358   0.846  0.00  0.00    +0.159 HD
ENDBRANCH   1   4
BRANCH   1   9
ATOM      9  C   UNL     1       0.478   1.129   0.025  0.00  0.00    +0.128 C 
BRANCH   9  10
ATOM     10  C   UNL     1      -0.976   1.144  -0.436  0.00  0.00    +0.024 C 
BRANCH  10  11
ATOM     11  C   UNL     1      -1.810   0.037   0.222  0.00  0.00    -0.022 C 
BRANCH  11  12
ATOM     12  C   UNL     1      -3.274   0.046  -0.221  0.00  0.00    -0.086 C 
BRANCH  12  13
ATOM     13  N   UNL     1      -4.036  -1.038   0.387  0.00  0.00    +0.380 N 
ATOM     14  H   UNL     1      -5.003  -0.995   0.067  0.00  0.00    -0.089 HD
ATOM     15  H   UNL     1      -4.010  -0.944   1.402  0.00  0.00    -0.089 HD
ATOM     16  H   UNL     1      -3.628  -1.933   0.118  0.00  0.00    -0.089 HD
ENDBRANCH  12  13
ENDBRANCH  11  12
ENDBRANCH  10  11
ENDBRANCH   9  10
ENDBRANCH   1   9
TORSDOF 6
