REMARK  Name = 11840988
REMARK  6 active torsions:
REMARK  status: ('A' for Active; 'I' for Inactive)
REMARK    1  A    between atoms: N_1  and  N_3
REMARK    2  A    between atoms: N_1  and  C_14
REMARK    3  A    between atoms: N_3  and  C_8
REMARK    4  A    between atoms: N_6  and  C_9
REMARK    5  A    between atoms: N_7  and  C_10
REMARK    6  A    between atoms: C_13  and  C_22
REMARK                            x       y       z     vdW  Elec       q    Type
REMARK                         _______ _______ _______ _____ _____    ______ ____
ROOT
ATOM      1  N   UNL     1       0.710   0.039   0.003  0.00  0.00    -0.261 N 
ATOM      2  H   UNL     1       0.839   1.015   0.004  0.00  0.00    +0.168 HD
ENDROOT
BRANCH   1   4
ATOM      3  C   UNL     1      -2.989  -0.168   0.001  0.00  0.00    +0.073 C 
ATOM      4  C   UNL     1      -0.596  -0.494   0.003  0.00  0.00    +0.059 C 
ATOM      5  C   UNL     1      -1.698   0.360   0.002  0.00  0.00    +0.019 C 
ATOM      6  C   UNL     1      -3.178  -1.550   0.001  0.00  0.00    +0.004 C 
ATOM      7  C   UNL     1      -0.784  -1.877   0.004  0.00  0.00    +0.016 C 
ATOM      8  C   UNL     1      -2.075  -2.405   0.003  0.00  0.00    +0.001 C 
BRANCH   3  12
ATOM      9  F   UNL     1      -5.368   0.090  -0.002  0.00  0.00    -0.166 F 
ATOM     10  F   UNL     1      -4.218   1.576   1.082  0.00  0.00    -0.166 F 
ATOM     11  F   UNL     1      -4.198   1.563  -1.093  0.00  0.00    -0.166 F 
ATOM     12  C   UNL     1      -4.169   0.744  -0.001  0.00  0.00    +0.419 C 
ENDBRANCH   3  12
ENDBRANCH   1   4
BRANCH   1  13
ATOM     13  N   UNL     1       1.780  -0.774   0.000  0.00  0.00    -0.120 NA
BRANCH  13  16
ATOM     14  N   UNL     1       5.146   0.455  -0.002  0.00  0.00    -0.133 NA
ATOM     15  N   UNL     1       4.488   1.558   0.000  0.00  0.00    -0.133 NA
ATOM     16  C   UNL     1       2.901  -0.137   0.000  0.00  0.00    +0.207 C 
ATOM     17  C   UNL     1       4.279  -0.625  -0.002  0.00  0.00    +0.168 C 
ATOM     18  C   UNL     1       3.128   1.306   0.001  0.00  0.00    +0.168 C 
BRANCH  17  19
ATOM     19  N   UNL     1       4.637  -1.859  -0.004  0.00  0.00    -0.249 NA
ATOM     20  H   UNL     1       5.593  -2.094  -0.006  0.00  0.00    +0.171 HD
ENDBRANCH  17  19
BRANCH  18  21
ATOM     21  N   UNL     1       2.204   2.198   0.004  0.00  0.00    -0.249 NA
ATOM     22  H   UNL     1       2.441   3.154   0.005  0.00  0.00    +0.171 HD
ENDBRANCH  18  21
ENDBRANCH  13  16
ENDBRANCH   1  13
TORSDOF 6
