REMARK  Name = 449126
REMARK  2 active torsions:
REMARK  status: ('A' for Active; 'I' for Inactive)
REMARK    1  A    between atoms: C_3  and  C_8
REMARK    2  A    between atoms: C_5  and  C_16
REMARK                            x       y       z     vdW  Elec       q    Type
REMARK                         _______ _______ _______ _____ _____    ______ ____
ROOT
ATOM      1  N   UNL     1      -0.946   1.866  -0.448  0.00  0.00    -0.240 N 
ATOM      2  N   UNL     1       0.398   1.873  -0.453  0.00  0.00    -0.182 NA
ATOM      3  C   UNL     1      -1.477   0.651  -0.155  0.00  0.00    +0.044 C 
ATOM      4  C   UNL     1      -0.426  -0.198   0.045  0.00  0.00    +0.032 C 
ATOM      5  C   UNL     1       0.710   0.610  -0.152  0.00  0.00    +0.099 C 
ATOM      6  H   UNL     1      -1.492   2.663  -0.637  0.00  0.00    +0.174 HD
ENDROOT
BRANCH   3   8
ATOM      7  N   UNL     1      -5.338  -1.254   0.324  0.00  0.00    +0.384 N 
ATOM      8  C   UNL     1      -2.980   0.428  -0.094  0.00  0.00    +0.033 C 
ATOM      9  C   UNL     1      -3.448   0.004   1.307  0.00  0.00    -0.018 C 
ATOM     10  C   UNL     1      -3.460  -0.588  -1.142  0.00  0.00    -0.018 C 
ATOM     11  C   UNL     1      -4.954  -0.258   1.326  0.00  0.00    -0.081 C 
ATOM     12  C   UNL     1      -4.966  -0.827  -1.025  0.00  0.00    -0.081 C 
ATOM     13  H   UNL     1      -6.348  -1.390   0.362  0.00  0.00    -0.085 HD
ATOM     14  H   UNL     1      -4.845  -2.123   0.532  0.00  0.00    -0.085 HD
ENDBRANCH   3   8
BRANCH   5  16
ATOM     15 CL   UNL     1       6.393  -1.095   0.245  0.00  0.00    -0.082 Cl
ATOM     16  C   UNL     1       2.086   0.197  -0.056  0.00  0.00    +0.019 C 
ATOM     17  C   UNL     1       2.439  -1.114  -0.364  0.00  0.00    +0.002 C 
ATOM     18  C   UNL     1       3.058   1.111   0.344  0.00  0.00    +0.002 C 
ATOM     19  C   UNL     1       3.772  -1.514  -0.271  0.00  0.00    +0.011 C 
ATOM     20  C   UNL     1       4.391   0.711   0.438  0.00  0.00    +0.011 C 
ATOM     21  C   UNL     1       4.748  -0.602   0.131  0.00  0.00    +0.058 C 
ENDBRANCH   5  16
TORSDOF 2
