REMARK  Name = 3407
REMARK  6 active torsions:
REMARK  status: ('A' for Active; 'I' for Inactive)
REMARK    1  A    between atoms: C_2  and  C_18
REMARK    2  A    between atoms: C_3  and  N_9
REMARK    3  A    between atoms: C_10  and  C_12
REMARK    4  A    between atoms: C_18  and  N_19
REMARK    5  A    between atoms: N_19  and  C_22
REMARK    6  A    between atoms: C_22  and  C_30
REMARK                            x       y       z     vdW  Elec       q    Type
REMARK                         _______ _______ _______ _____ _____    ______ ____
ROOT
ATOM      1 CL   UNL     1      -0.706   4.866  -1.389  0.00  0.00    -0.083 Cl
ATOM      2  C   UNL     1       0.619   2.633  -0.548  0.00  0.00    -0.019 C 
ATOM      3  C   UNL     1       1.389   1.917   0.361  0.00  0.00    +0.045 C 
ATOM      4  C   UNL     1       0.249   3.947  -0.281  0.00  0.00    +0.053 C 
ATOM      5  C   UNL     1       1.795   2.521   1.551  0.00  0.00    +0.014 C 
ATOM      6  C   UNL     1       0.655   4.552   0.908  0.00  0.00    +0.011 C 
ATOM      7  C   UNL     1       1.429   3.839   1.825  0.00  0.00    +0.002 C 
ENDROOT
BRANCH   3   9
ATOM      8  O   UNL     1       3.021   0.021   2.014  0.00  0.00    -0.270 OA
ATOM      9  N   UNL     1       1.769   0.596   0.109  0.00  0.00    -0.281 N 
ATOM     10  C   UNL     1       2.536  -0.249   0.920  0.00  0.00    +0.249 C 
ATOM     11  H   UNL     1       1.459   0.212  -0.743  0.00  0.00    +0.155 HD
BRANCH  10  12
ATOM     12  C   UNL     1       2.797  -1.601   0.361  0.00  0.00    +0.054 C 
ATOM     13  C   UNL     1       3.020  -2.649   1.231  0.00  0.00    +0.005 C 
ATOM     14  C   UNL     1       2.809  -1.765  -1.008  0.00  0.00    +0.005 C 
ATOM     15  C   UNL     1       3.265  -3.918   0.706  0.00  0.00    +0.000 C 
ATOM     16  C   UNL     1       3.054  -3.034  -1.532  0.00  0.00    +0.000 C 
ATOM     17  C   UNL     1       3.282  -4.111  -0.675  0.00  0.00    +0.000 C 
ENDBRANCH  10  12
ENDBRANCH   3   9
BRANCH   2  18
ATOM     18  C   UNL     1       0.187   1.970  -1.829  0.00  0.00    -0.047 C 
BRANCH  18  19
ATOM     19  N   UNL     1      -0.315   0.610  -1.599  0.00  0.00    +0.394 N 
ATOM     20  C   UNL     1      -0.723   0.007  -2.874  0.00  0.00    -0.100 C 
ATOM     21  H   UNL     1       0.435   0.048  -1.197  0.00  0.00    -0.079 HD
BRANCH  19  22
ATOM     22  C   UNL     1      -1.409   0.613  -0.653  0.00  0.00    +0.010 C 
BRANCH  22  30
ATOM     23  O   UNL     1      -5.546  -1.669   1.189  0.00  0.00    -0.350 OA
ATOM     24  O   UNL     1      -0.937  -1.708  -0.560  0.00  0.00    -0.277 OA
ATOM     25  N   UNL     1      -3.132  -1.077  -0.139  0.00  0.00    -0.276 N 
ATOM     26  C   UNL     1      -3.621  -2.453  -0.054  0.00  0.00    +0.125 C 
ATOM     27  C   UNL     1      -4.176  -0.057   0.000  0.00  0.00    +0.125 C 
ATOM     28  C   UNL     1      -4.489  -2.632   1.184  0.00  0.00    +0.164 C 
ATOM     29  C   UNL     1      -5.026  -0.337   1.233  0.00  0.00    +0.164 C 
ATOM     30  C   UNL     1      -1.796  -0.830  -0.450  0.00  0.00    +0.205 C 
ENDBRANCH  22  30
ENDBRANCH  19  22
ENDBRANCH  18  19
ENDBRANCH   2  18
TORSDOF 6
