REMARK  Name = 739358
REMARK  0 active torsions:
REMARK  status: ('A' for Active; 'I' for Inactive)
REMARK                            x       y       z     vdW  Elec       q    Type
REMARK                         _______ _______ _______ _____ _____    ______ ____
ROOT
ATOM      1  S   UNL     1       0.276  -1.709   0.004  0.00  0.00    -0.052 S 
ATOM      2  O   UNL     1      -2.592  -2.403  -0.219  0.00  0.00    -0.274 OA
ATOM      3  O   UNL     1       3.773   1.401   0.012  0.00  0.00    -0.275 OA
ATOM      4  N   UNL     1      -3.504  -0.386   0.173  0.00  0.00    -0.303 N 
ATOM      5  N   UNL     1       0.805   0.800  -0.024  0.00  0.00    -0.388 NA
ATOM      6  N   UNL     1       2.686  -0.698   0.023  0.00  0.00    -0.254 N 
ATOM      7  C   UNL     1      -2.791   1.900  -0.437  0.00  0.00    +0.028 C 
ATOM      8  C   UNL     1      -1.320   1.984  -0.069  0.00  0.00    +0.058 C 
ATOM      9  C   UNL     1      -3.555   1.018   0.534  0.00  0.00    +0.090 C 
ATOM     10  C   UNL     1      -0.583   0.687  -0.041  0.00  0.00    +0.108 C 
ATOM     11  C   UNL     1      -1.067  -0.616  -0.017  0.00  0.00    +0.179 C 
ATOM     12  C   UNL     1      -2.401  -1.197  -0.029  0.00  0.00    +0.239 C 
ATOM     13  C   UNL     1       1.352  -0.389  -0.001  0.00  0.00    +0.213 C 
ATOM     14  C   UNL     1       3.803   0.175   0.029  0.00  0.00    +0.229 C 
ATOM     15  C   UNL     1       5.117  -0.566   0.062  0.00  0.00    +0.095 C 
ATOM     16  H   UNL     1      -4.378  -0.824   0.054  0.00  0.00    +0.149 HD
ATOM     17  H   UNL     1       2.899  -1.659   0.039  0.00  0.00    +0.158 HD
ENDROOT
TORSDOF 0
