REMARK  Name = 24779675
REMARK  4 active torsions:
REMARK  status: ('A' for Active; 'I' for Inactive)
REMARK    1  A    between atoms: N_1  and  C_22
REMARK    2  A    between atoms: N_5  and  C_14
REMARK    3  A    between atoms: C_10  and  C_21
REMARK    4  A    between atoms: C_22  and  C_23
REMARK                            x       y       z     vdW  Elec       q    Type
REMARK                         _______ _______ _______ _____ _____    ______ ____
ROOT
ATOM      1  N   UNL     1       1.541  -0.330  -0.216  0.00  0.00    -0.259 N 
ATOM      2  N   UNL     1       0.496   1.711  -0.068  0.00  0.00    -0.314 NA
ATOM      3  N   UNL     1      -0.794  -0.299  -0.083  0.00  0.00    -0.295 NA
ATOM      4  N   UNL     1      -1.853   1.725   0.066  0.00  0.00    -0.123 N 
ATOM      5  N   UNL     1      -3.160  -0.242   0.054  0.00  0.00    -0.274 N 
ATOM      6  N   UNL     1      -2.934   2.519   0.162  0.00  0.00    -0.170 NA
ATOM      7  C   UNL     1       0.410   0.400  -0.120  0.00  0.00    +0.203 C 
ATOM      8  C   UNL     1      -0.666   2.397   0.029  0.00  0.00    +0.219 C 
ATOM      9  C   UNL     1      -1.923   0.342   0.009  0.00  0.00    +0.279 C 
ATOM     10  C   UNL     1      -0.996   3.731   0.108  0.00  0.00    +0.203 C 
ATOM     11  C   UNL     1      -2.403   3.745   0.188  0.00  0.00    +0.116 C 
ATOM     12  H   UNL     1       1.463  -1.310  -0.254  0.00  0.00    +0.160 HD
ATOM     13  H   UNL     1      -3.931   0.366   0.124  0.00  0.00    +0.156 HD
ENDROOT
BRANCH   5  14
ATOM     14  C   UNL     1      -3.444  -1.608   0.011  0.00  0.00    +0.051 C 
ATOM     15  C   UNL     1      -4.642  -2.054  -0.548  0.00  0.00    +0.015 C 
ATOM     16  C   UNL     1      -2.530  -2.527   0.527  0.00  0.00    +0.015 C 
ATOM     17  C   UNL     1      -4.927  -3.419  -0.590  0.00  0.00    +0.001 C 
ATOM     18  C   UNL     1      -2.815  -3.892   0.484  0.00  0.00    +0.001 C 
ATOM     19  C   UNL     1      -4.013  -4.338  -0.074  0.00  0.00    +0.000 C 
ENDBRANCH   5  14
BRANCH  10  21
ATOM     20  N   UNL     1       0.637   5.730   0.106  0.00  0.00    -0.195 NA
ATOM     21  C   UNL     1      -0.097   4.831   0.106  0.00  0.00    +0.087 C 
ENDBRANCH  10  21
BRANCH   1  22
ATOM     22  C   UNL     1       2.855   0.255  -0.265  0.00  0.00    +0.099 C 
BRANCH  22  23
ATOM     23  C   UNL     1       3.906  -0.849  -0.365  0.00  0.00    +0.020 C 
ATOM     24  C   UNL     1       5.233  -0.287  -0.893  0.00  0.00    +0.002 C 
ATOM     25  C   UNL     1       4.105  -1.533   0.994  0.00  0.00    +0.002 C 
ATOM     26  C   UNL     1       6.317  -1.361  -0.952  0.00  0.00    +0.000 C 
ATOM     27  C   UNL     1       5.191  -2.605   0.932  0.00  0.00    +0.000 C 
ATOM     28  C   UNL     1       6.506  -2.045   0.398  0.00  0.00    +0.000 C 
ENDBRANCH  22  23
ENDBRANCH   1  22
TORSDOF 4
