REMARK  Name = 9528
REMARK  4 active torsions:
REMARK  status: ('A' for Active; 'I' for Inactive)
REMARK    1  A    between atoms: O_1  and  C_2
REMARK    2  A    between atoms: O_1  and  C_7
REMARK    3  A    between atoms: C_2  and  C_6
REMARK    4  A    between atoms: C_7  and  C_11
REMARK                            x       y       z     vdW  Elec       q    Type
REMARK                         _______ _______ _______ _____ _____    ______ ____
ROOT
ATOM      1  O   UNL     1       0.001  -0.089   0.000  0.00  0.00    -0.337 OA
ENDROOT
BRANCH   1   2
ATOM      2  C   UNL     1       1.175  -0.887  -0.007  0.00  0.00    +0.246 C 
BRANCH   2   6
ATOM      3  F   UNL     1       2.382   0.822  -1.080  0.00  0.00    -0.167 F 
ATOM      4  F   UNL     1       3.527  -0.702  -0.019  0.00  0.00    -0.167 F 
ATOM      5  F   UNL     1       2.400   0.798   1.101  0.00  0.00    -0.167 F 
ATOM      6  C   UNL     1       2.382   0.013   0.003  0.00  0.00    +0.425 C 
ENDBRANCH   2   6
ENDBRANCH   1   2
BRANCH   1   7
ATOM      7  C   UNL     1      -1.175  -0.888   0.007  0.00  0.00    +0.246 C 
BRANCH   7  11
ATOM      8  F   UNL     1      -2.381   0.822   1.080  0.00  0.00    -0.167 F 
ATOM      9  F   UNL     1      -3.527  -0.701   0.019  0.00  0.00    -0.167 F 
ATOM     10  F   UNL     1      -2.399   0.798  -1.101  0.00  0.00    -0.167 F 
ATOM     11  C   UNL     1      -2.383   0.013  -0.003  0.00  0.00    +0.425 C 
ENDBRANCH   7  11
ENDBRANCH   1   7
TORSDOF 4
