REMARK  Name = 25011727
REMARK  13 active torsions:
REMARK  status: ('A' for Active; 'I' for Inactive)
REMARK    1  A    between atoms: C_1  and  C_4
REMARK    2  A    between atoms: C_1  and  C_16
REMARK    3  A    between atoms: C_1  and  O_27
REMARK    4  A    between atoms: N_3  and  C_6
REMARK    5  A    between atoms: C_6  and  C_7
REMARK    6  A    between atoms: C_7  and  C_10
REMARK    7  A    between atoms: N_9  and  C_12
REMARK    8  A    between atoms: C_12  and  C_13
REMARK    9  A    between atoms: C_13  and  S_14
REMARK   10  A    between atoms: C_16  and  C_19
REMARK   11  A    between atoms: C_19  and  O_20
REMARK   12  A    between atoms: O_20  and  C_22
REMARK   13  A    between atoms: C_22  and  C_23
REMARK                            x       y       z     vdW  Elec       q    Type
REMARK                         _______ _______ _______ _____ _____    ______ ____
ROOT
ATOM      1  C   UNL     1       2.275   1.767   0.141  0.00  0.00    +0.190 C 
ENDROOT
BRANCH   1   4
ATOM      2  O   UNL     1       0.673   3.484   0.722  0.00  0.00    -0.272 OA
ATOM      3  N   UNL     1       0.424   1.377   1.662  0.00  0.00    -0.302 N 
ATOM      4  C   UNL     1       1.051   2.322   0.867  0.00  0.00    +0.249 C 
ATOM      5  H   UNL     1       0.809   0.472   1.708  0.00  0.00    +0.150 HD
BRANCH   3   6
ATOM      6  C   UNL     1      -0.769   1.658   2.426  0.00  0.00    +0.099 C 
BRANCH   6   7
ATOM      7  C   UNL     1      -1.935   0.766   2.022  0.00  0.00    +0.106 C 
BRANCH   7  10
ATOM      8  O   UNL     1      -2.235   1.987  -0.050  0.00  0.00    -0.275 OA
ATOM      9  N   UNL     1      -2.875  -0.244   0.051  0.00  0.00    -0.303 N 
ATOM     10  C   UNL     1      -2.349   0.932   0.568  0.00  0.00    +0.224 C 
ATOM     11  H   UNL     1      -2.921  -1.035   0.634  0.00  0.00    +0.149 HD
BRANCH   9  12
ATOM     12  C   UNL     1      -3.356  -0.355  -1.306  0.00  0.00    +0.101 C 
BRANCH  12  13
ATOM     13  C   UNL     1      -4.834  -0.015  -1.444  0.00  0.00    +0.075 C 
BRANCH  13  14
ATOM     14  S   UNL     1      -5.890  -1.135  -0.475  0.00  0.00    -0.166 S 
ATOM     15  H   UNL     1      -7.194  -0.782  -0.638  0.00  0.00    +0.102 HD
ENDBRANCH  13  14
ENDBRANCH  12  13
ENDBRANCH   9  12
ENDBRANCH   7  10
ENDBRANCH   6   7
ENDBRANCH   3   6
ENDBRANCH   1   4
BRANCH   1  16
ATOM     16  C   UNL     1       1.977   1.209  -1.282  0.00  0.00    +0.074 C 
ATOM     17  C   UNL     1       3.312   0.757  -1.923  0.00  0.00    +0.007 C 
ATOM     18  C   UNL     1       1.374   2.300  -2.189  0.00  0.00    +0.007 C 
BRANCH  16  19
ATOM     19  C   UNL     1       1.019  -0.006  -1.217  0.00  0.00    +0.211 C 
BRANCH  19  20
ATOM     20  O   UNL     1       1.582  -1.061  -0.445  0.00  0.00    -0.448 OA
BRANCH  20  22
ATOM     21  O   UNL     1      -0.293  -2.339  -0.821  0.00  0.00    -0.250 OA
ATOM     22  C   UNL     1       0.815  -2.190  -0.322  0.00  0.00    +0.316 C 
BRANCH  22  23
ATOM     23  C   UNL     1       1.532  -3.244   0.529  0.00  0.00    +0.090 C 
ATOM     24  C   UNL     1       2.848  -3.643  -0.151  0.00  0.00    +0.011 C 
ATOM     25  C   UNL     1       0.640  -4.489   0.661  0.00  0.00    +0.011 C 
ATOM     26  C   UNL     1       1.803  -2.675   1.928  0.00  0.00    +0.011 C 
ENDBRANCH  22  23
ENDBRANCH  20  22
ENDBRANCH  19  20
ENDBRANCH  16  19
ENDBRANCH   1  16
BRANCH   1  27
ATOM     27  O   UNL     1       3.211   2.838   0.050  0.00  0.00    -0.376 OA
ATOM     28  H   UNL     1       4.010   2.531  -0.406  0.00  0.00    +0.211 HD
ENDBRANCH   1  27
TORSDOF 13
