REMARK  Name = 11955614
REMARK  4 active torsions:
REMARK  status: ('A' for Active; 'I' for Inactive)
REMARK    1  A    between atoms: C_4  and  O_20
REMARK    2  A    between atoms: C_14  and  O_16
REMARK    3  A    between atoms: C_15  and  O_18
REMARK    4  A    between atoms: O_20  and  C_23
REMARK                            x       y       z     vdW  Elec       q    Type
REMARK                         _______ _______ _______ _____ _____    ______ ____
ROOT
ATOM      1  N   UNL     1      -1.097  -2.221  -0.350  0.00  0.00    -0.290 N 
ATOM      2  N   UNL     1      -2.892  -2.871   0.967  0.00  0.00    -0.230 NA
ATOM      3  N   UNL     1      -4.564  -1.263   1.618  0.00  0.00    -0.248 NA
ATOM      4  C   UNL     1       1.185  -2.340  -0.929  0.00  0.00    +0.190 C 
ATOM      5  C   UNL     1       0.386  -3.208  -1.888  0.00  0.00    +0.067 C 
ATOM      6  C   UNL     1       0.235  -2.148   0.254  0.00  0.00    +0.136 C 
ATOM      7  C   UNL     1      -1.041  -2.682  -1.734  0.00  0.00    +0.096 C 
ATOM      8  C   UNL     1      -2.262  -1.883   0.306  0.00  0.00    +0.130 C 
ATOM      9  C   UNL     1      -2.718  -0.568   0.254  0.00  0.00    +0.048 C 
ATOM     10  C   UNL     1      -3.910  -0.299   0.947  0.00  0.00    +0.066 C 
ATOM     11  C   UNL     1      -2.042   0.447  -0.444  0.00  0.00    +0.044 C 
ATOM     12  C   UNL     1      -4.397   1.005   0.918  0.00  0.00    +0.112 C 
ATOM     13  C   UNL     1      -4.021  -2.496   1.591  0.00  0.00    +0.252 C 
ATOM     14  C   UNL     1      -2.552   1.742  -0.456  0.00  0.00    +0.169 C 
ATOM     15  C   UNL     1      -3.731   2.021   0.227  0.00  0.00    +0.156 C 
ENDROOT
BRANCH  14  16
ATOM     16  O   UNL     1      -1.892   2.721  -1.133  0.00  0.00    -0.469 OA
ATOM     17  C   UNL     1      -0.908   3.460  -0.410  0.00  0.00    +0.253 C 
ENDBRANCH  14  16
BRANCH  15  18
ATOM     18  O   UNL     1      -4.248   3.281   0.230  0.00  0.00    -0.472 OA
ATOM     19  C   UNL     1      -5.162   3.610  -0.814  0.00  0.00    +0.252 C 
ENDBRANCH  15  18
BRANCH   4  20
ATOM     20  O   UNL     1       1.457  -1.075  -1.521  0.00  0.00    -0.455 OA
BRANCH  20  23
ATOM     21  N   UNL     1       2.947  -0.615   0.199  0.00  0.00    -0.368 NA
ATOM     22  N   UNL     1       4.349   1.089  -1.488  0.00  0.00    -0.257 NA
ATOM     23  C   UNL     1       2.568  -0.411  -1.073  0.00  0.00    +0.278 C 
ATOM     24  C   UNL     1       3.255   0.427  -1.907  0.00  0.00    +0.224 C 
ATOM     25  C   UNL     1       4.038   0.037   0.636  0.00  0.00    +0.152 C 
ATOM     26  C   UNL     1       4.748   0.901  -0.218  0.00  0.00    +0.106 C 
ATOM     27  C   UNL     1       4.480  -0.134   1.946  0.00  0.00    +0.034 C 
ATOM     28  C   UNL     1       5.874   1.560   0.269  0.00  0.00    +0.021 C 
ATOM     29  C   UNL     1       5.608   0.531   2.423  0.00  0.00    +0.003 C 
ATOM     30  C   UNL     1       6.308   1.382   1.581  0.00  0.00    +0.002 C 
ENDBRANCH  20  23
ENDBRANCH   4  20
TORSDOF 4
