REMARK  Name = 446981
REMARK  9 active torsions:
REMARK  status: ('A' for Active; 'I' for Inactive)
REMARK    1  A    between atoms: O_1  and  C_3
REMARK    2  A    between atoms: O_1  and  P_12
REMARK    3  A    between atoms: C_2  and  C_9
REMARK    4  A    between atoms: P_12  and  O_14
REMARK    5  A    between atoms: P_12  and  C_16
REMARK    6  A    between atoms: C_16  and  C_17
REMARK    7  A    between atoms: C_17  and  C_18
REMARK    8  A    between atoms: C_18  and  C_19
REMARK    9  A    between atoms: C_19  and  C_20
REMARK                            x       y       z     vdW  Elec       q    Type
REMARK                         _______ _______ _______ _____ _____    ______ ____
ROOT
ATOM      1  O   UNL     1       0.985   0.410  -1.328  0.00  0.00    -0.297 OA
ENDROOT
BRANCH   1   3
ATOM      2  C   UNL     1       2.983   0.719   0.000  0.00  0.00    +0.028 C 
ATOM      3  C   UNL     1       1.650  -0.034  -0.147  0.00  0.00    +0.124 C 
ATOM      4  C   UNL     1       3.790   0.173   1.185  0.00  0.00    +0.002 C 
ATOM      5  C   UNL     1       2.668  -2.085   0.947  0.00  0.00    +0.002 C 
ATOM      6  C   UNL     1       1.865  -1.546  -0.241  0.00  0.00    +0.030 C 
ATOM      7  C   UNL     1       3.999  -1.337   1.082  0.00  0.00    +0.000 C 
ATOM      8  C   UNL     1       2.905  -3.587   0.803  0.00  0.00    +0.000 C 
BRANCH   2   9
ATOM      9  C   UNL     1       2.759   2.225   0.159  0.00  0.00    +0.002 C 
ATOM     10  C   UNL     1       1.961   2.514   1.427  0.00  0.00    +0.000 C 
ATOM     11  C   UNL     1       4.094   2.962   0.180  0.00  0.00    +0.000 C 
ENDBRANCH   2   9
ENDBRANCH   1   3
BRANCH   1  12
ATOM     12  P   UNL     1      -0.468  -0.167  -1.721  0.00  0.00    +0.340 P 
ATOM     13  O   UNL     1      -0.474  -1.629  -2.059  0.00  0.00    -0.258 OA
BRANCH  12  14
ATOM     14  O   UNL     1      -0.971   0.790  -2.924  0.00  0.00    -0.323 OA
ATOM     15  H   UNL     1      -0.435   0.624  -3.715  0.00  0.00    +0.220 HD
ENDBRANCH  12  14
BRANCH  12  16
ATOM     16  C   UNL     1      -1.542   0.259  -0.365  0.00  0.00    +0.116 C 
BRANCH  16  17
ATOM     17  C   UNL     1      -3.006  -0.080  -0.615  0.00  0.00    +0.013 C 
BRANCH  17  18
ATOM     18  C   UNL     1      -3.888   0.245   0.592  0.00  0.00    +0.001 C 
BRANCH  18  19
ATOM     19  C   UNL     1      -5.356  -0.082   0.309  0.00  0.00    +0.000 C 
BRANCH  19  20
ATOM     20  C   UNL     1      -6.244   0.272   1.502  0.00  0.00    +0.000 C 
ATOM     21  C   UNL     1      -7.708  -0.020   1.213  0.00  0.00    +0.000 C 
ENDBRANCH  19  20
ENDBRANCH  18  19
ENDBRANCH  17  18
ENDBRANCH  16  17
ENDBRANCH  12  16
ENDBRANCH   1  12
TORSDOF 9
