REMARK  Name = 9543420
REMARK  9 active torsions:
REMARK  status: ('A' for Active; 'I' for Inactive)
REMARK    1  A    between atoms: N_1  and  P_2
REMARK    2  A    between atoms: N_1  and  C_11
REMARK    3  A    between atoms: N_1  and  C_22
REMARK    4  A    between atoms: P_2  and  C_5
REMARK    5  A    between atoms: C_11  and  C_14
REMARK    6  A    between atoms: C_11  and  C_18
REMARK    7  A    between atoms: N_13  and  O_16
REMARK    8  A    between atoms: C_18  and  C_19
REMARK    9  A    between atoms: C_22  and  C_23
REMARK                            x       y       z     vdW  Elec       q    Type
REMARK                         _______ _______ _______ _____ _____    ______ ____
ROOT
ATOM      1  N   UNL     1      -0.315  -0.372  -0.314  0.00  0.00    -0.217 NA
ENDROOT
BRANCH   1   2
ATOM      2  P   UNL     1      -0.470   1.172   0.326  0.00  0.00    +0.192 P 
ATOM      3  O   UNL     1      -1.794   1.837   0.028  0.00  0.00    -0.299 OA
ATOM      4  C   UNL     1      -0.331   0.971   2.122  0.00  0.00    +0.088 C 
BRANCH   2   5
ATOM      5  C   UNL     1       0.963   2.102  -0.168  0.00  0.00    +0.043 C 
ATOM      6  C   UNL     1       1.532   3.008   0.717  0.00  0.00    +0.004 C 
ATOM      7  C   UNL     1       1.499   1.911  -1.435  0.00  0.00    +0.004 C 
ATOM      8  C   UNL     1       2.656   3.736   0.329  0.00  0.00    +0.000 C 
ATOM      9  C   UNL     1       2.624   2.639  -1.823  0.00  0.00    +0.000 C 
ATOM     10  C   UNL     1       3.202   3.552  -0.941  0.00  0.00    +0.000 C 
ENDBRANCH   2   5
ENDBRANCH   1   2
BRANCH   1  11
ATOM     11  C   UNL     1       0.958  -1.065  -0.125  0.00  0.00    +0.142 C 
BRANCH  11  14
ATOM     12  O   UNL     1       0.155  -2.301   1.798  0.00  0.00    -0.272 OA
ATOM     13  N   UNL     1       1.994  -0.929   2.050  0.00  0.00    -0.196 N 
ATOM     14  C   UNL     1       0.977  -1.514   1.333  0.00  0.00    +0.259 C 
ATOM     15  H   UNL     1       2.632  -0.303   1.637  0.00  0.00    +0.182 HD
BRANCH  13  16
ATOM     16  O   UNL     1       2.066  -1.282   3.404  0.00  0.00    -0.295 OA
ATOM     17  H   UNL     1       2.812  -0.820   3.819  0.00  0.00    +0.241 HD
ENDBRANCH  13  16
ENDBRANCH  11  14
BRANCH  11  18
ATOM     18  C   UNL     1       1.113  -2.266  -1.074  0.00  0.00    +0.026 C 
BRANCH  18  19
ATOM     19  C   UNL     1       2.442  -3.041  -0.959  0.00  0.00    +0.002 C 
ATOM     20  C   UNL     1       2.521  -4.216  -1.933  0.00  0.00    +0.000 C 
ATOM     21  C   UNL     1       3.617  -2.088  -1.203  0.00  0.00    +0.000 C 
ENDBRANCH  18  19
ENDBRANCH  11  18
ENDBRANCH   1  11
BRANCH   1  22
ATOM     22  C   UNL     1      -1.405  -1.313  -0.022  0.00  0.00    +0.106 C 
BRANCH  22  23
ATOM     23  C   UNL     1      -2.758  -0.676  -0.194  0.00  0.00    -0.006 C 
ATOM     24  C   UNL     1      -3.357  -0.044   0.887  0.00  0.00    -0.003 C 
ATOM     25  C   UNL     1      -3.387  -0.729  -1.430  0.00  0.00    -0.003 C 
ATOM     26  C   UNL     1      -4.611   0.547   0.728  0.00  0.00    -0.000 C 
ATOM     27  C   UNL     1      -4.640  -0.139  -1.589  0.00  0.00    -0.000 C 
ATOM     28  C   UNL     1      -5.252   0.500  -0.510  0.00  0.00    -0.000 C 
ENDBRANCH  22  23
ENDBRANCH   1  22
TORSDOF 9
