REMARK  Name = 16122582
REMARK  7 active torsions:
REMARK  status: ('A' for Active; 'I' for Inactive)
REMARK    1  A    between atoms: C_1  and  C_13
REMARK    2  A    between atoms: C_2  and  S_7
REMARK    3  A    between atoms: S_7  and  N_10
REMARK    4  A    between atoms: C_13  and  C_14
REMARK    5  A    between atoms: C_14  and  C_16
REMARK    6  A    between atoms: C_16  and  O_17
REMARK    7  A    between atoms: O_17  and  C_18
REMARK                            x       y       z     vdW  Elec       q    Type
REMARK                         _______ _______ _______ _____ _____    ______ ____
ROOT
ATOM      1  C   UNL     1       0.167  -0.794  -0.021  0.00  0.00    -0.022 C 
ATOM      2  C   UNL     1       2.838  -0.044  -0.003  0.00  0.00    +0.122 C 
ATOM      3  C   UNL     1       0.819  -0.568  -1.224  0.00  0.00    -0.003 C 
ATOM      4  C   UNL     1       0.827  -0.652   1.190  0.00  0.00    -0.003 C 
ATOM      5  C   UNL     1       2.162  -0.191  -1.215  0.00  0.00    +0.020 C 
ATOM      6  C   UNL     1       2.170  -0.275   1.199  0.00  0.00    +0.020 C 
ENDROOT
BRANCH   2   7
ATOM      7  S   UNL     1       4.518   0.428   0.008  0.00  0.00    +0.057 S 
ATOM      8  O   UNL     1       5.118  -0.038   1.251  0.00  0.00    -0.153 OA
ATOM      9  O   UNL     1       5.113   0.052  -1.267  0.00  0.00    -0.153 OA
BRANCH   7  10
ATOM     10  N   UNL     1       4.379   2.130   0.068  0.00  0.00    -0.203 NA
ATOM     11  H   UNL     1       5.309   2.547   0.079  0.00  0.00    +0.144 HD
ATOM     12  H   UNL     1       3.874   2.400   0.912  0.00  0.00    +0.144 HD
ENDBRANCH   7  10
ENDBRANCH   2   7
BRANCH   1  13
ATOM     13  C   UNL     1      -1.284  -1.203  -0.031  0.00  0.00    +0.038 C 
BRANCH  13  14
ATOM     14  C   UNL     1      -2.213   0.009   0.015  0.00  0.00    +0.114 C 
BRANCH  14  16
ATOM     15  O   UNL     1      -4.082  -1.547  -0.019  0.00  0.00    -0.250 OA
ATOM     16  C   UNL     1      -3.670  -0.396   0.001  0.00  0.00    +0.317 C 
BRANCH  16  17
ATOM     17  O   UNL     1      -4.442   0.731   0.016  0.00  0.00    -0.448 OA
BRANCH  17  18
ATOM     18  C   UNL     1      -5.856   0.510   0.007  0.00  0.00    +0.209 C 
ATOM     19  C   UNL     1      -6.565   1.847   0.025  0.00  0.00    +0.051 C 
ENDBRANCH  17  18
ENDBRANCH  16  17
ENDBRANCH  14  16
ENDBRANCH  13  14
ENDBRANCH   1  13
TORSDOF 7
