REMARK  Name = 5610
REMARK  4 active torsions:
REMARK  status: ('A' for Active; 'I' for Inactive)
REMARK    1  A    between atoms: C_1  and  C_9
REMARK    2  A    between atoms: C_6  and  O_7
REMARK    3  A    between atoms: C_9  and  C_10
REMARK    4  A    between atoms: C_10  and  N_11
REMARK                            x       y       z     vdW  Elec       q    Type
REMARK                         _______ _______ _______ _____ _____    ______ ____
ROOT
ATOM      1  C   UNL     1       0.480  -0.004  -0.377  0.00  0.00    -0.024 C 
ATOM      2  C   UNL     1      -0.208  -1.210  -0.244  0.00  0.00    -0.001 C 
ATOM      3  C   UNL     1      -0.203   1.206  -0.249  0.00  0.00    -0.001 C 
ATOM      4  C   UNL     1      -1.579  -1.207   0.015  0.00  0.00    +0.036 C 
ATOM      5  C   UNL     1      -1.573   1.209   0.011  0.00  0.00    +0.036 C 
ATOM      6  C   UNL     1      -2.261   0.003   0.143  0.00  0.00    +0.134 C 
ENDROOT
BRANCH   6   7
ATOM      7  O   UNL     1      -3.599   0.006   0.397  0.00  0.00    -0.506 OA
ATOM      8  H   UNL     1      -4.060  -0.804   0.485  0.00  0.00    +0.292 HD
ENDBRANCH   6   7
BRANCH   1   9
ATOM      9  C   UNL     1       1.945  -0.009  -0.655  0.00  0.00    +0.002 C 
BRANCH   9  10
ATOM     10  C   UNL     1       2.785  -0.008   0.629  0.00  0.00    -0.081 C 
BRANCH  10  11
ATOM     11  N   UNL     1       4.213   0.014   0.331  0.00  0.00    +0.381 N 
ATOM     12  H   UNL     1       4.743   0.014   1.202  0.00  0.00    -0.089 HD
ATOM     13  H   UNL     1       4.436   0.854  -0.203  0.00  0.00    -0.089 HD
ATOM     14  H   UNL     1       4.459  -0.811  -0.217  0.00  0.00    -0.089 HD
ENDBRANCH  10  11
ENDBRANCH   9  10
ENDBRANCH   1   9
TORSDOF 4
