REMARK  Name = 24905152
REMARK  2 active torsions:
REMARK  status: ('A' for Active; 'I' for Inactive)
REMARK    1  A    between atoms: N_1  and  C_23
REMARK    2  A    between atoms: C_7  and  C_11
REMARK                            x       y       z     vdW  Elec       q    Type
REMARK                         _______ _______ _______ _____ _____    ______ ____
ROOT
ATOM      1  N   UNL     1       2.646   1.038  -0.048  0.00  0.00    -0.200 N 
ATOM      2  N   UNL     1       1.362   1.400   0.128  0.00  0.00    -0.181 NA
ATOM      3  N   UNL     1       3.990  -0.963  -0.282  0.00  0.00    -0.232 NA
ATOM      4  N   UNL     1       2.626  -2.983  -0.171  0.00  0.00    -0.234 NA
ATOM      5  C   UNL     1       1.571  -0.874   0.030  0.00  0.00    +0.150 C 
ATOM      6  C   UNL     1       2.828  -0.312  -0.113  0.00  0.00    +0.137 C 
ATOM      7  C   UNL     1       0.712   0.232   0.174  0.00  0.00    +0.086 C 
ATOM      8  C   UNL     1       1.491  -2.262  -0.003  0.00  0.00    +0.112 C 
ATOM      9  C   UNL     1       3.788  -2.299  -0.298  0.00  0.00    +0.252 C 
ATOM     10  N   UNL     1       0.259  -2.926   0.132  0.00  0.00    -0.346 N 
ATOM     11  H   UNL     1       0.225  -3.910   0.106  0.00  0.00    +0.143 HD
ATOM     12  H   UNL     1      -0.569  -2.408   0.253  0.00  0.00    +0.143 HD
ENDROOT
BRANCH   7  14
ATOM     13  N   UNL     1      -4.841   0.166   0.922  0.00  0.00    -0.248 NA
ATOM     14  C   UNL     1      -0.711   0.214   0.356  0.00  0.00    -0.006 C 
ATOM     15  C   UNL     1      -1.559   0.244  -0.748  0.00  0.00    +0.055 C 
ATOM     16  C   UNL     1      -1.253   0.169   1.635  0.00  0.00    -0.022 C 
ATOM     17  C   UNL     1      -2.953   0.229  -0.575  0.00  0.00    -0.004 C 
ATOM     18  C   UNL     1      -3.510   0.182   0.720  0.00  0.00    +0.060 C 
ATOM     19  C   UNL     1      -2.639   0.153   1.806  0.00  0.00    +0.071 C 
ATOM     20  C   UNL     1      -3.829   0.258  -1.669  0.00  0.00    -0.001 C 
ATOM     21  C   UNL     1      -5.201   0.241  -1.464  0.00  0.00    +0.020 C 
ATOM     22  C   UNL     1      -5.652   0.196  -0.161  0.00  0.00    +0.098 C 
ENDBRANCH   7  14
BRANCH   1  23
ATOM     23  C   UNL     1       3.666   2.055  -0.147  0.00  0.00    +0.098 C 
ATOM     24  C   UNL     1       3.763   2.881   1.138  0.00  0.00    +0.024 C 
ATOM     25  C   UNL     1       3.443   2.959  -1.361  0.00  0.00    +0.024 C 
ENDBRANCH   1  23
TORSDOF 2
