REMARK  Name = 3547
REMARK  2 active torsions:
REMARK  status: ('A' for Active; 'I' for Inactive)
REMARK    1  A    between atoms: S_1  and  C_5
REMARK    2  A    between atoms: S_1  and  N_14
REMARK                            x       y       z     vdW  Elec       q    Type
REMARK                         _______ _______ _______ _____ _____    ______ ____
ROOT
ATOM      1  S   UNL     1       0.460   1.194   0.303  0.00  0.00    +0.063 S 
ATOM      2  O   UNL     1       0.193   1.926  -0.918  0.00  0.00    -0.153 OA
ATOM      3  O   UNL     1       0.344   1.811   1.607  0.00  0.00    -0.153 OA
ENDROOT
BRANCH   1   5
ATOM      4  N   UNL     1      -4.819   0.538  -0.574  0.00  0.00    -0.242 NA
ATOM      5  C   UNL     1      -0.767  -0.108   0.332  0.00  0.00    +0.122 C 
ATOM      6  C   UNL     1      -2.097   0.141   0.028  0.00  0.00    +0.022 C 
ATOM      7  C   UNL     1      -0.298  -1.361   0.677  0.00  0.00    +0.020 C 
ATOM      8  C   UNL     1      -3.001  -0.941   0.075  0.00  0.00    +0.020 C 
ATOM      9  C   UNL     1      -1.194  -2.427   0.723  0.00  0.00    +0.001 C 
ATOM     10  C   UNL     1      -2.576   1.409  -0.322  0.00  0.00    +0.022 C 
ATOM     11  C   UNL     1      -2.540  -2.221   0.424  0.00  0.00    +0.002 C 
ATOM     12  C   UNL     1      -4.337  -0.678  -0.233  0.00  0.00    +0.099 C 
ATOM     13  C   UNL     1      -3.925   1.550  -0.609  0.00  0.00    +0.099 C 
ENDBRANCH   1   5
BRANCH   1  14
ATOM     14  N   UNL     1       2.001   0.447   0.167  0.00  0.00    -0.158 NA
ATOM     15  N   UNL     1       5.069   0.054  -0.377  0.00  0.00    +0.385 N 
ATOM     16  C   UNL     1       2.196  -0.389  -1.056  0.00  0.00    +0.094 C 
ATOM     17  C   UNL     1       3.156   1.331   0.496  0.00  0.00    +0.073 C 
ATOM     18  C   UNL     1       3.113  -1.561  -0.728  0.00  0.00    -0.004 C 
ATOM     19  C   UNL     1       4.415   0.535   0.833  0.00  0.00    -0.062 C 
ATOM     20  C   UNL     1       4.607  -1.248  -0.849  0.00  0.00    -0.080 C 
ATOM     21  H   UNL     1       6.070  -0.014  -0.190  0.00  0.00    -0.084 HD
ATOM     22  H   UNL     1       4.840   0.723  -1.111  0.00  0.00    -0.084 HD
ENDBRANCH   1  14
TORSDOF 2
