REMARK  Name = 3161908
REMARK  6 active torsions:
REMARK  status: ('A' for Active; 'I' for Inactive)
REMARK    1  A    between atoms: C_1  and  C_13
REMARK    2  A    between atoms: C_2  and  S_7
REMARK    3  A    between atoms: S_7  and  N_10
REMARK    4  A    between atoms: C_13  and  C_14
REMARK    5  A    between atoms: C_14  and  C_16
REMARK    6  A    between atoms: C_16  and  O_17
REMARK                            x       y       z     vdW  Elec       q    Type
REMARK                         _______ _______ _______ _____ _____    ______ ____
ROOT
ATOM      1  C   UNL     1      -0.736   0.023   0.526  0.00  0.00    -0.022 C 
ATOM      2  C   UNL     1       2.023   0.006   0.112  0.00  0.00    +0.122 C 
ATOM      3  C   UNL     1      -0.042  -1.187   0.497  0.00  0.00    -0.003 C 
ATOM      4  C   UNL     1      -0.050   1.224   0.347  0.00  0.00    -0.003 C 
ATOM      5  C   UNL     1       1.337  -1.195   0.291  0.00  0.00    +0.020 C 
ATOM      6  C   UNL     1       1.329   1.216   0.140  0.00  0.00    +0.020 C 
ENDROOT
BRANCH   2   7
ATOM      7  S   UNL     1       3.750  -0.003  -0.146  0.00  0.00    +0.057 S 
ATOM      8  O   UNL     1       4.284   1.287   0.268  0.00  0.00    -0.153 OA
ATOM      9  O   UNL     1       4.295  -1.228   0.422  0.00  0.00    -0.153 OA
BRANCH   7  10
ATOM     10  N   UNL     1       3.823  -0.109  -1.850  0.00  0.00    -0.203 NA
ATOM     11  H   UNL     1       4.799  -0.124  -2.148  0.00  0.00    +0.144 HD
ATOM     12  H   UNL     1       3.355   0.698  -2.261  0.00  0.00    +0.144 HD
ENDBRANCH   7  10
ENDBRANCH   2   7
BRANCH   1  13
ATOM     13  C   UNL     1      -2.211   0.032   0.748  0.00  0.00    +0.038 C 
BRANCH  13  14
ATOM     14  C   UNL     1      -3.030  -0.051  -0.545  0.00  0.00    +0.114 C 
BRANCH  14  16
ATOM     15  O   UNL     1      -4.995   0.102   0.852  0.00  0.00    -0.250 OA
ATOM     16  C   UNL     1      -4.514  -0.002  -0.269  0.00  0.00    +0.314 C 
BRANCH  16  17
ATOM     17  O   UNL     1      -5.263  -0.116  -1.393  0.00  0.00    -0.480 OA
ATOM     18  H   UNL     1      -4.847  -0.193  -2.228  0.00  0.00    +0.295 HD
ENDBRANCH  16  17
ENDBRANCH  14  16
ENDBRANCH  13  14
ENDBRANCH   1  13
TORSDOF 6
