REMARK  Name = 5281701
REMARK  6 active torsions:
REMARK  status: ('A' for Active; 'I' for Inactive)
REMARK    1  A    between atoms: C_4  and  C_12
REMARK    2  A    between atoms: C_8  and  O_24
REMARK    3  A    between atoms: C_10  and  O_26
REMARK    4  A    between atoms: C_15  and  O_18
REMARK    5  A    between atoms: C_16  and  O_20
REMARK    6  A    between atoms: C_17  and  O_22
REMARK                            x       y       z     vdW  Elec       q    Type
REMARK                         _______ _______ _______ _____ _____    ______ ____
ROOT
ATOM      1  O   UNL     1      -0.505  -0.740   0.120  0.00  0.00    -0.453 OA
ATOM      2  O   UNL     1      -2.200   2.918  -0.466  0.00  0.00    -0.286 OA
ATOM      3  C   UNL     1      -2.516   0.607  -0.088  0.00  0.00    +0.107 C 
ATOM      4  C   UNL     1       0.265   0.395  -0.080  0.00  0.00    +0.149 C 
ATOM      5  C   UNL     1      -1.871  -0.613   0.108  0.00  0.00    +0.154 C 
ATOM      6  C   UNL     1      -1.701   1.815  -0.291  0.00  0.00    +0.205 C 
ATOM      7  C   UNL     1      -0.237   1.625  -0.272  0.00  0.00    +0.080 C 
ATOM      8  C   UNL     1      -3.911   0.677  -0.089  0.00  0.00    +0.143 C 
ATOM      9  C   UNL     1      -2.621  -1.773   0.305  0.00  0.00    +0.074 C 
ATOM     10  C   UNL     1      -4.014  -1.708   0.304  0.00  0.00    +0.140 C 
ATOM     11  C   UNL     1      -4.657  -0.485   0.107  0.00  0.00    +0.073 C 
ENDROOT
BRANCH   4  12
ATOM     12  C   UNL     1       1.720   0.146  -0.042  0.00  0.00    +0.041 C 
ATOM     13  C   UNL     1       2.590   1.141   0.413  0.00  0.00    +0.043 C 
ATOM     14  C   UNL     1       2.234  -1.084  -0.458  0.00  0.00    +0.043 C 
ATOM     15  C   UNL     1       3.609  -1.319  -0.420  0.00  0.00    +0.171 C 
ATOM     16  C   UNL     1       3.965   0.906   0.452  0.00  0.00    +0.171 C 
ATOM     17  C   UNL     1       4.474  -0.324   0.035  0.00  0.00    +0.202 C 
BRANCH  15  18
ATOM     18  O   UNL     1       4.094  -2.525  -0.829  0.00  0.00    -0.503 OA
ATOM     19  H   UNL     1       3.505  -3.187  -1.133  0.00  0.00    +0.292 HD
ENDBRANCH  15  18
BRANCH  16  20
ATOM     20  O   UNL     1       4.798   1.887   0.897  0.00  0.00    -0.503 OA
ATOM     21  H   UNL     1       4.447   2.710   1.175  0.00  0.00    +0.292 HD
ENDBRANCH  16  20
BRANCH  17  22
ATOM     22  O   UNL     1       5.817  -0.553   0.073  0.00  0.00    -0.501 OA
ATOM     23  H   UNL     1       6.159  -1.380  -0.207  0.00  0.00    +0.292 HD
ENDBRANCH  17  22
ENDBRANCH   4  12
BRANCH   8  24
ATOM     24  O   UNL     1      -4.586   1.845  -0.276  0.00  0.00    -0.505 OA
ATOM     25  H   UNL     1      -4.114   2.643  -0.411  0.00  0.00    +0.292 HD
ENDBRANCH   8  24
BRANCH  10  26
ATOM     26  O   UNL     1      -4.748  -2.838   0.496  0.00  0.00    -0.505 OA
ATOM     27  H   UNL     1      -4.317  -3.660   0.628  0.00  0.00    +0.292 HD
ENDBRANCH  10  26
TORSDOF 6
