REMARK  Name = 24779677
REMARK  3 active torsions:
REMARK  status: ('A' for Active; 'I' for Inactive)
REMARK    1  A    between atoms: N_1  and  C_27
REMARK    2  A    between atoms: N_6  and  C_19
REMARK    3  A    between atoms: C_15  and  C_26
REMARK                            x       y       z     vdW  Elec       q    Type
REMARK                         _______ _______ _______ _____ _____    ______ ____
ROOT
ATOM      1  N   UNL     1      -4.473   1.052   0.059  0.00  0.00    +0.389 N 
ATOM      2  N   UNL     1      -1.889  -0.086   0.424  0.00  0.00    -0.238 N 
ATOM      3  N   UNL     1      -0.580  -1.963   0.182  0.00  0.00    -0.314 NA
ATOM      4  N   UNL     1       0.421   0.206   0.174  0.00  0.00    -0.295 NA
ATOM      5  N   UNL     1       1.738  -1.651  -0.065  0.00  0.00    -0.123 N 
ATOM      6  N   UNL     1       2.762   0.477  -0.080  0.00  0.00    -0.274 N 
ATOM      7  N   UNL     1       2.912  -2.288  -0.230  0.00  0.00    -0.170 NA
ATOM      8  C   UNL     1      -3.266   1.799  -0.324  0.00  0.00    -0.055 C 
ATOM      9  C   UNL     1      -4.259  -0.392  -0.122  0.00  0.00    -0.055 C 
ATOM     10  C   UNL     1      -2.064   1.361   0.515  0.00  0.00    +0.080 C 
ATOM     11  C   UNL     1      -3.080  -0.878   0.721  0.00  0.00    +0.080 C 
ATOM     12  C   UNL     1      -0.673  -0.653   0.257  0.00  0.00    +0.206 C 
ATOM     13  C   UNL     1       0.658  -2.481   0.016  0.00  0.00    +0.219 C 
ATOM     14  C   UNL     1       1.621  -0.273   0.015  0.00  0.00    +0.279 C 
ATOM     15  C   UNL     1       1.163  -3.755  -0.104  0.00  0.00    +0.203 C 
ATOM     16  C   UNL     1       2.553  -3.575  -0.252  0.00  0.00    +0.116 C 
ATOM     17  H   UNL     1      -4.665   1.230   1.044  0.00  0.00    -0.080 HD
ATOM     18  H   UNL     1       3.605  -0.018  -0.199  0.00  0.00    +0.156 HD
ENDROOT
BRANCH   6  19
ATOM     19  C   UNL     1       2.859   1.868  -0.025  0.00  0.00    +0.051 C 
ATOM     20  C   UNL     1       3.875   2.524  -0.720  0.00  0.00    +0.015 C 
ATOM     21  C   UNL     1       1.939   2.602   0.724  0.00  0.00    +0.015 C 
ATOM     22  C   UNL     1       3.971   3.914  -0.666  0.00  0.00    +0.001 C 
ATOM     23  C   UNL     1       2.035   3.993   0.778  0.00  0.00    +0.001 C 
ATOM     24  C   UNL     1       3.052   4.649   0.083  0.00  0.00    +0.000 C 
ENDBRANCH   6  19
BRANCH  15  26
ATOM     25  N   UNL     1      -0.179  -5.960  -0.060  0.00  0.00    -0.195 NA
ATOM     26  C   UNL     1       0.424  -4.969  -0.080  0.00  0.00    +0.087 C 
ENDBRANCH  15  26
BRANCH   1  27
ATOM     27  C   UNL     1      -5.625   1.502  -0.722  0.00  0.00    -0.077 C 
ATOM     28  C   UNL     1      -5.895   2.980  -0.498  0.00  0.00    -0.025 C 
ENDBRANCH   1  27
TORSDOF 3
