REMARK  Name = 13450
REMARK  3 active torsions:
REMARK  status: ('A' for Active; 'I' for Inactive)
REMARK    1  A    between atoms: N_1  and  C_11
REMARK    2  A    between atoms: N_4  and  C_17
REMARK    3  A    between atoms: C_8  and  S_15
REMARK                            x       y       z     vdW  Elec       q    Type
REMARK                         _______ _______ _______ _____ _____    ______ ____
ROOT
ATOM      1  N   UNL     1       0.740   1.933   0.071  0.00  0.00    -0.261 N 
ATOM      2  N   UNL     1       0.401  -0.388   0.021  0.00  0.00    -0.247 NA
ATOM      3  N   UNL     1      -1.459   1.122   0.161  0.00  0.00    -0.254 NA
ATOM      4  N   UNL     1      -0.002  -2.698  -0.025  0.00  0.00    -0.258 N 
ATOM      5  N   UNL     1      -1.838  -1.246   0.112  0.00  0.00    -0.254 NA
ATOM      6  C   UNL     1      -0.130   0.860   0.085  0.00  0.00    +0.221 C 
ATOM      7  C   UNL     1      -0.504  -1.380   0.039  0.00  0.00    +0.221 C 
ATOM      8  C   UNL     1      -2.243   0.033   0.171  0.00  0.00    +0.191 C 
ATOM      9  H   UNL     1       0.361   2.840   0.116  0.00  0.00    +0.160 HD
ATOM     10  H   UNL     1      -0.641  -3.447  -0.013  0.00  0.00    +0.160 HD
ENDROOT
BRANCH   1  11
ATOM     11  C   UNL     1       2.183   1.792  -0.006  0.00  0.00    +0.065 C 
ATOM     12  C   UNL     1       2.816   3.186   0.004  0.00  0.00    +0.020 C 
ATOM     13  C   UNL     1       2.657   0.985   1.205  0.00  0.00    +0.020 C 
ATOM     14  C   UNL     1       2.539   1.062  -1.304  0.00  0.00    +0.020 C 
ENDBRANCH   1  11
BRANCH   8  15
ATOM     15  S   UNL     1      -3.999   0.311   0.271  0.00  0.00    -0.016 S 
ATOM     16  C   UNL     1      -4.168   1.915  -0.564  0.00  0.00    +0.087 C 
ENDBRANCH   8  15
BRANCH   4  17
ATOM     17  C   UNL     1       1.395  -2.992  -0.105  0.00  0.00    +0.099 C 
ATOM     18  C   UNL     1       1.611  -4.493  -0.137  0.00  0.00    +0.024 C 
ENDBRANCH   4  17
TORSDOF 3
