REMARK  Name = 564920
REMARK  3 active torsions:
REMARK  status: ('A' for Active; 'I' for Inactive)
REMARK    1  A    between atoms: O_1  and  C_2
REMARK    2  A    between atoms: O_1  and  S_8
REMARK    3  A    between atoms: S_8  and  C_11
REMARK                            x       y       z     vdW  Elec       q    Type
REMARK                         _______ _______ _______ _____ _____    ______ ____
ROOT
ATOM      1  O   UNL     1       0.486  -0.794  -0.023  0.00  0.00    -0.357 OA
ENDROOT
BRANCH   1   2
ATOM      2  C   UNL     1      -0.823  -0.423  -0.008  0.00  0.00    +0.172 C 
ATOM      3  C   UNL     1      -1.166   0.929   0.006  0.00  0.00    +0.040 C 
ATOM      4  C   UNL     1      -1.823  -1.396  -0.007  0.00  0.00    +0.040 C 
ATOM      5  C   UNL     1      -2.508   1.308   0.022  0.00  0.00    +0.003 C 
ATOM      6  C   UNL     1      -3.165  -1.017   0.008  0.00  0.00    +0.003 C 
ATOM      7  C   UNL     1      -3.507   0.336   0.023  0.00  0.00    +0.000 C 
ENDBRANCH   1   2
BRANCH   1   8
ATOM      8  S   UNL     1       1.727   0.278  -0.025  0.00  0.00    +0.052 S 
ATOM      9  O   UNL     1       1.742   0.978   1.246  0.00  0.00    -0.057 OA
ATOM     10  O   UNL     1       1.716   1.001  -1.282  0.00  0.00    -0.057 OA
BRANCH   8  11
ATOM     11  C   UNL     1       3.043  -0.845  -0.046  0.00  0.00    +0.139 C 
ATOM     12  C   UNL     1       4.277  -0.354   0.087  0.00  0.00    +0.023 C 
ENDBRANCH   8  11
ENDBRANCH   1   8
TORSDOF 3
