REMARK  Name = 24892821
REMARK  3 active torsions:
REMARK  status: ('A' for Active; 'I' for Inactive)
REMARK    1  A    between atoms: C_1  and  C_3
REMARK    2  A    between atoms: C_1  and  C_14
REMARK    3  A    between atoms: C_19  and  O_20
REMARK                            x       y       z     vdW  Elec       q    Type
REMARK                         _______ _______ _______ _____ _____    ______ ____
ROOT
ATOM      1  C   UNL     1      -0.293   1.327   1.103  0.00  0.00    +0.028 C 
ENDROOT
BRANCH   1   3
ATOM      2  N   UNL     1       3.046   1.681  -0.637  0.00  0.00    -0.244 NA
ATOM      3  C   UNL     1       1.086   1.004   0.599  0.00  0.00    -0.003 C 
ATOM      4  C   UNL     1       1.685  -0.217   0.874  0.00  0.00    -0.001 C 
ATOM      5  C   UNL     1       1.804   1.911  -0.155  0.00  0.00    +0.095 C 
ATOM      6  C   UNL     1       2.971  -0.495   0.394  0.00  0.00    +0.017 C 
ATOM      7  C   UNL     1       3.625   0.495  -0.369  0.00  0.00    +0.081 C 
ATOM      8  C   UNL     1       3.605  -1.722   0.655  0.00  0.00    +0.001 C 
ATOM      9  C   UNL     1       4.903   0.218  -0.846  0.00  0.00    +0.019 C 
ATOM     10  C   UNL     1       4.884  -1.973   0.166  0.00  0.00    +0.000 C 
ATOM     11  C   UNL     1       5.533  -1.002  -0.586  0.00  0.00    +0.002 C 
ENDBRANCH   1   3
BRANCH   1  14
ATOM     12  O   UNL     1      -5.263  -2.129  -0.043  0.00  0.00    -0.226 OA
ATOM     13  N   UNL     1      -3.971  -0.241  -0.465  0.00  0.00    -0.246 N 
ATOM     14  C   UNL     1      -1.371   0.906   0.106  0.00  0.00    +0.008 C 
ATOM     15  C   UNL     1      -1.627  -0.607   0.184  0.00  0.00    +0.022 C 
ATOM     16  C   UNL     1      -2.674   1.684   0.349  0.00  0.00    +0.022 C 
ATOM     17  C   UNL     1      -2.766  -1.025  -0.744  0.00  0.00    +0.097 C 
ATOM     18  C   UNL     1      -3.782   1.210  -0.591  0.00  0.00    +0.097 C 
ATOM     19  C   UNL     1      -5.155  -0.906  -0.126  0.00  0.00    +0.402 C 
BRANCH  19  20
ATOM     20  O   UNL     1      -6.239  -0.120   0.132  0.00  0.00    -0.466 OA
ATOM     21  H   UNL     1      -6.167   0.812   0.071  0.00  0.00    +0.297 HD
ENDBRANCH  19  20
ENDBRANCH   1  14
TORSDOF 3
