REMARK  Name = 127504
REMARK  2 active torsions:
REMARK  status: ('A' for Active; 'I' for Inactive)
REMARK    1  A    between atoms: N_1  and  C_13
REMARK    2  A    between atoms: C_12  and  O_20
REMARK                            x       y       z     vdW  Elec       q    Type
REMARK                         _______ _______ _______ _____ _____    ______ ____
ROOT
ATOM      1  N   UNL     1       1.833   0.176  -0.096  0.00  0.00    -0.304 N 
ATOM      2  N   UNL     1      -1.041   0.033  -0.114  0.00  0.00    -0.288 N 
ATOM      3  N   UNL     1      -3.161   0.390   0.957  0.00  0.00    -0.130 NA
ATOM      4  N   UNL     1      -4.519   0.321   0.948  0.00  0.00    -0.109 NA
ATOM      5  C   UNL     1       1.018   1.385   0.015  0.00  0.00    +0.112 C 
ATOM      6  C   UNL     1       1.144  -1.108  -0.216  0.00  0.00    +0.112 C 
ATOM      7  C   UNL     1      -0.344   1.072   0.642  0.00  0.00    +0.114 C 
ATOM      8  C   UNL     1      -0.234  -0.932  -0.861  0.00  0.00    +0.114 C 
ATOM      9  C   UNL     1      -2.432  -0.037  -0.123  0.00  0.00    +0.154 C 
ATOM     10  C   UNL     1      -3.088  -0.550  -1.249  0.00  0.00    +0.041 C 
ATOM     11  C   UNL     1      -4.470  -0.620  -1.257  0.00  0.00    +0.062 C 
ATOM     12  C   UNL     1      -5.146  -0.174  -0.140  0.00  0.00    +0.244 C 
ENDROOT
BRANCH   1  13
ATOM     13  C   UNL     1       3.224   0.245  -0.086  0.00  0.00    +0.048 C 
ATOM     14  C   UNL     1       4.011  -0.814   0.425  0.00  0.00    +0.010 C 
ATOM     15  C   UNL     1       3.908   1.378  -0.585  0.00  0.00    +0.014 C 
ATOM     16  C   UNL     1       5.404  -0.744   0.434  0.00  0.00    -0.021 C 
ATOM     17  C   UNL     1       5.301   1.448  -0.576  0.00  0.00    +0.001 C 
ATOM     18  C   UNL     1       6.049   0.387  -0.066  0.00  0.00    -0.004 C 
ATOM     19  C   UNL     1       6.204  -1.878   0.980  0.00  0.00    +0.031 C 
ENDBRANCH   1  13
BRANCH  12  20
ATOM     20  O   UNL     1      -6.513  -0.226  -0.107  0.00  0.00    -0.455 OA
ATOM     21  C   UNL     1      -7.146   0.250   1.075  0.00  0.00    +0.254 C 
ENDBRANCH  12  20
TORSDOF 2
