REMARK  Name = 15083623
REMARK  6 active torsions:
REMARK  status: ('A' for Active; 'I' for Inactive)
REMARK    1  A    between atoms: P_1  and  O_3
REMARK    2  A    between atoms: P_1  and  O_5
REMARK    3  A    between atoms: P_1  and  N_8
REMARK    4  A    between atoms: O_5  and  C_6
REMARK    5  A    between atoms: N_8  and  C_9
REMARK    6  A    between atoms: N_8  and  C_11
REMARK                            x       y       z     vdW  Elec       q    Type
REMARK                         _______ _______ _______ _____ _____    ______ ____
ROOT
ATOM      1  P   UNL     1      -0.296   0.906   0.227  0.00  0.00    +0.410 P 
ATOM      2  O   UNL     1       0.139   1.746   1.400  0.00  0.00    -0.240 OA
ENDROOT
BRANCH   1   3
ATOM      3  O   UNL     1      -0.630   1.830  -1.069  0.00  0.00    -0.312 OA
ATOM      4  H   UNL     1      -1.250   2.531  -0.815  0.00  0.00    +0.221 HD
ENDBRANCH   1   3
BRANCH   1   5
ATOM      5  O   UNL     1      -1.734   0.194   0.503  0.00  0.00    -0.283 OA
BRANCH   5   6
ATOM      6  C   UNL     1      -2.409  -0.483  -0.543  0.00  0.00    +0.153 C 
ATOM      7  C   UNL     1      -3.710  -1.044  -0.008  0.00  0.00    +0.035 C 
ENDBRANCH   5   6
ENDBRANCH   1   5
BRANCH   1   8
ATOM      8  N   UNL     1       0.769  -0.273  -0.276  0.00  0.00    -0.188 NA
BRANCH   8   9
ATOM      9  C   UNL     1       1.128  -1.303   0.701  0.00  0.00    +0.083 C 
ATOM     10  C   UNL     1       1.776  -2.500   0.025  0.00  0.00    +0.019 C 
ENDBRANCH   8   9
BRANCH   8  11
ATOM     11  C   UNL     1       1.980   0.173  -0.968  0.00  0.00    +0.083 C 
ATOM     12  C   UNL     1       2.988   0.755   0.009  0.00  0.00    +0.019 C 
ENDBRANCH   8  11
ENDBRANCH   1   8
TORSDOF 6
