REMARK  Name = 543502
REMARK  12 active torsions:
REMARK  status: ('A' for Active; 'I' for Inactive)
REMARK    1  A    between atoms: C_1  and  C_2
REMARK    2  A    between atoms: C_1  and  C_9
REMARK    3  A    between atoms: C_2  and  C_3
REMARK    4  A    between atoms: C_3  and  C_4
REMARK    5  A    between atoms: C_4  and  C_5
REMARK    6  A    between atoms: C_5  and  C_6
REMARK    7  A    between atoms: C_6  and  S_7
REMARK    8  A    between atoms: C_9  and  C_10
REMARK    9  A    between atoms: C_10  and  C_11
REMARK   10  A    between atoms: C_11  and  C_12
REMARK   11  A    between atoms: C_12  and  C_14
REMARK   12  A    between atoms: C_14  and  O_15
REMARK                            x       y       z     vdW  Elec       q    Type
REMARK                         _______ _______ _______ _____ _____    ______ ____
ROOT
ATOM      1  C   UNL     1      -0.508   0.729   0.048  0.00  0.00    +0.000 C 
ENDROOT
BRANCH   1   2
ATOM      2  C   UNL     1      -1.784  -0.070  -0.232  0.00  0.00    +0.000 C 
BRANCH   2   3
ATOM      3  C   UNL     1      -3.066   0.733   0.019  0.00  0.00    +0.000 C 
BRANCH   3   4
ATOM      4  C   UNL     1      -4.341  -0.058  -0.284  0.00  0.00    +0.001 C 
BRANCH   4   5
ATOM      5  C   UNL     1      -5.626   0.711   0.049  0.00  0.00    +0.011 C 
BRANCH   5   6
ATOM      6  C   UNL     1      -6.944   0.022  -0.310  0.00  0.00    +0.053 C 
BRANCH   6   7
ATOM      7  S   UNL     1      -7.213  -1.533   0.590  0.00  0.00    -0.168 S 
ATOM      8  H   UNL     1      -8.401  -2.075   0.212  0.00  0.00    +0.102 HD
ENDBRANCH   6   7
ENDBRANCH   5   6
ENDBRANCH   4   5
ENDBRANCH   3   4
ENDBRANCH   2   3
ENDBRANCH   1   2
BRANCH   1   9
ATOM      9  C   UNL     1       0.773  -0.089  -0.145  0.00  0.00    +0.000 C 
BRANCH   9  10
ATOM     10  C   UNL     1       2.082   0.628   0.205  0.00  0.00    +0.001 C 
BRANCH  10  11
ATOM     11  C   UNL     1       3.330  -0.219  -0.062  0.00  0.00    +0.012 C 
BRANCH  11  12
ATOM     12  C   UNL     1       4.622   0.547   0.211  0.00  0.00    +0.109 C 
BRANCH  12  14
ATOM     13  O   UNL     1       5.822  -1.487  -0.300  0.00  0.00    -0.250 OA
ATOM     14  C   UNL     1       5.852  -0.302   0.007  0.00  0.00    +0.314 C 
BRANCH  14  15
ATOM     15  O   UNL     1       7.002   0.389   0.205  0.00  0.00    -0.480 OA
ATOM     16  H   UNL     1       6.969   1.296   0.439  0.00  0.00    +0.295 HD
ENDBRANCH  14  15
ENDBRANCH  12  14
ENDBRANCH  11  12
ENDBRANCH  10  11
ENDBRANCH   9  10
ENDBRANCH   1   9
TORSDOF 12
