REMARK  Name = 3236
REMARK  5 active torsions:
REMARK  status: ('A' for Active; 'I' for Inactive)
REMARK    1  A    between atoms: C_1  and  C_4
REMARK    2  A    between atoms: C_1  and  C_13
REMARK    3  A    between atoms: C_4  and  C_5
REMARK    4  A    between atoms: C_8  and  C_11
REMARK    5  A    between atoms: C_13  and  N_14
REMARK                            x       y       z     vdW  Elec       q    Type
REMARK                         _______ _______ _______ _____ _____    ______ ____
ROOT
ATOM      1  C   UNL     1      -0.934  -1.552   0.365  0.00  0.00    +0.041 C 
ATOM      2  C   UNL     1      -1.878  -2.758   0.308  0.00  0.00    +0.006 C 
ENDROOT
BRANCH   1   4
ATOM      3  O   UNL     1       0.726  -3.159  -0.323  0.00  0.00    -0.291 OA
ATOM      4  C   UNL     1       0.487  -2.003   0.024  0.00  0.00    +0.171 C 
BRANCH   4   5
ATOM      5  C   UNL     1       1.613  -1.026   0.095  0.00  0.00    +0.035 C 
ATOM      6  C   UNL     1       1.535   0.005   1.002  0.00  0.00    +0.003 C 
ATOM      7  C   UNL     1       2.686  -1.195  -0.750  0.00  0.00    +0.003 C 
ATOM      8  C   UNL     1       3.690   0.774   0.225  0.00  0.00    -0.022 C 
ATOM      9  C   UNL     1       2.588   0.918   1.068  0.00  0.00    -0.004 C 
ATOM     10  C   UNL     1       3.739  -0.282  -0.684  0.00  0.00    -0.004 C 
BRANCH   8  11
ATOM     11  C   UNL     1       4.815   1.751   0.296  0.00  0.00    +0.026 C 
ATOM     12  C   UNL     1       4.615   2.936  -0.646  0.00  0.00    +0.005 C 
ENDBRANCH   8  11
ENDBRANCH   4   5
ENDBRANCH   1   4
BRANCH   1  13
ATOM     13  C   UNL     1      -1.356  -0.442  -0.608  0.00  0.00    -0.070 C 
BRANCH  13  14
ATOM     14  N   UNL     1      -2.722   0.012  -0.353  0.00  0.00    +0.387 N 
ATOM     15  C   UNL     1      -2.828   0.594   0.992  0.00  0.00    -0.077 C 
ATOM     16  C   UNL     1      -3.144   0.974  -1.382  0.00  0.00    -0.077 C 
ATOM     17  C   UNL     1      -4.263   1.030   1.293  0.00  0.00    -0.023 C 
ATOM     18  C   UNL     1      -4.590   1.422  -1.159  0.00  0.00    -0.023 C 
ATOM     19  C   UNL     1      -4.780   2.002   0.239  0.00  0.00    -0.004 C 
ATOM     20  H   UNL     1      -3.349  -0.792  -0.399  0.00  0.00    -0.080 HD
ENDBRANCH  13  14
ENDBRANCH   1  13
TORSDOF 5
