REMARK  Name = 9927355
REMARK  5 active torsions:
REMARK  status: ('A' for Active; 'I' for Inactive)
REMARK    1  A    between atoms: C_7  and  C_14
REMARK    2  A    between atoms: C_11  and  C_24
REMARK    3  A    between atoms: C_12  and  O_22
REMARK    4  A    between atoms: C_19  and  O_20
REMARK    5  A    between atoms: C_24  and  O_25
REMARK                            x       y       z     vdW  Elec       q    Type
REMARK                         _______ _______ _______ _____ _____    ______ ____
ROOT
ATOM      1  O   UNL     1       0.059  -0.497   0.101  0.00  0.00    -0.475 OA
ATOM      2  C   UNL     1      -0.413   1.869  -0.366  0.00  0.00    +0.049 C 
ATOM      3  C   UNL     1       1.050   2.146  -0.744  0.00  0.00    +0.029 C 
ATOM      4  C   UNL     1      -0.525   2.298   1.110  0.00  0.00    +0.004 C 
ATOM      5  C   UNL     1       1.339   3.434   0.033  0.00  0.00    +0.005 C 
ATOM      6  C   UNL     1       0.648   3.239   1.376  0.00  0.00    +0.000 C 
ATOM      7  C   UNL     1      -0.766   0.405  -0.652  0.00  0.00    +0.188 C 
ATOM      8  C   UNL     1       1.944   0.978  -0.397  0.00  0.00    +0.014 C 
ATOM      9  C   UNL     1       1.405  -0.256  -0.003  0.00  0.00    +0.133 C 
ATOM     10  C   UNL     1       3.339   1.098  -0.497  0.00  0.00    +0.035 C 
ATOM     11  C   UNL     1       2.242  -1.320   0.345  0.00  0.00    +0.044 C 
ATOM     12  C   UNL     1       4.173   0.029  -0.166  0.00  0.00    +0.133 C 
ATOM     13  C   UNL     1       3.625  -1.177   0.262  0.00  0.00    +0.038 C 
ENDROOT
BRANCH   7  14
ATOM     14  C   UNL     1      -2.233   0.114  -0.395  0.00  0.00    +0.017 C 
ATOM     15  C   UNL     1      -3.166   0.286  -1.417  0.00  0.00    +0.002 C 
ATOM     16  C   UNL     1      -2.646  -0.324   0.863  0.00  0.00    +0.002 C 
ATOM     17  C   UNL     1      -4.515   0.020  -1.180  0.00  0.00    +0.036 C 
ATOM     18  C   UNL     1      -3.995  -0.590   1.099  0.00  0.00    +0.036 C 
ATOM     19  C   UNL     1      -4.929  -0.418   0.077  0.00  0.00    +0.134 C 
BRANCH  19  20
ATOM     20  O   UNL     1      -6.245  -0.679   0.307  0.00  0.00    -0.506 OA
ATOM     21  H   UNL     1      -6.872  -0.563  -0.380  0.00  0.00    +0.292 HD
ENDBRANCH  19  20
ENDBRANCH   7  14
BRANCH  12  22
ATOM     22  O   UNL     1       5.524   0.167  -0.261  0.00  0.00    -0.506 OA
ATOM     23  H   UNL     1       5.893   0.979  -0.549  0.00  0.00    +0.292 HD
ENDBRANCH  12  22
BRANCH  11  24
ATOM     24  C   UNL     1       1.679  -2.629   0.797  0.00  0.00    +0.172 C 
BRANCH  24  25
ATOM     25  O   UNL     1       1.471  -3.465  -0.334  0.00  0.00    -0.346 OA
ATOM     26  C   UNL     1       0.935  -4.726   0.042  0.00  0.00    +0.175 C 
ENDBRANCH  24  25
ENDBRANCH  11  24
TORSDOF 5
