REMARK  Name = 16122581
REMARK  13 active torsions:
REMARK  status: ('A' for Active; 'I' for Inactive)
REMARK    1  A    between atoms: S_1  and  C_4
REMARK    2  A    between atoms: S_1  and  N_19
REMARK    3  A    between atoms: C_12  and  O_14
REMARK    4  A    between atoms: O_14  and  C_15
REMARK    5  A    between atoms: C_15  and  C_16
REMARK    6  A    between atoms: C_16  and  C_17
REMARK    7  A    between atoms: N_19  and  C_21
REMARK    8  A    between atoms: C_21  and  C_23
REMARK    9  A    between atoms: C_21  and  C_26
REMARK   10  A    between atoms: C_23  and  O_24
REMARK   11  A    between atoms: C_26  and  C_27
REMARK   12  A    between atoms: C_27  and  C_29
REMARK   13  A    between atoms: C_29  and  O_30
REMARK                            x       y       z     vdW  Elec       q    Type
REMARK                         _______ _______ _______ _____ _____    ______ ____
ROOT
ATOM      1  S   UNL     1       3.043   1.874   0.250  0.00  0.00    +0.061 S 
ATOM      2  O   UNL     1       3.413   3.131  -0.373  0.00  0.00    -0.153 OA
ATOM      3  O   UNL     1       3.167   1.707   1.685  0.00  0.00    -0.153 OA
ENDROOT
BRANCH   1   4
ATOM      4  C   UNL     1       1.358   1.535  -0.165  0.00  0.00    +0.122 C 
ATOM      5  C   UNL     1      -0.755   0.447   0.353  0.00  0.00    +0.002 C 
ATOM      6  C   UNL     1      -1.318   0.997  -0.823  0.00  0.00    +0.003 C 
ATOM      7  C   UNL     1       0.585   0.726   0.668  0.00  0.00    +0.020 C 
ATOM      8  C   UNL     1       0.804   2.076  -1.322  0.00  0.00    +0.020 C 
ATOM      9  C   UNL     1      -0.525   1.809  -1.650  0.00  0.00    +0.001 C 
ATOM     10  C   UNL     1      -2.658   0.718  -1.138  0.00  0.00    +0.037 C 
ATOM     11  C   UNL     1      -1.548  -0.365   1.180  0.00  0.00    +0.003 C 
ATOM     12  C   UNL     1      -3.431  -0.092  -0.305  0.00  0.00    +0.139 C 
ATOM     13  C   UNL     1      -2.877  -0.632   0.851  0.00  0.00    +0.037 C 
BRANCH  12  14
ATOM     14  O   UNL     1      -4.729  -0.351  -0.624  0.00  0.00    -0.475 OA
BRANCH  14  15
ATOM     15  C   UNL     1      -5.630  -0.577   0.459  0.00  0.00    +0.205 C 
BRANCH  15  16
ATOM     16  C   UNL     1      -7.025  -0.135   0.038  0.00  0.00    +0.047 C 
BRANCH  16  17
ATOM     17  C   UNL     1      -8.041  -0.334   1.159  0.00  0.00    +0.004 C 
ATOM     18  C   UNL     1      -9.423   0.148   0.750  0.00  0.00    +0.000 C 
ENDBRANCH  16  17
ENDBRANCH  15  16
ENDBRANCH  14  15
ENDBRANCH  12  14
ENDBRANCH   1   4
BRANCH   1  19
ATOM     19  N   UNL     1       3.857   0.600  -0.526  0.00  0.00    -0.170 NA
ATOM     20  H   UNL     1       4.772   0.958  -0.801  0.00  0.00    +0.149 HD
BRANCH  19  21
ATOM     21  C   UNL     1       4.095  -0.671   0.195  0.00  0.00    +0.174 C 
BRANCH  21  23
ATOM     22  O   UNL     1       6.111   0.448   0.969  0.00  0.00    -0.249 OA
ATOM     23  C   UNL     1       5.362  -0.520   1.002  0.00  0.00    +0.330 C 
BRANCH  23  24
ATOM     24  O   UNL     1       5.585  -1.590   1.810  0.00  0.00    -0.479 OA
ATOM     25  H   UNL     1       4.987  -2.312   1.806  0.00  0.00    +0.295 HD
ENDBRANCH  23  24
ENDBRANCH  21  23
BRANCH  21  26
ATOM     26  C   UNL     1       4.100  -1.853  -0.782  0.00  0.00    +0.040 C 
BRANCH  26  27
ATOM     27  C   UNL     1       2.840  -2.040  -1.632  0.00  0.00    +0.111 C 
BRANCH  27  29
ATOM     28  O   UNL     1       1.576  -2.412   0.392  0.00  0.00    -0.250 OA
ATOM     29  C   UNL     1       1.589  -2.282  -0.825  0.00  0.00    +0.314 C 
BRANCH  29  30
ATOM     30  O   UNL     1       0.475  -2.361  -1.594  0.00  0.00    -0.480 OA
ATOM     31  H   UNL     1       0.539  -2.255  -2.523  0.00  0.00    +0.295 HD
ENDBRANCH  29  30
ENDBRANCH  27  29
ENDBRANCH  26  27
ENDBRANCH  21  26
ENDBRANCH  19  21
ENDBRANCH   1  19
TORSDOF 13
