REMARK  Name = 5288708
REMARK  4 active torsions:
REMARK  status: ('A' for Active; 'I' for Inactive)
REMARK    1  A    between atoms: N_1  and  C_9
REMARK    2  A    between atoms: N_1  and  C_16
REMARK    3  A    between atoms: C_15  and  S_21
REMARK    4  A    between atoms: S_21  and  N_24
REMARK                            x       y       z     vdW  Elec       q    Type
REMARK                         _______ _______ _______ _____ _____    ______ ____
ROOT
ATOM      1  N   UNL     1       0.225   0.933   0.013  0.00  0.00    -0.311 N 
ATOM      2  H   UNL     1       0.454   1.882  -0.110  0.00  0.00    +0.152 HD
ENDROOT
BRANCH   1   9
ATOM      3  O   UNL     1       2.437   2.782  -0.298  0.00  0.00    -0.270 OA
ATOM      4  N   UNL     1       4.487   1.609  -0.240  0.00  0.00    -0.280 N 
ATOM      5  C   UNL     1       3.717  -0.539   0.046  0.00  0.00    +0.019 C 
ATOM      6  C   UNL     1       2.576   0.368  -0.015  0.00  0.00    +0.069 C 
ATOM      7  C   UNL     1       4.851   0.266  -0.095  0.00  0.00    +0.051 C 
ATOM      8  C   UNL     1       3.097   1.764  -0.203  0.00  0.00    +0.251 C 
ATOM      9  C   UNL     1       1.277   0.077   0.071  0.00  0.00    +0.066 C 
ATOM     10  C   UNL     1       3.838  -1.907   0.203  0.00  0.00    +0.001 C 
ATOM     11  C   UNL     1       6.132  -0.252  -0.086  0.00  0.00    +0.015 C 
ATOM     12  C   UNL     1       5.126  -2.453   0.216  0.00  0.00    +0.000 C 
ATOM     13  C   UNL     1       6.262  -1.633   0.072  0.00  0.00    +0.001 C 
ATOM     14  H   UNL     1       5.126   2.349  -0.354  0.00  0.00    +0.155 HD
ENDBRANCH   1   9
BRANCH   1  16
ATOM     15  C   UNL     1      -3.876   0.066   0.283  0.00  0.00    +0.122 C 
ATOM     16  C   UNL     1      -1.146   0.643   0.103  0.00  0.00    +0.048 C 
ATOM     17  C   UNL     1      -3.451   1.383   0.109  0.00  0.00    +0.021 C 
ATOM     18  C   UNL     1      -2.938  -0.964   0.366  0.00  0.00    +0.021 C 
ATOM     19  C   UNL     1      -2.089   1.671   0.019  0.00  0.00    +0.016 C 
ATOM     20  C   UNL     1      -1.576  -0.676   0.277  0.00  0.00    +0.016 C 
BRANCH  15  21
ATOM     21  S   UNL     1      -5.580  -0.295   0.396  0.00  0.00    +0.060 S 
ATOM     22  O   UNL     1      -5.748  -1.540   1.135  0.00  0.00    -0.153 OA
ATOM     23  O   UNL     1      -6.259   0.908   0.860  0.00  0.00    -0.153 OA
BRANCH  21  24
ATOM     24  N   UNL     1      -6.008  -0.567  -1.237  0.00  0.00    -0.178 NA
ATOM     25  C   UNL     1      -5.354  -1.643  -1.995  0.00  0.00    +0.110 C 
ATOM     26  H   UNL     1      -5.823   0.301  -1.739  0.00  0.00    +0.149 HD
ENDBRANCH  21  24
ENDBRANCH  15  21
ENDBRANCH   1  16
TORSDOF 4
