REMARK  Name = 46937127
REMARK  2 active torsions:
REMARK  status: ('A' for Active; 'I' for Inactive)
REMARK    1  A    between atoms: C_3  and  N_16
REMARK    2  A    between atoms: C_8  and  C_15
REMARK                            x       y       z     vdW  Elec       q    Type
REMARK                         _______ _______ _______ _____ _____    ______ ____
ROOT
ATOM      1  C   UNL     1       0.815   1.317   0.009  0.00  0.00    +0.002 C 
ATOM      2  C   UNL     1       2.474  -0.241   0.038  0.00  0.00    +0.002 C 
ATOM      3  C   UNL     1       2.090   0.996  -0.815  0.00  0.00    -0.057 C 
ATOM      4  C   UNL     1       1.439   1.484   1.415  0.00  0.00    +0.003 C 
ATOM      5  C   UNL     1       2.576   0.415   1.435  0.00  0.00    +0.003 C 
ATOM      6  C   UNL     1       0.140  -0.036   0.001  0.00  0.00    -0.025 C 
ATOM      7  C   UNL     1       1.165  -1.000   0.019  0.00  0.00    -0.029 C 
ATOM      8  C   UNL     1      -1.190  -0.395   0.008  0.00  0.00    +0.067 C 
ATOM      9  C   UNL     1       0.889  -2.349   0.045  0.00  0.00    -0.005 C 
ATOM     10  C   UNL     1      -1.484  -1.762   0.026  0.00  0.00    +0.004 C 
ATOM     11  C   UNL     1      -0.456  -2.727   0.044  0.00  0.00    -0.000 C 
ENDROOT
BRANCH   8  15
ATOM     12  F   UNL     1      -3.524   0.059   0.015  0.00  0.00    -0.166 F 
ATOM     13  F   UNL     1      -2.249   1.465   1.075  0.00  0.00    -0.166 F 
ATOM     14  F   UNL     1      -2.260   1.439  -1.093  0.00  0.00    -0.166 F 
ATOM     15  C   UNL     1      -2.277   0.619   0.002  0.00  0.00    +0.418 C 
ENDBRANCH   8  15
BRANCH   3  16
ATOM     16  N   UNL     1       1.852   0.718  -2.226  0.00  0.00    +0.382 N 
ATOM     17  H   UNL     1       1.607   1.583  -2.707  0.00  0.00    -0.089 HD
ATOM     18  H   UNL     1       1.087   0.050  -2.316  0.00  0.00    -0.089 HD
ATOM     19  H   UNL     1       2.697   0.325  -2.642  0.00  0.00    -0.089 HD
ENDBRANCH   3  16
TORSDOF 2
