REMARK  Name = 446757
REMARK  4 active torsions:
REMARK  status: ('A' for Active; 'I' for Inactive)
REMARK    1  A    between atoms: C_1  and  O_10
REMARK    2  A    between atoms: C_4  and  N_9
REMARK    3  A    between atoms: O_10  and  P_11
REMARK    4  A    between atoms: P_11  and  O_14
REMARK                            x       y       z     vdW  Elec       q    Type
REMARK                         _______ _______ _______ _____ _____    ______ ____
ROOT
ATOM      1  C   UNL     1       0.639   0.579  -0.042  0.00  0.00    +0.147 C 
ATOM      2  C   UNL     1      -0.286   1.623  -0.044  0.00  0.00    +0.039 C 
ATOM      3  C   UNL     1       0.197  -0.744  -0.021  0.00  0.00    +0.039 C 
ATOM      4  C   UNL     1      -2.095   0.022  -0.004  0.00  0.00    +0.143 C 
ATOM      5  C   UNL     1      -1.653   1.345  -0.025  0.00  0.00    +0.027 C 
ATOM      6  C   UNL     1      -1.170  -1.022  -0.002  0.00  0.00    +0.027 C 
ENDROOT
BRANCH   4   9
ATOM      7  O   UNL     1      -4.301   0.691   0.016  0.00  0.00    -0.126 OA
ATOM      8  O   UNL     1      -3.861  -1.460   0.035  0.00  0.00    -0.126 OA
ATOM      9  N   UNL     1      -3.486  -0.263   0.017  0.00  0.00    +0.058 N 
ENDBRANCH   4   9
BRANCH   1  10
ATOM     10  O   UNL     1       1.972   0.851  -0.061  0.00  0.00    -0.422 OA
BRANCH  10  11
ATOM     11  P   UNL     1       3.155  -0.251  -0.062  0.00  0.00    +0.389 P 
ATOM     12  O   UNL     1       3.102  -1.276  -1.157  0.00  0.00    -0.244 OA
ATOM     13  C   UNL     1       4.632   0.748  -0.091  0.00  0.00    +0.143 C 
BRANCH  11  14
ATOM     14  O   UNL     1       3.155  -0.843   1.443  0.00  0.00    -0.315 OA
ATOM     15  H   UNL     1       2.379  -1.411   1.567  0.00  0.00    +0.221 HD
ENDBRANCH  11  14
ENDBRANCH  10  11
ENDBRANCH   1  10
TORSDOF 4
