REMARK  Name = 449245
REMARK  15 active torsions:
REMARK  status: ('A' for Active; 'I' for Inactive)
REMARK    1  A    between atoms: C_1  and  C_2
REMARK    2  A    between atoms: C_1  and  C_17
REMARK    3  A    between atoms: C_2  and  P_3
REMARK    4  A    between atoms: P_3  and  O_5
REMARK    5  A    between atoms: P_3  and  O_7
REMARK    6  A    between atoms: O_7  and  C_8
REMARK    7  A    between atoms: C_13  and  N_16
REMARK    8  A    between atoms: C_17  and  C_20
REMARK    9  A    between atoms: N_19  and  C_22
REMARK   10  A    between atoms: C_22  and  C_23
REMARK   11  A    between atoms: C_23  and  C_24
REMARK   12  A    between atoms: C_24  and  C_25
REMARK   13  A    between atoms: C_25  and  C_26
REMARK   14  A    between atoms: C_26  and  C_28
REMARK   15  A    between atoms: C_28  and  O_29
REMARK                            x       y       z     vdW  Elec       q    Type
REMARK                         _______ _______ _______ _____ _____    ______ ____
ROOT
ATOM      1  C   UNL     1       2.403  -2.661  -0.120  0.00  0.00    +0.023 C 
ENDROOT
BRANCH   1   2
ATOM      2  C   UNL     1       1.995  -1.866   1.112  0.00  0.00    +0.129 C 
BRANCH   2   3
ATOM      3  P   UNL     1       0.213  -1.854   1.410  0.00  0.00    +0.388 P 
ATOM      4  O   UNL     1      -0.347  -3.221   1.615  0.00  0.00    -0.244 OA
BRANCH   3   5
ATOM      5  O   UNL     1       0.090  -0.839   2.656  0.00  0.00    -0.315 OA
ATOM      6  H   UNL     1      -0.842  -0.751   2.911  0.00  0.00    +0.221 HD
ENDBRANCH   3   5
BRANCH   3   7
ATOM      7  O   UNL     1      -0.330  -1.024   0.144  0.00  0.00    -0.422 OA
BRANCH   7   8
ATOM      8  C   UNL     1      -1.648  -0.740  -0.087  0.00  0.00    +0.147 C 
ATOM      9  C   UNL     1      -2.624  -1.179   0.807  0.00  0.00    +0.039 C 
ATOM     10  C   UNL     1      -2.016  -0.012  -1.219  0.00  0.00    +0.039 C 
ATOM     11  C   UNL     1      -3.968  -0.890   0.571  0.00  0.00    +0.027 C 
ATOM     12  C   UNL     1      -3.360   0.277  -1.456  0.00  0.00    +0.027 C 
ATOM     13  C   UNL     1      -4.336  -0.162  -0.561  0.00  0.00    +0.143 C 
BRANCH  13  16
ATOM     14  O   UNL     1      -6.566  -0.272   0.016  0.00  0.00    -0.126 OA
ATOM     15  O   UNL     1      -6.014   0.788  -1.825  0.00  0.00    -0.126 OA
ATOM     16  N   UNL     1      -5.705   0.132  -0.802  0.00  0.00    +0.058 N 
ENDBRANCH  13  16
ENDBRANCH   7   8
ENDBRANCH   3   7
ENDBRANCH   2   3
ENDBRANCH   1   2
BRANCH   1  17
ATOM     17  C   UNL     1       3.913  -2.643  -0.345  0.00  0.00    +0.086 C 
BRANCH  17  20
ATOM     18  O   UNL     1       5.300  -0.751   0.252  0.00  0.00    -0.275 OA
ATOM     19  N   UNL     1       3.884  -0.575  -1.583  0.00  0.00    -0.304 N 
ATOM     20  C   UNL     1       4.458  -1.233  -0.500  0.00  0.00    +0.222 C 
ATOM     21  H   UNL     1       3.216  -1.055  -2.123  0.00  0.00    +0.149 HD
BRANCH  19  22
ATOM     22  C   UNL     1       4.218   0.775  -1.951  0.00  0.00    +0.089 C 
BRANCH  22  23
ATOM     23  C   UNL     1       3.038   1.482  -2.609  0.00  0.00    +0.021 C 
BRANCH  23  24
ATOM     24  C   UNL     1       1.799   1.559  -1.713  0.00  0.00    +0.002 C 
BRANCH  24  25
ATOM     25  C   UNL     1       2.033   2.339  -0.418  0.00  0.00    +0.012 C 
BRANCH  25  26
ATOM     26  C   UNL     1       0.763   2.397   0.431  0.00  0.00    +0.109 C 
BRANCH  26  28
ATOM     27  O   UNL     1       2.003   3.756   2.025  0.00  0.00    -0.250 OA
ATOM     28  C   UNL     1       0.966   3.196   1.697  0.00  0.00    +0.314 C 
BRANCH  28  29
ATOM     29  O   UNL     1      -0.162   3.222   2.453  0.00  0.00    -0.480 OA
ATOM     30  H   UNL     1      -0.933   2.777   2.160  0.00  0.00    +0.295 HD
ENDBRANCH  28  29
ENDBRANCH  26  28
ENDBRANCH  25  26
ENDBRANCH  24  25
ENDBRANCH  23  24
ENDBRANCH  22  23
ENDBRANCH  19  22
ENDBRANCH  17  20
ENDBRANCH   1  17
TORSDOF 15
