REMARK  Name = 24836810
REMARK  6 active torsions:
REMARK  status: ('A' for Active; 'I' for Inactive)
REMARK    1  A    between atoms: C_9  and  C_12
REMARK    2  A    between atoms: C_10  and  C_19
REMARK    3  A    between atoms: C_20  and  C_23
REMARK    4  A    between atoms: C_23  and  C_27
REMARK    5  A    between atoms: C_23  and  O_28
REMARK    6  A    between atoms: C_23  and  O_30
REMARK                            x       y       z     vdW  Elec       q    Type
REMARK                         _______ _______ _______ _____ _____    ______ ____
ROOT
ATOM      1  O   UNL     1      -0.772  -3.066  -1.221  0.00  0.00    -0.269 OA
ATOM      2  N   UNL     1       2.709  -0.225   0.489  0.00  0.00    -0.271 N 
ATOM      3  N   UNL     1       0.410  -1.773   0.329  0.00  0.00    -0.267 N 
ATOM      4  N   UNL     1       1.940   1.157   2.036  0.00  0.00    -0.230 NA
ATOM      5  C   UNL     1       2.703  -1.340  -0.434  0.00  0.00    +0.118 C 
ATOM      6  C   UNL     1       1.701  -2.397   0.013  0.00  0.00    +0.116 C 
ATOM      7  C   UNL     1       0.426  -0.746   1.388  0.00  0.00    +0.155 C 
ATOM      8  C   UNL     1       1.665   0.081   1.325  0.00  0.00    +0.133 C 
ATOM      9  C   UNL     1       3.694   0.695   0.670  0.00  0.00    +0.072 C 
ATOM     10  C   UNL     1      -0.741  -2.211  -0.337  0.00  0.00    +0.255 C 
ATOM     11  C   UNL     1       3.196   1.542   1.633  0.00  0.00    +0.115 C 
ENDROOT
BRANCH   9  12
ATOM     12  C   UNL     1       4.949   0.723  -0.040  0.00  0.00    +0.015 C 
ATOM     13  C   UNL     1       6.150   0.641   0.666  0.00  0.00    +0.001 C 
ATOM     14  C   UNL     1       4.963   0.831  -1.430  0.00  0.00    +0.001 C 
ATOM     15  C   UNL     1       7.365   0.669  -0.019  0.00  0.00    +0.000 C 
ATOM     16  C   UNL     1       6.178   0.858  -2.115  0.00  0.00    +0.000 C 
ATOM     17  C   UNL     1       7.379   0.777  -1.410  0.00  0.00    +0.000 C 
ENDBRANCH   9  12
BRANCH  10  19
ATOM     18  S   UNL     1      -2.947  -0.786  -1.141  0.00  0.00    -0.082 S 
ATOM     19  C   UNL     1      -2.032  -1.618   0.043  0.00  0.00    +0.083 C 
ATOM     20  C   UNL     1      -4.188  -0.435  -0.013  0.00  0.00    +0.066 C 
ATOM     21  C   UNL     1      -2.659  -1.627   1.269  0.00  0.00    +0.011 C 
ATOM     22  C   UNL     1      -3.908  -0.942   1.237  0.00  0.00    +0.008 C 
BRANCH  20  23
ATOM     23  C   UNL     1      -5.376   0.329  -0.453  0.00  0.00    +0.297 C 
BRANCH  23  27
ATOM     24  F   UNL     1      -4.141   2.319  -0.992  0.00  0.00    -0.165 F 
ATOM     25  F   UNL     1      -6.289   2.519  -0.685  0.00  0.00    -0.165 F 
ATOM     26  F   UNL     1      -4.969   2.163   1.017  0.00  0.00    -0.165 F 
ATOM     27  C   UNL     1      -5.190   1.848  -0.278  0.00  0.00    +0.449 C 
ENDBRANCH  23  27
BRANCH  23  28
ATOM     28  O   UNL     1      -5.667   0.075  -1.843  0.00  0.00    -0.354 OA
ATOM     29  H   UNL     1      -4.903   0.326  -2.384  0.00  0.00    +0.213 HD
ENDBRANCH  23  28
BRANCH  23  30
ATOM     30  O   UNL     1      -6.546  -0.063   0.295  0.00  0.00    -0.354 OA
ATOM     31  H   UNL     1      -6.392   0.092   1.240  0.00  0.00    +0.213 HD
ENDBRANCH  23  30
ENDBRANCH  20  23
ENDBRANCH  10  19
TORSDOF 6
