5413
  -OEChem-10051721303D

 29 28  0     0  0  0  0  0  0999 V2000
    0.0000    0.0000    0.0000 N   0  3  0  0  0  0  0  0  0  0  0  0
   -0.8788   -0.1960    1.2271 C   0  0  0  0  0  0  0  0  0  0  0  0
   -0.8785    0.1960   -1.2272 C   0  0  0  0  0  0  0  0  0  0  0  0
    0.8785   -1.2272   -0.1958 C   0  0  0  0  0  0  0  0  0  0  0  0
    0.8787    1.2271    0.1959 C   0  0  0  0  0  0  0  0  0  0  0  0
   -1.7499   -1.4168    1.0263 C   0  0  0  0  0  0  0  0  0  0  0  0
   -1.7493    1.4170   -1.0266 C   0  0  0  0  0  0  0  0  0  0  0  0
    1.7497   -1.0267   -1.4166 C   0  0  0  0  0  0  0  0  0  0  0  0
    1.7495    1.0266    1.4169 C   0  0  0  0  0  0  0  0  0  0  0  0
   -0.2381   -0.4101    2.0871 H   0  0  0  0  0  0  0  0  0  0  0  0
   -1.4436    0.7127    1.4485 H   0  0  0  0  0  0  0  0  0  0  0  0
   -0.2377    0.4100   -2.0872 H   0  0  0  0  0  0  0  0  0  0  0  0
   -1.4435   -0.7126   -1.4487 H   0  0  0  0  0  0  0  0  0  0  0  0
    1.4433   -1.4488    0.7129 H   0  0  0  0  0  0  0  0  0  0  0  0
    0.2378   -2.0872   -0.4099 H   0  0  0  0  0  0  0  0  0  0  0  0
    1.4437    1.4484   -0.7127 H   0  0  0  0  0  0  0  0  0  0  0  0
    0.2380    2.0871    0.4098 H   0  0  0  0  0  0  0  0  0  0  0  0
   -2.3762   -1.5289    1.9210 H   0  0  0  0  0  0  0  0  0  0  0  0
   -2.4555   -1.3362    0.1971 H   0  0  0  0  0  0  0  0  0  0  0  0
   -1.1996   -2.3571    0.9529 H   0  0  0  0  0  0  0  0  0  0  0  0
   -2.3755    1.5292   -1.9214 H   0  0  0  0  0  0  0  0  0  0  0  0
   -2.4549    1.3368   -0.1975 H   0  0  0  0  0  0  0  0  0  0  0  0
   -1.1988    2.3573   -0.9534 H   0  0  0  0  0  0  0  0  0  0  0  0
    2.3758   -1.9216   -1.5288 H   0  0  0  0  0  0  0  0  0  0  0  0
    1.1994   -0.9532   -2.3570 H   0  0  0  0  0  0  0  0  0  0  0  0
    2.4555   -0.1977   -1.3360 H   0  0  0  0  0  0  0  0  0  0  0  0
    2.3758    1.9214    1.5290 H   0  0  0  0  0  0  0  0  0  0  0  0
    1.1989    0.9533    2.3571 H   0  0  0  0  0  0  0  0  0  0  0  0
    2.4551    0.1974    1.3367 H   0  0  0  0  0  0  0  0  0  0  0  0
  1  2  1  0  0  0  0
  1  3  1  0  0  0  0
  1  4  1  0  0  0  0
  1  5  1  0  0  0  0
  2  6  1  0  0  0  0
  2 10  1  0  0  0  0
  2 11  1  0  0  0  0
  3  7  1  0  0  0  0
  3 12  1  0  0  0  0
  3 13  1  0  0  0  0
  4  8  1  0  0  0  0
  4 14  1  0  0  0  0
  4 15  1  0  0  0  0
  5  9  1  0  0  0  0
  5 16  1  0  0  0  0
  5 17  1  0  0  0  0
  6 18  1  0  0  0  0
  6 19  1  0  0  0  0
  6 20  1  0  0  0  0
  7 21  1  0  0  0  0
  7 22  1  0  0  0  0
  7 23  1  0  0  0  0
  8 24  1  0  0  0  0
  8 25  1  0  0  0  0
  8 26  1  0  0  0  0
  9 27  1  0  0  0  0
  9 28  1  0  0  0  0
  9 29  1  0  0  0  0
M  CHG  1   1   1
M  END
> <DATABASE_ID>
DB08837

> <DATABASE_NAME>
drugbank

> <ORIGINAL_SOURCE>
PUBCHEM

> <ORIGINAL_SOURCE_URL>
https://pubchem.ncbi.nlm.nih.gov/rest/pug/compound/inchikey/CBXCPBUEXACCNR-UHFFFAOYSA-N/SDF?record_type=3d

> <SMILES>
CC[N+](CC)(CC)CC

> <INCHI_IDENTIFIER>
InChI=1S/C8H20N/c1-5-9(6-2,7-3)8-4/h5-8H2,1-4H3/q+1

> <INCHI_KEY>
CBXCPBUEXACCNR-UHFFFAOYSA-N

> <FORMULA>
C8H20N

> <MOLECULAR_WEIGHT>
130.2511

> <EXACT_MASS>
130.159574645

> <JCHEM_ACCEPTOR_COUNT>
0

> <JCHEM_AVERAGE_POLARIZABILITY>
17.31584856711335

> <JCHEM_BIOAVAILABILITY>
1

> <JCHEM_DONOR_COUNT>
0

> <JCHEM_FORMAL_CHARGE>
1

> <JCHEM_GHOSE_FILTER>
0

> <JCHEM_IUPAC>
tetraethylazanium

> <ALOGPS_LOGP>
-1.24

> <JCHEM_LOGP>
-2.5449353321384125

> <ALOGPS_LOGS>
-4.78

> <JCHEM_MDDR_LIKE_RULE>
0

> <JCHEM_NUMBER_OF_RINGS>
0

> <JCHEM_PHYSIOLOGICAL_CHARGE>
1

> <JCHEM_POLAR_SURFACE_AREA>
0

> <JCHEM_REFRACTIVITY>
54.8961

> <JCHEM_ROTATABLE_BOND_COUNT>
4

> <JCHEM_RULE_OF_FIVE>
1

> <ALOGPS_SOLUBILITY>
2.77e-03 g/l

> <JCHEM_TRADITIONAL_IUPAC>
tetraethylammonium

> <JCHEM_VEBER_RULE>
1

> <DRUGBANK_ID>
DB08837

> <DRUG_GROUPS>
experimental; investigational

> <GENERIC_NAME>
Tetraethylammonium

> <SALTS>
Tetraethylammonium bromide; Tetraethylammonium chloride; Tetraethylammonium hydroxide; Tetraethylammonium iodide; Tetraethylammonium phosphate

$$$$
