REMARK  Name = 18690028
REMARK  4 active torsions:
REMARK  status: ('A' for Active; 'I' for Inactive)
REMARK    1  A    between atoms: C_3  and  C_12
REMARK    2  A    between atoms: C_8  and  O_19
REMARK    3  A    between atoms: C_13  and  C_15
REMARK    4  A    between atoms: O_19  and  C_20
REMARK                            x       y       z     vdW  Elec       q    Type
REMARK                         _______ _______ _______ _____ _____    ______ ____
ROOT
ATOM      1  O   UNL     1      -4.171  -0.061   1.647  0.00  0.00    -0.226 OA
ATOM      2  N   UNL     1      -2.584  -0.957   0.204  0.00  0.00    -0.246 N 
ATOM      3  C   UNL     1       0.223  -1.561  -0.150  0.00  0.00    +0.096 C 
ATOM      4  C   UNL     1      -0.574  -0.782  -1.212  0.00  0.00    +0.032 C 
ATOM      5  C   UNL     1      -0.388  -1.350   1.248  0.00  0.00    +0.032 C 
ATOM      6  C   UNL     1      -2.060  -1.136  -1.154  0.00  0.00    +0.097 C 
ATOM      7  C   UNL     1      -1.877  -1.693   1.252  0.00  0.00    +0.097 C 
ATOM      8  C   UNL     1      -3.706  -0.183   0.515  0.00  0.00    +0.405 C 
ENDROOT
BRANCH   3  12
ATOM      9  O   UNL     1       2.555  -2.233  -0.482  0.00  0.00    -0.316 OA
ATOM     10  N   UNL     1       2.294  -0.070   0.037  0.00  0.00    -0.312 NA
ATOM     11  N   UNL     1       3.843  -1.681  -0.453  0.00  0.00    -0.007 NA
ATOM     12  C   UNL     1       1.704  -1.217  -0.183  0.00  0.00    +0.293 C 
ATOM     13  C   UNL     1       3.606  -0.404  -0.140  0.00  0.00    +0.133 C 
BRANCH  13  15
ATOM     14  S   UNL     1       4.436   2.224   0.404  0.00  0.00    -0.075 S 
ATOM     15  C   UNL     1       4.693   0.579   0.005  0.00  0.00    +0.106 C 
ATOM     16  C   UNL     1       6.030   0.291  -0.163  0.00  0.00    +0.018 C 
ATOM     17  C   UNL     1       6.853   1.436   0.038  0.00  0.00    +0.008 C 
ATOM     18  C   UNL     1       6.115   2.556   0.353  0.00  0.00    +0.036 C 
ENDBRANCH  13  15
ENDBRANCH   3  12
BRANCH   8  19
ATOM     19  O   UNL     1      -4.243   0.434  -0.583  0.00  0.00    -0.442 OA
BRANCH  19  20
ATOM     20  C   UNL     1      -5.398   1.248  -0.349  0.00  0.00    +0.138 C 
ATOM     21  C   UNL     1      -6.506   0.365   0.225  0.00  0.00    +0.044 C 
ATOM     22  C   UNL     1      -5.824   1.840  -1.690  0.00  0.00    +0.044 C 
ATOM     23  C   UNL     1      -5.021   2.356   0.633  0.00  0.00    +0.044 C 
ENDBRANCH  19  20
ENDBRANCH   8  19
TORSDOF 4
