REMARK  Name = 146089
REMARK  10 active torsions:
REMARK  status: ('A' for Active; 'I' for Inactive)
REMARK    1  A    between atoms: S_1  and  C_2
REMARK    2  A    between atoms: S_1  and  C_10
REMARK    3  A    between atoms: C_2  and  C_3
REMARK    4  A    between atoms: C_3  and  C_4
REMARK    5  A    between atoms: C_4  and  C_5
REMARK    6  A    between atoms: C_5  and  C_6
REMARK    7  A    between atoms: C_6  and  C_7
REMARK    8  A    between atoms: C_7  and  C_8
REMARK    9  A    between atoms: C_10  and  C_12
REMARK   10  A    between atoms: C_12  and  C_16
REMARK                            x       y       z     vdW  Elec       q    Type
REMARK                         _______ _______ _______ _____ _____    ______ ____
ROOT
ATOM      1  S   UNL     1      -1.797   2.079  -0.263  0.00  0.00    -0.132 S 
ENDROOT
BRANCH   1   2
ATOM      2  C   UNL     1      -0.196   2.023   0.591  0.00  0.00    +0.058 C 
BRANCH   2   3
ATOM      3  C   UNL     1       0.808   1.200  -0.210  0.00  0.00    +0.012 C 
BRANCH   3   4
ATOM      4  C   UNL     1       2.165   1.149   0.501  0.00  0.00    +0.001 C 
BRANCH   4   5
ATOM      5  C   UNL     1       3.188   0.354  -0.314  0.00  0.00    +0.000 C 
BRANCH   5   6
ATOM      6  C   UNL     1       4.558   0.253   0.363  0.00  0.00    +0.000 C 
BRANCH   6   7
ATOM      7  C   UNL     1       5.559  -0.603  -0.416  0.00  0.00    +0.000 C 
BRANCH   7   8
ATOM      8  C   UNL     1       6.883  -0.729   0.339  0.00  0.00    +0.000 C 
ATOM      9  C   UNL     1       7.870  -1.610  -0.411  0.00  0.00    +0.000 C 
ENDBRANCH   7   8
ENDBRANCH   6   7
ENDBRANCH   5   6
ENDBRANCH   4   5
ENDBRANCH   3   4
ENDBRANCH   2   3
ENDBRANCH   1   2
BRANCH   1  10
ATOM     10  C   UNL     1      -2.440   0.479   0.278  0.00  0.00    +0.131 C 
BRANCH  10  12
ATOM     11  O   UNL     1      -4.434   0.984  -1.009  0.00  0.00    -0.286 OA
ATOM     12  C   UNL     1      -3.821   0.204  -0.282  0.00  0.00    +0.255 C 
BRANCH  12  16
ATOM     13  F   UNL     1      -3.609  -1.831   0.913  0.00  0.00    -0.163 F 
ATOM     14  F   UNL     1      -4.705  -1.891  -0.970  0.00  0.00    -0.163 F 
ATOM     15  F   UNL     1      -5.598  -0.948   0.781  0.00  0.00    -0.163 F 
ATOM     16  C   UNL     1      -4.432  -1.113   0.108  0.00  0.00    +0.452 C 
ENDBRANCH  12  16
ENDBRANCH  10  12
ENDBRANCH   1  10
TORSDOF 10
