REMARK  Name = 23640750
REMARK  6 active torsions:
REMARK  status: ('A' for Active; 'I' for Inactive)
REMARK    1  A    between atoms: C_4  and  C_16
REMARK    2  A    between atoms: C_5  and  C_11
REMARK    3  A    between atoms: C_11  and  C_12
REMARK    4  A    between atoms: C_12  and  C_13
REMARK    5  A    between atoms: C_13  and  O_14
REMARK    6  A    between atoms: C_16  and  N_17
REMARK                            x       y       z     vdW  Elec       q    Type
REMARK                         _______ _______ _______ _____ _____    ______ ____
ROOT
ATOM      1  N   UNL     1      -0.192   1.418   0.233  0.00  0.00    -0.312 N 
ATOM      2  C   UNL     1      -0.390   0.057   0.183  0.00  0.00    +0.044 C 
ATOM      3  C   UNL     1       0.807  -0.517  -0.249  0.00  0.00    +0.008 C 
ATOM      4  C   UNL     1       1.730   0.546  -0.456  0.00  0.00    -0.027 C 
ATOM      5  C   UNL     1      -1.526  -0.703   0.485  0.00  0.00    -0.009 C 
ATOM      6  C   UNL     1       1.086   1.724  -0.152  0.00  0.00    +0.055 C 
ATOM      7  C   UNL     1       0.876  -1.918  -0.388  0.00  0.00    +0.001 C 
ATOM      8  C   UNL     1      -1.434  -2.090   0.339  0.00  0.00    -0.003 C 
ATOM      9  C   UNL     1      -0.252  -2.690  -0.090  0.00  0.00    -0.000 C 
ATOM     10  H   UNL     1      -0.870   2.077   0.506  0.00  0.00    +0.152 HD
ENDROOT
BRANCH   5  11
ATOM     11  C   UNL     1      -2.807  -0.093   0.947  0.00  0.00    +0.030 C 
BRANCH  11  12
ATOM     12  C   UNL     1      -3.739   0.256  -0.220  0.00  0.00    +0.036 C 
BRANCH  12  13
ATOM     13  C   UNL     1      -5.024   0.922   0.253  0.00  0.00    +0.138 C 
BRANCH  13  14
ATOM     14  O   UNL     1      -5.838   1.201  -0.878  0.00  0.00    -0.382 OA
ATOM     15  H   UNL     1      -6.660   1.626  -0.586  0.00  0.00    +0.210 HD
ENDBRANCH  13  14
ENDBRANCH  12  13
ENDBRANCH  11  12
ENDBRANCH   5  11
BRANCH   4  16
ATOM     16  C   UNL     1       3.127   0.420  -0.917  0.00  0.00    -0.049 C 
BRANCH  16  17
ATOM     17  N   UNL     1       4.020   0.269   0.235  0.00  0.00    +0.387 N 
ATOM     18  C   UNL     1       4.286   1.570   0.846  0.00  0.00    -0.100 C 
ATOM     19  C   UNL     1       5.269  -0.372  -0.171  0.00  0.00    -0.100 C 
ATOM     20  H   UNL     1       3.563  -0.325   0.926  0.00  0.00    -0.079 HD
ENDBRANCH  16  17
ENDBRANCH   4  16
TORSDOF 6
