REMARK  Name = 16750071
REMARK  4 active torsions:
REMARK  status: ('A' for Active; 'I' for Inactive)
REMARK    1  A    between atoms: N_1  and  C_10
REMARK    2  A    between atoms: C_7  and  C_17
REMARK    3  A    between atoms: C_17  and  C_18
REMARK    4  A    between atoms: C_21  and  O_24
REMARK                            x       y       z     vdW  Elec       q    Type
REMARK                         _______ _______ _______ _____ _____    ______ ____
ROOT
ATOM      1  N   UNL     1       1.760   0.913   0.209  0.00  0.00    -0.202 N 
ATOM      2  N   UNL     1       0.632   1.101   0.919  0.00  0.00    -0.185 NA
ATOM      3  N   UNL     1       3.008  -0.874  -0.844  0.00  0.00    -0.232 NA
ATOM      4  N   UNL     1       1.912  -3.034  -0.551  0.00  0.00    -0.234 NA
ATOM      5  C   UNL     1       1.974  -0.387  -0.140  0.00  0.00    +0.136 C 
ATOM      6  C   UNL     1       0.909  -1.102   0.379  0.00  0.00    +0.146 C 
ATOM      7  C   UNL     1       0.118  -0.130   1.019  0.00  0.00    +0.072 C 
ATOM      8  C   UNL     1       0.898  -2.474   0.152  0.00  0.00    +0.111 C 
ATOM      9  C   UNL     1       2.890  -2.211  -0.999  0.00  0.00    +0.252 C 
ATOM     10  N   UNL     1      -0.143  -3.283   0.642  0.00  0.00    -0.346 N 
ATOM     11  H   UNL     1      -0.135  -4.253   0.472  0.00  0.00    +0.143 HD
ATOM     12  H   UNL     1      -0.881  -2.879   1.154  0.00  0.00    +0.143 HD
ENDROOT
BRANCH   1  13
ATOM     13  C   UNL     1       2.628   2.080  -0.113  0.00  0.00    +0.081 C 
ATOM     14  C   UNL     1       2.751   2.230  -1.645  0.00  0.00    +0.022 C 
ATOM     15  C   UNL     1       4.029   1.874   0.504  0.00  0.00    +0.022 C 
ATOM     16  C   UNL     1       2.094   3.429   0.429  0.00  0.00    +0.022 C 
ENDBRANCH   1  13
BRANCH   7  17
ATOM     17  C   UNL     1      -1.149  -0.325   1.747  0.00  0.00    +0.070 C 
BRANCH  17  18
ATOM     18  C   UNL     1      -2.276  -0.176   0.744  0.00  0.00    -0.013 C 
ATOM     19  C   UNL     1      -2.844   1.076   0.513  0.00  0.00    +0.033 C 
ATOM     20  C   UNL     1      -2.744  -1.293   0.052  0.00  0.00    -0.004 C 
ATOM     21  C   UNL     1      -3.881   1.212  -0.410  0.00  0.00    +0.133 C 
ATOM     22  C   UNL     1      -3.782  -1.157  -0.871  0.00  0.00    +0.003 C 
ATOM     23  C   UNL     1      -4.350   0.096  -1.102  0.00  0.00    +0.037 C 
BRANCH  21  24
ATOM     24  O   UNL     1      -4.436   2.434  -0.635  0.00  0.00    -0.506 OA
ATOM     25  H   UNL     1      -4.121   3.185  -0.171  0.00  0.00    +0.292 HD
ENDBRANCH  21  24
ENDBRANCH  17  18
ENDBRANCH   7  17
TORSDOF 4
