REMARK  Name = 9547915
REMARK  9 active torsions:
REMARK  status: ('A' for Active; 'I' for Inactive)
REMARK    1  A    between atoms: C_1  and  C_4
REMARK    2  A    between atoms: C_1  and  N_8
REMARK    3  A    between atoms: C_1  and  C_24
REMARK    4  A    between atoms: C_9  and  C_11
REMARK    5  A    between atoms: C_11  and  N_13
REMARK    6  A    between atoms: C_11  and  C_17
REMARK    7  A    between atoms: C_17  and  C_18
REMARK    8  A    between atoms: C_24  and  C_28
REMARK    9  A    between atoms: C_25  and  C_36
REMARK                            x       y       z     vdW  Elec       q    Type
REMARK                         _______ _______ _______ _____ _____    ______ ____
ROOT
ATOM      1  C   UNL     1      -1.861  -2.364  -0.017  0.00  0.00    +0.153 C 
ENDROOT
BRANCH   1   4
ATOM      2  O   UNL     1      -4.009  -2.523   1.109  0.00  0.00    -0.274 OA
ATOM      3  N   UNL     1      -3.536  -4.018  -0.569  0.00  0.00    -0.327 N 
ATOM      4  C   UNL     1      -3.233  -2.961   0.263  0.00  0.00    +0.238 C 
ATOM      5  H   UNL     1      -4.399  -4.483  -0.480  0.00  0.00    +0.145 HD
ATOM      6  H   UNL     1      -2.889  -4.307  -1.253  0.00  0.00    +0.145 HD
ENDBRANCH   1   4
BRANCH   1   8
ATOM      7  O   UNL     1      -0.445  -0.300  -1.467  0.00  0.00    -0.273 OA
ATOM      8  N   UNL     1      -1.975  -0.935   0.161  0.00  0.00    -0.297 N 
ATOM      9  C   UNL     1      -1.252  -0.014  -0.585  0.00  0.00    +0.241 C 
ATOM     10  H   UNL     1      -2.597  -0.597   0.845  0.00  0.00    +0.150 HD
BRANCH   9  11
ATOM     11  C   UNL     1      -1.529   1.419  -0.146  0.00  0.00    +0.153 C 
BRANCH  11  13
ATOM     12  O   UNL     1      -0.619   3.588   1.556  0.00  0.00    -0.275 OA
ATOM     13  N   UNL     1      -0.285   2.141  -0.238  0.00  0.00    -0.298 N 
ATOM     14  C   UNL     1       0.064   3.168   0.626  0.00  0.00    +0.223 C 
ATOM     15  C   UNL     1       1.427   3.733   0.324  0.00  0.00    +0.095 C 
ATOM     16  H   UNL     1       0.349   1.893  -0.949  0.00  0.00    +0.150 HD
ENDBRANCH  11  13
BRANCH  11  17
ATOM     17  C   UNL     1      -2.625   2.041  -1.020  0.00  0.00    +0.055 C 
BRANCH  17  18
ATOM     18  C   UNL     1      -4.014   1.644  -0.584  0.00  0.00    -0.020 C 
ATOM     19  C   UNL     1      -4.597   0.508  -1.124  0.00  0.00    -0.004 C 
ATOM     20  C   UNL     1      -4.683   2.422   0.348  0.00  0.00    -0.004 C 
ATOM     21  C   UNL     1      -5.881   0.141  -0.722  0.00  0.00    -0.000 C 
ATOM     22  C   UNL     1      -5.967   2.055   0.750  0.00  0.00    -0.000 C 
ATOM     23  C   UNL     1      -6.566   0.915   0.215  0.00  0.00    -0.000 C 
ENDBRANCH  17  18
ENDBRANCH  11  17
ENDBRANCH   9  11
ENDBRANCH   1   8
BRANCH   1  24
ATOM     24  C   UNL     1      -0.810  -2.982   0.911  0.00  0.00    +0.055 C 
BRANCH  24  28
ATOM     25  C   UNL     1       3.100  -1.349   0.304  0.00  0.00    +0.002 C 
ATOM     26  C   UNL     1       2.691  -2.467  -0.422  0.00  0.00    -0.003 C 
ATOM     27  C   UNL     1       2.235  -0.763   1.228  0.00  0.00    -0.003 C 
ATOM     28  C   UNL     1       0.569  -2.406   0.698  0.00  0.00    -0.020 C 
ATOM     29  C   UNL     1       1.417  -2.999  -0.224  0.00  0.00    -0.004 C 
ATOM     30  C   UNL     1       0.961  -1.295   1.426  0.00  0.00    -0.004 C 
BRANCH  25  36
ATOM     31  S   UNL     1       4.427   0.341  -1.311  0.00  0.00    +0.059 S 
ATOM     32  O   UNL     1       4.716  -0.395  -2.524  0.00  0.00    -0.154 OA
ATOM     33  O   UNL     1       3.303   1.247  -1.199  0.00  0.00    -0.154 OA
ATOM     34  O   UNL     1       7.278   1.171   1.106  0.00  0.00    -0.273 OA
ATOM     35  N   UNL     1       5.856   1.151  -0.769  0.00  0.00    -0.188 N 
ATOM     36  C   UNL     1       4.475  -0.775   0.091  0.00  0.00    +0.180 C 
ATOM     37  C   UNL     1       5.132   0.025   1.231  0.00  0.00    +0.117 C 
ATOM     38  C   UNL     1       6.232   0.834   0.574  0.00  0.00    +0.243 C 
ATOM     39  H   UNL     1       6.366   1.776  -1.335  0.00  0.00    +0.176 HD
ENDBRANCH  25  36
ENDBRANCH  24  28
ENDBRANCH   1  24
TORSDOF 9
