REMARK  Name = 4369485
REMARK  5 active torsions:
REMARK  status: ('A' for Active; 'I' for Inactive)
REMARK    1  A    between atoms: N_4  and  C_29
REMARK    2  A    between atoms: C_8  and  C_15
REMARK    3  A    between atoms: C_11  and  O_27
REMARK    4  A    between atoms: C_20  and  C_23
REMARK    5  A    between atoms: C_29  and  C_32
REMARK                            x       y       z     vdW  Elec       q    Type
REMARK                         _______ _______ _______ _____ _____    ______ ____
ROOT
ATOM      1  O   UNL     1       2.785  -2.777  -1.592  0.00  0.00    -0.275 OA
ATOM      2  O   UNL     1      -0.490   0.442  -2.073  0.00  0.00    -0.275 OA
ATOM      3  N   UNL     1      -0.605  -1.978   0.945  0.00  0.00    +0.394 N 
ATOM      4  N   UNL     1       1.389  -0.933  -1.926  0.00  0.00    -0.226 N 
ATOM      5  C   UNL     1       0.432  -2.922   0.482  0.00  0.00    -0.046 C 
ATOM      6  C   UNL     1       0.434  -2.869  -1.043  0.00  0.00    +0.065 C 
ATOM      7  C   UNL     1      -0.685  -1.894  -1.418  0.00  0.00    +0.069 C 
ATOM      8  C   UNL     1      -1.568  -1.832  -0.166  0.00  0.00    -0.025 C 
ATOM      9  C   UNL     1       0.020  -4.271   1.058  0.00  0.00    +0.007 C 
ATOM     10  C   UNL     1      -1.208  -2.535   2.173  0.00  0.00    -0.047 C 
ATOM     11  C   UNL     1      -0.542  -3.886   2.413  0.00  0.00    +0.088 C 
ATOM     12  C   UNL     1       1.694  -2.226  -1.563  0.00  0.00    +0.230 C 
ATOM     13  C   UNL     1       0.048  -0.629  -1.827  0.00  0.00    +0.230 C 
ATOM     14  H   UNL     1      -0.245  -1.053   1.181  0.00  0.00    -0.079 HD
ENDROOT
BRANCH   8  15
ATOM     15  C   UNL     1      -2.483  -0.629  -0.094  0.00  0.00    -0.041 C 
ATOM     16  C   UNL     1      -3.749  -0.677  -0.681  0.00  0.00    -0.006 C 
ATOM     17  C   UNL     1      -2.065   0.530   0.561  0.00  0.00    -0.006 C 
ATOM     18  C   UNL     1      -4.593   0.431  -0.614  0.00  0.00    +0.002 C 
ATOM     19  C   UNL     1      -2.909   1.639   0.629  0.00  0.00    +0.002 C 
ATOM     20  C   UNL     1      -4.173   1.589   0.042  0.00  0.00    +0.031 C 
BRANCH  20  23
ATOM     21  N   UNL     1      -6.320   2.728  -0.468  0.00  0.00    -0.343 N 
ATOM     22  N   UNL     1      -4.650   3.842   0.728  0.00  0.00    -0.285 NA
ATOM     23  C   UNL     1      -5.053   2.746   0.111  0.00  0.00    +0.117 C 
ATOM     24  H   UNL     1      -6.899   3.522  -0.409  0.00  0.00    +0.144 HD
ATOM     25  H   UNL     1      -6.637   1.921  -0.935  0.00  0.00    +0.144 HD
ATOM     26  H   UNL     1      -5.244   4.626   0.776  0.00  0.00    +0.188 HD
ENDBRANCH  20  23
ENDBRANCH   8  15
BRANCH  11  27
ATOM     27  O   UNL     1       0.513  -3.727   3.355  0.00  0.00    -0.387 OA
ATOM     28  H   UNL     1       0.939  -4.584   3.511  0.00  0.00    +0.210 HD
ENDBRANCH  11  27
BRANCH   4  29
ATOM     29  C   UNL     1       2.396   0.006  -2.380  0.00  0.00    +0.127 C 
BRANCH  29  32
ATOM     30  O   UNL     1       2.492   3.851   0.716  0.00  0.00    -0.435 OA
ATOM     31  O   UNL     1       4.423   3.007   1.887  0.00  0.00    -0.435 OA
ATOM     32  C   UNL     1       2.967   0.787  -1.228  0.00  0.00    +0.001 C 
ATOM     33  C   UNL     1       2.370   1.987  -0.855  0.00  0.00    +0.038 C 
ATOM     34  C   UNL     1       4.089   0.289  -0.555  0.00  0.00    +0.001 C 
ATOM     35  C   UNL     1       2.930   2.667   0.207  0.00  0.00    +0.176 C 
ATOM     36  C   UNL     1       4.636   0.998   0.518  0.00  0.00    +0.040 C 
ATOM     37  C   UNL     1       4.032   2.186   0.875  0.00  0.00    +0.176 C 
ATOM     38  C   UNL     1       3.443   4.060   1.781  0.00  0.00    +0.429 C 
ENDBRANCH  29  32
ENDBRANCH   4  29
TORSDOF 5
