REMARK  Name = 9848818
REMARK  9 active torsions:
REMARK  status: ('A' for Active; 'I' for Inactive)
REMARK    1  A    between atoms: C_6  and  C_24
REMARK    2  A    between atoms: C_10  and  O_20
REMARK    3  A    between atoms: C_19  and  O_22
REMARK    4  A    between atoms: C_24  and  C_26
REMARK    5  A    between atoms: C_26  and  C_27
REMARK    6  A    between atoms: C_27  and  C_30
REMARK    7  A    between atoms: N_29  and  C_32
REMARK    8  A    between atoms: C_32  and  C_33
REMARK    9  A    between atoms: C_33  and  S_34
REMARK                            x       y       z     vdW  Elec       q    Type
REMARK                         _______ _______ _______ _____ _____    ______ ____
ROOT
ATOM      1  C   UNL     1      -1.234  -0.345  -0.811  0.00  0.00    +0.002 C 
ATOM      2  C   UNL     1      -0.840  -1.670  -0.118  0.00  0.00    +0.000 C 
ATOM      3  C   UNL     1      -2.745  -0.246  -1.106  0.00  0.00    +0.027 C 
ATOM      4  C   UNL     1      -3.517  -0.356   0.254  0.00  0.00    +0.002 C 
ATOM      5  C   UNL     1      -5.075  -0.217   0.072  0.00  0.00    +0.000 C 
ATOM      6  C   UNL     1       0.690  -1.456  -0.012  0.00  0.00    +0.000 C 
ATOM      7  C   UNL     1      -5.393   1.116  -0.680  0.00  0.00    +0.005 C 
ATOM      8  C   UNL     1      -1.564  -1.735   1.232  0.00  0.00    +0.000 C 
ATOM      9  C   UNL     1      -3.087  -1.607   1.066  0.00  0.00    +0.000 C 
ATOM     10  C   UNL     1      -3.113   1.052  -1.851  0.00  0.00    +0.110 C 
ATOM     11  C   UNL     1      -0.222  -0.233  -1.950  0.00  0.00    +0.000 C 
ATOM     12  C   UNL     1       1.069  -0.846  -1.379  0.00  0.00    +0.000 C 
ATOM     13  C   UNL     1      -4.624   1.228  -2.002  0.00  0.00    +0.029 C 
ATOM     14  C   UNL     1      -5.837  -0.204   1.430  0.00  0.00    +0.002 C 
ATOM     15  C   UNL     1      -1.170  -2.937  -0.947  0.00  0.00    +0.000 C 
ATOM     16  C   UNL     1      -5.148   2.367   0.189  0.00  0.00    +0.029 C 
ATOM     17  C   UNL     1      -5.647  -1.413  -0.732  0.00  0.00    +0.000 C 
ATOM     18  C   UNL     1      -5.561   1.029   2.282  0.00  0.00    +0.029 C 
ATOM     19  C   UNL     1      -5.892   2.304   1.519  0.00  0.00    +0.111 C 
ENDROOT
BRANCH  10  20
ATOM     20  O   UNL     1      -2.551   1.028  -3.163  0.00  0.00    -0.384 OA
ATOM     21  H   UNL     1      -1.590   0.917  -3.101  0.00  0.00    +0.210 HD
ENDBRANCH  10  20
BRANCH  19  22
ATOM     22  O   UNL     1      -5.530   3.421   2.324  0.00  0.00    -0.384 OA
ATOM     23  H   UNL     1      -5.737   4.242   1.850  0.00  0.00    +0.210 HD
ENDBRANCH  19  22
BRANCH   6  24
ATOM     24  C   UNL     1       1.527  -2.676   0.345  0.00  0.00    +0.000 C 
ATOM     25  C   UNL     1       1.419  -2.965   1.847  0.00  0.00    +0.000 C 
BRANCH  24  26
ATOM     26  C   UNL     1       3.012  -2.514  -0.038  0.00  0.00    +0.010 C 
BRANCH  26  27
ATOM     27  C   UNL     1       3.707  -1.371   0.703  0.00  0.00    +0.085 C 
BRANCH  27  30
ATOM     28  O   UNL     1       5.744  -2.031  -0.428  0.00  0.00    -0.275 OA
ATOM     29  N   UNL     1       5.798  -0.233   1.043  0.00  0.00    -0.303 N 
ATOM     30  C   UNL     1       5.185  -1.274   0.361  0.00  0.00    +0.223 C 
ATOM     31  H   UNL     1       5.252   0.313   1.654  0.00  0.00    +0.149 HD
BRANCH  29  32
ATOM     32  C   UNL     1       7.199   0.089   0.898  0.00  0.00    +0.115 C 
BRANCH  32  33
ATOM     33  C   UNL     1       7.445   1.089  -0.215  0.00  0.00    +0.179 C 
BRANCH  33  34
ATOM     34  S   UNL     1       6.566   2.600   0.035  0.00  0.00    +0.024 S 
ATOM     35  O   UNL     1       7.228   3.436  -1.200  0.00  0.00    -0.069 OA
ATOM     36  O   UNL     1       6.999   3.195   1.286  0.00  0.00    -0.069 OA
ATOM     37  O   UNL     1       5.162   2.377  -0.254  0.00  0.00    -0.069 OA
ENDBRANCH  33  34
ENDBRANCH  32  33
ENDBRANCH  29  32
ENDBRANCH  27  30
ENDBRANCH  26  27
ENDBRANCH  24  26
ENDBRANCH   6  24
TORSDOF 9
