REMARK  Name = 82315
REMARK  2 active torsions:
REMARK  status: ('A' for Active; 'I' for Inactive)
REMARK    1  A    between atoms: C_1  and  N_7
REMARK    2  A    between atoms: C_6  and  O_12
REMARK                            x       y       z     vdW  Elec       q    Type
REMARK                         _______ _______ _______ _____ _____    ______ ____
ROOT
ATOM      1  C   UNL     1       0.018   0.015   0.000  0.00  0.00    +0.057 C 
ATOM      2  C   UNL     1       0.728   1.216   0.000  0.00  0.00    +0.018 C 
ATOM      3  C   UNL     1       0.704  -1.200  -0.001  0.00  0.00    +0.018 C 
ATOM      4  C   UNL     1       2.122   1.202   0.001  0.00  0.00    +0.038 C 
ATOM      5  C   UNL     1       2.098  -1.214   0.000  0.00  0.00    +0.038 C 
ATOM      6  C   UNL     1       2.808  -0.013   0.000  0.00  0.00    +0.134 C 
ENDROOT
BRANCH   1   7
ATOM      7  N   UNL     1      -1.365   0.029  -0.001  0.00  0.00    -0.246 N 
ATOM      8  N   UNL     1      -3.462  -0.726   0.002  0.00  0.00    -0.224 NA
ATOM      9  C   UNL     1      -2.172   1.138  -0.001  0.00  0.00    +0.092 C 
ATOM     10  C   UNL     1      -2.192  -1.066   0.000  0.00  0.00    +0.172 C 
ATOM     11  C   UNL     1      -3.456   0.647   0.000  0.00  0.00    +0.117 C 
ENDBRANCH   1   7
BRANCH   6  12
ATOM     12  O   UNL     1       4.169  -0.027   0.000  0.00  0.00    -0.506 OA
ATOM     13  H   UNL     1       4.645   0.780   0.001  0.00  0.00    +0.292 HD
ENDBRANCH   6  12
TORSDOF 2
