REMARK  Name = 6852128
REMARK  5 active torsions:
REMARK  status: ('A' for Active; 'I' for Inactive)
REMARK    1  A    between atoms: N_2  and  S_19
REMARK    2  A    between atoms: N_3  and  C_7
REMARK    3  A    between atoms: C_8  and  S_13
REMARK    4  A    between atoms: S_13  and  N_16
REMARK    5  A    between atoms: S_19  and  C_22
REMARK                            x       y       z     vdW  Elec       q    Type
REMARK                         _______ _______ _______ _____ _____    ______ ____
ROOT
ATOM      1  O   UNL     1       0.509   0.671  -1.247  0.00  0.00    -0.251 OA
ATOM      2  N   UNL     1       1.667   1.702   0.485  0.00  0.00    -0.169 N 
ATOM      3  N   UNL     1      -0.587   1.177   0.752  0.00  0.00    -0.267 N 
ATOM      4  C   UNL     1       0.494   1.128  -0.111  0.00  0.00    +0.323 C 
ATOM      5  H   UNL     1       1.599   2.005   1.419  0.00  0.00    +0.178 HD
ATOM      6  H   UNL     1      -0.419   1.583   1.633  0.00  0.00    +0.156 HD
ENDROOT
BRANCH   3   7
ATOM      7  C   UNL     1      -1.904   0.715   0.523  0.00  0.00    +0.052 C 
ATOM      8  C   UNL     1      -4.485  -0.189   0.076  0.00  0.00    +0.122 C 
ATOM      9  C   UNL     1      -4.154   0.402   1.296  0.00  0.00    +0.021 C 
ATOM     10  C   UNL     1      -3.517  -0.324  -0.918  0.00  0.00    +0.021 C 
ATOM     11  C   UNL     1      -2.855   0.857   1.521  0.00  0.00    +0.016 C 
ATOM     12  C   UNL     1      -2.217   0.131  -0.693  0.00  0.00    +0.016 C 
BRANCH   8  13
ATOM     13  S   UNL     1      -6.111  -0.758  -0.206  0.00  0.00    +0.057 S 
ATOM     14  O   UNL     1      -7.014  -0.021   0.667  0.00  0.00    -0.153 OA
ATOM     15  O   UNL     1      -6.351  -0.780  -1.642  0.00  0.00    -0.153 OA
BRANCH  13  16
ATOM     16  N   UNL     1      -5.994  -2.368   0.356  0.00  0.00    -0.203 NA
ATOM     17  H   UNL     1      -6.896  -2.832   0.248  0.00  0.00    +0.144 HD
ATOM     18  H   UNL     1      -5.729  -2.366   1.340  0.00  0.00    +0.144 HD
ENDBRANCH  13  16
ENDBRANCH   8  13
ENDBRANCH   3   7
BRANCH   2  19
ATOM     19  S   UNL     1       3.178   1.900  -0.300  0.00  0.00    +0.077 S 
ATOM     20  O   UNL     1       3.969   2.873   0.442  0.00  0.00    -0.150 OA
ATOM     21  O   UNL     1       2.942   2.101  -1.723  0.00  0.00    -0.150 OA
BRANCH  19  22
ATOM     22  C   UNL     1       3.892   0.319  -0.102  0.00  0.00    +0.125 C 
ATOM     23  C   UNL     1       3.682  -0.667  -1.065  0.00  0.00    +0.020 C 
ATOM     24  C   UNL     1       4.674   0.043   1.020  0.00  0.00    +0.020 C 
ATOM     25  C   UNL     1       5.036  -2.206   0.214  0.00  0.00    -0.022 C 
ATOM     26  C   UNL     1       4.254  -1.930  -0.907  0.00  0.00    -0.003 C 
ATOM     27  C   UNL     1       5.246  -1.219   1.178  0.00  0.00    -0.003 C 
ATOM     28  C   UNL     1       5.647  -3.556   0.384  0.00  0.00    +0.031 C 
ENDBRANCH  19  22
ENDBRANCH   2  19
TORSDOF 5
