REMARK  Name = 7045767
REMARK  6 active torsions:
REMARK  status: ('A' for Active; 'I' for Inactive)
REMARK    1  A    between atoms: C_1  and  O_2
REMARK    2  A    between atoms: C_1  and  C_6
REMARK    3  A    between atoms: C_1  and  C_11
REMARK    4  A    between atoms: O_2  and  C_4
REMARK    5  A    between atoms: C_6  and  N_7
REMARK    6  A    between atoms: C_11  and  C_14
REMARK                            x       y       z     vdW  Elec       q    Type
REMARK                         _______ _______ _______ _____ _____    ______ ____
ROOT
ATOM      1  C   UNL     1       0.018  -0.134   0.738  0.00  0.00    +0.160 C 
ENDROOT
BRANCH   1   2
ATOM      2  O   UNL     1       0.164   0.904  -0.232  0.00  0.00    -0.454 OA
BRANCH   2   4
ATOM      3  O   UNL     1       1.687   1.980   1.133  0.00  0.00    -0.250 OA
ATOM      4  C   UNL     1       1.036   1.901   0.100  0.00  0.00    +0.317 C 
ATOM      5  C   UNL     1       1.088   2.913  -1.004  0.00  0.00    +0.121 C 
ENDBRANCH   2   4
ENDBRANCH   1   2
BRANCH   1   6
ATOM      6  C   UNL     1      -1.066  -1.088   0.238  0.00  0.00    -0.028 C 
BRANCH   6   7
ATOM      7  N   UNL     1      -2.364  -0.344  -0.039  0.00  0.00    +0.388 N 
ATOM      8  C   UNL     1      -2.841   0.338   1.236  0.00  0.00    -0.096 C 
ATOM      9  C   UNL     1      -2.128   0.705  -1.117  0.00  0.00    -0.096 C 
ATOM     10  C   UNL     1      -3.423  -1.329  -0.514  0.00  0.00    -0.096 C 
ENDBRANCH   6   7
ENDBRANCH   1   6
BRANCH   1  11
ATOM     11  C   UNL     1       1.368  -0.809   0.983  0.00  0.00    +0.155 C 
BRANCH  11  14
ATOM     12  O   UNL     1       2.679  -2.535   0.066  0.00  0.00    -0.246 OA
ATOM     13  O   UNL     1       1.782  -0.993  -1.359  0.00  0.00    -0.246 OA
ATOM     14  C   UNL     1       2.000  -1.509  -0.229  0.00  0.00    +0.368 C 
ENDBRANCH  11  14
ENDBRANCH   1  11
TORSDOF 6
