REMARK  Name = 2059510
REMARK  7 active torsions:
REMARK  status: ('A' for Active; 'I' for Inactive)
REMARK    1  A    between atoms: C_4  and  C_10
REMARK    2  A    between atoms: C_6  and  C_18
REMARK    3  A    between atoms: C_15  and  O_16
REMARK    4  A    between atoms: C_23  and  O_24
REMARK    5  A    between atoms: N_26  and  C_28
REMARK    6  A    between atoms: C_28  and  C_29
REMARK    7  A    between atoms: C_29  and  O_30
REMARK                            x       y       z     vdW  Elec       q    Type
REMARK                         _______ _______ _______ _____ _____    ______ ____
ROOT
ATOM      1  O   UNL     1      -0.626   2.702  -0.025  0.00  0.00    -0.440 OA
ATOM      2  N   UNL     1       1.308   4.096  -0.172  0.00  0.00    -0.214 NA
ATOM      3  N   UNL     1       3.407   2.862  -0.224  0.00  0.00    -0.233 NA
ATOM      4  C   UNL     1       0.353   0.675   0.008  0.00  0.00    +0.028 C 
ATOM      5  C   UNL     1       1.371   1.655  -0.079  0.00  0.00    +0.155 C 
ATOM      6  C   UNL     1      -0.839   1.362   0.038  0.00  0.00    +0.144 C 
ATOM      7  C   UNL     1       0.724   2.887  -0.097  0.00  0.00    +0.214 C 
ATOM      8  C   UNL     1       2.762   1.675  -0.147  0.00  0.00    +0.115 C 
ATOM      9  C   UNL     1       2.650   3.983  -0.231  0.00  0.00    +0.254 C 
ATOM     10  N   UNL     1       3.507   0.482  -0.136  0.00  0.00    -0.319 N 
ATOM     11  H   UNL     1       3.023  -0.373  -0.080  0.00  0.00    +0.148 HD
ENDROOT
BRANCH   4  12
ATOM     12  C   UNL     1       0.441  -0.757   0.059  0.00  0.00    +0.000 C 
ATOM     13  C   UNL     1       0.541  -1.406   1.290  0.00  0.00    +0.003 C 
ATOM     14  C   UNL     1       0.425  -1.500  -1.122  0.00  0.00    +0.003 C 
ATOM     15  C   UNL     1       0.626  -2.798   1.340  0.00  0.00    +0.037 C 
ATOM     16  C   UNL     1       0.510  -2.892  -1.072  0.00  0.00    +0.037 C 
ATOM     17  C   UNL     1       0.611  -3.541   0.159  0.00  0.00    +0.139 C 
BRANCH  17  18
ATOM     18  O   UNL     1       0.692  -4.898   0.208  0.00  0.00    -0.471 OA
ATOM     19  C   UNL     1       0.671  -5.595  -1.037  0.00  0.00    +0.252 C 
ENDBRANCH  17  18
ENDBRANCH   4  12
BRANCH   6  20
ATOM     20  C   UNL     1      -2.223   0.979   0.118  0.00  0.00    +0.035 C 
ATOM     21  C   UNL     1      -2.841   0.838   1.363  0.00  0.00    +0.006 C 
ATOM     22  C   UNL     1      -2.955   0.745  -1.048  0.00  0.00    +0.006 C 
ATOM     23  C   UNL     1      -4.183   0.466   1.441  0.00  0.00    +0.037 C 
ATOM     24  C   UNL     1      -4.297   0.373  -0.970  0.00  0.00    +0.037 C 
ATOM     25  C   UNL     1      -4.911   0.234   0.274  0.00  0.00    +0.139 C 
BRANCH  25  26
ATOM     26  O   UNL     1      -6.221  -0.129   0.350  0.00  0.00    -0.471 OA
ATOM     27  C   UNL     1      -6.906  -0.351  -0.881  0.00  0.00    +0.252 C 
ENDBRANCH  25  26
ENDBRANCH   6  20
BRANCH  10  28
ATOM     28  C   UNL     1       4.937   0.455  -0.203  0.00  0.00    +0.120 C 
BRANCH  28  29
ATOM     29  C   UNL     1       5.431  -0.982  -0.206  0.00  0.00    +0.158 C 
BRANCH  29  30
ATOM     30  O   UNL     1       5.036  -1.620   1.002  0.00  0.00    -0.380 OA
ATOM     31  H   UNL     1       5.351  -2.538   1.000  0.00  0.00    +0.211 HD
ENDBRANCH  29  30
ENDBRANCH  28  29
ENDBRANCH  10  28
TORSDOF 7
