REMARK  Name = 24883486
REMARK  5 active torsions:
REMARK  status: ('A' for Active; 'I' for Inactive)
REMARK    1  A    between atoms: N_2  and  C_10
REMARK    2  A    between atoms: C_3  and  C_19
REMARK    3  A    between atoms: C_19  and  C_20
REMARK    4  A    between atoms: C_19  and  O_26
REMARK    5  A    between atoms: O_26  and  C_28
REMARK                            x       y       z     vdW  Elec       q    Type
REMARK                         _______ _______ _______ _____ _____    ______ ____
ROOT
ATOM      1  O   UNL     1       1.539   1.705   1.357  0.00  0.00    -0.270 OA
ATOM      2  N   UNL     1       0.074   0.426   0.034  0.00  0.00    -0.281 N 
ATOM      3  C   UNL     1       1.320   0.931   0.430  0.00  0.00    +0.271 C 
ATOM      4  H   UNL     1       0.084  -0.197  -0.729  0.00  0.00    +0.155 HD
ENDROOT
BRANCH   2  10
ATOM      5  O   UNL     1      -1.302  -1.127  -1.615  0.00  0.00    -0.282 OA
ATOM      6  O   UNL     1      -5.924   0.136   0.731  0.00  0.00    -0.270 OA
ATOM      7  O   UNL     1      -3.547  -2.164  -2.495  0.00  0.00    -0.266 OA
ATOM      8  N   UNL     1      -4.746  -1.012  -0.876  0.00  0.00    -0.246 N 
ATOM      9  C   UNL     1      -2.369   0.133   0.104  0.00  0.00    +0.061 C 
ATOM     10  C   UNL     1      -1.183   0.698   0.585  0.00  0.00    +0.054 C 
ATOM     11  C   UNL     1      -3.591   0.446   0.700  0.00  0.00    +0.058 C 
ATOM     12  C   UNL     1      -1.222   1.578   1.666  0.00  0.00    +0.015 C 
ATOM     13  C   UNL     1      -2.324  -0.794  -1.034  0.00  0.00    +0.250 C 
ATOM     14  C   UNL     1      -3.624   1.330   1.785  0.00  0.00    +0.005 C 
ATOM     15  C   UNL     1      -4.852  -0.143   0.203  0.00  0.00    +0.252 C 
ATOM     16  C   UNL     1      -2.441   1.894   2.265  0.00  0.00    +0.001 C 
ATOM     17  C   UNL     1      -3.598  -1.395  -1.546  0.00  0.00    +0.291 C 
ATOM     18  H   UNL     1      -5.589  -1.401  -1.204  0.00  0.00    +0.158 HD
ENDBRANCH   2  10
BRANCH   3  19
ATOM     19  C   UNL     1       2.455   0.386  -0.434  0.00  0.00    +0.266 C 
BRANCH  19  20
ATOM     20  C   UNL     1       3.053  -0.867   0.161  0.00  0.00    +0.026 C 
ATOM     21  C   UNL     1       4.122  -0.775   1.052  0.00  0.00    -0.000 C 
ATOM     22  C   UNL     1       2.537  -2.117  -0.182  0.00  0.00    -0.000 C 
ATOM     23  C   UNL     1       4.675  -1.932   1.601  0.00  0.00    -0.000 C 
ATOM     24  C   UNL     1       3.090  -3.274   0.366  0.00  0.00    -0.000 C 
ATOM     25  C   UNL     1       4.159  -3.182   1.258  0.00  0.00    -0.000 C 
ENDBRANCH  19  20
BRANCH  19  26
ATOM     26  O   UNL     1       3.473   1.369  -0.551  0.00  0.00    -0.438 OA
BRANCH  26  28
ATOM     27  O   UNL     1       2.420   2.269  -2.399  0.00  0.00    -0.250 OA
ATOM     28  C   UNL     1       3.332   2.254  -1.584  0.00  0.00    +0.318 C 
ATOM     29  C   UNL     1       4.473   3.227  -1.584  0.00  0.00    +0.121 C 
ENDBRANCH  26  28
ENDBRANCH  19  26
ENDBRANCH   3  19
TORSDOF 5
