REMARK  Name = 447012
REMARK  2 active torsions:
REMARK  status: ('A' for Active; 'I' for Inactive)
REMARK    1  A    between atoms: N_2  and  C_21
REMARK    2  A    between atoms: C_12  and  N_20
REMARK                            x       y       z     vdW  Elec       q    Type
REMARK                         _______ _______ _______ _____ _____    ______ ____
ROOT
ATOM      1  O   UNL     1       2.900  -2.320   0.650  0.00  0.00    -0.269 OA
ATOM      2  N   UNL     1       0.474   0.856   0.734  0.00  0.00    -0.271 N 
ATOM      3  N   UNL     1       0.607  -2.070   0.379  0.00  0.00    -0.252 N 
ATOM      4  N   UNL     1       2.176   2.038  -0.470  0.00  0.00    -0.229 NA
ATOM      5  C   UNL     1      -0.649   0.097   0.339  0.00  0.00    +0.068 C 
ATOM      6  C   UNL     1      -0.576  -1.295   0.113  0.00  0.00    +0.068 C 
ATOM      7  C   UNL     1       1.666   0.854  -0.021  0.00  0.00    +0.140 C 
ATOM      8  C   UNL     1       2.292  -0.347  -0.338  0.00  0.00    +0.086 C 
ATOM      9  C   UNL     1       1.938  -1.635   0.288  0.00  0.00    +0.256 C 
ATOM     10  C   UNL     1      -1.899   0.740   0.144  0.00  0.00    +0.040 C 
ATOM     11  C   UNL     1      -1.751  -1.974  -0.293  0.00  0.00    +0.018 C 
ATOM     12  C   UNL     1      -3.038   0.049  -0.261  0.00  0.00    +0.144 C 
ATOM     13  C   UNL     1       0.408  -3.473   0.769  0.00  0.00    +0.120 C 
ATOM     14  C   UNL     1      -2.963  -1.313  -0.484  0.00  0.00    +0.025 C 
ATOM     15  C   UNL     1       3.431  -0.327  -1.157  0.00  0.00    +0.009 C 
ATOM     16  C   UNL     1       3.926   0.874  -1.639  0.00  0.00    +0.021 C 
ATOM     17  C   UNL     1       3.272   2.023  -1.260  0.00  0.00    +0.100 C 
ENDROOT
BRANCH  12  20
ATOM     18  O   UNL     1      -5.282   0.087  -0.794  0.00  0.00    -0.126 OA
ATOM     19  O   UNL     1      -4.310   1.972  -0.227  0.00  0.00    -0.126 OA
ATOM     20  N   UNL     1      -4.268   0.735  -0.436  0.00  0.00    +0.058 N 
ENDBRANCH  12  20
BRANCH   2  21
ATOM     21  C   UNL     1       0.249   2.083   1.503  0.00  0.00    +0.097 C 
ATOM     22  C   UNL     1       1.397   2.348   2.462  0.00  0.00    +0.024 C 
ENDBRANCH   2  21
TORSDOF 2
