REMARK  Name = 11974440
REMARK  4 active torsions:
REMARK  status: ('A' for Active; 'I' for Inactive)
REMARK    1  A    between atoms: C_1  and  C_25
REMARK    2  A    between atoms: C_2  and  N_31
REMARK    3  A    between atoms: C_5  and  C_12
REMARK    4  A    between atoms: C_17  and  C_21
REMARK                            x       y       z     vdW  Elec       q    Type
REMARK                         _______ _______ _______ _____ _____    ______ ____
ROOT
ATOM      1  C   UNL     1      -2.906  -0.911  -0.252  0.00  0.00    +0.009 C 
ATOM      2  C   UNL     1      -2.240  -1.132   1.131  0.00  0.00    -0.057 C 
ATOM      3  C   UNL     1      -1.045  -2.099   1.007  0.00  0.00    +0.009 C 
ATOM      4  C   UNL     1      -1.881  -0.345  -1.263  0.00  0.00    +0.028 C 
ATOM      5  C   UNL     1      -0.169  -1.792  -0.170  0.00  0.00    +0.025 C 
ATOM      6  C   UNL     1      -0.532  -0.998  -1.186  0.00  0.00    -0.026 C 
ENDROOT
BRANCH   5  12
ATOM      7  O   UNL     1       1.317  -3.473  -0.771  0.00  0.00    -0.270 OA
ATOM      8  N   UNL     1       2.221  -1.663   0.374  0.00  0.00    -0.267 N 
ATOM      9  N   UNL     1       4.253   0.185   0.149  0.00  0.00    -0.292 N 
ATOM     10  N   UNL     1       5.848  -1.251  -0.241  0.00  0.00    -0.132 NA
ATOM     11  N   UNL     1       6.359   0.029  -0.369  0.00  0.00    -0.125 NA
ATOM     12  C   UNL     1       1.184  -2.383  -0.212  0.00  0.00    +0.245 C 
ATOM     13  C   UNL     1       2.087  -0.394   1.117  0.00  0.00    +0.119 C 
ATOM     14  C   UNL     1       3.583  -2.219   0.338  0.00  0.00    +0.160 C 
ATOM     15  C   UNL     1       2.930   0.689   0.447  0.00  0.00    +0.130 C 
ATOM     16  C   UNL     1       4.573  -1.143   0.070  0.00  0.00    +0.164 A 
ATOM     17  C   UNL     1       5.383   0.877  -0.131  0.00  0.00    +0.238 A 
BRANCH  17  21
ATOM     18  F   UNL     1       6.697   2.846  -0.478  0.00  0.00    -0.163 F 
ATOM     19  F   UNL     1       4.613   2.937  -1.071  0.00  0.00    -0.163 F 
ATOM     20  F   UNL     1       5.141   2.934   1.038  0.00  0.00    -0.163 F 
ATOM     21  C   UNL     1       5.457   2.348  -0.162  0.00  0.00    +0.452 C 
ENDBRANCH  17  21
ENDBRANCH   5  12
BRANCH   1  25
ATOM     22  F   UNL     1      -5.482  -1.805  -1.037  0.00  0.00    -0.204 F 
ATOM     23  F   UNL     1      -5.070   3.368   0.689  0.00  0.00    -0.202 F 
ATOM     24  F   UNL     1      -7.492   2.374  -0.097  0.00  0.00    -0.202 F 
ATOM     25  C   UNL     1      -4.144  -0.028  -0.210  0.00  0.00    +0.006 C 
ATOM     26  C   UNL     1      -5.374  -0.539  -0.611  0.00  0.00    +0.138 C 
ATOM     27  C   UNL     1      -4.035   1.288   0.229  0.00  0.00    +0.030 C 
ATOM     28  C   UNL     1      -5.168   2.100   0.268  0.00  0.00    +0.167 C 
ATOM     29  C   UNL     1      -6.507   0.273  -0.572  0.00  0.00    +0.061 C 
ATOM     30  C   UNL     1      -6.404   1.593  -0.132  0.00  0.00    +0.170 C 
ENDBRANCH   1  25
BRANCH   2  31
ATOM     31  N   UNL     1      -3.195  -1.665   2.107  0.00  0.00    +0.382 N 
ATOM     32  H   UNL     1      -3.987  -1.027   2.190  0.00  0.00    -0.089 HD
ATOM     33  H   UNL     1      -2.738  -1.759   3.013  0.00  0.00    -0.089 HD
ATOM     34  H   UNL     1      -3.526  -2.578   1.795  0.00  0.00    -0.089 HD
ENDBRANCH   2  31
TORSDOF 4
