REMARK  Name = 24764430
REMARK  7 active torsions:
REMARK  status: ('A' for Active; 'I' for Inactive)
REMARK    1  A    between atoms: C_1  and  C_7
REMARK    2  A    between atoms: C_2  and  C_17
REMARK    3  A    between atoms: C_7  and  CA_8
REMARK    4  A    between atoms: CA_8  and  N_9
REMARK    5  A    between atoms: CA_8  and  C_14
REMARK    6  A    between atoms: C_14  and  O_15
REMARK    7  A    between atoms: C_17  and  C_21
REMARK                            x       y       z     vdW  Elec       q    Type
REMARK                         _______ _______ _______ _____ _____    ______ ____
ROOT
ATOM      1  C   UNL     1      -1.054   1.019   0.393  0.00  0.00    -0.024 C 
ATOM      2  C   UNL     1       1.715   0.716   0.540  0.00  0.00    -0.014 C 
ATOM      3  C   UNL     1      -0.497   0.129   1.311  0.00  0.00    -0.005 C 
ATOM      4  C   UNL     1      -0.226   1.758  -0.451  0.00  0.00    -0.005 C 
ATOM      5  C   UNL     1       0.887  -0.023   1.385  0.00  0.00    -0.004 C 
ATOM      6  C   UNL     1       1.159   1.606  -0.378  0.00  0.00    -0.004 C 
ENDROOT
BRANCH   1   7
ATOM      7  C   UNL     1      -2.554   1.184   0.314  0.00  0.00    +0.015 C 
BRANCH   7   8
ATOM      8  CA  UNL     1      -3.209   0.215  -0.683  0.00  0.00    +0.040 C 
BRANCH   8   9
ATOM      9  N   UNL     1      -4.524   0.719  -1.071  0.00  0.00    +0.389 N 
ATOM     10  H1  UNL     1      -4.424   1.647  -1.484  0.00  0.00    -0.088 HD
ATOM     11  H2  UNL     1      -5.123   0.777  -0.248  0.00  0.00    -0.088 HD
ATOM     12  H3  UNL     1      -4.943   0.087  -1.753  0.00  0.00    -0.088 HD
ENDBRANCH   8   9
BRANCH   8  14
ATOM     13  OXT UNL     1      -4.432  -1.498   0.542  0.00  0.00    -0.253 OA
ATOM     14  C   UNL     1      -3.432  -1.161  -0.079  0.00  0.00    +0.293 C 
BRANCH  14  15
ATOM     15  O   UNL     1      -2.403  -2.010  -0.333  0.00  0.00    -0.482 OA
ATOM     16  H   UNL     1      -1.656  -1.710  -0.813  0.00  0.00    +0.295 HD
ENDBRANCH  14  15
ENDBRANCH   8  14
ENDBRANCH   7   8
ENDBRANCH   1   7
BRANCH   2  17
ATOM     17  C   UNL     1       3.196   0.553   0.617  0.00  0.00    +0.130 C 
BRANCH  17  21
ATOM     18  F   UNL     1       3.222  -1.743   0.043  0.00  0.00    -0.170 F 
ATOM     19  F   UNL     1       5.066  -0.622  -0.253  0.00  0.00    -0.170 F 
ATOM     20  F   UNL     1       3.366  -0.307  -1.589  0.00  0.00    -0.170 F 
ATOM     21  C   UNL     1       3.720  -0.535  -0.307  0.00  0.00    +0.402 C 
ENDBRANCH  17  21
ENDBRANCH   2  17
TORSDOF 7
