REMARK  Name = 5326870
REMARK  3 active torsions:
REMARK  status: ('A' for Active; 'I' for Inactive)
REMARK    1  A    between atoms: N_2  and  C_7
REMARK    2  A    between atoms: C_3  and  C_19
REMARK    3  A    between atoms: C_16  and  N_23
REMARK                            x       y       z     vdW  Elec       q    Type
REMARK                         _______ _______ _______ _____ _____    ______ ____
ROOT
ATOM      1  O   UNL     1      -0.633   1.099  -0.795  0.00  0.00    -0.270 OA
ATOM      2  N   UNL     1      -1.561  -0.820   0.197  0.00  0.00    -0.280 N 
ATOM      3  C   UNL     1      -0.525  -0.017  -0.296  0.00  0.00    +0.250 C 
ATOM      4  H   UNL     1      -1.293  -1.693   0.565  0.00  0.00    +0.155 HD
ENDROOT
BRANCH   2   7
ATOM      5  N   UNL     1      -6.910   0.526   0.222  0.00  0.00    -0.312 N 
ATOM      6  C   UNL     1      -4.771   0.965  -0.236  0.00  0.00    +0.016 C 
ATOM      7  C   UNL     1      -2.928  -0.535   0.231  0.00  0.00    +0.051 C 
ATOM      8  C   UNL     1      -5.636   0.011   0.305  0.00  0.00    +0.048 C 
ATOM      9  C   UNL     1      -3.391   0.685  -0.274  0.00  0.00    +0.016 C 
ATOM     10  C   UNL     1      -3.813  -1.469   0.766  0.00  0.00    +0.016 C 
ATOM     11  C   UNL     1      -5.187  -1.213   0.813  0.00  0.00    +0.016 C 
ATOM     12  C   UNL     1      -5.571   2.068  -0.647  0.00  0.00    +0.017 C 
ATOM     13  C   UNL     1      -6.881   1.768  -0.351  0.00  0.00    +0.062 C 
ATOM     14  H   UNL     1      -7.724   0.067   0.531  0.00  0.00    +0.152 HD
ENDBRANCH   2   7
BRANCH   3  19
ATOM     15  F   UNL     1       2.385  -3.876  -0.182  0.00  0.00    -0.204 F 
ATOM     16  C   UNL     1       3.201  -0.332  -0.064  0.00  0.00    +0.050 C 
ATOM     17  C   UNL     1       1.925   0.227  -0.134  0.00  0.00    +0.019 C 
ATOM     18  C   UNL     1       3.357  -1.718  -0.080  0.00  0.00    +0.044 C 
ATOM     19  C   UNL     1       0.834  -0.612  -0.219  0.00  0.00    +0.057 C 
ATOM     20  C   UNL     1       2.236  -2.545  -0.167  0.00  0.00    +0.142 C 
ATOM     21  C   UNL     1       0.961  -1.986  -0.237  0.00  0.00    +0.034 C 
BRANCH  16  23
ATOM     22  O   UNL     1       6.652   2.019   0.425  0.00  0.00    -0.350 OA
ATOM     23  N   UNL     1       4.324   0.496   0.023  0.00  0.00    -0.303 N 
ATOM     24  C   UNL     1       4.427   1.407   1.171  0.00  0.00    +0.123 C 
ATOM     25  C   UNL     1       5.605   0.054  -0.539  0.00  0.00    +0.123 C 
ATOM     26  C   UNL     1       5.391   2.541   0.843  0.00  0.00    +0.164 C 
ATOM     27  C   UNL     1       6.508   1.260  -0.775  0.00  0.00    +0.164 C 
ENDBRANCH  16  23
ENDBRANCH   3  19
TORSDOF 3
