REMARK  Name = 15942661
REMARK  10 active torsions:
REMARK  status: ('A' for Active; 'I' for Inactive)
REMARK    1  A    between atoms: CA_1  and  C_4
REMARK    2  A    between atoms: CA_1  and  N_12
REMARK    3  A    between atoms: CA_1  and  CB_23
REMARK    4  A    between atoms: N_3  and  CA_6
REMARK    5  A    between atoms: CA_6  and  C_8
REMARK    6  A    between atoms: C_8  and  O_9
REMARK    7  A    between atoms: C_13  and  O_15
REMARK    8  A    between atoms: O_15  and  C_16
REMARK    9  A    between atoms: C_16  and  C_17
REMARK   10  A    between atoms: CB_23  and  SG_24
REMARK                            x       y       z     vdW  Elec       q    Type
REMARK                         _______ _______ _______ _____ _____    ______ ____
ROOT
ATOM      1  CA  UNL     1       1.714  -1.006   0.382  0.00  0.00    +0.162 C 
ENDROOT
BRANCH   1   4
ATOM      2  O   UNL     1       2.283   1.353   0.393  0.00  0.00    -0.273 OA
ATOM      3  N   UNL     1       3.943  -0.197   0.870  0.00  0.00    -0.294 N 
ATOM      4  C   UNL     1       2.649   0.190   0.550  0.00  0.00    +0.242 C 
ATOM      5  H   UNL     1       4.137  -1.156   0.975  0.00  0.00    +0.150 HD
BRANCH   3   6
ATOM      6  CA  UNL     1       5.015   0.752   1.056  0.00  0.00    +0.200 C 
BRANCH   6   8
ATOM      7  OXT UNL     1       6.710   1.825  -0.276  0.00  0.00    -0.248 OA
ATOM      8  C   UNL     1       5.760   1.053  -0.219  0.00  0.00    +0.334 C 
BRANCH   8   9
ATOM      9  O   UNL     1       5.279   0.390  -1.296  0.00  0.00    -0.479 OA
ATOM     10  H   UNL     1       4.550  -0.190  -1.202  0.00  0.00    +0.295 HD
ENDBRANCH   8   9
ENDBRANCH   6   8
ENDBRANCH   3   6
ENDBRANCH   1   4
BRANCH   1  12
ATOM     11  O   UNL     1      -0.775  -2.202   1.284  0.00  0.00    -0.226 OA
ATOM     12  N   UNL     1       0.373  -0.524   0.167  0.00  0.00    -0.263 N 
ATOM     13  C   ACE A   0      -0.759  -1.161   0.635  0.00  0.00    +0.402 C 
ATOM     14  H   UNL     1       0.257   0.310  -0.345  0.00  0.00    +0.153 HD
BRANCH  13  15
ATOM     15  O   UNL     1      -1.872  -0.459   0.269  0.00  0.00    -0.430 OA
BRANCH  15  16
ATOM     16  C   UNL     1      -3.125  -1.009   0.691  0.00  0.00    +0.237 C 
BRANCH  16  17
ATOM     17  C   UNL     1      -4.236  -0.122   0.210  0.00  0.00    +0.021 C 
ATOM     18  C   UNL     1      -4.687   0.927   1.010  0.00  0.00    -0.001 C 
ATOM     19  C   UNL     1      -4.817  -0.348  -1.038  0.00  0.00    -0.001 C 
ATOM     20  C   UNL     1      -5.719   1.751   0.563  0.00  0.00    -0.000 C 
ATOM     21  C   UNL     1      -5.850   0.476  -1.485  0.00  0.00    -0.000 C 
ATOM     22  C   UNL     1      -6.301   1.526  -0.685  0.00  0.00    -0.000 C 
ENDBRANCH  16  17
ENDBRANCH  15  16
ENDBRANCH  13  15
ENDBRANCH   1  12
BRANCH   1  23
ATOM     23  CB  UNL     1       2.164  -1.981  -0.709  0.00  0.00    +0.082 C 
BRANCH  23  24
ATOM     24  SG  UNL     1       2.249  -1.235  -2.370  0.00  0.00    -0.166 S 
ATOM     25  HG  UNL     1       2.656  -2.173  -3.268  0.00  0.00    +0.102 HD
ENDBRANCH  23  24
ENDBRANCH   1  23
TORSDOF 10
