REMARK  Name = 15942651
REMARK  7 active torsions:
REMARK  status: ('A' for Active; 'I' for Inactive)
REMARK    1  A    between atoms: N_1  and  S_17
REMARK    2  A    between atoms: C_2  and  C_13
REMARK    3  A    between atoms: C_9  and  O_28
REMARK    4  A    between atoms: C_10  and  O_30
REMARK    5  A    between atoms: N_12  and  O_15
REMARK    6  A    between atoms: S_17  and  C_20
REMARK    7  A    between atoms: C_25  and  O_26
REMARK                            x       y       z     vdW  Elec       q    Type
REMARK                         _______ _______ _______ _____ _____    ______ ____
ROOT
ATOM      1  N   UNL     1      -0.317   1.247   1.092  0.00  0.00    -0.144 NA
ATOM      2  C   UNL     1       0.488   0.816  -0.100  0.00  0.00    +0.179 C 
ATOM      3  C   UNL     1      -0.323   0.236   2.187  0.00  0.00    +0.101 C 
ATOM      4  C   UNL     1       1.107  -0.003   2.654  0.00  0.00    +0.045 C 
ATOM      5  C   UNL     1       1.684  -0.062   0.200  0.00  0.00    +0.002 C 
ATOM      6  C   UNL     1       1.977  -0.460   1.516  0.00  0.00    -0.020 C 
ATOM      7  C   UNL     1       2.508  -0.505  -0.847  0.00  0.00    +0.037 C 
ATOM      8  C   UNL     1       3.106  -1.252   1.769  0.00  0.00    +0.035 C 
ATOM      9  C   UNL     1       3.620  -1.306  -0.587  0.00  0.00    +0.172 C 
ATOM     10  C   UNL     1       3.921  -1.675   0.721  0.00  0.00    +0.167 C 
ENDROOT
BRANCH   2  13
ATOM     11  O   UNL     1       1.689   2.873  -0.129  0.00  0.00    -0.271 OA
ATOM     12  N   UNL     1       0.422   2.302  -1.976  0.00  0.00    -0.196 N 
ATOM     13  C   UNL     1       0.933   2.105  -0.720  0.00  0.00    +0.265 C 
ATOM     14  H   UNL     1      -0.181   1.652  -2.404  0.00  0.00    +0.182 HD
BRANCH  12  15
ATOM     15  O   UNL     1       0.813   3.487  -2.614  0.00  0.00    -0.295 OA
ATOM     16  H   UNL     1       0.402   3.533  -3.492  0.00  0.00    +0.241 HD
ENDBRANCH  12  15
ENDBRANCH   2  13
BRANCH   1  17
ATOM     17  S   UNL     1      -1.852   1.950   0.760  0.00  0.00    +0.064 S 
ATOM     18  O   UNL     1      -1.738   2.778  -0.418  0.00  0.00    -0.153 OA
ATOM     19  O   UNL     1      -2.398   2.468   1.993  0.00  0.00    -0.153 OA
BRANCH  17  20
ATOM     20  C   UNL     1      -2.757   0.501   0.324  0.00  0.00    +0.122 C 
ATOM     21  C   UNL     1      -2.788   0.092  -1.000  0.00  0.00    +0.023 C 
ATOM     22  C   UNL     1      -3.425  -0.207   1.311  0.00  0.00    +0.023 C 
ATOM     23  C   UNL     1      -3.504  -1.054  -1.345  0.00  0.00    +0.038 C 
ATOM     24  C   UNL     1      -4.141  -1.353   0.966  0.00  0.00    +0.038 C 
ATOM     25  C   UNL     1      -4.181  -1.777  -0.362  0.00  0.00    +0.139 C 
BRANCH  25  26
ATOM     26  O   UNL     1      -4.879  -2.895  -0.699  0.00  0.00    -0.471 OA
ATOM     27  C   UNL     1      -4.877  -3.272  -2.075  0.00  0.00    +0.252 C 
ENDBRANCH  25  26
ENDBRANCH  17  20
ENDBRANCH   1  17
BRANCH   9  28
ATOM     28  O   UNL     1       4.405  -1.717  -1.622  0.00  0.00    -0.468 OA
ATOM     29  C   UNL     1       5.494  -0.870  -1.985  0.00  0.00    +0.253 C 
ENDBRANCH   9  28
BRANCH  10  30
ATOM     30  O   UNL     1       5.009  -2.449   0.989  0.00  0.00    -0.503 OA
ATOM     31  H   UNL     1       5.205  -2.693   1.872  0.00  0.00    +0.292 HD
ENDBRANCH  10  30
TORSDOF 7
