REMARK  Name = 11660035
REMARK  5 active torsions:
REMARK  status: ('A' for Active; 'I' for Inactive)
REMARK    1  A    between atoms: N_5  and  C_21
REMARK    2  A    between atoms: C_10  and  C_18
REMARK    3  A    between atoms: C_18  and  O_19
REMARK    4  A    between atoms: C_21  and  C_23
REMARK    5  A    between atoms: C_23  and  O_24
REMARK                            x       y       z     vdW  Elec       q    Type
REMARK                         _______ _______ _______ _____ _____    ______ ____
ROOT
ATOM      1  S   UNL     1       1.490  -1.223  -0.362  0.00  0.00    +0.080 S 
ATOM      2  O   UNL     1       1.602  -1.935  -1.617  0.00  0.00    -0.150 OA
ATOM      3  O   UNL     1       1.993  -1.737   0.894  0.00  0.00    -0.150 OA
ATOM      4  O   UNL     1       1.029   2.572  -0.586  0.00  0.00    -0.268 OA
ATOM      5  N   UNL     1       1.964   0.408  -0.564  0.00  0.00    -0.145 N 
ATOM      6  C   UNL     1      -0.174  -0.756  -0.140  0.00  0.00    +0.136 C 
ATOM      7  C   UNL     1      -0.370   0.627  -0.218  0.00  0.00    +0.074 C 
ATOM      8  C   UNL     1       0.900   1.367  -0.473  0.00  0.00    +0.269 C 
ATOM      9  C   UNL     1      -1.663   1.167  -0.061  0.00  0.00    +0.006 C 
ATOM     10  C   UNL     1      -1.192  -1.655   0.087  0.00  0.00    +0.094 C 
ATOM     11  C   UNL     1      -2.726   0.250   0.176  0.00  0.00    +0.000 C 
ATOM     12  C   UNL     1      -2.475  -1.139   0.246  0.00  0.00    +0.008 C 
ATOM     13  C   UNL     1      -1.977   2.544  -0.121  0.00  0.00    +0.000 C 
ATOM     14  C   UNL     1      -4.035   0.731   0.340  0.00  0.00    +0.000 C 
ATOM     15  C   UNL     1      -3.287   3.000   0.045  0.00  0.00    +0.000 C 
ATOM     16  C   UNL     1      -4.314   2.095   0.275  0.00  0.00    +0.000 C 
ENDROOT
BRANCH  10  18
ATOM     17  O   UNL     1       0.054  -3.642   0.560  0.00  0.00    -0.245 OA
ATOM     18  C   UNL     1      -0.980  -3.091   0.167  0.00  0.00    +0.339 C 
BRANCH  18  19
ATOM     19  O   UNL     1      -2.064  -3.802  -0.246  0.00  0.00    -0.477 OA
ATOM     20  H   UNL     1      -2.834  -3.355  -0.539  0.00  0.00    +0.295 HD
ENDBRANCH  18  19
ENDBRANCH  10  18
BRANCH   5  21
ATOM     21  C   UNL     1       3.359   0.799  -0.814  0.00  0.00    +0.228 C 
BRANCH  21  23
ATOM     22  O   UNL     1       3.522   0.935   1.609  0.00  0.00    -0.248 OA
ATOM     23  C   UNL     1       4.029   1.050   0.503  0.00  0.00    +0.336 C 
BRANCH  23  24
ATOM     24  O   UNL     1       5.316   1.435   0.301  0.00  0.00    -0.479 OA
ATOM     25  H   UNL     1       5.653   1.507  -0.570  0.00  0.00    +0.295 HD
ENDBRANCH  23  24
ENDBRANCH  21  23
ENDBRANCH   5  21
TORSDOF 5
