REMARK  Name = 44129603
REMARK  3 active torsions:
REMARK  status: ('A' for Active; 'I' for Inactive)
REMARK    1  A    between atoms: N_5  and  C_17
REMARK    2  A    between atoms: C_12  and  C_24
REMARK    3  A    between atoms: C_24  and  O_25
REMARK                            x       y       z     vdW  Elec       q    Type
REMARK                         _______ _______ _______ _____ _____    ______ ____
ROOT
ATOM      1  N   UNL     1      -1.317  -1.346  -0.259  0.00  0.00    -0.246 N 
ATOM      2  N   UNL     1      -2.499  -1.995  -0.239  0.00  0.00    -0.163 NA
ATOM      3  N   UNL     1       0.869   0.646  -0.016  0.00  0.00    -0.336 NA
ATOM      4  N   UNL     1       1.458   2.988   0.025  0.00  0.00    -0.170 NA
ATOM      5  N   UNL     1       3.112   1.323   0.072  0.00  0.00    -0.247 N 
ATOM      6  C   UNL     1      -3.304   1.612   0.346  0.00  0.00    +0.035 C 
ATOM      7  C   UNL     1      -2.783   0.244   0.082  0.00  0.00    +0.024 A 
ATOM      8  C   UNL     1      -2.329   2.701  -0.179  0.00  0.00    +0.035 C 
ATOM      9  C   UNL     1      -1.438  -0.003  -0.078  0.00  0.00    +0.106 A 
ATOM     10  C   UNL     1      -0.862   2.350  -0.049  0.00  0.00    +0.030 C 
ATOM     11  C   UNL     1      -0.422   1.024  -0.054  0.00  0.00    +0.158 C 
ATOM     12  C   UNL     1      -3.390  -1.018  -0.026  0.00  0.00    +0.174 A 
ATOM     13  C   UNL     1       0.143   3.297  -0.020  0.00  0.00    +0.110 C 
ATOM     14  C   UNL     1      -0.109  -2.118  -0.439  0.00  0.00    +0.154 C 
ATOM     15  C   UNL     1       1.744   1.669   0.024  0.00  0.00    +0.149 C 
ATOM     16  H   UNL     1       3.716   2.100   0.102  0.00  0.00    +0.165 HD
ENDROOT
BRANCH   5  17
ATOM     17  C   UNL     1       3.782   0.086   0.086  0.00  0.00    +0.058 C 
ATOM     18  C   UNL     1       5.055  -0.024  -0.472  0.00  0.00    +0.015 C 
ATOM     19  C   UNL     1       3.172  -1.030   0.659  0.00  0.00    +0.015 C 
ATOM     20  C   UNL     1       5.720  -1.251  -0.457  0.00  0.00    +0.001 C 
ATOM     21  C   UNL     1       3.837  -2.257   0.674  0.00  0.00    +0.001 C 
ATOM     22  C   UNL     1       5.110  -2.367   0.116  0.00  0.00    +0.000 C 
ENDBRANCH   5  17
BRANCH  12  24
ATOM     23  O   UNL     1      -5.715  -0.524   0.241  0.00  0.00    -0.243 OA
ATOM     24  C   UNL     1      -4.787  -1.335   0.056  0.00  0.00    +0.357 C 
BRANCH  24  25
ATOM     25  O   UNL     1      -5.047  -2.671  -0.092  0.00  0.00    -0.476 OA
ATOM     26  H   UNL     1      -4.342  -3.273  -0.231  0.00  0.00    +0.295 HD
ENDBRANCH  24  25
ENDBRANCH  12  24
TORSDOF 3
