REMARK  Name = 25058128
REMARK  13 active torsions:
REMARK  status: ('A' for Active; 'I' for Inactive)
REMARK    1  A    between atoms: C_1  and  S_11
REMARK    2  A    between atoms: C_9  and  O_27
REMARK    3  A    between atoms: S_11  and  N_14
REMARK    4  A    between atoms: N_14  and  C_16
REMARK    5  A    between atoms: C_16  and  C_18
REMARK    6  A    between atoms: C_16  and  C_21
REMARK    7  A    between atoms: C_18  and  O_19
REMARK    8  A    between atoms: C_21  and  C_22
REMARK    9  A    between atoms: C_22  and  C_24
REMARK   10  A    between atoms: C_24  and  O_25
REMARK   11  A    between atoms: O_27  and  C_28
REMARK   12  A    between atoms: C_28  and  C_30
REMARK   13  A    between atoms: C_35  and  C_37
REMARK                            x       y       z     vdW  Elec       q    Type
REMARK                         _______ _______ _______ _____ _____    ______ ____
ROOT
ATOM      1  C   UNL     1      -3.034   1.603  -0.068  0.00  0.00    +0.122 C 
ATOM      2  C   UNL     1      -0.886   0.593  -0.599  0.00  0.00    +0.002 C 
ATOM      3  C   UNL     1      -2.283   0.638  -0.738  0.00  0.00    +0.020 C 
ATOM      4  C   UNL     1      -0.243   1.542   0.232  0.00  0.00    +0.003 C 
ATOM      5  C   UNL     1      -2.402   2.536   0.748  0.00  0.00    +0.020 C 
ATOM      6  C   UNL     1      -1.015   2.507   0.898  0.00  0.00    +0.001 C 
ATOM      7  C   UNL     1       1.154   1.498   0.371  0.00  0.00    +0.037 C 
ATOM      8  C   UNL     1      -0.113  -0.372  -1.265  0.00  0.00    +0.003 C 
ATOM      9  C   UNL     1       1.906   0.532  -0.299  0.00  0.00    +0.139 C 
ATOM     10  C   UNL     1       1.274  -0.401  -1.115  0.00  0.00    +0.037 C 
ENDROOT
BRANCH   1  11
ATOM     11  S   UNL     1      -4.792   1.642  -0.257  0.00  0.00    +0.061 S 
ATOM     12  O   UNL     1      -5.240   2.995   0.006  0.00  0.00    -0.153 OA
ATOM     13  O   UNL     1      -5.094   1.006  -1.525  0.00  0.00    -0.153 OA
BRANCH  11  14
ATOM     14  N   UNL     1      -5.301   0.623   1.004  0.00  0.00    -0.170 NA
ATOM     15  H   UNL     1      -6.321   0.610   0.980  0.00  0.00    +0.149 HD
BRANCH  14  16
ATOM     16  C   UNL     1      -4.857  -0.788   1.039  0.00  0.00    +0.174 C 
BRANCH  16  18
ATOM     17  O   UNL     1      -3.792  -0.130   3.124  0.00  0.00    -0.249 OA
ATOM     18  C   UNL     1      -3.991  -0.976   2.261  0.00  0.00    +0.330 C 
BRANCH  18  19
ATOM     19  O   UNL     1      -3.453  -2.222   2.321  0.00  0.00    -0.479 OA
ATOM     20  H   UNL     1      -3.629  -2.842   1.641  0.00  0.00    +0.295 HD
ENDBRANCH  18  19
ENDBRANCH  16  18
BRANCH  16  21
ATOM     21  C   UNL     1      -6.063  -1.732   0.960  0.00  0.00    +0.040 C 
BRANCH  21  22
ATOM     22  C   UNL     1      -6.964  -1.585  -0.269  0.00  0.00    +0.111 C 
BRANCH  22  24
ATOM     23  O   UNL     1      -5.237  -2.481  -1.701  0.00  0.00    -0.250 OA
ATOM     24  C   UNL     1      -6.250  -1.803  -1.579  0.00  0.00    +0.314 C 
BRANCH  24  25
ATOM     25  O   UNL     1      -6.838  -1.153  -2.614  0.00  0.00    -0.480 OA
ATOM     26  H   UNL     1      -7.613  -0.646  -2.468  0.00  0.00    +0.295 HD
ENDBRANCH  24  25
ENDBRANCH  22  24
ENDBRANCH  21  22
ENDBRANCH  16  21
ENDBRANCH  14  16
ENDBRANCH  11  14
ENDBRANCH   1  11
BRANCH   9  27
ATOM     27  O   UNL     1       3.259   0.503  -0.155  0.00  0.00    -0.471 OA
BRANCH  27  28
ATOM     28  C   UNL     1       3.967  -0.509  -0.869  0.00  0.00    +0.234 C 
BRANCH  28  30
ATOM     29  F   UNL     1       5.321  -2.301   0.854  0.00  0.00    -0.204 F 
ATOM     30  C   UNL     1       5.430  -0.396  -0.558  0.00  0.00    +0.049 C 
ATOM     31  C   UNL     1       6.037  -1.312   0.301  0.00  0.00    +0.140 C 
ATOM     32  C   UNL     1       6.184   0.629  -1.130  0.00  0.00    +0.002 C 
ATOM     33  C   UNL     1       7.398  -1.203   0.588  0.00  0.00    +0.040 C 
ATOM     34  C   UNL     1       7.545   0.738  -0.842  0.00  0.00    +0.010 C 
ATOM     35  C   UNL     1       8.152  -0.178   0.017  0.00  0.00    +0.071 C 
BRANCH  35  37
ATOM     36  N   UNL     1      10.678   0.022   0.549  0.00  0.00    -0.191 NA
ATOM     37  C   UNL     1       9.546  -0.068   0.310  0.00  0.00    +0.100 C 
ENDBRANCH  35  37
ENDBRANCH  28  30
ENDBRANCH  27  28
ENDBRANCH   9  27
TORSDOF 13
