REMARK  Name = 6852189
REMARK  9 active torsions:
REMARK  status: ('A' for Active; 'I' for Inactive)
REMARK    1  A    between atoms: N_2  and  CA_5
REMARK    2  A    between atoms: C_3  and  C_13
REMARK    3  A    between atoms: CA_5  and  C_7
REMARK    4  A    between atoms: CA_5  and  C_10
REMARK    5  A    between atoms: C_7  and  O_8
REMARK    6  A    between atoms: C_10  and  C_11
REMARK    7  A    between atoms: C_13  and  C_14
REMARK    8  A    between atoms: C_14  and  C_16
REMARK    9  A    between atoms: C_16  and  O_17
REMARK                            x       y       z     vdW  Elec       q    Type
REMARK                         _______ _______ _______ _____ _____    ______ ____
ROOT
ATOM      1  O   UNL     1      -0.661   0.076   1.907  0.00  0.00    -0.275 OA
ATOM      2  N   UNL     1       0.589   0.344  -0.035  0.00  0.00    -0.297 N 
ATOM      3  C   UNL     1      -0.588   0.179   0.685  0.00  0.00    +0.223 C 
ATOM      4  H   UNL     1       0.532   0.416  -1.015  0.00  0.00    +0.150 HD
ENDROOT
BRANCH   2   5
ATOM      5  CA  UNL     1       1.889   0.415   0.582  0.00  0.00    +0.171 C 
BRANCH   5   7
ATOM      6  OXT UNL     1       3.943   1.634   0.195  0.00  0.00    -0.248 OA
ATOM      7  C   UNL     1       2.810   1.355  -0.182  0.00  0.00    +0.332 C 
BRANCH   7   8
ATOM      8  O   UNL     1       2.284   1.861  -1.324  0.00  0.00    -0.479 OA
ATOM      9  H   UNL     1       1.415   1.628  -1.584  0.00  0.00    +0.295 HD
ENDBRANCH   7   8
ENDBRANCH   5   7
BRANCH   5  10
ATOM     10  C   UNL     1       2.527  -0.974   0.692  0.00  0.00    +0.031 C 
BRANCH  10  11
ATOM     11  C   UNL     1       2.773  -1.617  -0.676  0.00  0.00    +0.002 C 
ATOM     12  C   UNL     1       3.369  -3.009  -0.537  0.00  0.00    +0.000 C 
ENDBRANCH  10  11
ENDBRANCH   5  10
ENDBRANCH   2   5
BRANCH   3  13
ATOM     13  C   UNL     1      -1.802   0.136  -0.225  0.00  0.00    +0.097 C 
BRANCH  13  14
ATOM     14  C   UNL     1      -3.105  -0.045   0.548  0.00  0.00    +0.119 C 
BRANCH  14  16
ATOM     15  O   UNL     1      -4.271   0.018  -1.587  0.00  0.00    -0.250 OA
ATOM     16  C   UNL     1      -4.304  -0.093  -0.370  0.00  0.00    +0.314 C 
BRANCH  16  17
ATOM     17  O   UNL     1      -5.455  -0.281   0.328  0.00  0.00    -0.480 OA
ATOM     18  H   UNL     1      -5.430  -0.360   1.261  0.00  0.00    +0.295 HD
ENDBRANCH  16  17
ENDBRANCH  14  16
ENDBRANCH  13  14
ENDBRANCH   3  13
TORSDOF 9
