REMARK  Name = 123982
REMARK  9 active torsions:
REMARK  status: ('A' for Active; 'I' for Inactive)
REMARK    1  A    between atoms: C_1  and  C_4
REMARK    2  A    between atoms: C_1  and  C_12
REMARK    3  A    between atoms: C_1  and  C_19
REMARK    4  A    between atoms: N_3  and  CA_6
REMARK    5  A    between atoms: CA_6  and  C_9
REMARK    6  A    between atoms: C_9  and  O_10
REMARK    7  A    between atoms: C_12  and  C_13
REMARK    8  A    between atoms: C_19  and  C_22
REMARK    9  A    between atoms: N_21  and  O_24
REMARK                            x       y       z     vdW  Elec       q    Type
REMARK                         _______ _______ _______ _____ _____    ______ ____
ROOT
ATOM      1  C   UNL     1       0.441  -1.369   0.302  0.00  0.00    +0.090 C 
ENDROOT
BRANCH   1   4
ATOM      2  O   UNL     1       0.850   0.124   2.171  0.00  0.00    -0.275 OA
ATOM      3  N   UNL     1       0.593   1.040   0.053  0.00  0.00    -0.297 N 
ATOM      4  C   ACE A   0       0.647  -0.004   0.966  0.00  0.00    +0.223 C 
ATOM      5  H   UNL     1       0.424   0.827  -0.893  0.00  0.00    +0.150 HD
BRANCH   3   6
ATOM      6  CA  UNL     1       0.773   2.426   0.423  0.00  0.00    +0.171 C 
ATOM      7  CB  UNL     1       2.242   2.814   0.344  0.00  0.00    +0.033 C 
BRANCH   6   9
ATOM      8  OXT UNL     1      -0.124   4.564  -0.259  0.00  0.00    -0.248 OA
ATOM      9  C   UNL     1      -0.067   3.352  -0.440  0.00  0.00    +0.332 C 
BRANCH   9  10
ATOM     10  O   UNL     1      -0.762   2.734  -1.424  0.00  0.00    -0.479 OA
ATOM     11  H   UNL     1      -0.694   1.806  -1.533  0.00  0.00    +0.295 HD
ENDBRANCH   9  10
ENDBRANCH   6   9
ENDBRANCH   3   6
ENDBRANCH   1   4
BRANCH   1  12
ATOM     12  C   UNL     1      -0.828  -2.047   0.863  0.00  0.00    +0.036 C 
BRANCH  12  13
ATOM     13  C   UNL     1      -2.115  -1.473   0.326  0.00  0.00    -0.022 C 
ATOM     14  C   UNL     1      -2.719  -0.417   0.992  0.00  0.00    -0.004 C 
ATOM     15  C   UNL     1      -2.672  -2.010  -0.824  0.00  0.00    -0.004 C 
ATOM     16  C   UNL     1      -3.910   0.114   0.496  0.00  0.00    -0.000 C 
ATOM     17  C   UNL     1      -3.863  -1.478  -1.321  0.00  0.00    -0.000 C 
ATOM     18  C   UNL     1      -4.481  -0.416  -0.660  0.00  0.00    -0.000 C 
ENDBRANCH  12  13
ENDBRANCH   1  12
BRANCH   1  19
ATOM     19  C   UNL     1       1.704  -2.229   0.510  0.00  0.00    +0.097 C 
BRANCH  19  22
ATOM     20  O   UNL     1       3.701  -0.868   0.685  0.00  0.00    -0.273 OA
ATOM     21  N   UNL     1       3.221  -1.906  -1.319  0.00  0.00    -0.197 N 
ATOM     22  C   UNL     1       2.977  -1.578  -0.007  0.00  0.00    +0.245 C 
ATOM     23  H   UNL     1       2.612  -2.480  -1.837  0.00  0.00    +0.182 HD
BRANCH  21  24
ATOM     24  O   UNL     1       4.392  -1.373  -1.876  0.00  0.00    -0.295 OA
ATOM     25  H   UNL     1       4.472  -1.662  -2.798  0.00  0.00    +0.241 HD
ENDBRANCH  21  24
ENDBRANCH  19  22
ENDBRANCH   1  19
TORSDOF 9
