REMARK  Name = 44129612
REMARK  3 active torsions:
REMARK  status: ('A' for Active; 'I' for Inactive)
REMARK    1  A    between atoms: N_3  and  C_15
REMARK    2  A    between atoms: C_4  and  C_8
REMARK    3  A    between atoms: C_16  and  O_21
REMARK                            x       y       z     vdW  Elec       q    Type
REMARK                         _______ _______ _______ _____ _____    ______ ____
ROOT
ATOM      1  S   UNL     1      -1.407  -2.255  -1.925  0.00  0.00    -0.107 S 
ATOM      2  O   UNL     1       1.020  -2.961   0.961  0.00  0.00    -0.274 OA
ATOM      3  N   UNL     1       0.442  -1.137  -0.398  0.00  0.00    -0.243 N 
ATOM      4  C   UNL     1      -0.530  -0.748  -1.430  0.00  0.00    +0.151 C 
ATOM      5  C   UNL     1      -0.893  -3.162  -0.473  0.00  0.00    +0.145 C 
ATOM      6  C   UNL     1       0.299  -2.444   0.111  0.00  0.00    +0.241 C 
ENDROOT
BRANCH   4   8
ATOM      7 BR   UNL     1      -4.296   0.509   2.155  0.00  0.00    -0.049 Br
ATOM      8  C   UNL     1      -1.498   0.263  -0.917  0.00  0.00    +0.007 C 
ATOM      9  C   UNL     1      -2.302  -0.035   0.184  0.00  0.00    +0.005 C 
ATOM     10  C   UNL     1      -1.600   1.508  -1.538  0.00  0.00    -0.002 C 
ATOM     11  C   UNL     1      -3.207   0.912   0.663  0.00  0.00    +0.034 C 
ATOM     12  C   UNL     1      -2.506   2.455  -1.059  0.00  0.00    +0.000 C 
ATOM     13  C   UNL     1      -3.309   2.157   0.042  0.00  0.00    +0.007 C 
ENDBRANCH   4   8
BRANCH   3  15
ATOM     14 CL   UNL     1       4.534   1.699  -1.551  0.00  0.00    -0.082 Cl
ATOM     15  C   UNL     1       1.440  -0.269   0.049  0.00  0.00    +0.089 C 
ATOM     16  C   UNL     1       1.506   0.108   1.390  0.00  0.00    +0.147 C 
ATOM     17  C   UNL     1       2.376   0.224  -0.861  0.00  0.00    +0.029 C 
ATOM     18  C   UNL     1       2.509   0.976   1.822  0.00  0.00    +0.039 C 
ATOM     19  C   UNL     1       3.378   1.092  -0.429  0.00  0.00    +0.059 C 
ATOM     20  C   UNL     1       3.445   1.468   0.912  0.00  0.00    +0.015 C 
BRANCH  16  21
ATOM     21  O   UNL     1       0.601  -0.361   2.295  0.00  0.00    -0.504 OA
ATOM     22  H   UNL     1      -0.078  -0.945   2.019  0.00  0.00    +0.292 HD
ENDBRANCH  16  21
ENDBRANCH   3  15
TORSDOF 3
