REMARK  Name = 87517
REMARK  6 active torsions:
REMARK  status: ('A' for Active; 'I' for Inactive)
REMARK    1  A    between atoms: C_3  and  C_13
REMARK    2  A    between atoms: C_4  and  O_22
REMARK    3  A    between atoms: N_12  and  C_16
REMARK    4  A    between atoms: O_22  and  P_23
REMARK    5  A    between atoms: P_23  and  O_25
REMARK    6  A    between atoms: P_23  and  O_27
REMARK                            x       y       z     vdW  Elec       q    Type
REMARK                         _______ _______ _______ _____ _____    ______ ____
ROOT
ATOM      1  C   UNL     1       3.177   1.440   0.068  0.00  0.00    +0.000 C 
ATOM      2  C   UNL     1       3.539   0.072   0.090  0.00  0.00    +0.003 C 
ATOM      3  C   UNL     1       0.842   0.806  -0.185  0.00  0.00    +0.088 C 
ATOM      4  C   UNL     1       1.198  -0.539  -0.164  0.00  0.00    +0.153 C 
ATOM      5  C   UNL     1       1.824   1.790  -0.070  0.00  0.00    +0.008 C 
ATOM      6  C   UNL     1       2.537  -0.905  -0.028  0.00  0.00    +0.038 C 
ATOM      7  C   UNL     1       4.179   2.417   0.186  0.00  0.00    +0.000 C 
ATOM      8  C   UNL     1       4.892  -0.278   0.227  0.00  0.00    +0.000 C 
ATOM      9  C   UNL     1       5.518   2.051   0.323  0.00  0.00    +0.000 C 
ATOM     10  C   UNL     1       5.874   0.706   0.343  0.00  0.00    +0.000 C 
ENDROOT
BRANCH   3  13
ATOM     11  O   UNL     1      -0.813   2.273  -0.906  0.00  0.00    -0.270 OA
ATOM     12  N   UNL     1      -1.498   0.319   0.197  0.00  0.00    -0.280 N 
ATOM     13  C   UNL     1      -0.551   1.208  -0.327  0.00  0.00    +0.252 C 
ATOM     14  H   UNL     1      -1.136  -0.488   0.630  0.00  0.00    +0.155 HD
BRANCH  12  16
ATOM     15 CL   UNL     1      -7.386   0.781   0.146  0.00  0.00    -0.082 Cl
ATOM     16  C   UNL     1      -2.910   0.430   0.185  0.00  0.00    +0.051 C 
ATOM     17  C   UNL     1      -3.497   1.536  -0.406  0.00  0.00    +0.016 C 
ATOM     18  C   UNL     1      -3.672  -0.571   0.764  0.00  0.00    +0.016 C 
ATOM     19  C   UNL     1      -4.887   1.645  -0.418  0.00  0.00    +0.013 C 
ATOM     20  C   UNL     1      -5.063  -0.461   0.752  0.00  0.00    +0.013 C 
ATOM     21  C   UNL     1      -5.670   0.647   0.161  0.00  0.00    +0.058 C 
ENDBRANCH  12  16
ENDBRANCH   3  13
BRANCH   4  22
ATOM     22  O   UNL     1       0.253  -1.515  -0.275  0.00  0.00    -0.403 OA
BRANCH  22  23
ATOM     23  P   UNL     1       0.550  -3.105  -0.264  0.00  0.00    +0.528 P 
ATOM     24  O   UNL     1       1.453  -3.597  -1.357  0.00  0.00    -0.216 OA
BRANCH  23  25
ATOM     25  O   UNL     1       1.049  -3.404   1.245  0.00  0.00    -0.293 OA
ATOM     26  H   UNL     1       0.402  -3.050   1.876  0.00  0.00    +0.223 HD
ENDBRANCH  23  25
BRANCH  23  27
ATOM     27  O   UNL     1      -0.937  -3.745  -0.287  0.00  0.00    -0.293 OA
ATOM     28  H   UNL     1      -1.457  -3.380   0.446  0.00  0.00    +0.223 HD
ENDBRANCH  23  27
ENDBRANCH  22  23
ENDBRANCH   4  22
TORSDOF 6
