REMARK  Name = 15991588
REMARK  4 active torsions:
REMARK  status: ('A' for Active; 'I' for Inactive)
REMARK    1  A    between atoms: C_4  and  O_20
REMARK    2  A    between atoms: C_14  and  O_16
REMARK    3  A    between atoms: C_15  and  O_18
REMARK    4  A    between atoms: O_20  and  C_21
REMARK                            x       y       z     vdW  Elec       q    Type
REMARK                         _______ _______ _______ _____ _____    ______ ____
ROOT
ATOM      1  N   UNL     1      -1.375  -2.182   0.009  0.00  0.00    -0.290 N 
ATOM      2  N   UNL     1      -3.493  -2.704   0.941  0.00  0.00    -0.230 NA
ATOM      3  N   UNL     1      -5.228  -1.038   1.085  0.00  0.00    -0.248 NA
ATOM      4  C   UNL     1       0.975  -2.362  -0.031  0.00  0.00    +0.187 C 
ATOM      5  C   UNL     1       0.391  -3.289  -1.086  0.00  0.00    +0.067 C 
ATOM      6  C   UNL     1      -0.212  -2.078   0.891  0.00  0.00    +0.136 C 
ATOM      7  C   UNL     1      -1.021  -2.740  -1.294  0.00  0.00    +0.096 C 
ATOM      8  C   UNL     1      -2.649  -1.788   0.360  0.00  0.00    +0.130 C 
ATOM      9  C   UNL     1      -3.104  -0.460   0.134  0.00  0.00    +0.048 C 
ATOM     10  C   UNL     1      -4.415  -0.131   0.517  0.00  0.00    +0.066 C 
ATOM     11  C   UNL     1      -2.263   0.497  -0.459  0.00  0.00    +0.044 C 
ATOM     12  C   UNL     1      -4.850   1.173   0.291  0.00  0.00    +0.112 C 
ATOM     13  C   UNL     1      -4.723  -2.276   1.266  0.00  0.00    +0.252 C 
ATOM     14  C   UNL     1      -2.724   1.792  -0.673  0.00  0.00    +0.169 C 
ATOM     15  C   UNL     1      -4.019   2.130  -0.298  0.00  0.00    +0.156 C 
ENDROOT
BRANCH  14  16
ATOM     16  O   UNL     1      -1.903   2.714  -1.248  0.00  0.00    -0.469 OA
ATOM     17  C   UNL     1      -0.590   2.283  -1.602  0.00  0.00    +0.253 C 
ENDBRANCH  14  16
BRANCH  15  18
ATOM     18  O   UNL     1      -4.492   3.392  -0.498  0.00  0.00    -0.472 OA
ATOM     19  C   UNL     1      -4.295   4.332   0.557  0.00  0.00    +0.252 C 
ENDBRANCH  15  18
BRANCH   4  20
ATOM     20  O   UNL     1       1.403  -1.144  -0.631  0.00  0.00    -0.477 OA
BRANCH  20  21
ATOM     21  C   UNL     1       2.702  -0.783  -0.439  0.00  0.00    +0.138 C 
ATOM     22  C   UNL     1       3.003   0.423   0.194  0.00  0.00    +0.037 C 
ATOM     23  C   UNL     1       3.727  -1.616  -0.875  0.00  0.00    +0.037 C 
ATOM     24  C   UNL     1       4.337   0.811   0.399  0.00  0.00    +0.003 C 
ATOM     25  C   UNL     1       5.380  -0.036  -0.045  0.00  0.00    +0.000 C 
ATOM     26  C   UNL     1       5.059  -1.246  -0.680  0.00  0.00    +0.003 C 
ATOM     27  C   UNL     1       4.659   2.022   1.034  0.00  0.00    +0.000 C 
ATOM     28  C   UNL     1       6.715   0.352   0.160  0.00  0.00    +0.000 C 
ATOM     29  C   UNL     1       5.990   2.392   1.229  0.00  0.00    +0.000 C 
ATOM     30  C   UNL     1       7.016   1.559   0.792  0.00  0.00    +0.000 C 
ENDBRANCH  20  21
ENDBRANCH   4  20
TORSDOF 4
