REMARK  Name = 23653530
REMARK  8 active torsions:
REMARK  status: ('A' for Active; 'I' for Inactive)
REMARK    1  A    between atoms: C_3  and  C_11
REMARK    2  A    between atoms: C_4  and  O_23
REMARK    3  A    between atoms: N_10  and  C_14
REMARK    4  A    between atoms: C_13  and  O_19
REMARK    5  A    between atoms: O_19  and  C_20
REMARK    6  A    between atoms: O_23  and  C_24
REMARK    7  A    between atoms: C_24  and  C_25
REMARK    8  A    between atoms: C_25  and  N_26
REMARK                            x       y       z     vdW  Elec       q    Type
REMARK                         _______ _______ _______ _____ _____    ______ ____
ROOT
ATOM      1 CL   UNL     1      -2.941  -2.424   1.305  0.00  0.00    -0.079 Cl
ATOM      2 CL   UNL     1      -4.934   2.353  -0.358  0.00  0.00    -0.079 Cl
ATOM      3  C   UNL     1      -1.220   1.033   0.285  0.00  0.00    +0.056 C 
ATOM      4  C   UNL     1      -3.811   0.014   0.463  0.00  0.00    +0.159 C 
ATOM      5  C   UNL     1      -1.425  -0.283   0.699  0.00  0.00    +0.019 C 
ATOM      6  C   UNL     1      -2.310   1.839  -0.040  0.00  0.00    +0.019 C 
ATOM      7  C   UNL     1      -2.720  -0.793   0.788  0.00  0.00    +0.093 C 
ATOM      8  C   UNL     1      -3.606   1.330   0.049  0.00  0.00    +0.093 C 
ENDROOT
BRANCH   3  11
ATOM      9  O   UNL     1       0.312   2.782   0.342  0.00  0.00    -0.270 OA
ATOM     10  N   UNL     1       1.143   0.623  -0.050  0.00  0.00    -0.280 N 
ATOM     11  C   UNL     1       0.131   1.564   0.189  0.00  0.00    +0.250 C 
ATOM     12  H   UNL     1       0.844  -0.310  -0.150  0.00  0.00    +0.155 HD
BRANCH  10  14
ATOM     13  C   UNL     1       4.745  -0.028  -0.517  0.00  0.00    +0.140 C 
ATOM     14  C   UNL     1       2.538   0.839  -0.166  0.00  0.00    +0.054 C 
ATOM     15  C   UNL     1       3.371  -0.240  -0.405  0.00  0.00    +0.052 C 
ATOM     16  C   UNL     1       5.265   1.260  -0.390  0.00  0.00    +0.037 C 
ATOM     17  C   UNL     1       3.036   2.124  -0.037  0.00  0.00    +0.015 C 
ATOM     18  C   UNL     1       4.410   2.336  -0.150  0.00  0.00    +0.004 C 
BRANCH  13  19
ATOM     19  O   UNL     1       5.579  -1.078  -0.751  0.00  0.00    -0.479 OA
BRANCH  19  20
ATOM     20  C   UNL     1       5.592  -2.126   0.217  0.00  0.00    +0.166 C 
ATOM     21  C   UNL     1       5.148  -3.422  -0.443  0.00  0.00    +0.047 C 
ATOM     22  C   UNL     1       6.987  -2.241   0.812  0.00  0.00    +0.047 C 
ENDBRANCH  19  20
ENDBRANCH  13  19
ENDBRANCH  10  14
ENDBRANCH   3  11
BRANCH   4  23
ATOM     23  O   UNL     1      -5.079  -0.485   0.551  0.00  0.00    -0.476 OA
BRANCH  23  24
ATOM     24  C   UNL     1      -5.607  -1.112  -0.614  0.00  0.00    +0.182 C 
BRANCH  24  25
ATOM     25  C   UNL     1      -7.008  -1.615  -0.305  0.00  0.00    -0.038 C 
BRANCH  25  26
ATOM     26  N   UNL     1      -7.596  -2.249  -1.475  0.00  0.00    +0.383 N 
ATOM     27  H   UNL     1      -8.534  -2.579  -1.248  0.00  0.00    -0.089 HD
ATOM     28  H   UNL     1      -7.018  -3.039  -1.761  0.00  0.00    -0.089 HD
ATOM     29  H   UNL     1      -7.650  -1.574  -2.237  0.00  0.00    -0.089 HD
ENDBRANCH  25  26
ENDBRANCH  24  25
ENDBRANCH  23  24
ENDBRANCH   4  23
TORSDOF 8
