REMARK  Name = 3342298
REMARK  7 active torsions:
REMARK  status: ('A' for Active; 'I' for Inactive)
REMARK    1  A    between atoms: S_1  and  C_4
REMARK    2  A    between atoms: S_1  and  C_18
REMARK    3  A    between atoms: C_9  and  O_10
REMARK    4  A    between atoms: O_10  and  C_12
REMARK    5  A    between atoms: C_18  and  C_20
REMARK    6  A    between atoms: C_20  and  C_27
REMARK    7  A    between atoms: N_26  and  O_29
REMARK                            x       y       z     vdW  Elec       q    Type
REMARK                         _______ _______ _______ _____ _____    ______ ____
ROOT
ATOM      1  S   UNL     1       1.674   1.127  -0.282  0.00  0.00    +0.009 S 
ATOM      2  O   UNL     1       1.887   0.981  -1.715  0.00  0.00    -0.169 OA
ATOM      3  O   UNL     1       2.319   2.216   0.438  0.00  0.00    -0.169 OA
ENDROOT
BRANCH   1   4
ATOM      4  C   UNL     1      -0.073   1.285  -0.042  0.00  0.00    +0.106 C 
ATOM      5  C   UNL     1      -0.934   0.744  -0.979  0.00  0.00    +0.021 C 
ATOM      6  C   UNL     1      -0.541   1.944   1.080  0.00  0.00    +0.021 C 
ATOM      7  C   UNL     1      -2.310   0.868  -0.789  0.00  0.00    +0.039 C 
ATOM      8  C   UNL     1      -1.917   2.068   1.271  0.00  0.00    +0.039 C 
ATOM      9  C   UNL     1      -2.802   1.529   0.336  0.00  0.00    +0.145 C 
BRANCH   9  10
ATOM     10  O   UNL     1      -4.144   1.651   0.522  0.00  0.00    -0.453 OA
BRANCH  10  12
ATOM     11 CL   UNL     1      -7.464  -3.105  -0.394  0.00  0.00    -0.082 Cl
ATOM     12  C   UNL     1      -4.928   0.530   0.307  0.00  0.00    +0.145 C 
ATOM     13  C   UNL     1      -4.518  -0.687   0.821  0.00  0.00    +0.038 C 
ATOM     14  C   UNL     1      -6.100   0.655  -0.417  0.00  0.00    +0.038 C 
ATOM     15  C   UNL     1      -5.307  -1.817   0.604  0.00  0.00    +0.015 C 
ATOM     16  C   UNL     1      -6.888  -0.475  -0.635  0.00  0.00    +0.015 C 
ATOM     17  C   UNL     1      -6.492  -1.711  -0.124  0.00  0.00    +0.058 C 
ENDBRANCH  10  12
ENDBRANCH   9  10
ENDBRANCH   1   4
BRANCH   1  18
ATOM     18  C   UNL     1       2.089  -0.380   0.517  0.00  0.00    +0.165 C 
BRANCH  18  20
ATOM     19  O   UNL     1       6.056  -1.082   1.868  0.00  0.00    -0.354 OA
ATOM     20  C   UNL     1       3.590  -0.666   0.399  0.00  0.00    +0.098 C 
ATOM     21  C   UNL     1       4.405   0.484   1.013  0.00  0.00    +0.043 C 
ATOM     22  C   UNL     1       3.938  -1.992   1.095  0.00  0.00    +0.043 C 
ATOM     23  C   UNL     1       5.885   0.130   1.136  0.00  0.00    +0.143 C 
ATOM     24  C   UNL     1       5.447  -2.193   1.214  0.00  0.00    +0.143 C 
BRANCH  20  27
ATOM     25  O   UNL     1       3.343  -1.618  -1.782  0.00  0.00    -0.273 OA
ATOM     26  N   UNL     1       4.794   0.162  -1.509  0.00  0.00    -0.197 N 
ATOM     27  C   UNL     1       3.888  -0.772  -1.077  0.00  0.00    +0.245 C 
ATOM     28  H   UNL     1       5.201   0.818  -0.899  0.00  0.00    +0.182 HD
BRANCH  26  29
ATOM     29  O   UNL     1       5.103   0.123  -2.876  0.00  0.00    -0.295 OA
ATOM     30  H   UNL     1       5.748   0.817  -3.081  0.00  0.00    +0.241 HD
ENDBRANCH  26  29
ENDBRANCH  20  27
ENDBRANCH  18  20
ENDBRANCH   1  18
TORSDOF 7
