REMARK  Name = 447110
REMARK  9 active torsions:
REMARK  status: ('A' for Active; 'I' for Inactive)
REMARK    1  A    between atoms: C_1  and  C_2
REMARK    2  A    between atoms: C_1  and  N_15
REMARK    3  A    between atoms: C_1  and  P_26
REMARK    4  A    between atoms: C_5  and  C_10
REMARK    5  A    between atoms: C_16  and  O_18
REMARK    6  A    between atoms: O_18  and  C_19
REMARK    7  A    between atoms: C_19  and  C_20
REMARK    8  A    between atoms: P_26  and  O_28
REMARK    9  A    between atoms: P_26  and  O_30
REMARK                            x       y       z     vdW  Elec       q    Type
REMARK                         _______ _______ _______ _____ _____    ______ ____
ROOT
ATOM      1  C   UNL     1       1.071  -1.627  -0.366  0.00  0.00    +0.202 C 
ENDROOT
BRANCH   1   2
ATOM      2  C   UNL     1       2.131  -0.558  -0.213  0.00  0.00    +0.007 C 
ATOM      3  C   UNL     1       2.356  -0.002   1.035  0.00  0.00    -0.002 C 
ATOM      4  C   UNL     1       2.855  -0.161  -1.324  0.00  0.00    -0.002 C 
ATOM      5  C   UNL     1       4.072   1.395   0.066  0.00  0.00    +0.031 C 
ATOM      6  C   UNL     1       3.334   0.983   1.175  0.00  0.00    +0.002 C 
ATOM      7  C   UNL     1       3.833   0.824  -1.183  0.00  0.00    +0.002 C 
BRANCH   5  10
ATOM      8  N   UNL     1       5.352   3.014   1.448  0.00  0.00    -0.343 N 
ATOM      9  N   UNL     1       5.787   2.815  -0.839  0.00  0.00    -0.285 NA
ATOM     10  C   UNL     1       5.091   2.423   0.213  0.00  0.00    +0.117 C 
ATOM     11  H   UNL     1       6.047   3.707   1.525  0.00  0.00    +0.144 HD
ATOM     12  H   UNL     1       4.843   2.737   2.244  0.00  0.00    +0.144 HD
ATOM     13  H   UNL     1       6.477   3.511  -0.742  0.00  0.00    +0.188 HD
ENDBRANCH   5  10
ENDBRANCH   1   2
BRANCH   1  15
ATOM     14  O   UNL     1      -0.828  -0.353  -2.160  0.00  0.00    -0.226 OA
ATOM     15  N   UNL     1      -0.263  -1.129  -0.049  0.00  0.00    -0.258 N 
ATOM     16  C   UNL     1      -1.095  -0.537  -0.977  0.00  0.00    +0.403 C 
ATOM     17  H   UNL     1      -0.586  -1.220   0.877  0.00  0.00    +0.154 HD
BRANCH  16  18
ATOM     18  O   UNL     1      -2.269  -0.178  -0.380  0.00  0.00    -0.430 OA
BRANCH  18  19
ATOM     19  C   UNL     1      -3.233   0.456  -1.229  0.00  0.00    +0.237 C 
BRANCH  19  20
ATOM     20  C   UNL     1      -4.456   0.783  -0.424  0.00  0.00    +0.021 C 
ATOM     21  C   UNL     1      -5.486  -0.146  -0.328  0.00  0.00    -0.001 C 
ATOM     22  C   UNL     1      -4.548   2.013   0.219  0.00  0.00    -0.001 C 
ATOM     23  C   UNL     1      -6.622   0.158   0.421  0.00  0.00    -0.000 C 
ATOM     24  C   UNL     1      -5.685   2.317   0.968  0.00  0.00    -0.000 C 
ATOM     25  C   UNL     1      -6.723   1.389   1.069  0.00  0.00    -0.000 C 
ENDBRANCH  19  20
ENDBRANCH  18  19
ENDBRANCH  16  18
ENDBRANCH   1  15
BRANCH   1  26
ATOM     26  P   UNL     1       1.290  -3.112   0.620  0.00  0.00    +0.359 P 
ATOM     27  O   UNL     1       1.320  -2.873   2.101  0.00  0.00    -0.256 OA
BRANCH  26  28
ATOM     28  O   UNL     1       2.617  -3.812   0.017  0.00  0.00    -0.322 OA
ATOM     29  H   UNL     1       2.801  -4.630   0.505  0.00  0.00    +0.220 HD
ENDBRANCH  26  28
BRANCH  26  30
ATOM     30  O   UNL     1       0.098  -4.082   0.118  0.00  0.00    -0.322 OA
ATOM     31  H   UNL     1       0.138  -4.921   0.603  0.00  0.00    +0.220 HD
ENDBRANCH  26  30
ENDBRANCH   1  26
TORSDOF 9
