REMARK  Name = 1548968
REMARK  7 active torsions:
REMARK  status: ('A' for Active; 'I' for Inactive)
REMARK    1  A    between atoms: C_1  and  C_2
REMARK    2  A    between atoms: C_1  and  O_8
REMARK    3  A    between atoms: C_1  and  C_19
REMARK    4  A    between atoms: O_8  and  C_9
REMARK    5  A    between atoms: C_12  and  C_18
REMARK    6  A    between atoms: C_19  and  C_20
REMARK    7  A    between atoms: C_20  and  N_21
REMARK                            x       y       z     vdW  Elec       q    Type
REMARK                         _______ _______ _______ _____ _____    ______ ____
ROOT
ATOM      1  C   UNL     1       1.405   0.360   0.193  0.00  0.00    +0.186 C 
ENDROOT
BRANCH   1   2
ATOM      2  C   UNL     1       2.303  -0.844   0.033  0.00  0.00    +0.017 C 
ATOM      3  C   UNL     1       2.865  -1.111  -1.205  0.00  0.00    -0.001 C 
ATOM      4  C   UNL     1       2.548  -1.657   1.127  0.00  0.00    -0.001 C 
ATOM      5  C   UNL     1       3.695  -2.222  -1.353  0.00  0.00    -0.000 C 
ATOM      6  C   UNL     1       3.378  -2.769   0.979  0.00  0.00    -0.000 C 
ATOM      7  C   UNL     1       3.951  -3.051  -0.261  0.00  0.00    -0.000 C 
ENDBRANCH   1   2
BRANCH   1   8
ATOM      8  O   UNL     1       0.433   0.055   1.195  0.00  0.00    -0.475 OA
BRANCH   8   9
ATOM      9  C   UNL     1      -0.875   0.053   0.797  0.00  0.00    +0.139 C 
ATOM     10  C   UNL     1      -1.780   0.925   1.394  0.00  0.00    +0.037 C 
ATOM     11  C   UNL     1      -1.292  -0.820  -0.204  0.00  0.00    +0.037 C 
ATOM     12  C   UNL     1      -3.538   0.050  -0.014  0.00  0.00    +0.072 C 
ATOM     13  C   UNL     1      -3.115   0.923   0.988  0.00  0.00    +0.007 C 
ATOM     14  C   UNL     1      -2.626  -0.821  -0.610  0.00  0.00    +0.007 C 
BRANCH  12  18
ATOM     15  F   UNL     1      -5.741   0.952   0.220  0.00  0.00    -0.166 F 
ATOM     16  F   UNL     1      -5.133   0.344  -1.772  0.00  0.00    -0.166 F 
ATOM     17  F   UNL     1      -5.569  -1.161  -0.264  0.00  0.00    -0.166 F 
ATOM     18  C   UNL     1      -4.964   0.049  -0.449  0.00  0.00    +0.419 C 
ENDBRANCH  12  18
ENDBRANCH   8   9
ENDBRANCH   1   8
BRANCH   1  19
ATOM     19  C   UNL     1       2.148   1.645   0.595  0.00  0.00    +0.025 C 
BRANCH  19  20
ATOM     20  C   UNL     1       3.180   2.087  -0.442  0.00  0.00    -0.078 C 
BRANCH  20  21
ATOM     21  N   UNL     1       3.856   3.300   0.006  0.00  0.00    +0.382 N 
ATOM     22  C   UNL     1       4.872   3.712  -0.953  0.00  0.00    -0.106 C 
ATOM     23  H   UNL     1       4.300   3.122   0.907  0.00  0.00    -0.085 HD
ATOM     24  H   UNL     1       3.166   4.046   0.090  0.00  0.00    -0.085 HD
ENDBRANCH  20  21
ENDBRANCH  19  20
ENDBRANCH   1  19
TORSDOF 7
