780
  -OEChem-10051721183D

 20 20  0     0  0  0  0  0  0999 V2000
   -0.4895    2.3984    0.1323 O   0  0  0  0  0  0  0  0  0  0  0  0
    2.9512   -1.9066   -0.0253 O   0  0  0  0  0  0  0  0  0  0  0  0
   -3.7117   -0.7273    0.2389 O   0  0  0  0  0  0  0  0  0  0  0  0
   -2.1433   -0.5558   -1.3936 O   0  0  0  0  0  0  0  0  0  0  0  0
   -0.0943    0.0588    0.4732 C   0  0  0  0  0  0  0  0  0  0  0  0
   -1.5027   -0.1537    0.9213 C   0  0  0  0  0  0  0  0  0  0  0  0
    0.3508    1.3264    0.0984 C   0  0  0  0  0  0  0  0  0  0  0  0
    0.7793   -1.0279    0.4312 C   0  0  0  0  0  0  0  0  0  0  0  0
    2.0980   -0.8468    0.0142 C   0  0  0  0  0  0  0  0  0  0  0  0
    1.6695    1.5074   -0.3186 C   0  0  0  0  0  0  0  0  0  0  0  0
    2.5431    0.4208   -0.3608 C   0  0  0  0  0  0  0  0  0  0  0  0
   -2.4505   -0.4938   -0.2110 C   0  0  0  0  0  0  0  0  0  0  0  0
   -1.8828    0.7369    1.4349 H   0  0  0  0  0  0  0  0  0  0  0  0
   -1.5371   -0.9753    1.6477 H   0  0  0  0  0  0  0  0  0  0  0  0
    0.4329   -2.0170    0.7211 H   0  0  0  0  0  0  0  0  0  0  0  0
    2.0298    2.4894   -0.6136 H   0  0  0  0  0  0  0  0  0  0  0  0
    3.5693    0.5681   -0.6862 H   0  0  0  0  0  0  0  0  0  0  0  0
   -0.0065    3.1898   -0.1614 H   0  0  0  0  0  0  0  0  0  0  0  0
    2.4774   -2.7042    0.2670 H   0  0  0  0  0  0  0  0  0  0  0  0
   -4.3260   -0.9468   -0.4938 H   0  0  0  0  0  0  0  0  0  0  0  0
  1  7  1  0  0  0  0
  1 18  1  0  0  0  0
  2  9  1  0  0  0  0
  2 19  1  0  0  0  0
  3 12  1  0  0  0  0
  3 20  1  0  0  0  0
  4 12  2  0  0  0  0
  5  6  1  0  0  0  0
  5  7  2  0  0  0  0
  5  8  1  0  0  0  0
  6 12  1  0  0  0  0
  6 13  1  0  0  0  0
  6 14  1  0  0  0  0
  7 10  1  0  0  0  0
  8  9  2  0  0  0  0
  8 15  1  0  0  0  0
  9 11  1  0  0  0  0
 10 11  2  0  0  0  0
 10 16  1  0  0  0  0
 11 17  1  0  0  0  0
M  END
> <DATABASE_ID>
DB08327

> <DATABASE_NAME>
drugbank

> <ORIGINAL_SOURCE>
PUBCHEM

> <ORIGINAL_SOURCE_URL>
https://pubchem.ncbi.nlm.nih.gov/rest/pug/compound/inchikey/IGMNYECMUMZDDF-UHFFFAOYSA-N/SDF?record_type=3d

> <SMILES>
OC(=O)CC1=C(O)C=CC(O)=C1

> <INCHI_IDENTIFIER>
InChI=1S/C8H8O4/c9-6-1-2-7(10)5(3-6)4-8(11)12/h1-3,9-10H,4H2,(H,11,12)

> <INCHI_KEY>
IGMNYECMUMZDDF-UHFFFAOYSA-N

> <FORMULA>
C8H8O4

> <MOLECULAR_WEIGHT>
168.1467

> <EXACT_MASS>
168.042258744

> <JCHEM_ACCEPTOR_COUNT>
4

> <JCHEM_AVERAGE_POLARIZABILITY>
15.568374170369887

> <JCHEM_BIOAVAILABILITY>
1

> <JCHEM_DONOR_COUNT>
3

> <JCHEM_FORMAL_CHARGE>
0

> <JCHEM_GHOSE_FILTER>
1

> <JCHEM_IUPAC>
2-(2,5-dihydroxyphenyl)acetic acid

> <ALOGPS_LOGP>
0.81

> <JCHEM_LOGP>
1.0038634619999998

> <ALOGPS_LOGS>
-1.32

> <JCHEM_MDDR_LIKE_RULE>
0

> <JCHEM_NUMBER_OF_RINGS>
1

> <JCHEM_PHYSIOLOGICAL_CHARGE>
-1

> <JCHEM_PKA>
9.566007893833087

> <JCHEM_PKA_STRONGEST_ACIDIC>
3.5738042143024793

> <JCHEM_PKA_STRONGEST_BASIC>
-5.895788377591718

> <JCHEM_POLAR_SURFACE_AREA>
77.75999999999999

> <JCHEM_REFRACTIVITY>
41.3274

> <JCHEM_ROTATABLE_BOND_COUNT>
2

> <JCHEM_RULE_OF_FIVE>
1

> <ALOGPS_SOLUBILITY>
8.10e+00 g/l

> <JCHEM_TRADITIONAL_IUPAC>
homogentisic acid

> <JCHEM_VEBER_RULE>
0

> <DRUGBANK_ID>
DB08327

> <DRUG_GROUPS>
experimental

> <GENERIC_NAME>
2-(3,6-DIHYDROXYPHENYL)ACETIC ACID

$$$$
