REMARK  Name = 46937141
REMARK  5 active torsions:
REMARK  status: ('A' for Active; 'I' for Inactive)
REMARK    1  A    between atoms: N_2  and  C_10
REMARK    2  A    between atoms: C_3  and  O_5
REMARK    3  A    between atoms: O_5  and  C_6
REMARK    4  A    between atoms: C_10  and  C_14
REMARK    5  A    between atoms: C_10  and  C_16
REMARK                            x       y       z     vdW  Elec       q    Type
REMARK                         _______ _______ _______ _____ _____    ______ ____
ROOT
ATOM      1  O   UNL     1       1.697  -0.763  -1.268  0.00  0.00    -0.226 OA
ATOM      2  N   UNL     1       0.162   0.065   0.261  0.00  0.00    -0.264 N 
ATOM      3  C   UNL     1       1.423  -0.123  -0.258  0.00  0.00    +0.402 C 
ATOM      4  H   UNL     1       0.071   0.602   1.081  0.00  0.00    +0.153 HD
ENDROOT
BRANCH   3   5
ATOM      5  O   UNL     1       2.340   0.516   0.528  0.00  0.00    -0.442 OA
BRANCH   5   6
ATOM      6  C   UNL     1       3.705   0.408   0.108  0.00  0.00    +0.138 C 
ATOM      7  C   UNL     1       4.098  -1.069   0.109  0.00  0.00    +0.044 C 
ATOM      8  C   UNL     1       4.556   1.191   1.106  0.00  0.00    +0.044 C 
ATOM      9  C   UNL     1       3.832   1.005  -1.292  0.00  0.00    +0.044 C 
ENDBRANCH   5   6
ENDBRANCH   3   5
BRANCH   2  10
ATOM     10  C   UNL     1      -1.040  -0.484  -0.335  0.00  0.00    +0.153 C 
BRANCH  10  14
ATOM     11  O   UNL     1      -3.111   0.581  -1.107  0.00  0.00    -0.414 OA
ATOM     12  N   UNL     1      -2.455   1.237   0.929  0.00  0.00    -0.110 NA
ATOM     13  N   UNL     1      -3.623   1.908   0.620  0.00  0.00    -0.102 NA
ATOM     14  C   UNL     1      -2.194   0.474  -0.106  0.00  0.00    +0.244 C 
ATOM     15  C   UNL     1      -3.969   1.495  -0.577  0.00  0.00    +0.306 C 
ENDBRANCH  10  14
BRANCH  10  16
ATOM     16  C   UNL     1      -1.316  -1.927   0.169  0.00  0.00    +0.027 C 
ATOM     17  C   UNL     1      -2.510  -2.554  -0.565  0.00  0.00    +0.002 C 
ATOM     18  C   UNL     1      -1.595  -1.961   1.678  0.00  0.00    +0.002 C 
ENDBRANCH  10  16
ENDBRANCH   2  10
TORSDOF 5
