REMARK  Name = 54688400
REMARK  7 active torsions:
REMARK  status: ('A' for Active; 'I' for Inactive)
REMARK    1  A    between atoms: C_3  and  C_8
REMARK    2  A    between atoms: C_3  and  C_15
REMARK    3  A    between atoms: C_5  and  O_13
REMARK    4  A    between atoms: C_15  and  C_16
REMARK    5  A    between atoms: C_16  and  C_18
REMARK    6  A    between atoms: C_23  and  O_24
REMARK    7  A    between atoms: O_24  and  C_25
REMARK                            x       y       z     vdW  Elec       q    Type
REMARK                         _______ _______ _______ _____ _____    ______ ____
ROOT
ATOM      1  O   UNL     1      -3.216  -0.267   1.207  0.00  0.00    -0.452 OA
ATOM      2  O   UNL     1      -3.691  -1.758   2.846  0.00  0.00    -0.245 OA
ATOM      3  C   UNL     1      -2.543  -0.006  -0.053  0.00  0.00    +0.144 C 
ATOM      4  C   UNL     1      -3.018  -1.002  -1.118  0.00  0.00    +0.104 C 
ATOM      5  C   UNL     1      -3.006  -2.392  -0.569  0.00  0.00    +0.121 C 
ATOM      6  C   UNL     1      -3.361  -1.531   1.687  0.00  0.00    +0.344 C 
ATOM      7  C   UNL     1      -3.136  -2.635   0.738  0.00  0.00    +0.114 C 
ENDROOT
BRANCH   3   8
ATOM      8  C   UNL     1      -2.922   1.406  -0.462  0.00  0.00    +0.037 C 
ATOM      9  C   UNL     1      -4.429   1.614  -0.580  0.00  0.00    +0.003 C 
ATOM     10  C   UNL     1      -2.529   2.458   0.571  0.00  0.00    +0.003 C 
ATOM     11  C   UNL     1      -3.370   3.673   0.197  0.00  0.00    +0.000 C 
ATOM     12  C   UNL     1      -4.599   3.130  -0.533  0.00  0.00    +0.000 C 
ENDBRANCH   3   8
BRANCH   5  13
ATOM     13  O   UNL     1      -2.847  -3.425  -1.468  0.00  0.00    -0.509 OA
ATOM     14  H   UNL     1      -2.757  -3.241  -2.382  0.00  0.00    +0.292 HD
ENDBRANCH   5  13
BRANCH   3  15
ATOM     15  C   UNL     1      -1.026  -0.069   0.180  0.00  0.00    +0.045 C 
BRANCH  15  16
ATOM     16  C   UNL     1      -0.263   0.293  -1.090  0.00  0.00    +0.030 C 
BRANCH  16  18
ATOM     17  F   UNL     1       3.978  -2.121  -1.089  0.00  0.00    -0.201 F 
ATOM     18  C   UNL     1       1.227   0.247  -0.865  0.00  0.00    -0.020 C 
ATOM     19  C   UNL     1       1.930  -0.938  -1.085  0.00  0.00    +0.029 C 
ATOM     20  C   UNL     1       1.903   1.389  -0.436  0.00  0.00    -0.001 C 
ATOM     21  C   UNL     1       3.308  -0.980  -0.876  0.00  0.00    +0.173 C 
ATOM     22  C   UNL     1       3.281   1.347  -0.228  0.00  0.00    +0.039 C 
ATOM     23  C   UNL     1       3.984   0.162  -0.448  0.00  0.00    +0.166 C 
BRANCH  23  24
ATOM     24  O   UNL     1       5.329   0.123  -0.244  0.00  0.00    -0.477 OA
BRANCH  24  25
ATOM     25  C   UNL     1       5.796   0.422   1.071  0.00  0.00    +0.166 C 
ATOM     26  C   UNL     1       6.527  -0.789   1.630  0.00  0.00    +0.047 C 
ATOM     27  C   UNL     1       6.692   1.650   1.017  0.00  0.00    +0.047 C 
ENDBRANCH  24  25
ENDBRANCH  23  24
ENDBRANCH  16  18
ENDBRANCH  15  16
ENDBRANCH   3  15
TORSDOF 7
