REMARK  Name = 11957394
REMARK  9 active torsions:
REMARK  status: ('A' for Active; 'I' for Inactive)
REMARK    1  A    between atoms: C_1  and  C_7
REMARK    2  A    between atoms: C_3  and  O_21
REMARK    3  A    between atoms: C_5  and  O_25
REMARK    4  A    between atoms: C_8  and  C_11
REMARK    5  A    between atoms: N_10  and  C_13
REMARK    6  A    between atoms: C_13  and  C_14
REMARK    7  A    between atoms: C_14  and  C_15
REMARK    8  A    between atoms: O_21  and  C_23
REMARK    9  A    between atoms: O_25  and  C_27
REMARK                            x       y       z     vdW  Elec       q    Type
REMARK                         _______ _______ _______ _____ _____    ______ ____
ROOT
ATOM      1  C   UNL     1       1.442   1.480  -0.469  0.00  0.00    +0.003 C 
ATOM      2  C   UNL     1       1.642   0.174  -0.020  0.00  0.00    +0.041 C 
ATOM      3  C   UNL     1       2.933  -0.352   0.042  0.00  0.00    +0.183 C 
ATOM      4  C   UNL     1       2.532   2.259  -0.856  0.00  0.00    +0.003 C 
ATOM      5  C   UNL     1       4.023   0.428  -0.345  0.00  0.00    +0.183 C 
ATOM      6  C   UNL     1       3.822   1.733  -0.794  0.00  0.00    +0.041 C 
ENDROOT
BRANCH   1   7
ATOM      7  C   UNL     1       0.078   2.035  -0.534  0.00  0.00    +0.005 C 
ATOM      8  C   UNL     1      -0.973   1.553   0.146  0.00  0.00    +0.058 C 
BRANCH   8  11
ATOM      9  O   UNL     1      -2.495   3.179  -0.710  0.00  0.00    -0.270 OA
ATOM     10  N   UNL     1      -3.268   1.572   0.781  0.00  0.00    -0.301 N 
ATOM     11  C   UNL     1      -2.308   2.203   0.009  0.00  0.00    +0.246 C 
ATOM     12  H   UNL     1      -2.999   0.794   1.321  0.00  0.00    +0.150 HD
BRANCH  10  13
ATOM     13  C   UNL     1      -4.647   2.003   0.832  0.00  0.00    +0.094 C 
BRANCH  13  14
ATOM     14  C   UNL     1      -5.513   1.323  -0.227  0.00  0.00    +0.048 C 
BRANCH  14  15
ATOM     15  C   UNL     1      -5.563  -0.177  -0.072  0.00  0.00    -0.020 C 
ATOM     16  C   UNL     1      -6.550  -0.764   0.720  0.00  0.00    -0.004 C 
ATOM     17  C   UNL     1      -4.622  -0.977  -0.720  0.00  0.00    -0.004 C 
ATOM     18  C   UNL     1      -6.596  -2.151   0.863  0.00  0.00    -0.000 C 
ATOM     19  C   UNL     1      -4.668  -2.364  -0.577  0.00  0.00    -0.000 C 
ATOM     20  C   UNL     1      -5.656  -2.950   0.215  0.00  0.00    -0.000 C 
ENDBRANCH  14  15
ENDBRANCH  13  14
ENDBRANCH  10  13
ENDBRANCH   8  11
ENDBRANCH   1   7
BRANCH   3  21
ATOM     21  O   UNL     1       3.117  -1.627   0.483  0.00  0.00    -0.421 OA
BRANCH  21  23
ATOM     22  O   UNL     1       2.892  -2.379  -1.723  0.00  0.00    -0.250 OA
ATOM     23  C   UNL     1       3.075  -2.596  -0.532  0.00  0.00    +0.322 C 
ATOM     24  C   UNL     1       3.287  -3.961   0.052  0.00  0.00    +0.122 C 
ENDBRANCH  21  23
ENDBRANCH   3  21
BRANCH   5  25
ATOM     25  O   UNL     1       5.288  -0.075  -0.291  0.00  0.00    -0.421 OA
BRANCH  25  27
ATOM     26  O   UNL     1       5.469   0.729   1.900  0.00  0.00    -0.250 OA
ATOM     27  C   UNL     1       5.939   0.145   0.933  0.00  0.00    +0.322 C 
ATOM     28  C   UNL     1       7.319  -0.443   0.892  0.00  0.00    +0.122 C 
ENDBRANCH  25  27
ENDBRANCH   5  25
TORSDOF 9
