REMARK  Name = 9363
REMARK  5 active torsions:
REMARK  status: ('A' for Active; 'I' for Inactive)
REMARK    1  A    between atoms: C_1  and  C_9
REMARK    2  A    between atoms: C_4  and  O_14
REMARK    3  A    between atoms: C_6  and  O_16
REMARK    4  A    between atoms: N_8  and  C_10
REMARK    5  A    between atoms: N_8  and  C_12
REMARK                            x       y       z     vdW  Elec       q    Type
REMARK                         _______ _______ _______ _____ _____    ______ ____
ROOT
ATOM      1  C   UNL     1      -0.122   0.618  -0.309  0.00  0.00    +0.057 C 
ATOM      2  C   UNL     1       0.818  -0.276  -0.822  0.00  0.00    +0.045 C 
ATOM      3  C   UNL     1       0.278   1.619   0.576  0.00  0.00    +0.008 C 
ATOM      4  C   UNL     1       2.158  -0.169  -0.449  0.00  0.00    +0.172 C 
ATOM      5  C   UNL     1       1.617   1.725   0.950  0.00  0.00    +0.040 C 
ATOM      6  C   UNL     1       2.557   0.832   0.437  0.00  0.00    +0.168 C 
ENDROOT
BRANCH   1   9
ATOM      7  O   UNL     1      -1.880   1.153  -1.689  0.00  0.00    -0.270 OA
ATOM      8  N   UNL     1      -2.376  -0.305   0.069  0.00  0.00    -0.276 N 
ATOM      9  C   UNL     1      -1.519   0.506  -0.697  0.00  0.00    +0.249 C 
BRANCH   8  10
ATOM     10  C   UNL     1      -3.790  -0.455  -0.246  0.00  0.00    +0.094 C 
ATOM     11  C   UNL     1      -4.630   0.589   0.462  0.00  0.00    +0.023 C 
ENDBRANCH   8  10
BRANCH   8  12
ATOM     12  C   UNL     1      -1.905  -1.051   1.234  0.00  0.00    +0.094 C 
ATOM     13  C   UNL     1      -1.424  -2.435   0.848  0.00  0.00    +0.023 C 
ENDBRANCH   8  12
ENDBRANCH   1   9
BRANCH   4  14
ATOM     14  O   UNL     1       3.067  -1.048  -0.955  0.00  0.00    -0.468 OA
ATOM     15  C   UNL     1       3.289  -2.249  -0.217  0.00  0.00    +0.253 C 
ENDBRANCH   4  14
BRANCH   6  16
ATOM     16  O   UNL     1       3.863   0.946   0.809  0.00  0.00    -0.503 OA
ATOM     17  H   UNL     1       4.501   0.350   0.469  0.00  0.00    +0.292 HD
ENDBRANCH   6  16
TORSDOF 5
