REMARK  Name = 5327076
REMARK  6 active torsions:
REMARK  status: ('A' for Active; 'I' for Inactive)
REMARK    1  A    between atoms: C_4  and  C_20
REMARK    2  A    between atoms: C_6  and  O_11
REMARK    3  A    between atoms: O_11  and  C_12
REMARK    4  A    between atoms: C_20  and  S_21
REMARK    5  A    between atoms: S_21  and  C_22
REMARK    6  A    between atoms: C_22  and  C_24
REMARK                            x       y       z     vdW  Elec       q    Type
REMARK                         _______ _______ _______ _____ _____    ______ ____
ROOT
ATOM      1  I   UNL     1      -2.945  -2.403  -1.983  0.00  0.00    -0.034 I 
ATOM      2  O   UNL     1      -5.163  -0.777  -0.331  0.00  0.00    -0.267 OA
ATOM      3  N   UNL     1      -3.966   0.974   0.529  0.00  0.00    -0.324 N 
ATOM      4  C   UNL     1      -1.636   1.204   0.193  0.00  0.00    +0.035 A 
ATOM      5  C   UNL     1      -2.788   1.661   0.733  0.00  0.00    +0.036 A 
ATOM      6  C   UNL     1      -1.684  -0.006  -0.639  0.00  0.00    +0.153 A 
ATOM      7  C   UNL     1      -2.826  -0.693  -0.830  0.00  0.00    +0.120 A 
ATOM      8  C   UNL     1      -2.937   2.901   1.569  0.00  0.00    +0.050 C 
ATOM      9  C   UNL     1      -4.090  -0.192  -0.200  0.00  0.00    +0.266 A 
ATOM     10  H   UNL     1      -4.783   1.343   0.935  0.00  0.00    +0.169 HD
ENDROOT
BRANCH   6  11
ATOM     11  O   UNL     1      -0.508  -0.423  -1.242  0.00  0.00    -0.453 OA
BRANCH  11  12
ATOM     12  C   UNL     1       0.268  -1.290  -0.531  0.00  0.00    +0.145 C 
ATOM     13  C   UNL     1       2.261  -2.640  -0.344  0.00  0.00    -0.019 C 
ATOM     14  C   UNL     1       0.657  -2.596   1.462  0.00  0.00    -0.019 C 
ATOM     15  C   UNL     1      -0.138  -1.710   0.735  0.00  0.00    +0.033 C 
ATOM     16  C   UNL     1       1.466  -1.754  -1.072  0.00  0.00    +0.033 C 
ATOM     17  C   UNL     1       1.856  -3.061   0.922  0.00  0.00    -0.008 C 
ATOM     18  C   UNL     1       3.543  -3.137  -0.921  0.00  0.00    +0.031 C 
ATOM     19  C   UNL     1       0.224  -3.046   2.816  0.00  0.00    +0.031 C 
ENDBRANCH  11  12
ENDBRANCH   6  11
BRANCH   4  20
ATOM     20  C   UNL     1      -0.296   1.845   0.445  0.00  0.00    +0.088 C 
BRANCH  20  21
ATOM     21  S   UNL     1       0.037   3.062  -0.841  0.00  0.00    -0.127 S 
BRANCH  21  22
ATOM     22  C   UNL     1       1.658   3.630  -0.272  0.00  0.00    +0.122 C 
BRANCH  22  24
ATOM     23  O   UNL     1       3.187   2.257   0.974  0.00  0.00    -0.454 OA
ATOM     24  C   UNL     1       2.647   2.500  -0.233  0.00  0.00    +0.134 C 
ATOM     25  C   UNL     1       3.109   1.665  -1.192  0.00  0.00    +0.037 C 
ATOM     26  C   UNL     1       4.027   0.814  -0.530  0.00  0.00    +0.043 C 
ATOM     27  C   UNL     1       4.038   1.215   0.785  0.00  0.00    +0.179 C 
ENDBRANCH  22  24
ENDBRANCH  21  22
ENDBRANCH  20  21
ENDBRANCH   4  20
TORSDOF 6
