REMARK  Name = 46937130
REMARK  12 active torsions:
REMARK  status: ('A' for Active; 'I' for Inactive)
REMARK    1  A    between atoms: N_1  and  C_13
REMARK    2  A    between atoms: C_9  and  S_27
REMARK    3  A    between atoms: C_11  and  O_15
REMARK    4  A    between atoms: C_12  and  O_17
REMARK    5  A    between atoms: C_14  and  C_19
REMARK    6  A    between atoms: C_19  and  O_20
REMARK    7  A    between atoms: O_20  and  P_21
REMARK    8  A    between atoms: P_21  and  O_23
REMARK    9  A    between atoms: P_21  and  O_25
REMARK   10  A    between atoms: N_29  and  C_31
REMARK   11  A    between atoms: C_31  and  C_32
REMARK   12  A    between atoms: C_32  and  C_33
REMARK                            x       y       z     vdW  Elec       q    Type
REMARK                         _______ _______ _______ _____ _____    ______ ____
ROOT
ATOM      1  N   UNL     1       0.873  -2.019   0.327  0.00  0.00    -0.236 N 
ATOM      2  N   UNL     1      -1.181  -2.732  -0.164  0.00  0.00    -0.240 NA
ATOM      3  N   UNL     1       0.387   0.291   0.898  0.00  0.00    -0.318 NA
ATOM      4  N   UNL     1      -1.996   0.773   0.691  0.00  0.00    -0.318 NA
ATOM      5  C   UNL     1       0.048  -0.946   0.506  0.00  0.00    +0.221 C 
ATOM      6  C   UNL     1       0.089  -3.068  -0.076  0.00  0.00    +0.224 C 
ATOM      7  C   UNL     1      -1.222  -1.409   0.197  0.00  0.00    +0.167 C 
ATOM      8  C   UNL     1      -2.266  -0.496   0.301  0.00  0.00    +0.214 C 
ATOM      9  C   UNL     1      -0.705   1.083   0.961  0.00  0.00    +0.171 C 
ATOM     10  N   UNL     1      -3.568  -0.874   0.010  0.00  0.00    -0.306 N 
ATOM     11  H   UNL     1      -3.730  -1.804  -0.270  0.00  0.00    +0.149 HD
ENDROOT
BRANCH   1  15
ATOM     12  O   UNL     1       2.870  -0.784   0.992  0.00  0.00    -0.333 OA
ATOM     13  C   UNL     1       3.136  -2.360  -0.754  0.00  0.00    +0.187 C 
ATOM     14  C   UNL     1       4.487  -1.733  -0.469  0.00  0.00    +0.171 C 
ATOM     15  C   UNL     1       2.369  -2.055   0.529  0.00  0.00    +0.226 C 
ATOM     16  C   UNL     1       4.101  -0.476   0.300  0.00  0.00    +0.176 C 
BRANCH  13  17
ATOM     17  O   UNL     1       3.216  -3.743  -1.035  0.00  0.00    -0.378 OA
ATOM     18  H   UNL     1       3.712  -3.878  -1.857  0.00  0.00    +0.211 HD
ENDBRANCH  13  17
BRANCH  14  19
ATOM     19  O   UNL     1       5.248  -2.568   0.403  0.00  0.00    -0.379 OA
ATOM     20  H   UNL     1       5.505  -3.377  -0.067  0.00  0.00    +0.211 HD
ENDBRANCH  14  19
BRANCH  16  21
ATOM     21  C   UNL     1       3.853   0.724  -0.603  0.00  0.00    +0.186 C 
BRANCH  21  22
ATOM     22  O   UNL     1       3.493   1.831   0.204  0.00  0.00    -0.271 OA
BRANCH  22  23
ATOM     23  P   UNL     1       3.174   3.244  -0.520  0.00  0.00    +0.473 P 
ATOM     24  O   UNL     1       2.801   4.362   0.408  0.00  0.00    -0.227 OA
BRANCH  23  25
ATOM     25  O   UNL     1       2.059   2.864  -1.628  0.00  0.00    -0.303 OA
ATOM     26  H   UNL     1       2.385   2.135  -2.179  0.00  0.00    +0.222 HD
ENDBRANCH  23  25
BRANCH  23  27
ATOM     27  O   UNL     1       4.503   3.505  -1.405  0.00  0.00    -0.303 OA
ATOM     28  H   UNL     1       4.669   2.736  -1.973  0.00  0.00    +0.222 HD
ENDBRANCH  23  27
ENDBRANCH  22  23
ENDBRANCH  21  22
ENDBRANCH  16  21
ENDBRANCH   1  15
BRANCH   9  29
ATOM     29  S   UNL     1      -0.408   2.770   1.469  0.00  0.00    -0.017 S 
ATOM     30  C   UNL     1      -1.730   3.652   0.594  0.00  0.00    +0.087 C 
ENDBRANCH   9  29
BRANCH  10  31
ATOM     31  C   UNL     1      -4.700   0.017   0.096  0.00  0.00    +0.089 C 
BRANCH  31  32
ATOM     32  C   UNL     1      -5.991  -0.707  -0.285  0.00  0.00    +0.021 C 
BRANCH  32  33
ATOM     33  C   UNL     1      -7.269   0.154  -0.218  0.00  0.00    +0.002 C 
ATOM     34  C   UNL     1      -7.140   1.345  -1.173  0.00  0.00    +0.000 C 
ATOM     35  C   UNL     1      -8.529  -0.643  -0.555  0.00  0.00    +0.000 C 
ENDBRANCH  32  33
ENDBRANCH  31  32
ENDBRANCH  10  31
TORSDOF 12
