REMARK  Name = 5413034
REMARK  3 active torsions:
REMARK  status: ('A' for Active; 'I' for Inactive)
REMARK    1  A    between atoms: C_4  and  C_12
REMARK    2  A    between atoms: C_8  and  O_18
REMARK    3  A    between atoms: C_9  and  O_20
REMARK                            x       y       z     vdW  Elec       q    Type
REMARK                         _______ _______ _______ _____ _____    ______ ____
ROOT
ATOM      1  O   UNL     1       1.799  -1.822  -0.001  0.00  0.00    -0.418 OA
ATOM      2  O   UNL     1       0.699  -3.825   0.001  0.00  0.00    -0.244 OA
ATOM      3  C   UNL     1       0.504   0.244   0.000  0.00  0.00    +0.038 C 
ATOM      4  C   UNL     1      -0.737  -0.546  -0.001  0.00  0.00    +0.009 C 
ATOM      5  C   UNL     1       1.731  -0.416  -0.001  0.00  0.00    +0.185 C 
ATOM      6  C   UNL     1       0.511   1.645   0.000  0.00  0.00    +0.006 C 
ATOM      7  C   UNL     1      -0.637  -1.886   0.000  0.00  0.00    +0.082 C 
ATOM      8  C   UNL     1       2.944   0.274  -0.001  0.00  0.00    +0.203 C 
ATOM      9  C   UNL     1       2.934   1.665   0.000  0.00  0.00    +0.171 C 
ATOM     10  C   UNL     1       1.720   2.350   0.001  0.00  0.00    +0.040 C 
ATOM     11  C   UNL     1       0.652  -2.600   0.001  0.00  0.00    +0.346 C 
ENDROOT
BRANCH   4  12
ATOM     12  C   UNL     1      -2.096  -0.013  -0.001  0.00  0.00    +0.000 C 
ATOM     13  C   UNL     1      -2.741   0.239  -1.208  0.00  0.00    +0.000 C 
ATOM     14  C   UNL     1      -2.740   0.237   1.208  0.00  0.00    +0.000 C 
ATOM     15  C   UNL     1      -4.040   0.746  -1.208  0.00  0.00    +0.000 C 
ATOM     16  C   UNL     1      -4.040   0.744   1.208  0.00  0.00    +0.000 C 
ATOM     17  C   UNL     1      -4.690   0.999   0.001  0.00  0.00    +0.000 C 
ENDBRANCH   4  12
BRANCH   8  18
ATOM     18  O   UNL     1       4.126  -0.403  -0.002  0.00  0.00    -0.501 OA
ATOM     19  H   UNL     1       4.129  -1.340  -0.002  0.00  0.00    +0.292 HD
ENDBRANCH   8  18
BRANCH   9  20
ATOM     20  O   UNL     1       4.100   2.368   0.002  0.00  0.00    -0.503 OA
ATOM     21  H   UNL     1       4.920   1.916   0.002  0.00  0.00    +0.292 HD
ENDBRANCH   9  20
TORSDOF 3
