REMARK  Name = 9944398
REMARK  3 active torsions:
REMARK  status: ('A' for Active; 'I' for Inactive)
REMARK    1  A    between atoms: N_4  and  C_11
REMARK    2  A    between atoms: C_6  and  O_23
REMARK    3  A    between atoms: C_17  and  C_22
REMARK                            x       y       z     vdW  Elec       q    Type
REMARK                         _______ _______ _______ _____ _____    ______ ____
ROOT
ATOM      1  O   UNL     1      -1.438   0.569   2.318  0.00  0.00    -0.272 OA
ATOM      2  O   UNL     1      -1.349   0.539  -2.322  0.00  0.00    -0.252 OA
ATOM      3  N   UNL     1      -3.029   0.721  -0.736  0.00  0.00    -0.255 N 
ATOM      4  N   UNL     1      -0.920   0.710   0.005  0.00  0.00    -0.191 N 
ATOM      5  C   UNL     1      -3.180   0.762   0.689  0.00  0.00    +0.181 C 
ATOM      6  C   UNL     1      -4.160  -0.366   0.958  0.00  0.00    +0.139 C 
ATOM      7  C   UNL     1      -5.098  -0.267  -0.258  0.00  0.00    +0.053 C 
ATOM      8  C   UNL     1      -4.170   0.136  -1.412  0.00  0.00    +0.098 C 
ATOM      9  C   UNL     1      -1.738   0.645   1.134  0.00  0.00    +0.257 C 
ATOM     10  C   UNL     1      -1.701   0.687  -1.158  0.00  0.00    +0.317 C 
ENDROOT
BRANCH   4  11
ATOM     11  C   UNL     1       0.511   0.708   0.019  0.00  0.00    +0.062 C 
ATOM     12  C   UNL     1       1.260  -0.485  -0.042  0.00  0.00    +0.015 C 
ATOM     13  C   UNL     1       1.167   1.942   0.097  0.00  0.00    +0.016 C 
ATOM     14  C   UNL     1       2.674  -0.425  -0.025  0.00  0.00    +0.011 C 
ATOM     15  C   UNL     1       2.558   2.001   0.114  0.00  0.00    +0.012 C 
ATOM     16  C   UNL     1       0.626  -1.736  -0.121  0.00  0.00    +0.001 C 
ATOM     17  C   UNL     1       3.307   0.826   0.054  0.00  0.00    +0.069 C 
ATOM     18  C   UNL     1       3.412  -1.618  -0.086  0.00  0.00    +0.001 C 
ATOM     19  C   UNL     1       1.375  -2.911  -0.181  0.00  0.00    +0.000 C 
ATOM     20  C   UNL     1       2.766  -2.852  -0.164  0.00  0.00    +0.000 C 
BRANCH  17  22
ATOM     21  N   UNL     1       5.886   1.073   0.090  0.00  0.00    -0.191 NA
ATOM     22  C   UNL     1       4.736   0.963   0.074  0.00  0.00    +0.100 C 
ENDBRANCH  17  22
ENDBRANCH   4  11
BRANCH   6  23
ATOM     23  O   UNL     1      -3.495  -1.623   0.953  0.00  0.00    -0.382 OA
ATOM     24  H   UNL     1      -2.906  -1.681   1.722  0.00  0.00    +0.210 HD
ENDBRANCH   6  23
TORSDOF 3
