REMARK  Name = 4284847
REMARK  4 active torsions:
REMARK  status: ('A' for Active; 'I' for Inactive)
REMARK    1  A    between atoms: N_3  and  C_6
REMARK    2  A    between atoms: C_5  and  C_13
REMARK    3  A    between atoms: C_13  and  C_14
REMARK    4  A    between atoms: C_14  and  C_17
REMARK                            x       y       z     vdW  Elec       q    Type
REMARK                         _______ _______ _______ _____ _____    ______ ____
ROOT
ATOM      1  O   UNL     1      -0.828  -1.506   0.028  0.00  0.00    -0.275 OA
ATOM      2  N   UNL     1       0.099   0.652   0.017  0.00  0.00    -0.287 N 
ATOM      3  C   UNL     1      -0.932  -0.284   0.031  0.00  0.00    +0.224 C 
ATOM      4  H   UNL     1      -0.172   1.598   0.014  0.00  0.00    +0.151 HD
ENDROOT
BRANCH   2   7
ATOM      5 BR   UNL     1       6.031  -0.461  -0.028  0.00  0.00    -0.048 Br
ATOM      6  N   UNL     1       1.946  -0.851   0.008  0.00  0.00    -0.314 N 
ATOM      7  C   UNL     1       1.492   0.400   0.006  0.00  0.00    +0.169 C 
ATOM      8  C   UNL     1       2.352   1.477  -0.008  0.00  0.00    +0.014 C 
ATOM      9  C   UNL     1       3.258  -1.123  -0.002  0.00  0.00    +0.066 C 
ATOM     10  C   UNL     1       3.721   1.224  -0.019  0.00  0.00    +0.007 C 
ATOM     11  C   UNL     1       4.183  -0.089  -0.016  0.00  0.00    +0.049 C 
ATOM     12  H   UNL     1       1.301  -1.595   0.018  0.00  0.00    +0.149 HD
ENDBRANCH   2   7
BRANCH   3  13
ATOM     13  C   UNL     1      -2.287   0.415   0.039  0.00  0.00    +0.097 C 
BRANCH  13  14
ATOM     14  C   UNL     1      -3.466  -0.549   0.054  0.00  0.00    +0.124 C 
BRANCH  14  17
ATOM     15  O   UNL     1      -5.838  -0.722  -0.096  0.00  0.00    -0.246 OA
ATOM     16  O   UNL     1      -4.865   1.341   0.006  0.00  0.00    -0.246 OA
ATOM     17  C   UNL     1      -4.864   0.077  -0.021  0.00  0.00    +0.365 C 
ENDBRANCH  14  17
ENDBRANCH  13  14
ENDBRANCH   3  13
TORSDOF 4
