REMARK  Name = 46937140
REMARK  5 active torsions:
REMARK  status: ('A' for Active; 'I' for Inactive)
REMARK    1  A    between atoms: N_2  and  C_10
REMARK    2  A    between atoms: C_3  and  O_5
REMARK    3  A    between atoms: O_5  and  C_6
REMARK    4  A    between atoms: C_10  and  C_14
REMARK    5  A    between atoms: C_10  and  C_16
REMARK                            x       y       z     vdW  Elec       q    Type
REMARK                         _______ _______ _______ _____ _____    ______ ____
ROOT
ATOM      1  O   UNL     1      -1.697  -0.754  -1.275  0.00  0.00    -0.226 OA
ATOM      2  N   UNL     1      -0.160   0.065   0.257  0.00  0.00    -0.264 N 
ATOM      3  C   UNL     1      -1.422  -0.120  -0.262  0.00  0.00    +0.402 C 
ATOM      4  H   UNL     1      -0.069   0.597   1.080  0.00  0.00    +0.153 HD
ENDROOT
BRANCH   3   5
ATOM      5  O   UNL     1      -2.338   0.516   0.528  0.00  0.00    -0.442 OA
BRANCH   5   6
ATOM      6  C   UNL     1      -3.703   0.409   0.109  0.00  0.00    +0.138 C 
ATOM      7  C   UNL     1      -3.836   1.028  -1.282  0.00  0.00    +0.044 C 
ATOM      8  C   UNL     1      -4.556   1.173   1.120  0.00  0.00    +0.044 C 
ATOM      9  C   UNL     1      -4.091  -1.069   0.086  0.00  0.00    +0.044 C 
ENDBRANCH   5   6
ENDBRANCH   3   5
BRANCH   2  10
ATOM     10  C   UNL     1       1.041  -0.480  -0.343  0.00  0.00    +0.153 C 
BRANCH  10  14
ATOM     11  O   UNL     1       3.118   0.580  -1.106  0.00  0.00    -0.414 OA
ATOM     12  N   UNL     1       2.460   1.231   0.930  0.00  0.00    -0.110 NA
ATOM     13  N   UNL     1       3.632   1.897   0.627  0.00  0.00    -0.102 NA
ATOM     14  C   UNL     1       2.198   0.473  -0.109  0.00  0.00    +0.244 C 
ATOM     15  C   UNL     1       3.980   1.487  -0.571  0.00  0.00    +0.306 C 
ENDBRANCH  10  14
BRANCH  10  16
ATOM     16  C   UNL     1       1.308  -1.926   0.159  0.00  0.00    +0.027 C 
ATOM     17  C   UNL     1       1.549  -1.953   1.675  0.00  0.00    +0.002 C 
ATOM     18  C   UNL     1       2.517  -2.559  -0.542  0.00  0.00    +0.002 C 
ENDBRANCH  10  16
ENDBRANCH   2  10
TORSDOF 5
