REMARK  Name = 24764443
REMARK  5 active torsions:
REMARK  status: ('A' for Active; 'I' for Inactive)
REMARK    1  A    between atoms: C_2  and  C_17
REMARK    2  A    between atoms: C_3  and  N_19
REMARK    3  A    between atoms: C_20  and  C_22
REMARK    4  A    between atoms: C_22  and  C_23
REMARK    5  A    between atoms: C_23  and  C_31
REMARK                            x       y       z     vdW  Elec       q    Type
REMARK                         _______ _______ _______ _____ _____    ______ ____
ROOT
ATOM      1 BR   UNL     1      -6.029  -3.806   0.495  0.00  0.00    -0.049 Br
ATOM      2  C   UNL     1      -3.174  -0.981  -0.595  0.00  0.00    +0.068 C 
ATOM      3  C   UNL     1      -1.972  -1.593  -0.239  0.00  0.00    +0.055 C 
ATOM      4  C   UNL     1      -4.383  -1.641  -0.377  0.00  0.00    +0.012 C 
ATOM      5  C   UNL     1      -1.979  -2.864   0.336  0.00  0.00    +0.015 C 
ATOM      6  C   UNL     1      -4.391  -2.911   0.199  0.00  0.00    +0.035 C 
ATOM      7  C   UNL     1      -3.189  -3.523   0.555  0.00  0.00    +0.008 C 
ENDROOT
BRANCH   2  17
ATOM      8  O   UNL     1      -3.132   0.395  -2.430  0.00  0.00    -0.270 OA
ATOM      9  N   UNL     1      -3.287   1.463  -0.356  0.00  0.00    -0.276 N 
ATOM     10  C   UNL     1      -2.168   3.657  -0.330  0.00  0.00    +0.020 C 
ATOM     11  C   UNL     1      -2.260   2.211   1.756  0.00  0.00    +0.020 C 
ATOM     12  C   UNL     1      -2.234   3.648   1.207  0.00  0.00    +0.003 C 
ATOM     13  C   UNL     1      -3.302   2.811  -0.924  0.00  0.00    +0.094 C 
ATOM     14  C   UNL     1      -3.398   1.415   1.108  0.00  0.00    +0.094 C 
ATOM     15  C   UNL     1      -2.219   5.085  -0.867  0.00  0.00    +0.002 C 
ATOM     16  C   UNL     1      -2.397   2.214   3.276  0.00  0.00    +0.002 C 
ATOM     17  C   UNL     1      -3.200   0.355  -1.203  0.00  0.00    +0.250 C 
ENDBRANCH   2  17
BRANCH   3  19
ATOM     18  O   UNL     1       0.829  -2.503   0.354  0.00  0.00    -0.275 OA
ATOM     19  N   UNL     1      -0.747  -0.951  -0.449  0.00  0.00    -0.284 N 
ATOM     20  C   UNL     1       0.539  -1.423  -0.151  0.00  0.00    +0.227 C 
ATOM     21  H   UNL     1      -0.794  -0.056  -0.856  0.00  0.00    +0.155 HD
BRANCH  20  22
ATOM     22  C   UNL     1       1.601  -0.405  -0.542  0.00  0.00    +0.095 C 
BRANCH  22  23
ATOM     23  C   UNL     1       3.012  -0.884  -0.233  0.00  0.00    +0.095 C 
BRANCH  23  31
ATOM     24  O   UNL     1       7.942  -0.309   0.692  0.00  0.00    -0.350 OA
ATOM     25  O   UNL     1       3.603   1.240  -1.105  0.00  0.00    -0.275 OA
ATOM     26  N   UNL     1       5.350  -0.114  -0.397  0.00  0.00    -0.274 N 
ATOM     27  C   UNL     1       5.874  -1.407   0.056  0.00  0.00    +0.125 C 
ATOM     28  C   UNL     1       6.382   0.865  -0.741  0.00  0.00    +0.125 C 
ATOM     29  C   UNL     1       6.920  -1.201   1.144  0.00  0.00    +0.164 C 
ATOM     30  C   UNL     1       7.401   0.978   0.384  0.00  0.00    +0.164 C 
ATOM     31  C   UNL     1       4.007   0.180  -0.621  0.00  0.00    +0.226 C 
ENDBRANCH  23  31
ENDBRANCH  22  23
ENDBRANCH  20  22
ENDBRANCH   3  19
TORSDOF 5
