REMARK  Name = 46937168
REMARK  7 active torsions:
REMARK  status: ('A' for Active; 'I' for Inactive)
REMARK    1  A    between atoms: C_4  and  C_19
REMARK    2  A    between atoms: C_11  and  N_15
REMARK    3  A    between atoms: C_19  and  N_20
REMARK    4  A    between atoms: N_20  and  C_22
REMARK    5  A    between atoms: C_25  and  O_28
REMARK    6  A    between atoms: C_26  and  O_30
REMARK    7  A    between atoms: C_27  and  O_32
REMARK                            x       y       z     vdW  Elec       q    Type
REMARK                         _______ _______ _______ _____ _____    ______ ____
ROOT
ATOM      1  N   UNL     1      -4.660   1.417   0.695  0.00  0.00    -0.281 N 
ATOM      2  N   UNL     1      -5.291  -0.904   1.292  0.00  0.00    -0.361 NA
ATOM      3  N   UNL     1      -4.113  -2.672   0.422  0.00  0.00    -0.333 N 
ATOM      4  C   UNL     1      -1.079   0.149  -1.203  0.00  0.00    +0.025 C 
ATOM      5  C   UNL     1      -1.768   1.407  -1.736  0.00  0.00    +0.008 C 
ATOM      6  C   UNL     1      -2.127  -0.920  -0.845  0.00  0.00    +0.033 C 
ATOM      7  C   UNL     1      -2.727   1.986  -0.693  0.00  0.00    +0.041 C 
ATOM      8  C   UNL     1      -3.315  -0.366  -0.106  0.00  0.00    +0.031 C 
ATOM      9  C   UNL     1      -3.585   0.948  -0.013  0.00  0.00    +0.028 C 
ATOM     10  C   UNL     1      -4.285  -1.311   0.571  0.00  0.00    +0.177 C 
ATOM     11  C   UNL     1      -5.521   0.545   1.479  0.00  0.00    +0.221 C 
ATOM     12  H   UNL     1      -4.857   2.381   0.673  0.00  0.00    +0.155 HD
ATOM     13  H   UNL     1      -4.737  -3.297   0.857  0.00  0.00    +0.145 HD
ATOM     14  H   UNL     1      -3.367  -3.018  -0.119  0.00  0.00    +0.145 HD
ENDROOT
BRANCH  11  15
ATOM     15  N   UNL     1      -6.971   0.807   1.459  0.00  0.00    -0.381 NA
ATOM     16  H   UNL     1      -7.139   1.805   1.588  0.00  0.00    +0.124 HD
ATOM     17  H   UNL     1      -7.421   0.287   2.213  0.00  0.00    +0.124 HD
ATOM     18  H   UNL     1      -7.358   0.510   0.563  0.00  0.00    +0.124 HD
ENDBRANCH  11  15
BRANCH   4  19
ATOM     19  C   UNL     1      -0.071  -0.397  -2.211  0.00  0.00    +0.091 C 
BRANCH  19  20
ATOM     20  N   UNL     1       0.902  -1.211  -1.533  0.00  0.00    -0.306 N 
ATOM     21  C   UNL     1       0.745  -2.669  -1.561  0.00  0.00    +0.112 C 
BRANCH  20  22
ATOM     22  C   UNL     1       1.987  -0.642  -0.846  0.00  0.00    +0.054 C 
ATOM     23  C   UNL     1       2.145   0.743  -0.815  0.00  0.00    +0.055 C 
ATOM     24  C   UNL     1       2.908  -1.464  -0.196  0.00  0.00    +0.055 C 
ATOM     25  C   UNL     1       3.987  -0.899   0.485  0.00  0.00    +0.177 C 
ATOM     26  C   UNL     1       3.223   1.308  -0.134  0.00  0.00    +0.177 C 
ATOM     27  C   UNL     1       4.144   0.486   0.516  0.00  0.00    +0.206 C 
BRANCH  25  28
ATOM     28  O   UNL     1       4.880  -1.712   1.116  0.00  0.00    -0.468 OA
ATOM     29  C   UNL     1       4.646  -3.117   1.036  0.00  0.00    +0.253 C 
ENDBRANCH  25  28
BRANCH  26  30
ATOM     30  O   UNL     1       3.366   2.662  -0.113  0.00  0.00    -0.468 OA
ATOM     31  C   UNL     1       2.380   3.428  -0.803  0.00  0.00    +0.253 C 
ENDBRANCH  26  30
BRANCH  27  32
ATOM     32  O   UNL     1       5.199   1.039   1.180  0.00  0.00    -0.465 OA
ATOM     33  C   UNL     1       5.002   1.358   2.556  0.00  0.00    +0.253 C 
ENDBRANCH  27  32
ENDBRANCH  20  22
ENDBRANCH  19  20
ENDBRANCH   4  19
TORSDOF 7
