3407
  -OEChem-01081909233D

 52 54  0     1  0  0  0  0  0999 V2000
   -0.7057    4.8656   -1.3888 Cl  0  0  0  0  0  0  0  0  0  0  0  0
   -5.5456   -1.6688    1.1889 O   0  0  0  0  0  0  0  0  0  0  0  0
   -0.9374   -1.7085   -0.5604 O   0  0  0  0  0  0  0  0  0  0  0  0
    3.0212    0.0206    2.0137 O   0  0  0  0  0  0  0  0  0  0  0  0
   -3.1316   -1.0773   -0.1390 N   0  0  0  0  0  0  0  0  0  0  0  0
   -0.3151    0.6098   -1.5990 N   0  0  2  0  0  0  0  0  0  0  0  0
    1.7690    0.5955    0.1092 N   0  0  0  0  0  0  0  0  0  0  0  0
   -3.6209   -2.4534   -0.0537 C   0  0  0  0  0  0  0  0  0  0  0  0
   -4.1763   -0.0572   -0.0002 C   0  0  0  0  0  0  0  0  0  0  0  0
   -1.4093    0.6130   -0.6528 C   0  0  0  0  0  0  0  0  0  0  0  0
   -4.4888   -2.6320    1.1837 C   0  0  0  0  0  0  0  0  0  0  0  0
   -5.0262   -0.3371    1.2328 C   0  0  0  0  0  0  0  0  0  0  0  0
   -1.7964   -0.8300   -0.4498 C   0  0  0  0  0  0  0  0  0  0  0  0
    0.1867    1.9701   -1.8294 C   0  0  0  0  0  0  0  0  0  0  0  0
    0.6185    2.6331   -0.5485 C   0  0  0  0  0  0  0  0  0  0  0  0
   -0.7227    0.0068   -2.8740 C   0  0  0  0  0  0  0  0  0  0  0  0
    1.3893    1.9166    0.3613 C   0  0  0  0  0  0  0  0  0  0  0  0
    0.2494    3.9475   -0.2815 C   0  0  0  0  0  0  0  0  0  0  0  0
    1.7953    2.5211    1.5511 C   0  0  0  0  0  0  0  0  0  0  0  0
    0.6555    4.5518    0.9083 C   0  0  0  0  0  0  0  0  0  0  0  0
    1.4285    3.8387    1.8246 C   0  0  0  0  0  0  0  0  0  0  0  0
    2.5363   -0.2490    0.9201 C   0  0  0  0  0  0  0  0  0  0  0  0
    2.7975   -1.6014    0.3613 C   0  0  0  0  0  0  0  0  0  0  0  0
    3.0198   -2.6486    1.2306 C   0  0  0  0  0  0  0  0  0  0  0  0
    2.8087   -1.7646   -1.0080 C   0  0  0  0  0  0  0  0  0  0  0  0
    3.2648   -3.9178    0.7064 C   0  0  0  0  0  0  0  0  0  0  0  0
    3.0536   -3.0339   -1.5321 C   0  0  0  0  0  0  0  0  0  0  0  0
    3.2816   -4.1105   -0.6749 C   0  0  0  0  0  0  0  0  0  0  0  0
   -2.7925   -3.1680   -0.0474 H   0  0  0  0  0  0  0  0  0  0  0  0
   -4.2131   -2.6284   -0.9596 H   0  0  0  0  0  0  0  0  0  0  0  0
   -4.7876   -0.1088   -0.9083 H   0  0  0  0  0  0  0  0  0  0  0  0
   -3.7731    0.9510    0.0920 H   0  0  0  0  0  0  0  0  0  0  0  0
   -2.2275    1.2030   -1.0724 H   0  0  0  0  0  0  0  0  0  0  0  0
   -1.1652    1.0029    0.3397 H   0  0  0  0  0  0  0  0  0  0  0  0
   -3.9008   -2.5287    2.1033 H   0  0  0  0  0  0  0  0  0  0  0  0
   -4.9416   -3.6284    1.1851 H   0  0  0  0  0  0  0  0  0  0  0  0
   -5.8744    0.3535    1.2696 H   0  0  0  0  0  0  0  0  0  0  0  0
   -4.4471   -0.2065    2.1549 H   0  0  0  0  0  0  0  0  0  0  0  0
    1.0641    1.9371   -2.4895 H   0  0  0  0  0  0  0  0  0  0  0  0
   -0.5817    2.5331   -2.3666 H   0  0  0  0  0  0  0  0  0  0  0  0
   -1.5880    0.5192   -3.3118 H   0  0  0  0  0  0  0  0  0  0  0  0
    0.1006    0.0753   -3.5960 H   0  0  0  0  0  0  0  0  0  0  0  0
   -0.9536   -1.0601   -2.8138 H   0  0  0  0  0  0  0  0  0  0  0  0
    2.3928    2.0447    2.3142 H   0  0  0  0  0  0  0  0  0  0  0  0
    1.4127    0.2096   -0.7569 H   0  0  0  0  0  0  0  0  0  0  0  0
    0.3782    5.5778    1.1367 H   0  0  0  0  0  0  0  0  0  0  0  0
    1.7438    4.3107    2.7507 H   0  0  0  0  0  0  0  0  0  0  0  0
    3.0039   -2.5172    2.3084 H   0  0  0  0  0  0  0  0  0  0  0  0
    2.6801   -0.9505   -1.7133 H   0  0  0  0  0  0  0  0  0  0  0  0
    3.4412   -4.7564    1.3737 H   0  0  0  0  0  0  0  0  0  0  0  0
    3.0763   -3.1827   -2.6078 H   0  0  0  0  0  0  0  0  0  0  0  0
    3.4740   -5.0983   -1.0831 H   0  0  0  0  0  0  0  0  0  0  0  0
  1 18  1  0  0  0  0
  2 11  1  0  0  0  0
  2 12  1  0  0  0  0
  3 13  2  0  0  0  0
  4 22  2  0  0  0  0
  5  8  1  0  0  0  0
  5  9  1  0  0  0  0
  5 13  1  0  0  0  0
  6 10  1  0  0  0  0
  6 14  1  0  0  0  0
  6 16  1  0  0  0  0
  7 17  1  0  0  0  0
  7 22  1  0  0  0  0
  7 45  1  0  0  0  0
  8 11  1  0  0  0  0
  8 29  1  0  0  0  0
  8 30  1  0  0  0  0
  9 12  1  0  0  0  0
  9 31  1  0  0  0  0
  9 32  1  0  0  0  0
 10 13  1  0  0  0  0
 10 33  1  0  0  0  0
 10 34  1  0  0  0  0
 11 35  1  0  0  0  0
 11 36  1  0  0  0  0
 12 37  1  0  0  0  0
 12 38  1  0  0  0  0
 14 15  1  0  0  0  0
 14 39  1  0  0  0  0
 14 40  1  0  0  0  0
 15 17  2  0  0  0  0
 15 18  1  0  0  0  0
 16 41  1  0  0  0  0
 16 42  1  0  0  0  0
 16 43  1  0  0  0  0
 17 19  1  0  0  0  0
 18 20  2  0  0  0  0
 19 21  2  0  0  0  0
 19 44  1  0  0  0  0
 20 21  1  0  0  0  0
 20 46  1  0  0  0  0
 21 47  1  0  0  0  0
 22 23  1  0  0  0  0
 23 24  2  0  0  0  0
 23 25  1  0  0  0  0
 24 26  1  0  0  0  0
 24 48  1  0  0  0  0
 25 27  2  0  0  0  0
 25 49  1  0  0  0  0
 26 28  2  0  0  0  0
 26 50  1  0  0  0  0
 27 28  1  0  0  0  0
 27 51  1  0  0  0  0
 28 52  1  0  0  0  0
M  END
> <DATABASE_ID>
DB08968

> <DATABASE_NAME>
drugbank

> <ORIGINAL_SOURCE>
PUBCHEM

> <ORIGINAL_SOURCE_URL>
https://pubchem.ncbi.nlm.nih.gov/rest/pug/compound/inchikey/KSNNEUZOAFRTDS-UHFFFAOYSA-N/SDF?record_type=3d

> <SMILES>
CN(CC(=O)N1CCOCC1)CC1=C(Cl)C=CC=C1NC(=O)C1=CC=CC=C1

> <INCHI_IDENTIFIER>
InChI=1S/C21H24ClN3O3/c1-24(15-20(26)25-10-12-28-13-11-25)14-17-18(22)8-5-9-19(17)23-21(27)16-6-3-2-4-7-16/h2-9H,10-15H2,1H3,(H,23,27)

> <INCHI_KEY>
KSNNEUZOAFRTDS-UHFFFAOYSA-N

> <FORMULA>
C21H24ClN3O3

> <MOLECULAR_WEIGHT>
401.887

> <EXACT_MASS>
401.150619356

> <JCHEM_ACCEPTOR_COUNT>
4

> <JCHEM_ATOM_COUNT>
52

> <JCHEM_AVERAGE_POLARIZABILITY>
42.157548918571436

> <JCHEM_BIOAVAILABILITY>
1

> <JCHEM_DONOR_COUNT>
1

> <JCHEM_FORMAL_CHARGE>
0

> <JCHEM_GHOSE_FILTER>
1

> <JCHEM_IUPAC>
N-[3-chloro-2-({methyl[2-(morpholin-4-yl)-2-oxoethyl]amino}methyl)phenyl]benzamide

> <ALOGPS_LOGP>
2.96

> <JCHEM_LOGP>
2.510464439333333

> <ALOGPS_LOGS>
-4.12

> <JCHEM_MDDR_LIKE_RULE>
1

> <JCHEM_NUMBER_OF_RINGS>
3

> <JCHEM_PHYSIOLOGICAL_CHARGE>
0

> <JCHEM_PKA_STRONGEST_ACIDIC>
15.4929806142564

> <JCHEM_PKA_STRONGEST_BASIC>
5.545110024892041

> <JCHEM_POLAR_SURFACE_AREA>
61.88000000000001

> <JCHEM_REFRACTIVITY>
111.7137

> <JCHEM_ROTATABLE_BOND_COUNT>
6

> <JCHEM_RULE_OF_FIVE>
1

> <ALOGPS_SOLUBILITY>
3.03e-02 g/l

> <JCHEM_TRADITIONAL_IUPAC>
fominoben

> <JCHEM_VEBER_RULE>
0

> <DRUGBANK_ID>
DB08968

> <DRUG_GROUPS>
experimental; withdrawn

> <GENERIC_NAME>
Fominoben

> <SYNONYMS>
Fominoben; Fominobene; Fominobenum

> <INTERNATIONAL_BRANDS>
Noleptan; Terion

> <SALTS>
Fominoben hydrochloride

$$$$
