REMARK  Name = 10274777
REMARK  10 active torsions:
REMARK  status: ('A' for Active; 'I' for Inactive)
REMARK    1  A    between atoms: C_2  and  C_25
REMARK    2  A    between atoms: C_5  and  O_10
REMARK    3  A    between atoms: O_10  and  C_11
REMARK    4  A    between atoms: C_11  and  C_12
REMARK    5  A    between atoms: C_12  and  C_15
REMARK    6  A    between atoms: C_17  and  C_19
REMARK    7  A    between atoms: C_25  and  C_26
REMARK    8  A    between atoms: C_26  and  O_27
REMARK    9  A    between atoms: C_26  and  C_30
REMARK   10  A    between atoms: C_30  and  O_31
REMARK                            x       y       z     vdW  Elec       q    Type
REMARK                         _______ _______ _______ _____ _____    ______ ____
ROOT
ATOM      1  S   UNL     1       1.762   0.889   2.194  0.00  0.00    -0.087 S 
ATOM      2  C   UNL     1       3.004  -1.052   0.589  0.00  0.00    -0.013 C 
ATOM      3  C   UNL     1       1.854  -0.519   1.203  0.00  0.00    +0.029 C 
ATOM      4  C   UNL     1       0.601  -1.121   1.057  0.00  0.00    +0.040 C 
ATOM      5  C   UNL     1       0.510  -2.293   0.268  0.00  0.00    +0.139 C 
ATOM      6  C   UNL     1       2.881  -2.209  -0.183  0.00  0.00    -0.001 C 
ATOM      7  C   UNL     1       1.648  -2.825  -0.343  0.00  0.00    +0.037 C 
ATOM      8  C   UNL     1      -0.410  -0.397   1.774  0.00  0.00    +0.010 C 
ATOM      9  C   UNL     1       0.084   0.706   2.429  0.00  0.00    +0.036 C 
ENDROOT
BRANCH   5  10
ATOM     10  O   UNL     1      -0.692  -2.931   0.086  0.00  0.00    -0.475 OA
BRANCH  10  11
ATOM     11  C   UNL     1      -1.155  -3.048  -1.253  0.00  0.00    +0.213 C 
BRANCH  11  12
ATOM     12  C   UNL     1      -2.681  -3.070  -1.270  0.00  0.00    +0.105 C 
BRANCH  12  15
ATOM     13  O   UNL     1      -4.512  -0.359   0.350  0.00  0.00    -0.449 OA
ATOM     14  N   UNL     1      -2.795  -0.606  -1.102  0.00  0.00    -0.373 NA
ATOM     15  C   UNL     1      -3.288  -1.810  -0.723  0.00  0.00    +0.134 C 
ATOM     16  C   UNL     1      -4.317  -1.692   0.147  0.00  0.00    +0.216 C 
ATOM     17  C   UNL     1      -3.562   0.225  -0.432  0.00  0.00    +0.277 C 
ATOM     18  C   UNL     1      -5.204  -2.613   0.865  0.00  0.00    +0.055 C 
BRANCH  17  19
ATOM     19  C   UNL     1      -3.545   1.661  -0.404  0.00  0.00    +0.066 C 
ATOM     20  C   UNL     1      -2.401   2.358  -0.805  0.00  0.00    +0.006 C 
ATOM     21  C   UNL     1      -4.670   2.370   0.025  0.00  0.00    +0.006 C 
ATOM     22  C   UNL     1      -2.383   3.752  -0.778  0.00  0.00    +0.000 C 
ATOM     23  C   UNL     1      -4.652   3.765   0.052  0.00  0.00    +0.000 C 
ATOM     24  C   UNL     1      -3.509   4.456  -0.349  0.00  0.00    +0.000 C 
ENDBRANCH  17  19
ENDBRANCH  12  15
ENDBRANCH  11  12
ENDBRANCH  10  11
ENDBRANCH   5  10
BRANCH   2  25
ATOM     25  C   UNL     1       4.357  -0.429   0.726  0.00  0.00    +0.068 C 
BRANCH  25  26
ATOM     26  C   UNL     1       4.640   0.608  -0.370  0.00  0.00    +0.218 C 
BRANCH  26  27
ATOM     27  O   UNL     1       5.013  -0.079  -1.559  0.00  0.00    -0.342 OA
ATOM     28  C   UNL     1       5.280   0.826  -2.621  0.00  0.00    +0.175 C 
ENDBRANCH  26  27
BRANCH  26  30
ATOM     29  O   UNL     1       6.976   1.257  -0.174  0.00  0.00    -0.248 OA
ATOM     30  C   UNL     1       5.794   1.512   0.015  0.00  0.00    +0.342 C 
BRANCH  30  31
ATOM     31  O   UNL     1       5.370   2.668   0.588  0.00  0.00    -0.479 OA
ATOM     32  H   UNL     1       4.453   2.820   0.713  0.00  0.00    +0.295 HD
ENDBRANCH  30  31
ENDBRANCH  26  30
ENDBRANCH  25  26
ENDBRANCH   2  25
TORSDOF 10
