REMARK  Name = 54736485
REMARK  5 active torsions:
REMARK  status: ('A' for Active; 'I' for Inactive)
REMARK    1  A    between atoms: C_3  and  C_16
REMARK    2  A    between atoms: C_4  and  O_12
REMARK    3  A    between atoms: C_10  and  O_14
REMARK    4  A    between atoms: C_16  and  C_17
REMARK    5  A    between atoms: C_16  and  C_23
REMARK                            x       y       z     vdW  Elec       q    Type
REMARK                         _______ _______ _______ _____ _____    ______ ____
ROOT
ATOM      1  O   UNL     1      -1.473  -1.406   1.068  0.00  0.00    -0.421 OA
ATOM      2  O   UNL     1       0.428  -2.571   1.517  0.00  0.00    -0.245 OA
ATOM      3  C   UNL     1       0.622  -0.822  -0.086  0.00  0.00    +0.091 A 
ATOM      4  C   UNL     1      -0.013   0.161  -0.753  0.00  0.00    +0.139 A 
ATOM      5  C   UNL     1      -1.440   0.413  -0.542  0.00  0.00    +0.068 A 
ATOM      6  C   UNL     1      -0.122  -1.671   0.890  0.00  0.00    +0.345 A 
ATOM      7  C   UNL     1      -2.131  -0.382   0.366  0.00  0.00    +0.155 A 
ATOM      8  C   UNL     1      -2.156   1.418  -1.209  0.00  0.00    +0.009 C 
ATOM      9  C   UNL     1      -3.491  -0.209   0.625  0.00  0.00    +0.075 C 
ATOM     10  C   UNL     1      -4.187   0.792  -0.045  0.00  0.00    +0.142 C 
ATOM     11  C   UNL     1      -3.520   1.605  -0.961  0.00  0.00    +0.037 C 
ENDROOT
BRANCH   4  12
ATOM     12  O   UNL     1       0.587   1.000  -1.668  0.00  0.00    -0.506 OA
ATOM     13  H   UNL     1       1.498   0.906  -1.862  0.00  0.00    +0.292 HD
ENDBRANCH   4  12
BRANCH  10  14
ATOM     14  O   UNL     1      -5.513   0.979   0.192  0.00  0.00    -0.471 OA
ATOM     15  C   UNL     1      -6.132   0.111   1.141  0.00  0.00    +0.252 C 
ENDBRANCH  10  14
BRANCH   3  16
ATOM     16  C   UNL     1       2.077  -1.178  -0.228  0.00  0.00    +0.054 C 
BRANCH  16  17
ATOM     17  C   UNL     1       2.962  -0.017   0.187  0.00  0.00    -0.018 C 
ATOM     18  C   UNL     1       3.302   0.157   1.528  0.00  0.00    -0.004 C 
ATOM     19  C   UNL     1       3.435   0.877  -0.774  0.00  0.00    -0.004 C 
ATOM     20  C   UNL     1       4.115   1.224   1.910  0.00  0.00    -0.000 C 
ATOM     21  C   UNL     1       4.248   1.944  -0.393  0.00  0.00    -0.000 C 
ATOM     22  C   UNL     1       4.588   2.118   0.949  0.00  0.00    -0.000 C 
ENDBRANCH  16  17
BRANCH  16  23
ATOM     23  C   UNL     1       2.356  -1.690  -1.656  0.00  0.00    +0.009 C 
ATOM     24  C   UNL     1       1.457  -2.854  -2.057  0.00  0.00    +0.001 C 
ENDBRANCH  16  23
ENDBRANCH   3  16
TORSDOF 5
