30843
  -OEChem-10051722003D

 53 56  0     1  0  0  0  0  0999 V2000
    1.7076   -1.2867    2.2962 O   0  0  0  0  0  0  0  0  0  0  0  0
    3.8387   -3.8452   -0.8714 O   0  0  0  0  0  0  0  0  0  0  0  0
   -2.2717    1.0855   -0.2336 N   0  0  0  0  0  0  0  0  0  0  0  0
    2.7471   -2.5307    0.6730 N   0  0  0  0  0  0  0  0  0  0  0  0
    0.4926    0.3776    0.4389 C   0  0  0  0  0  0  0  0  0  0  0  0
    1.8050   -0.3091    0.0712 C   0  0  1  0  0  0  0  0  0  0  0  0
   -0.6565   -0.6335    0.5125 C   0  0  0  0  0  0  0  0  0  0  0  0
    0.1475    1.4811   -0.5668 C   0  0  0  0  0  0  0  0  0  0  0  0
    1.6262   -1.0028   -1.2982 C   0  0  0  0  0  0  0  0  0  0  0  0
   -1.9930    0.0612    0.7817 C   0  0  0  0  0  0  0  0  0  0  0  0
   -1.2154    2.1060   -0.2613 C   0  0  0  0  0  0  0  0  0  0  0  0
    2.9210    0.7503    0.0437 C   0  0  0  0  0  0  0  0  0  0  0  0
    2.0521   -1.4070    1.1188 C   0  0  0  0  0  0  0  0  0  0  0  0
    2.8545   -1.8183   -1.6717 C   0  0  0  0  0  0  0  0  0  0  0  0
   -3.5750    1.7042    0.0080 C   0  0  0  0  0  0  0  0  0  0  0  0
    3.1850   -2.8356   -0.6103 C   0  0  0  0  0  0  0  0  0  0  0  0
    3.6229    1.0424    1.2083 C   0  0  0  0  0  0  0  0  0  0  0  0
    3.2186    1.4070   -1.1455 C   0  0  0  0  0  0  0  0  0  0  0  0
   -4.6921    0.6960   -0.0396 C   0  0  0  0  0  0  0  0  0  0  0  0
    4.6343    2.0025    1.1834 C   0  0  0  0  0  0  0  0  0  0  0  0
    4.2301    2.3672   -1.1704 C   0  0  0  0  0  0  0  0  0  0  0  0
    4.9380    2.6649   -0.0060 C   0  0  0  0  0  0  0  0  0  0  0  0
   -5.3256    0.4347   -1.2464 C   0  0  0  0  0  0  0  0  0  0  0  0
   -5.0724    0.0423    1.1239 C   0  0  0  0  0  0  0  0  0  0  0  0
   -6.3605   -0.4994   -1.2906 C   0  0  0  0  0  0  0  0  0  0  0  0
   -6.1074   -0.8918    1.0798 C   0  0  0  0  0  0  0  0  0  0  0  0
   -6.7514   -1.1626   -0.1275 C   0  0  0  0  0  0  0  0  0  0  0  0
    0.5809    0.8529    1.4276 H   0  0  0  0  0  0  0  0  0  0  0  0
   -0.5071   -1.3818    1.2964 H   0  0  0  0  0  0  0  0  0  0  0  0
   -0.7987   -1.1793   -0.4238 H   0  0  0  0  0  0  0  0  0  0  0  0
    0.1071    1.1178   -1.5975 H   0  0  0  0  0  0  0  0  0  0  0  0
    0.8707    2.3009   -0.5297 H   0  0  0  0  0  0  0  0  0  0  0  0
    1.3900   -0.3401   -2.1329 H   0  0  0  0  0  0  0  0  0  0  0  0
    0.8171   -1.7393   -1.2730 H   0  0  0  0  0  0  0  0  0  0  0  0
   -2.7279   -0.7475    0.7581 H   0  0  0  0  0  0  0  0  0  0  0  0
   -1.9889    0.4907    1.7921 H   0  0  0  0  0  0  0  0  0  0  0  0
   -1.1678    2.6449    0.6944 H   0  0  0  0  0  0  0  0  0  0  0  0
   -1.4344    2.8466   -1.0405 H   0  0  0  0  0  0  0  0  0  0  0  0
    3.7398   -1.1977   -1.8359 H   0  0  0  0  0  0  0  0  0  0  0  0
    2.6564   -2.3588   -2.6049 H   0  0  0  0  0  0  0  0  0  0  0  0
   -3.7702    2.4727   -0.7523 H   0  0  0  0  0  0  0  0  0  0  0  0
   -3.5957    2.2312    0.9724 H   0  0  0  0  0  0  0  0  0  0  0  0
    2.9537   -3.2275    1.3837 H   0  0  0  0  0  0  0  0  0  0  0  0
    3.4059    0.5609    2.1554 H   0  0  0  0  0  0  0  0  0  0  0  0
    2.6926    1.2295   -2.0756 H   0  0  0  0  0  0  0  0  0  0  0  0
    5.1832    2.2375    2.0907 H   0  0  0  0  0  0  0  0  0  0  0  0
    4.4644    2.8863   -2.0952 H   0  0  0  0  0  0  0  0  0  0  0  0
    5.7244    3.4138   -0.0251 H   0  0  0  0  0  0  0  0  0  0  0  0
   -5.0278    0.9438   -2.1587 H   0  0  0  0  0  0  0  0  0  0  0  0
   -4.5919    0.2538    2.0750 H   0  0  0  0  0  0  0  0  0  0  0  0
   -6.8617   -0.7106   -2.2307 H   0  0  0  0  0  0  0  0  0  0  0  0
   -6.4143   -1.4057    1.9861 H   0  0  0  0  0  0  0  0  0  0  0  0
   -7.5578   -1.8895   -0.1617 H   0  0  0  0  0  0  0  0  0  0  0  0
  1 13  2  0  0  0  0
  2 16  2  0  0  0  0
  3 10  1  0  0  0  0
  3 11  1  0  0  0  0
  3 15  1  0  0  0  0
  4 13  1  0  0  0  0
  4 16  1  0  0  0  0
  4 43  1  0  0  0  0
  5  6  1  0  0  0  0
  5  7  1  0  0  0  0
  5  8  1  0  0  0  0
  5 28  1  0  0  0  0
  6  9  1  0  0  0  0
  6 12  1  0  0  0  0
  6 13  1  0  0  0  0
  7 10  1  0  0  0  0
  7 29  1  0  0  0  0
  7 30  1  0  0  0  0
  8 11  1  0  0  0  0
  8 31  1  0  0  0  0
  8 32  1  0  0  0  0
  9 14  1  0  0  0  0
  9 33  1  0  0  0  0
  9 34  1  0  0  0  0
 10 35  1  0  0  0  0
 10 36  1  0  0  0  0
 11 37  1  0  0  0  0
 11 38  1  0  0  0  0
 12 17  2  0  0  0  0
 12 18  1  0  0  0  0
 14 16  1  0  0  0  0
 14 39  1  0  0  0  0
 14 40  1  0  0  0  0
 15 19  1  0  0  0  0
 15 41  1  0  0  0  0
 15 42  1  0  0  0  0
 17 20  1  0  0  0  0
 17 44  1  0  0  0  0
 18 21  2  0  0  0  0
 18 45  1  0  0  0  0
 19 23  2  0  0  0  0
 19 24  1  0  0  0  0
 20 22  2  0  0  0  0
 20 46  1  0  0  0  0
 21 22  1  0  0  0  0
 21 47  1  0  0  0  0
 22 48  1  0  0  0  0
 23 25  1  0  0  0  0
 23 49  1  0  0  0  0
 24 26  2  0  0  0  0
 24 50  1  0  0  0  0
 25 27  2  0  0  0  0
 25 51  1  0  0  0  0
 26 27  1  0  0  0  0
 26 52  1  0  0  0  0
 27 53  1  0  0  0  0
M  END
> <DATABASE_ID>
DB08997

> <DATABASE_NAME>
drugbank

> <ORIGINAL_SOURCE>
PUBCHEM

> <ORIGINAL_SOURCE_URL>
https://pubchem.ncbi.nlm.nih.gov/rest/pug/compound/inchikey/LQQIVYSCPWCSSD-HSZRJFAPSA-N/SDF?record_type=3d

> <SMILES>
OC1=NC(=O)[C@@](CC1)(C1CCN(CC2=CC=CC=C2)CC1)C1=CC=CC=C1

> <INCHI_IDENTIFIER>
InChI=1S/C23H26N2O2/c26-21-11-14-23(22(27)24-21,19-9-5-2-6-10-19)20-12-15-25(16-13-20)17-18-7-3-1-4-8-18/h1-10,20H,11-17H2,(H,24,26,27)/t23-/m1/s1

> <INCHI_KEY>
LQQIVYSCPWCSSD-HSZRJFAPSA-N

> <FORMULA>
C23H26N2O2

> <MOLECULAR_WEIGHT>
362.4647

> <EXACT_MASS>
362.199428086

> <JCHEM_ACCEPTOR_COUNT>
4

> <JCHEM_AVERAGE_POLARIZABILITY>
40.547973141404306

> <JCHEM_BIOAVAILABILITY>
1

> <JCHEM_DONOR_COUNT>
1

> <JCHEM_FORMAL_CHARGE>
0

> <JCHEM_GHOSE_FILTER>
1

> <JCHEM_IUPAC>
(3S)-3-(1-benzylpiperidin-4-yl)-6-hydroxy-3-phenyl-2,3,4,5-tetrahydropyridin-2-one

> <ALOGPS_LOGP>
3.75

> <JCHEM_LOGP>
2.853379211118404

> <ALOGPS_LOGS>
-4.86

> <JCHEM_MDDR_LIKE_RULE>
0

> <JCHEM_NUMBER_OF_RINGS>
4

> <JCHEM_PHYSIOLOGICAL_CHARGE>
1

> <JCHEM_PKA_STRONGEST_ACIDIC>
7.669823209664749

> <JCHEM_PKA_STRONGEST_BASIC>
8.426419247007457

> <JCHEM_POLAR_SURFACE_AREA>
52.9

> <JCHEM_REFRACTIVITY>
106.66169999999997

> <JCHEM_ROTATABLE_BOND_COUNT>
4

> <JCHEM_RULE_OF_FIVE>
1

> <ALOGPS_SOLUBILITY>
5.05e-03 g/l

> <JCHEM_TRADITIONAL_IUPAC>
dexetimide

> <JCHEM_VEBER_RULE>
0

> <DRUGBANK_ID>
DB08997

> <DRUG_GROUPS>
withdrawn

> <GENERIC_NAME>
Dexetimide

$$$$
