REMARK  Name = 11560224
REMARK  6 active torsions:
REMARK  status: ('A' for Active; 'I' for Inactive)
REMARK    1  A    between atoms: C_3  and  N_17
REMARK    2  A    between atoms: C_8  and  C_16
REMARK    3  A    between atoms: N_17  and  C_18
REMARK    4  A    between atoms: N_17  and  C_23
REMARK    5  A    between atoms: C_18  and  C_22
REMARK    6  A    between atoms: C_23  and  C_27
REMARK                            x       y       z     vdW  Elec       q    Type
REMARK                         _______ _______ _______ _____ _____    ______ ____
ROOT
ATOM      1  O   UNL     1       5.313  -1.173  -1.351  0.00  0.00    -0.270 OA
ATOM      2  N   UNL     1       3.040  -1.350  -1.651  0.00  0.00    -0.280 N 
ATOM      3  C   UNL     1      -0.869  -0.381  -0.515  0.00  0.00    +0.048 C 
ATOM      4  C   UNL     1       1.530  -0.161  -0.163  0.00  0.00    +0.019 C 
ATOM      5  C   UNL     1       0.211   0.148   0.199  0.00  0.00    +0.016 C 
ATOM      6  C   UNL     1       1.733  -1.015  -1.258  0.00  0.00    +0.051 C 
ATOM      7  C   UNL     1      -0.647  -1.226  -1.599  0.00  0.00    +0.016 C 
ATOM      8  C   UNL     1       2.710   0.368   0.554  0.00  0.00    +0.077 C 
ATOM      9  C   UNL     1       0.655  -1.546  -1.973  0.00  0.00    +0.016 C 
ATOM     10  C   UNL     1       3.941   0.022   0.144  0.00  0.00    +0.062 C 
ATOM     11  C   UNL     1       4.167  -0.882  -1.014  0.00  0.00    +0.250 C 
ATOM     12  H   UNL     1       3.156  -1.951  -2.422  0.00  0.00    +0.155 HD
ENDROOT
BRANCH   8  16
ATOM     13  F   UNL     1       1.211   1.497   1.964  0.00  0.00    -0.166 F 
ATOM     14  F   UNL     1       3.064   0.756   2.842  0.00  0.00    -0.166 F 
ATOM     15  F   UNL     1       3.103   2.479   1.508  0.00  0.00    -0.166 F 
ATOM     16  C   UNL     1       2.521   1.284   1.728  0.00  0.00    +0.419 C 
ENDBRANCH   8  16
BRANCH   3  17
ATOM     17  N   UNL     1      -2.189  -0.056  -0.135  0.00  0.00    -0.293 N 
BRANCH  17  18
ATOM     18  C   UNL     1      -3.076   0.613  -1.065  0.00  0.00    +0.195 C 
BRANCH  18  22
ATOM     19  F   UNL     1      -3.625   2.729  -1.931  0.00  0.00    -0.168 F 
ATOM     20  F   UNL     1      -2.969   2.641   0.146  0.00  0.00    -0.168 F 
ATOM     21  F   UNL     1      -1.528   2.353  -1.472  0.00  0.00    -0.168 F 
ATOM     22  C   UNL     1      -2.792   2.095  -1.076  0.00  0.00    +0.416 C 
ENDBRANCH  18  22
ENDBRANCH  17  18
BRANCH  17  23
ATOM     23  C   UNL     1      -2.678  -0.401   1.185  0.00  0.00    +0.195 C 
BRANCH  23  27
ATOM     24  F   UNL     1      -3.573  -2.175   2.443  0.00  0.00    -0.168 F 
ATOM     25  F   UNL     1      -4.083  -2.097   0.325  0.00  0.00    -0.168 F 
ATOM     26  F   UNL     1      -2.068  -2.673   0.947  0.00  0.00    -0.168 F 
ATOM     27  C   UNL     1      -3.102  -1.849   1.218  0.00  0.00    +0.416 C 
ENDBRANCH  23  27
ENDBRANCH  17  23
ENDBRANCH   3  17
TORSDOF 6
