REMARK  Name = 23644580
REMARK  9 active torsions:
REMARK  status: ('A' for Active; 'I' for Inactive)
REMARK    1  A    between atoms: N_2  and  C_12
REMARK    2  A    between atoms: N_2  and  C_26
REMARK    3  A    between atoms: C_3  and  C_5
REMARK    4  A    between atoms: N_11  and  C_18
REMARK    5  A    between atoms: C_18  and  C_19
REMARK    6  A    between atoms: C_19  and  C_20
REMARK    7  A    between atoms: C_26  and  C_27
REMARK    8  A    between atoms: C_27  and  C_28
REMARK    9  A    between atoms: C_28  and  O_29
REMARK                            x       y       z     vdW  Elec       q    Type
REMARK                         _______ _______ _______ _____ _____    ______ ____
ROOT
ATOM      1  O   UNL     1       1.256  -2.218   0.260  0.00  0.00    -0.270 OA
ATOM      2  N   UNL     1       1.579  -0.285  -1.016  0.00  0.00    -0.280 N 
ATOM      3  C   UNL     1       1.960  -1.272  -0.091  0.00  0.00    +0.249 C 
ENDROOT
BRANCH   3   5
ATOM      4 CL   UNL     1       7.408  -0.996   2.323  0.00  0.00    -0.082 Cl
ATOM      5  C   UNL     1       3.304  -1.204   0.505  0.00  0.00    +0.054 C 
ATOM      6  C   UNL     1       3.491  -0.496   1.682  0.00  0.00    +0.005 C 
ATOM      7  C   UNL     1       4.359  -1.849  -0.122  0.00  0.00    +0.005 C 
ATOM      8  C   UNL     1       4.765  -0.431   2.246  0.00  0.00    +0.012 C 
ATOM      9  C   UNL     1       5.633  -1.784   0.443  0.00  0.00    +0.012 C 
ATOM     10  C   UNL     1       5.836  -1.075   1.627  0.00  0.00    +0.058 C 
ENDBRANCH   3   5
BRANCH   2  12
ATOM     11  N   UNL     1      -2.163  -0.300  -1.173  0.00  0.00    +0.388 N 
ATOM     12  C   UNL     1       0.273  -0.340  -1.627  0.00  0.00    +0.055 C 
ATOM     13  C   UNL     1      -0.827  -0.226  -0.564  0.00  0.00    -0.057 C 
ATOM     14  C   UNL     1       0.113  -1.621  -2.447  0.00  0.00    +0.016 C 
ATOM     15  C   UNL     1      -1.303  -1.724  -3.002  0.00  0.00    -0.021 C 
ATOM     16  C   UNL     1      -2.347  -1.565  -1.897  0.00  0.00    -0.077 C 
ATOM     17  H   UNL     1      -2.244   0.462  -1.846  0.00  0.00    -0.080 HD
BRANCH  11  18
ATOM     18  C   UNL     1      -3.199  -0.138  -0.153  0.00  0.00    -0.073 C 
BRANCH  18  19
ATOM     19  C   UNL     1      -4.589  -0.081  -0.789  0.00  0.00    +0.004 C 
BRANCH  19  20
ATOM     20  C   UNL     1      -5.665   0.109   0.249  0.00  0.00    -0.024 C 
ATOM     21  C   UNL     1      -6.253  -1.004   0.831  0.00  0.00    -0.004 C 
ATOM     22  C   UNL     1      -6.050   1.393   0.605  0.00  0.00    -0.004 C 
ATOM     23  C   UNL     1      -7.250  -0.829   1.792  0.00  0.00    -0.000 C 
ATOM     24  C   UNL     1      -7.046   1.568   1.565  0.00  0.00    -0.000 C 
ATOM     25  C   UNL     1      -7.646   0.457   2.159  0.00  0.00    -0.000 C 
ENDBRANCH  19  20
ENDBRANCH  18  19
ENDBRANCH  11  18
ENDBRANCH   2  12
BRANCH   2  26
ATOM     26  C   UNL     1       2.434   0.836  -1.420  0.00  0.00    +0.096 C 
BRANCH  26  27
ATOM     27  C   UNL     1       2.249   2.060  -0.532  0.00  0.00    +0.054 C 
BRANCH  27  28
ATOM     28  C   UNL     1       3.121   3.236  -0.959  0.00  0.00    +0.144 C 
BRANCH  28  29
ATOM     29  O   UNL     1       2.894   4.320  -0.068  0.00  0.00    -0.351 OA
ATOM     30  C   UNL     1       3.662   5.460  -0.427  0.00  0.00    +0.174 C 
ENDBRANCH  28  29
ENDBRANCH  27  28
ENDBRANCH  26  27
ENDBRANCH   2  26
TORSDOF 9
