REMARK  Name = 37497
REMARK  7 active torsions:
REMARK  status: ('A' for Active; 'I' for Inactive)
REMARK    1  A    between atoms: N_2  and  C_5
REMARK    2  A    between atoms: C_3  and  C_13
REMARK    3  A    between atoms: C_13  and  N_14
REMARK    4  A    between atoms: C_13  and  C_21
REMARK    5  A    between atoms: N_14  and  C_16
REMARK    6  A    between atoms: N_14  and  C_18
REMARK    7  A    between atoms: C_18  and  C_19
REMARK                            x       y       z     vdW  Elec       q    Type
REMARK                         _______ _______ _______ _____ _____    ______ ____
ROOT
ATOM      1  O   UNL     1       0.075   0.459  -2.013  0.00  0.00    -0.277 OA
ATOM      2  N   UNL     1       0.643   0.257   0.255  0.00  0.00    -0.286 N 
ATOM      3  C   UNL     1      -0.217   0.459  -0.820  0.00  0.00    +0.207 C 
ATOM      4  H   UNL     1       0.241   0.314   1.152  0.00  0.00    +0.155 HD
ENDROOT
BRANCH   2   5
ATOM      5  C   UNL     1       2.030  -0.022   0.209  0.00  0.00    +0.042 C 
ATOM      6  C   UNL     1       2.459  -1.340   0.155  0.00  0.00    -0.009 C 
ATOM      7  C   UNL     1       2.937   1.028   0.220  0.00  0.00    -0.009 C 
ATOM      8  C   UNL     1       3.826  -1.615   0.111  0.00  0.00    -0.003 C 
ATOM      9  C   UNL     1       4.304   0.753   0.175  0.00  0.00    -0.003 C 
ATOM     10  C   UNL     1       1.496  -2.482   0.143  0.00  0.00    +0.032 C 
ATOM     11  C   UNL     1       2.492   2.453   0.278  0.00  0.00    +0.032 C 
ATOM     12  C   UNL     1       4.748  -0.568   0.121  0.00  0.00    -0.001 C 
ENDBRANCH   2   5
BRANCH   3  13
ATOM     13  C   UNL     1      -1.645   0.735  -0.347  0.00  0.00    +0.021 C 
BRANCH  13  14
ATOM     14  N   UNL     1      -2.075  -0.482   0.344  0.00  0.00    +0.394 N 
ATOM     15  H   UNL     1      -1.431  -0.662   1.115  0.00  0.00    -0.079 HD
BRANCH  14  16
ATOM     16  C   UNL     1      -2.038  -1.625  -0.566  0.00  0.00    -0.077 C 
ATOM     17  C   UNL     1      -2.421  -2.909   0.140  0.00  0.00    -0.025 C 
ENDBRANCH  14  16
BRANCH  14  18
ATOM     18  C   UNL     1      -3.418  -0.309   0.895  0.00  0.00    -0.077 C 
BRANCH  18  19
ATOM     19  C   UNL     1      -4.424  -0.068  -0.227  0.00  0.00    -0.023 C 
ATOM     20  C   UNL     1      -5.827   0.137   0.322  0.00  0.00    -0.002 C 
ENDBRANCH  18  19
ENDBRANCH  14  18
ENDBRANCH  13  14
BRANCH  13  21
ATOM     21  C   UNL     1      -1.724   1.924   0.619  0.00  0.00    -0.012 C 
ATOM     22  C   UNL     1      -1.221   3.215  -0.016  0.00  0.00    -0.002 C 
ENDBRANCH  13  21
ENDBRANCH   3  13
TORSDOF 7
