REMARK  Name = 15942662
REMARK  2 active torsions:
REMARK  status: ('A' for Active; 'I' for Inactive)
REMARK    1  A    between atoms: C_6  and  C_13
REMARK    2  A    between atoms: C_18  and  O_19
REMARK                            x       y       z     vdW  Elec       q    Type
REMARK                         _______ _______ _______ _____ _____    ______ ____
ROOT
ATOM      1  O   UNL     1       0.799  -0.726  -1.060  0.00  0.00    -0.356 OA
ATOM      2  C   UNL     1       2.154  -0.989   1.019  0.00  0.00    +0.030 C 
ATOM      3  C   UNL     1       1.128   1.197   0.444  0.00  0.00    +0.050 C 
ATOM      4  C   UNL     1       1.268  -1.662  -0.076  0.00  0.00    +0.093 C 
ATOM      5  C   UNL     1       1.419   0.226   1.597  0.00  0.00    +0.009 C 
ATOM      6  C   UNL     1       0.230   0.520  -0.621  0.00  0.00    +0.141 C 
ATOM      7  C   UNL     1       3.543  -0.494   0.543  0.00  0.00    +0.028 C 
ATOM      8  C   UNL     1       2.439   1.621  -0.215  0.00  0.00    -0.046 C 
ATOM      9  C   UNL     1       3.527   0.833  -0.162  0.00  0.00    -0.034 C 
ATOM     10  C   UNL     1       2.056  -2.716  -0.876  0.00  0.00    +0.030 C 
ATOM     11  C   UNL     1       0.080  -2.406   0.565  0.00  0.00    +0.030 C 
ATOM     12  C   UNL     1       2.459   2.954  -0.906  0.00  0.00    +0.026 C 
ENDROOT
BRANCH   6  13
ATOM     13  C   UNL     1      -1.263   0.389  -0.351  0.00  0.00    +0.005 C 
ATOM     14  C   UNL     1      -2.096  -0.176  -1.316  0.00  0.00    +0.001 C 
ATOM     15  C   UNL     1      -1.793   0.833   0.859  0.00  0.00    +0.001 C 
ATOM     16  C   UNL     1      -3.464  -0.296  -1.069  0.00  0.00    +0.036 C 
ATOM     17  C   UNL     1      -3.161   0.713   1.105  0.00  0.00    +0.036 C 
ATOM     18  C   UNL     1      -3.996   0.148   0.141  0.00  0.00    +0.134 C 
BRANCH  18  19
ATOM     19  O   UNL     1      -5.331   0.031   0.381  0.00  0.00    -0.506 OA
ATOM     20  H   UNL     1      -5.891  -0.349  -0.267  0.00  0.00    +0.292 HD
ENDBRANCH  18  19
ENDBRANCH   6  13
TORSDOF 2
