REMARK  Name = 5289331
REMARK  5 active torsions:
REMARK  status: ('A' for Active; 'I' for Inactive)
REMARK    1  A    between atoms: C_1  and  C_3
REMARK    2  A    between atoms: C_1  and  C_9
REMARK    3  A    between atoms: C_9  and  C_10
REMARK    4  A    between atoms: C_10  and  N_12
REMARK    5  A    between atoms: N_12  and  O_14
REMARK                            x       y       z     vdW  Elec       q    Type
REMARK                         _______ _______ _______ _____ _____    ______ ____
ROOT
ATOM      1  C   UNL     1       0.010   0.100  -1.214  0.00  0.00    +0.061 C 
ENDROOT
BRANCH   1   3
ATOM      2  N   UNL     1      -2.055  -0.831  -0.358  0.00  0.00    -0.415 NA
ATOM      3  C   UNL     1      -1.333   0.287  -0.556  0.00  0.00    +0.108 C 
ATOM      4  C   UNL     1      -1.729   1.560  -0.207  0.00  0.00    +0.023 C 
ATOM      5  C   UNL     1      -3.259  -0.656   0.232  0.00  0.00    +0.091 C 
ATOM      6  C   UNL     1      -2.974   1.699   0.397  0.00  0.00    -0.017 C 
ATOM      7  C   UNL     1      -3.759   0.575   0.625  0.00  0.00    +0.080 C 
ATOM      8  C   UNL     1      -4.074  -1.885   0.460  0.00  0.00    +0.062 C 
ENDBRANCH   1   3
BRANCH   1   9
ATOM      9  C   UNL     1       1.118  -0.134  -0.183  0.00  0.00    +0.032 C 
BRANCH   9  10
ATOM     10  C   UNL     1       2.466  -0.359  -0.867  0.00  0.00    +0.125 C 
BRANCH  10  12
ATOM     11  O   UNL     1       4.150   1.647   0.398  0.00  0.00    -0.263 OA
ATOM     12  N   UNL     1       3.512  -0.559   0.130  0.00  0.00    -0.165 N 
ATOM     13  C   UNL     1       4.240   0.452   0.656  0.00  0.00    +0.327 C 
BRANCH  12  14
ATOM     14  O   UNL     1       3.686  -1.896   0.487  0.00  0.00    -0.291 OA
ATOM     15  H   UNL     1       3.061  -2.447  -0.010  0.00  0.00    +0.242 HD
ENDBRANCH  12  14
ENDBRANCH  10  12
ENDBRANCH   9  10
ENDBRANCH   1   9
TORSDOF 5
