REMARK  Name = 46937143
REMARK  8 active torsions:
REMARK  status: ('A' for Active; 'I' for Inactive)
REMARK    1  A    between atoms: O_1  and  C_4
REMARK    2  A    between atoms: O_1  and  C_13
REMARK    3  A    between atoms: C_8  and  C_12
REMARK    4  A    between atoms: C_13  and  C_14
REMARK    5  A    between atoms: C_14  and  O_15
REMARK    6  A    between atoms: C_14  and  C_17
REMARK    7  A    between atoms: C_17  and  N_18
REMARK    8  A    between atoms: N_18  and  C_21
REMARK                            x       y       z     vdW  Elec       q    Type
REMARK                         _______ _______ _______ _____ _____    ______ ____
ROOT
ATOM      1  O   UNL     1      -0.460   1.572  -0.960  0.00  0.00    -0.477 OA
ENDROOT
BRANCH   1   4
ATOM      2  N   UNL     1       3.519  -0.514   0.480  0.00  0.00    -0.396 NA
ATOM      3  C   UNL     1       1.567   0.590  -0.168  0.00  0.00    +0.045 C 
ATOM      4  C   UNL     1       0.621   1.595  -0.141  0.00  0.00    +0.119 C 
ATOM      5  C   UNL     1       1.639  -0.643  -1.006  0.00  0.00    +0.101 C 
ATOM      6  C   UNL     1       2.688   0.608   0.676  0.00  0.00    +0.131 C 
ATOM      7  C   UNL     1       0.812   2.644   0.761  0.00  0.00    +0.090 C 
ATOM      8  C   UNL     1       2.926  -1.196  -0.454  0.00  0.00    +0.181 C 
ATOM      9  C   UNL     1       2.883   1.644   1.572  0.00  0.00    +0.028 C 
ATOM     10  C   UNL     1       1.933   2.669   1.610  0.00  0.00    -0.016 C 
BRANCH   8  12
ATOM     11  N   UNL     1       4.070  -3.393  -1.197  0.00  0.00    -0.189 NA
ATOM     12  C   UNL     1       3.557  -2.407  -0.863  0.00  0.00    +0.129 C 
ENDBRANCH   8  12
ENDBRANCH   1   4
BRANCH   1  13
ATOM     13  C   UNL     1      -1.656   2.192  -0.482  0.00  0.00    +0.232 C 
BRANCH  13  14
ATOM     14  C   UNL     1      -2.859   1.487  -1.104  0.00  0.00    +0.133 C 
BRANCH  14  15
ATOM     15  O   UNL     1      -2.796   1.640  -2.525  0.00  0.00    -0.383 OA
ATOM     16  H   UNL     1      -3.557   1.196  -2.932  0.00  0.00    +0.210 HD
ENDBRANCH  14  15
BRANCH  14  17
ATOM     17  C   UNL     1      -2.914  -0.009  -0.786  0.00  0.00    -0.048 C 
BRANCH  17  18
ATOM     18  N   UNL     1      -3.043  -0.261   0.642  0.00  0.00    +0.388 N 
ATOM     19  H   UNL     1      -2.238   0.137   1.125  0.00  0.00    -0.084 HD
ATOM     20  H   UNL     1      -3.906   0.170   0.973  0.00  0.00    -0.084 HD
BRANCH  18  21
ATOM     21  C   UNL     1      -3.103  -1.691   0.915  0.00  0.00    -0.046 C 
ATOM     22  C   UNL     1      -3.248  -1.893   2.428  0.00  0.00    -0.022 C 
ATOM     23  C   UNL     1      -4.318  -2.276   0.187  0.00  0.00    -0.022 C 
ATOM     24  C   UNL     1      -1.817  -2.359   0.416  0.00  0.00    -0.022 C 
ENDBRANCH  18  21
ENDBRANCH  17  18
ENDBRANCH  14  17
ENDBRANCH  13  14
ENDBRANCH   1  13
TORSDOF 8
