REMARK  Name = 9999276
REMARK  5 active torsions:
REMARK  status: ('A' for Active; 'I' for Inactive)
REMARK    1  A    between atoms: C_3  and  C_11
REMARK    2  A    between atoms: C_6  and  C_20
REMARK    3  A    between atoms: C_14  and  N_19
REMARK    4  A    between atoms: C_25  and  C_27
REMARK    5  A    between atoms: C_27  and  O_28
REMARK                            x       y       z     vdW  Elec       q    Type
REMARK                         _______ _______ _______ _____ _____    ______ ____
ROOT
ATOM      1  N   UNL     1       0.090  -0.061  -0.275  0.00  0.00    -0.400 NA
ATOM      2  N   UNL     1      -2.747  -2.349  -0.073  0.00  0.00    -0.242 NA
ATOM      3  C   UNL     1      -1.157  -0.588  -0.296  0.00  0.00    +0.149 C 
ATOM      4  C   UNL     1      -1.474  -1.910  -0.030  0.00  0.00    +0.107 C 
ATOM      5  C   UNL     1      -0.397  -2.756   0.285  0.00  0.00    +0.005 C 
ATOM      6  C   UNL     1       1.093  -0.907   0.032  0.00  0.00    +0.131 C 
ATOM      7  C   UNL     1       0.908  -2.248   0.317  0.00  0.00    +0.030 C 
ATOM      8  C   UNL     1      -0.676  -4.101   0.561  0.00  0.00    +0.056 C 
ATOM      9  C   UNL     1      -1.985  -4.563   0.519  0.00  0.00    -0.001 C 
ATOM     10  C   UNL     1      -2.975  -3.655   0.200  0.00  0.00    +0.095 C 
ENDROOT
BRANCH   3  11
ATOM     11  C   UNL     1      -2.180   0.381  -0.632  0.00  0.00    +0.033 C 
ATOM     12  C   UNL     1      -2.804   1.112   0.377  0.00  0.00    +0.027 C 
ATOM     13  C   UNL     1      -2.539   0.579  -1.965  0.00  0.00    +0.003 C 
ATOM     14  C   UNL     1      -3.789   2.045   0.053  0.00  0.00    +0.143 C 
ATOM     15  C   UNL     1      -3.524   1.512  -2.289  0.00  0.00    +0.002 C 
ATOM     16  C   UNL     1      -4.150   2.244  -1.280  0.00  0.00    +0.024 C 
BRANCH  14  19
ATOM     17  O   UNL     1      -5.309   3.622   0.761  0.00  0.00    -0.126 OA
ATOM     18  O   UNL     1      -4.085   2.593   2.269  0.00  0.00    -0.126 OA
ATOM     19  N   UNL     1      -4.426   2.791   1.080  0.00  0.00    +0.058 N 
ENDBRANCH  14  19
ENDBRANCH   3  11
BRANCH   6  20
ATOM     20  C   UNL     1       2.410  -0.316   0.045  0.00  0.00    +0.030 C 
ATOM     21  C   UNL     1       3.183  -0.297  -1.118  0.00  0.00    +0.003 C 
ATOM     22  C   UNL     1       2.917   0.238   1.223  0.00  0.00    +0.003 C 
ATOM     23  C   UNL     1       4.455   0.275  -1.105  0.00  0.00    +0.007 C 
ATOM     24  C   UNL     1       4.190   0.810   1.236  0.00  0.00    +0.007 C 
ATOM     25  C   UNL     1       4.958   0.828   0.073  0.00  0.00    +0.075 C 
BRANCH  25  27
ATOM     26  O   UNL     1       6.827   1.940   1.071  0.00  0.00    -0.245 OA
ATOM     27  C   UNL     1       6.285   1.424   0.088  0.00  0.00    +0.338 C 
BRANCH  27  28
ATOM     28  O   UNL     1       6.899   1.358  -1.125  0.00  0.00    -0.477 OA
ATOM     29  H   UNL     1       6.461   0.960  -1.852  0.00  0.00    +0.295 HD
ENDBRANCH  27  28
ENDBRANCH  25  27
ENDBRANCH   6  20
TORSDOF 5
