REMARK  Name = 71345
REMARK  7 active torsions:
REMARK  status: ('A' for Active; 'I' for Inactive)
REMARK    1  A    between atoms: C_1  and  C_5
REMARK    2  A    between atoms: C_1  and  C_15
REMARK    3  A    between atoms: C_15  and  O_16
REMARK    4  A    between atoms: O_16  and  C_17
REMARK    5  A    between atoms: C_22  and  C_24
REMARK    6  A    between atoms: C_24  and  O_25
REMARK    7  A    between atoms: O_25  and  C_26
REMARK                            x       y       z     vdW  Elec       q    Type
REMARK                         _______ _______ _______ _____ _____    ______ ____
ROOT
ATOM      1  C   UNL     1       0.353   3.350  -0.738  0.00  0.00    +0.047 C 
ENDROOT
BRANCH   1   5
ATOM      2  N   UNL     1       3.495   0.461  -0.155  0.00  0.00    -0.292 N 
ATOM      3  N   UNL     1       5.319  -0.526   1.049  0.00  0.00    -0.133 NA
ATOM      4  N   UNL     1       6.383  -1.372   1.103  0.00  0.00    -0.151 NA
ATOM      5  C   UNL     1       1.223   2.256  -0.125  0.00  0.00    +0.007 C 
ATOM      6  C   UNL     1       1.260   1.019  -1.027  0.00  0.00    +0.022 C 
ATOM      7  C   UNL     1       2.650   2.761   0.110  0.00  0.00    +0.022 C 
ATOM      8  C   UNL     1       2.161  -0.073  -0.450  0.00  0.00    +0.092 C 
ATOM      9  C   UNL     1       3.543   1.664   0.688  0.00  0.00    +0.092 C 
ATOM     10  C   UNL     1       4.589  -0.410  -0.099  0.00  0.00    +0.153 C 
ATOM     11  C   UNL     1       4.920  -1.154  -1.232  0.00  0.00    +0.037 C 
ATOM     12  C   UNL     1       6.002  -2.015  -1.177  0.00  0.00    +0.019 C 
ATOM     13  C   UNL     1       6.705  -2.094   0.008  0.00  0.00    +0.081 C 
ATOM     14  C   UNL     1       7.879  -3.005   0.120  0.00  0.00    +0.054 C 
ENDBRANCH   1   5
BRANCH   1  15
ATOM     15  C   UNL     1      -1.087   2.897  -0.892  0.00  0.00    +0.205 C 
BRANCH  15  16
ATOM     16  O   UNL     1      -1.603   2.584   0.395  0.00  0.00    -0.475 OA
BRANCH  16  17
ATOM     17  C   UNL     1      -2.557   1.601   0.457  0.00  0.00    +0.139 C 
ATOM     18  C   UNL     1      -2.660   0.814   1.597  0.00  0.00    +0.037 C 
ATOM     19  C   UNL     1      -3.409   1.401  -0.623  0.00  0.00    +0.037 C 
ATOM     20  C   UNL     1      -3.630  -0.187   1.660  0.00  0.00    +0.010 C 
ATOM     21  C   UNL     1      -4.378   0.400  -0.561  0.00  0.00    +0.010 C 
ATOM     22  C   UNL     1      -4.489  -0.394   0.580  0.00  0.00    +0.076 C 
BRANCH  22  24
ATOM     23  O   UNL     1      -5.668  -2.189   1.615  0.00  0.00    -0.245 OA
ATOM     24  C   UNL     1      -5.499  -1.438   0.646  0.00  0.00    +0.341 C 
BRANCH  24  25
ATOM     25  O   UNL     1      -6.244  -1.490  -0.501  0.00  0.00    -0.445 OA
BRANCH  25  26
ATOM     26  C   UNL     1      -7.276  -2.481  -0.557  0.00  0.00    +0.209 C 
ATOM     27  C   UNL     1      -7.983  -2.380  -1.892  0.00  0.00    +0.051 C 
ENDBRANCH  25  26
ENDBRANCH  24  25
ENDBRANCH  22  24
ENDBRANCH  16  17
ENDBRANCH  15  16
ENDBRANCH   1  15
TORSDOF 7
