REMARK  Name = 44144383
REMARK  3 active torsions:
REMARK  status: ('A' for Active; 'I' for Inactive)
REMARK    1  A    between atoms: C_5  and  S_17
REMARK    2  A    between atoms: C_7  and  C_14
REMARK    3  A    between atoms: S_17  and  N_20
REMARK                            x       y       z     vdW  Elec       q    Type
REMARK                         _______ _______ _______ _____ _____    ______ ____
ROOT
ATOM      1  N   UNL     1       0.936   0.872  -0.037  0.00  0.00    -0.314 N 
ATOM      2  N   UNL     1       1.309  -1.318   0.007  0.00  0.00    -0.314 N 
ATOM      3  C   UNL     1      -0.306   0.289  -0.039  0.00  0.00    +0.061 C 
ATOM      4  C   UNL     1      -0.046  -1.078  -0.012  0.00  0.00    +0.059 C 
ATOM      5  C   UNL     1      -2.655  -0.088  -0.057  0.00  0.00    +0.123 C 
ATOM      6  C   UNL     1      -1.594   0.824  -0.063  0.00  0.00    +0.035 C 
ATOM      7  C   UNL     1       1.867  -0.129  -0.009  0.00  0.00    +0.182 C 
ATOM      8  C   UNL     1      -1.123  -1.980  -0.007  0.00  0.00    +0.017 C 
ATOM      9  C   UNL     1      -2.426  -1.465  -0.030  0.00  0.00    +0.021 C 
ATOM     10  H   UNL     1       1.123   1.839  -0.052  0.00  0.00    +0.149 HD
ATOM     11  H   UNL     1       1.762  -2.192   0.028  0.00  0.00    +0.149 HD
ENDROOT
BRANCH   7  14
ATOM     12  S   UNL     1       5.828  -0.277   0.043  0.00  0.00    -0.108 S 
ATOM     13  N   UNL     1       3.849   1.384  -0.011  0.00  0.00    -0.263 NA
ATOM     14  C   UNL     1       3.322   0.107   0.003  0.00  0.00    +0.080 C 
ATOM     15  C   UNL     1       4.239  -0.922   0.033  0.00  0.00    +0.104 C 
ATOM     16  C   UNL     1       5.161   1.303   0.007  0.00  0.00    +0.183 C 
ENDBRANCH   7  14
BRANCH   5  17
ATOM     17  S   UNL     1      -4.298   0.511  -0.088  0.00  0.00    +0.057 S 
ATOM     18  O   UNL     1      -4.289   1.840  -0.680  0.00  0.00    -0.153 OA
ATOM     19  O   UNL     1      -5.154  -0.526  -0.645  0.00  0.00    -0.153 OA
BRANCH  17  20
ATOM     20  N   UNL     1      -4.621   0.652   1.584  0.00  0.00    -0.203 NA
ATOM     21  H   UNL     1      -5.570   1.000   1.718  0.00  0.00    +0.144 HD
ATOM     22  H   UNL     1      -3.958   1.302   2.005  0.00  0.00    +0.144 HD
ENDBRANCH  17  20
ENDBRANCH   5  17
TORSDOF 3
