REMARK  Name = 657105
REMARK  6 active torsions:
REMARK  status: ('A' for Active; 'I' for Inactive)
REMARK    1  A    between atoms: S_1  and  C_5
REMARK    2  A    between atoms: S_1  and  N_13
REMARK    3  A    between atoms: C_6  and  C_10
REMARK    4  A    between atoms: C_10  and  O_11
REMARK    5  A    between atoms: N_13  and  C_15
REMARK    6  A    between atoms: C_18  and  N_23
REMARK                            x       y       z     vdW  Elec       q    Type
REMARK                         _______ _______ _______ _____ _____    ______ ____
ROOT
ATOM      1  S   UNL     1      -1.328  -1.702   0.481  0.00  0.00    +0.074 S 
ATOM      2  O   UNL     1      -2.590  -2.243   0.014  0.00  0.00    -0.150 OA
ATOM      3  O   UNL     1      -0.699  -2.210   1.684  0.00  0.00    -0.150 OA
ENDROOT
BRANCH   1   5
ATOM      4  S   UNL     1      -2.670   2.313   0.696  0.00  0.00    -0.079 S 
ATOM      5  C   UNL     1      -1.733  -0.035   0.848  0.00  0.00    +0.138 C 
ATOM      6  C   UNL     1      -2.471   0.751   0.025  0.00  0.00    +0.124 C 
ATOM      7  C   UNL     1      -1.309   0.591   2.031  0.00  0.00    +0.028 C 
ATOM      8  C   UNL     1      -1.755   1.894   2.082  0.00  0.00    +0.037 C 
BRANCH   6  10
ATOM      9  O   UNL     1      -2.657  -0.322  -2.110  0.00  0.00    -0.244 OA
ATOM     10  C   UNL     1      -3.065   0.472  -1.244  0.00  0.00    +0.345 C 
BRANCH  10  11
ATOM     11  O   UNL     1      -4.210   1.195  -1.470  0.00  0.00    -0.477 OA
ATOM     12  H   UNL     1      -4.521   1.795  -0.821  0.00  0.00    +0.295 HD
ENDBRANCH  10  11
ENDBRANCH   6  10
ENDBRANCH   1   5
BRANCH   1  13
ATOM     13  N   UNL     1      -0.196  -1.674  -0.827  0.00  0.00    -0.215 N 
ATOM     14  H   UNL     1      -0.463  -1.909  -1.745  0.00  0.00    +0.174 HD
BRANCH  13  15
ATOM     15  C   UNL     1       1.143  -1.295  -0.511  0.00  0.00    +0.066 C 
ATOM     16  C   UNL     1       1.521   0.047  -0.570  0.00  0.00    +0.040 C 
ATOM     17  C   UNL     1       2.074  -2.266  -0.142  0.00  0.00    +0.016 C 
ATOM     18  C   UNL     1       2.829   0.417  -0.260  0.00  0.00    +0.144 C 
ATOM     19  C   UNL     1       3.383  -1.896   0.168  0.00  0.00    +0.003 C 
ATOM     20  C   UNL     1       3.760  -0.554   0.109  0.00  0.00    +0.024 C 
BRANCH  18  23
ATOM     21  O   UNL     1       4.396   2.094  -0.034  0.00  0.00    -0.126 OA
ATOM     22  O   UNL     1       2.362   2.641  -0.652  0.00  0.00    -0.126 OA
ATOM     23  N   UNL     1       3.214   1.782  -0.318  0.00  0.00    +0.058 N 
ENDBRANCH  18  23
ENDBRANCH  13  15
ENDBRANCH   1  13
TORSDOF 6
