REMARK  Name = 24755471
REMARK  13 active torsions:
REMARK  status: ('A' for Active; 'I' for Inactive)
REMARK    1  A    between atoms: C_1  and  S_11
REMARK    2  A    between atoms: C_9  and  O_27
REMARK    3  A    between atoms: S_11  and  N_14
REMARK    4  A    between atoms: N_14  and  C_16
REMARK    5  A    between atoms: C_16  and  C_18
REMARK    6  A    between atoms: C_16  and  C_21
REMARK    7  A    between atoms: C_18  and  O_19
REMARK    8  A    between atoms: C_21  and  C_22
REMARK    9  A    between atoms: C_22  and  C_24
REMARK   10  A    between atoms: C_24  and  O_25
REMARK   11  A    between atoms: O_27  and  C_28
REMARK   12  A    between atoms: C_28  and  C_29
REMARK   13  A    between atoms: C_34  and  C_36
REMARK                            x       y       z     vdW  Elec       q    Type
REMARK                         _______ _______ _______ _____ _____    ______ ____
ROOT
ATOM      1  C   UNL     1      -2.296   1.599   0.180  0.00  0.00    +0.122 C 
ATOM      2  C   UNL     1      -0.143   0.754  -0.576  0.00  0.00    +0.002 C 
ATOM      3  C   UNL     1      -1.527   0.907  -0.757  0.00  0.00    +0.020 C 
ATOM      4  C   UNL     1       0.471   1.311   0.571  0.00  0.00    +0.003 C 
ATOM      5  C   UNL     1      -1.692   2.146   1.308  0.00  0.00    +0.020 C 
ATOM      6  C   UNL     1      -0.318   2.004   1.504  0.00  0.00    +0.001 C 
ATOM      7  C   UNL     1       1.855   1.158   0.752  0.00  0.00    +0.037 C 
ATOM      8  C   UNL     1       0.646   0.060  -1.509  0.00  0.00    +0.003 C 
ATOM      9  C   UNL     1       2.623   0.466  -0.185  0.00  0.00    +0.139 C 
ATOM     10  C   UNL     1       2.020  -0.082  -1.313  0.00  0.00    +0.037 C 
ENDROOT
BRANCH   1  11
ATOM     11  S   UNL     1      -4.037   1.780  -0.067  0.00  0.00    +0.061 S 
ATOM     12  O   UNL     1      -4.468   2.966   0.647  0.00  0.00    -0.153 OA
ATOM     13  O   UNL     1      -4.276   1.658  -1.492  0.00  0.00    -0.153 OA
BRANCH  11  14
ATOM     14  N   UNL     1      -4.646   0.398   0.714  0.00  0.00    -0.170 NA
ATOM     15  H   UNL     1      -5.561   0.650   1.086  0.00  0.00    +0.149 HD
BRANCH  14  16
ATOM     16  C   UNL     1      -4.823  -0.860  -0.044  0.00  0.00    +0.174 C 
BRANCH  16  18
ATOM     17  O   UNL     1      -4.279  -1.911   2.081  0.00  0.00    -0.249 OA
ATOM     18  C   UNL     1      -4.519  -2.012   0.884  0.00  0.00    +0.330 C 
BRANCH  18  19
ATOM     19  O   UNL     1      -4.559  -3.209   0.244  0.00  0.00    -0.479 OA
ATOM     20  H   UNL     1      -4.746  -3.244  -0.673  0.00  0.00    +0.295 HD
ENDBRANCH  18  19
ENDBRANCH  16  18
BRANCH  16  21
ATOM     21  C   UNL     1      -6.215  -0.907  -0.685  0.00  0.00    +0.040 C 
BRANCH  21  22
ATOM     22  C   UNL     1      -7.408  -0.883   0.275  0.00  0.00    +0.111 C 
BRANCH  22  24
ATOM     23  O   UNL     1      -8.892  -0.869  -1.631  0.00  0.00    -0.250 OA
ATOM     24  C   UNL     1      -8.748  -0.912  -0.416  0.00  0.00    +0.314 C 
BRANCH  24  25
ATOM     25  O   UNL     1      -9.787  -0.974   0.455  0.00  0.00    -0.480 OA
ATOM     26  H   UNL     1      -9.623  -1.005   1.377  0.00  0.00    +0.295 HD
ENDBRANCH  24  25
ENDBRANCH  22  24
ENDBRANCH  21  22
ENDBRANCH  16  21
ENDBRANCH  14  16
ENDBRANCH  11  14
ENDBRANCH   1  11
BRANCH   9  27
ATOM     27  O   UNL     1       3.964   0.328   0.004  0.00  0.00    -0.471 OA
BRANCH  27  28
ATOM     28  C   UNL     1       4.690  -0.389  -0.993  0.00  0.00    +0.232 C 
BRANCH  28  29
ATOM     29  C   UNL     1       6.134  -0.460  -0.592  0.00  0.00    +0.021 C 
ATOM     30  C   UNL     1       6.948   0.666  -0.716  0.00  0.00    -0.000 C 
ATOM     31  C   UNL     1       6.663  -1.652  -0.097  0.00  0.00    -0.000 C 
ATOM     32  C   UNL     1       8.290   0.600  -0.344  0.00  0.00    +0.010 C 
ATOM     33  C   UNL     1       8.005  -1.718   0.275  0.00  0.00    +0.010 C 
ATOM     34  C   UNL     1       8.819  -0.592   0.151  0.00  0.00    +0.068 C 
BRANCH  34  36
ATOM     35  N   UNL     1      11.312  -0.714   0.843  0.00  0.00    -0.191 NA
ATOM     36  C   UNL     1      10.195  -0.659   0.533  0.00  0.00    +0.100 C 
ENDBRANCH  34  36
ENDBRANCH  28  29
ENDBRANCH  27  28
ENDBRANCH   9  27
TORSDOF 13
