REMARK  Name = 5328120
REMARK  1 active torsions:
REMARK  status: ('A' for Active; 'I' for Inactive)
REMARK    1  A    between atoms: C_5  and  C_16
REMARK                            x       y       z     vdW  Elec       q    Type
REMARK                         _______ _______ _______ _____ _____    ______ ____
ROOT
ATOM      1  N   UNL     1      -1.301   0.001   1.652  0.00  0.00    -0.324 NA
ATOM      2  N   UNL     1      -3.477   0.001   0.860  0.00  0.00    -0.272 NA
ATOM      3  N   UNL     1      -3.957   0.000  -1.500  0.00  0.00    -0.169 NA
ATOM      4  N   UNL     1      -5.689  -0.002   0.076  0.00  0.00    -0.292 N 
ATOM      5  C   UNL     1       0.578   0.000   0.134  0.00  0.00    +0.046 C 
ATOM      6  C   UNL     1      -1.684   0.000  -0.692  0.00  0.00    +0.106 C 
ATOM      7  C   UNL     1      -0.302   0.000  -0.933  0.00  0.00    +0.018 C 
ATOM      8  C   UNL     1       0.030   0.000   1.400  0.00  0.00    +0.190 C 
ATOM      9  C   UNL     1      -2.160   0.000   0.624  0.00  0.00    +0.152 C 
ATOM     10  C   UNL     1      -2.631   0.000  -1.713  0.00  0.00    +0.124 C 
ATOM     11  C   UNL     1      -4.305   0.000  -0.205  0.00  0.00    +0.152 C 
ATOM     12  H   UNL     1      -6.002  -0.002   1.010  0.00  0.00    +0.155 HD
ATOM     13  H   UNL     1      -6.341  -0.003  -0.661  0.00  0.00    +0.155 HD
ATOM     14  N   UNL     1       0.902   0.001   2.518  0.00  0.00    -0.332 N 
ATOM     15  H   UNL     1       0.533   0.001   3.430  0.00  0.00    +0.145 HD
ATOM     16  H   UNL     1       1.877   0.001   2.381  0.00  0.00    +0.145 HD
ENDROOT
BRANCH   5  19
ATOM     17 BR   UNL     1       1.838   2.898  -0.081  0.00  0.00    -0.049 Br
ATOM     18 BR   UNL     1       1.838  -2.898  -0.079  0.00  0.00    -0.049 Br
ATOM     19  C   UNL     1       2.005   0.000  -0.109  0.00  0.00    +0.016 C 
ATOM     20  C   UNL     1       2.700   1.208  -0.227  0.00  0.00    +0.035 C 
ATOM     21  C   UNL     1       2.700  -1.208  -0.227  0.00  0.00    +0.035 C 
ATOM     22  C   UNL     1       4.075   1.208  -0.461  0.00  0.00    +0.007 C 
ATOM     23  C   UNL     1       4.075  -1.208  -0.461  0.00  0.00    +0.007 C 
ATOM     24  C   UNL     1       4.763   0.000  -0.578  0.00  0.00    +0.001 C 
ENDBRANCH   5  19
TORSDOF 1
