REMARK  Name = 446345
REMARK  6 active torsions:
REMARK  status: ('A' for Active; 'I' for Inactive)
REMARK    1  A    between atoms: N_2  and  C_20
REMARK    2  A    between atoms: N_3  and  S_8
REMARK    3  A    between atoms: S_8  and  C_11
REMARK    4  A    between atoms: C_12  and  C_14
REMARK    5  A    between atoms: C_20  and  C_22
REMARK    6  A    between atoms: N_21  and  C_28
REMARK                            x       y       z     vdW  Elec       q    Type
REMARK                         _______ _______ _______ _____ _____    ______ ____
ROOT
ATOM      1  O   UNL     1      -0.412   2.593  -2.535  0.00  0.00    -0.273 OA
ATOM      2  N   UNL     1      -0.775   2.708  -0.248  0.00  0.00    -0.277 N 
ATOM      3  N   UNL     1       1.992   2.668   0.170  0.00  0.00    -0.144 NA
ATOM      4  C   UNL     1      -0.221   2.855   1.094  0.00  0.00    +0.113 C 
ATOM      5  C   UNL     1       1.116   2.162   1.249  0.00  0.00    +0.118 C 
ATOM      6  C   UNL     1       0.023   2.566  -1.380  0.00  0.00    +0.244 C 
ATOM      7  C   UNL     1       1.488   2.280  -1.162  0.00  0.00    +0.181 C 
ENDROOT
BRANCH   3   8
ATOM      8  S   UNL     1       3.673   2.460   0.414  0.00  0.00    +0.065 S 
ATOM      9  O   UNL     1       3.960   2.767   1.805  0.00  0.00    -0.153 OA
ATOM     10  O   UNL     1       4.369   3.174  -0.642  0.00  0.00    -0.153 OA
BRANCH   8  11
ATOM     11  C   UNL     1       3.931   0.764   0.175  0.00  0.00    +0.141 C 
ATOM     12  C   UNL     1       5.184   0.312   0.308  0.00  0.00    +0.021 C 
BRANCH  12  14
ATOM     13 CL   UNL     1       6.831  -5.386  -0.330  0.00  0.00    -0.082 Cl
ATOM     14  C   UNL     1       5.590  -1.095   0.151  0.00  0.00    +0.001 C 
ATOM     15  C   UNL     1       6.659  -1.580   0.888  0.00  0.00    +0.001 C 
ATOM     16  C   UNL     1       4.897  -1.908  -0.732  0.00  0.00    +0.001 C 
ATOM     17  C   UNL     1       7.044  -2.912   0.739  0.00  0.00    +0.011 C 
ATOM     18  C   UNL     1       5.282  -3.240  -0.881  0.00  0.00    +0.011 C 
ATOM     19  C   UNL     1       6.356  -3.742  -0.145  0.00  0.00    +0.058 C 
ENDBRANCH  12  14
ENDBRANCH   8  11
ENDBRANCH   3   8
BRANCH   2  20
ATOM     20  C   UNL     1      -2.204   2.952  -0.385  0.00  0.00    +0.094 C 
BRANCH  20  22
ATOM     21  N   UNL     1      -4.960  -0.322   0.105  0.00  0.00    -0.307 N 
ATOM     22  C   UNL     1      -3.027   1.829   0.240  0.00  0.00    +0.023 C 
ATOM     23  C   UNL     1      -2.687   0.480  -0.403  0.00  0.00    +0.023 C 
ATOM     24  C   UNL     1      -4.527   2.102   0.092  0.00  0.00    +0.023 C 
ATOM     25  C   UNL     1      -3.530  -0.649   0.187  0.00  0.00    +0.091 C 
ATOM     26  C   UNL     1      -5.367   0.966   0.676  0.00  0.00    +0.091 C 
BRANCH  21  28
ATOM     27  N   UNL     1      -7.691  -3.540   0.085  0.00  0.00    -0.242 NA
ATOM     28  C   UNL     1      -5.866  -1.390   0.098  0.00  0.00    +0.051 C 
ATOM     29  C   UNL     1      -5.824  -2.368  -0.907  0.00  0.00    +0.035 C 
ATOM     30  C   UNL     1      -6.845  -1.514   1.096  0.00  0.00    +0.035 C 
ATOM     31  C   UNL     1      -6.742  -3.405  -0.869  0.00  0.00    +0.100 C 
ATOM     32  C   UNL     1      -7.718  -2.588   1.045  0.00  0.00    +0.100 C 
ENDBRANCH  21  28
ENDBRANCH  20  22
ENDBRANCH   2  20
TORSDOF 6
