REMARK  Name = 24801863
REMARK  4 active torsions:
REMARK  status: ('A' for Active; 'I' for Inactive)
REMARK    1  A    between atoms: N_1  and  C_19
REMARK    2  A    between atoms: C_5  and  C_11
REMARK    3  A    between atoms: N_18  and  C_25
REMARK    4  A    between atoms: C_25  and  C_28
REMARK                            x       y       z     vdW  Elec       q    Type
REMARK                         _______ _______ _______ _____ _____    ______ ____
ROOT
ATOM      1  N   UNL     1      -0.804  -1.738   0.299  0.00  0.00    -0.270 N 
ATOM      2  N   UNL     1       1.444  -1.159   0.270  0.00  0.00    -0.336 NA
ATOM      3  N   UNL     1       0.659  -3.182  -0.778  0.00  0.00    -0.170 NA
ATOM      4  C   UNL     1       0.489  -2.039  -0.086  0.00  0.00    +0.145 C 
ATOM      5  C   UNL     1       2.693  -1.484  -0.122  0.00  0.00    +0.161 C 
ATOM      6  C   UNL     1       1.933  -3.445  -1.138  0.00  0.00    +0.114 C 
ATOM      7  C   UNL     1       3.000  -2.625  -0.835  0.00  0.00    +0.056 C 
ATOM      8  H   UNL     1      -1.522  -2.364   0.050  0.00  0.00    +0.159 HD
ENDROOT
BRANCH   5  11
ATOM      9  N   UNL     1       3.739   0.778  -0.115  0.00  0.00    -0.246 N 
ATOM     10  N   UNL     1       5.543   0.443   1.165  0.00  0.00    -0.227 NA
ATOM     11  C   UNL     1       3.709  -0.540   0.261  0.00  0.00    +0.107 C 
ATOM     12  C   UNL     1       4.877   1.337   0.462  0.00  0.00    +0.139 C 
ATOM     13  C   UNL     1       4.825  -0.719   1.044  0.00  0.00    +0.118 C 
ATOM     14  C   UNL     1       2.849   1.493  -0.911  0.00  0.00    +0.071 C 
ATOM     15  C   UNL     1       5.121   2.718   0.207  0.00  0.00    +0.035 C 
ATOM     16  C   UNL     1       3.086   2.794  -1.147  0.00  0.00    +0.017 C 
ATOM     17  C   UNL     1       4.264   3.416  -0.563  0.00  0.00    +0.004 C 
ENDBRANCH   5  11
BRANCH   1  19
ATOM     18  N   UNL     1      -3.693   0.487  -0.028  0.00  0.00    +0.393 N 
ATOM     19  C   UNL     1      -1.161  -0.549   1.050  0.00  0.00    +0.075 C 
ATOM     20  C   UNL     1      -2.503  -0.752   1.754  0.00  0.00    -0.003 C 
ATOM     21  C   UNL     1      -1.227   0.663   0.119  0.00  0.00    -0.003 C 
ATOM     22  C   UNL     1      -3.683  -0.742   0.776  0.00  0.00    -0.075 C 
ATOM     23  C   UNL     1      -2.452   0.625  -0.802  0.00  0.00    -0.075 C 
ATOM     24  H   UNL     1      -3.755   1.280   0.610  0.00  0.00    -0.079 HD
BRANCH  18  25
ATOM     25  C   UNL     1      -4.855   0.508  -0.916  0.00  0.00    +0.010 C 
BRANCH  25  28
ATOM     26  O   UNL     1      -6.002   1.718   0.832  0.00  0.00    -0.277 OA
ATOM     27  N   UNL     1      -7.239   0.389  -0.617  0.00  0.00    -0.304 N 
ATOM     28  C   UNL     1      -6.068   0.944  -0.121  0.00  0.00    +0.201 C 
ATOM     29  C   UNL     1      -8.544   0.662  -0.060  0.00  0.00    +0.111 C 
ATOM     30  H   UNL     1      -7.177  -0.222  -1.387  0.00  0.00    +0.149 HD
ENDBRANCH  25  28
ENDBRANCH  18  25
ENDBRANCH   1  19
TORSDOF 4
