REMARK  Name = 735838
REMARK  2 active torsions:
REMARK  status: ('A' for Active; 'I' for Inactive)
REMARK    1  A    between atoms: N_2  and  C_9
REMARK    2  A    between atoms: C_5  and  C_16
REMARK                            x       y       z     vdW  Elec       q    Type
REMARK                         _______ _______ _______ _____ _____    ______ ____
ROOT
ATOM      1  S   UNL     1       1.611   1.516   0.000  0.00  0.00    -0.053 S 
ATOM      2  N   UNL     1      -1.010   1.064  -0.001  0.00  0.00    -0.283 N 
ATOM      3  N   UNL     1       0.452  -0.795  -0.002  0.00  0.00    -0.388 NA
ATOM      4  C   UNL     1       1.816  -1.012  -0.001  0.00  0.00    +0.106 C 
ATOM      5  C   UNL     1       2.606   0.119   0.000  0.00  0.00    +0.160 C 
ATOM      6  C   UNL     1       0.272   0.480  -0.001  0.00  0.00    +0.211 C 
ATOM      7  C   UNL     1       2.296  -2.409   0.000  0.00  0.00    +0.063 C 
ATOM      8  H   UNL     1      -0.996   2.048  -0.002  0.00  0.00    +0.155 HD
ENDROOT
BRANCH   2   9
ATOM      9  C   UNL     1      -2.309   0.515  -0.001  0.00  0.00    +0.050 C 
ATOM     10  C   UNL     1      -3.422   1.356   0.000  0.00  0.00    +0.015 C 
ATOM     11  C   UNL     1      -2.481  -0.869   0.000  0.00  0.00    +0.015 C 
ATOM     12  C   UNL     1      -4.707   0.813   0.001  0.00  0.00    +0.001 C 
ATOM     13  C   UNL     1      -3.766  -1.412   0.001  0.00  0.00    +0.001 C 
ATOM     14  C   UNL     1      -4.879  -0.571   0.002  0.00  0.00    +0.000 C 
ENDBRANCH   2   9
BRANCH   5  16
ATOM     15  O   UNL     1       4.836  -0.705   0.002  0.00  0.00    -0.295 OA
ATOM     16  C   UNL     1       4.025   0.256   0.001  0.00  0.00    +0.168 C 
ATOM     17  C   UNL     1       4.660   1.652   0.001  0.00  0.00    +0.074 C 
ENDBRANCH   5  16
TORSDOF 2
