REMARK  Name = 23727981
REMARK  2 active torsions:
REMARK  status: ('A' for Active; 'I' for Inactive)
REMARK    1  A    between atoms: C_4  and  C_14
REMARK    2  A    between atoms: C_7  and  O_20
REMARK                            x       y       z     vdW  Elec       q    Type
REMARK                         _______ _______ _______ _____ _____    ______ ____
ROOT
ATOM      1  N   UNL     1       1.961   2.278   0.220  0.00  0.00    -0.297 N 
ATOM      2  N   UNL     1       3.689   0.600   0.253  0.00  0.00    -0.229 NA
ATOM      3  C   UNL     1       1.286   0.156   0.047  0.00  0.00    +0.069 C 
ATOM      4  C   UNL     1       0.148   1.005   0.010  0.00  0.00    +0.051 C 
ATOM      5  C   UNL     1       2.400   0.981   0.178  0.00  0.00    +0.135 C 
ATOM      6  C   UNL     1       0.594   2.304   0.118  0.00  0.00    +0.066 C 
ATOM      7  C   UNL     1       1.512  -1.228  -0.017  0.00  0.00    +0.143 C 
ATOM      8  C   UNL     1       2.829  -1.677   0.056  0.00  0.00    +0.058 C 
ATOM      9  C   UNL     1       3.847  -0.742   0.187  0.00  0.00    +0.103 C 
ATOM     10  H   UNL     1       2.539   3.070   0.310  0.00  0.00    +0.154 HD
ENDROOT
BRANCH   4  14
ATOM     11  N   UNL     1      -1.753  -0.103   0.859  0.00  0.00    -0.338 NA
ATOM     12  N   UNL     1      -3.885   0.009  -0.259  0.00  0.00    -0.170 NA
ATOM     13  N   UNL     1      -3.628  -1.215   1.726  0.00  0.00    -0.293 N 
ATOM     14  C   UNL     1      -1.244   0.681  -0.113  0.00  0.00    +0.147 C 
ATOM     15  C   UNL     1      -1.982   1.162  -1.176  0.00  0.00    +0.055 C 
ATOM     16  C   UNL     1      -3.310   0.789  -1.197  0.00  0.00    +0.114 C 
ATOM     17  C   UNL     1      -3.061  -0.396   0.726  0.00  0.00    +0.141 C 
ATOM     18  H   UNL     1      -3.072  -1.540   2.470  0.00  0.00    +0.155 HD
ATOM     19  H   UNL     1      -4.580  -1.461   1.679  0.00  0.00    +0.155 HD
ENDBRANCH   4  14
BRANCH   7  20
ATOM     20  O   UNL     1       0.490  -2.127  -0.146  0.00  0.00    -0.471 OA
ATOM     21  C   UNL     1       0.106  -2.477  -1.472  0.00  0.00    +0.252 C 
ENDBRANCH   7  20
TORSDOF 2
