REMARK  Name = 11840990
REMARK  7 active torsions:
REMARK  status: ('A' for Active; 'I' for Inactive)
REMARK    1  A    between atoms: N_1  and  N_3
REMARK    2  A    between atoms: N_1  and  C_13
REMARK    3  A    between atoms: N_3  and  C_8
REMARK    4  A    between atoms: N_6  and  C_9
REMARK    5  A    between atoms: N_7  and  C_10
REMARK    6  A    between atoms: C_15  and  C_20
REMARK    7  A    between atoms: C_20  and  O_21
REMARK                            x       y       z     vdW  Elec       q    Type
REMARK                         _______ _______ _______ _____ _____    ______ ____
ROOT
ATOM      1  N   UNL     1       0.469   0.092   0.003  0.00  0.00    -0.261 N 
ATOM      2  H   UNL     1       0.631   1.064   0.004  0.00  0.00    +0.168 HD
ENDROOT
BRANCH   1   3
ATOM      3  C   UNL     1      -0.854  -0.396   0.003  0.00  0.00    +0.060 C 
ATOM      4  C   UNL     1      -1.927   0.495   0.002  0.00  0.00    +0.022 C 
ATOM      5  C   UNL     1      -3.236   0.012   0.001  0.00  0.00    +0.077 C 
ATOM      6  C   UNL     1      -1.090  -1.771   0.003  0.00  0.00    +0.016 C 
ATOM      7  C   UNL     1      -3.471  -1.363   0.001  0.00  0.00    +0.007 C 
ATOM      8  C   UNL     1      -2.398  -2.254   0.002  0.00  0.00    +0.002 C 
BRANCH   5  10
ATOM      9  O   UNL     1      -4.263   2.173  -0.003  0.00  0.00    -0.245 OA
ATOM     10  C   UNL     1      -4.355   0.941  -0.002  0.00  0.00    +0.338 C 
BRANCH  10  11
ATOM     11  O   UNL     1      -5.558   0.305  -0.005  0.00  0.00    -0.477 OA
ATOM     12  H   UNL     1      -5.594  -0.631  -0.005  0.00  0.00    +0.295 HD
ENDBRANCH  10  11
ENDBRANCH   5  10
ENDBRANCH   1   3
BRANCH   1  13
ATOM     13  N   UNL     1       1.511  -0.756   0.000  0.00  0.00    -0.120 NA
BRANCH  13  16
ATOM     14  N   UNL     1       4.917   0.356  -0.002  0.00  0.00    -0.133 NA
ATOM     15  N   UNL     1       4.297   1.481   0.000  0.00  0.00    -0.133 NA
ATOM     16  C   UNL     1       2.652  -0.158   0.000  0.00  0.00    +0.207 C 
ATOM     17  C   UNL     1       4.013  -0.693  -0.003  0.00  0.00    +0.168 C 
ATOM     18  C   UNL     1       2.929   1.276   0.001  0.00  0.00    +0.168 C 
BRANCH  17  19
ATOM     19  N   UNL     1       4.328  -1.938  -0.005  0.00  0.00    -0.249 NA
ATOM     20  H   UNL     1       5.276  -2.206  -0.006  0.00  0.00    +0.171 HD
ENDBRANCH  17  19
BRANCH  18  21
ATOM     21  N   UNL     1       2.035   2.200   0.004  0.00  0.00    -0.249 NA
ATOM     22  H   UNL     1       2.305   3.146   0.005  0.00  0.00    +0.171 HD
ENDBRANCH  18  21
ENDBRANCH  13  16
ENDBRANCH   1  13
TORSDOF 7
