REMARK  Name = 46937131
REMARK  4 active torsions:
REMARK  status: ('A' for Active; 'I' for Inactive)
REMARK    1  A    between atoms: C_2  and  C_15
REMARK    2  A    between atoms: C_16  and  C_18
REMARK    3  A    between atoms: CA_17  and  C_22
REMARK    4  A    between atoms: C_22  and  O_23
REMARK                            x       y       z     vdW  Elec       q    Type
REMARK                         _______ _______ _______ _____ _____    ______ ____
ROOT
ATOM      1  N   UNL     1       1.349   0.139   1.629  0.00  0.00    +0.393 N 
ATOM      2  C   UNL     1       0.853   0.552   0.305  0.00  0.00    +0.003 C 
ATOM      3  C   UNL     1       1.651  -0.158  -0.807  0.00  0.00    +0.012 C 
ATOM      4  C   UNL     1       3.142  -0.071  -0.589  0.00  0.00    -0.030 C 
ATOM      5  C   UNL     1       2.733   0.589   1.822  0.00  0.00    -0.054 C 
ATOM      6  C   UNL     1       3.658   0.244   0.680  0.00  0.00    -0.048 C 
ATOM      7  C   UNL     1       4.021  -0.363  -1.641  0.00  0.00    -0.005 C 
ATOM      8  C   UNL     1       5.045   0.297   0.868  0.00  0.00    -0.007 C 
ATOM      9  C   UNL     1       5.400  -0.317  -1.441  0.00  0.00    -0.000 C 
ATOM     10  C   UNL     1       5.912   0.015  -0.189  0.00  0.00    -0.000 C 
ATOM     11  H   UNL     1       1.313  -0.878   1.699  0.00  0.00    -0.083 HD
ATOM     12  H   UNL     1       0.761   0.561   2.348  0.00  0.00    -0.083 HD
ENDROOT
BRANCH   2  15
ATOM     13  S   UNL     1      -1.683   1.648  -0.086  0.00  0.00    -0.082 S 
ATOM     14  N   UNL     1      -1.210  -0.874   0.229  0.00  0.00    -0.399 NA
ATOM     15  C   UNL     1      -0.640   0.309   0.168  0.00  0.00    +0.115 C 
ATOM     16  C   UNL     1      -3.017   0.571  -0.121  0.00  0.00    +0.113 C 
ATOM     17  CA  UNL     1      -2.573  -0.722   0.064  0.00  0.00    +0.194 C 
BRANCH  16  18
ATOM     18  C   UNL     1      -4.384   1.091  -0.326  0.00  0.00    +0.017 C 
ATOM     19  C   UNL     1      -4.566   1.787  -1.694  0.00  0.00    +0.001 C 
ATOM     20  C   UNL     1      -4.840   2.049   0.798  0.00  0.00    +0.001 C 
ENDBRANCH  16  18
BRANCH  17  22
ATOM     21  OXT UNL     1      -4.669  -1.870  -0.046  0.00  0.00    -0.243 OA
ATOM     22  C   UNL     1      -3.431  -1.874   0.090  0.00  0.00    +0.365 C 
BRANCH  22  23
ATOM     23  O   UNL     1      -2.753  -3.046   0.288  0.00  0.00    -0.476 OA
ATOM     24  H   UNL     1      -1.821  -3.036   0.389  0.00  0.00    +0.295 HD
ENDBRANCH  22  23
ENDBRANCH  17  22
ENDBRANCH   2  15
TORSDOF 4
