15939606
  -OEChem-10051721173D

 24 25  0     0  0  0  0  0  0999 V2000
   -3.1914   -0.1001   -0.0002 S   0  0  0  0  0  0  0  0  0  0  0  0
   -3.5395   -0.1474   -1.4283 O   0  5  0  0  0  0  0  0  0  0  0  0
   -3.4252   -1.3698    0.7072 O   0  0  0  0  0  0  0  0  0  0  0  0
   -3.7059    1.0762    0.7174 O   0  0  0  0  0  0  0  0  0  0  0  0
    3.3250    1.9983    0.0002 N   0  3  0  0  0  0  0  0  0  0  0  0
    1.3221    0.5090    0.0001 C   0  0  0  0  0  0  0  0  0  0  0  0
    0.7853   -0.8004    0.0008 C   0  0  0  0  0  0  0  0  0  0  0  0
    2.7160    0.6799    0.0007 C   0  0  0  0  0  0  0  0  0  0  0  0
   -1.4612    0.1332   -0.0013 C   0  0  0  0  0  0  0  0  0  0  0  0
   -0.6087   -0.9713    0.0001 C   0  0  0  0  0  0  0  0  0  0  0  0
    0.4491    1.6091   -0.0013 C   0  0  0  0  0  0  0  0  0  0  0  0
    1.6583   -1.9006    0.0021 C   0  0  0  0  0  0  0  0  0  0  0  0
   -0.9333    1.4208   -0.0019 C   0  0  0  0  0  0  0  0  0  0  0  0
    3.5686   -0.4246    0.0019 C   0  0  0  0  0  0  0  0  0  0  0  0
    3.0407   -1.7122    0.0026 C   0  0  0  0  0  0  0  0  0  0  0  0
   -1.0210   -1.9785   -0.0082 H   0  0  0  0  0  0  0  0  0  0  0  0
    0.8182    2.6318   -0.0042 H   0  0  0  0  0  0  0  0  0  0  0  0
   -1.5767    2.2962   -0.0133 H   0  0  0  0  0  0  0  0  0  0  0  0
    1.2682   -2.9163    0.0026 H   0  0  0  0  0  0  0  0  0  0  0  0
    4.6481   -0.2970    0.0025 H   0  0  0  0  0  0  0  0  0  0  0  0
    3.7048   -2.5718    0.0037 H   0  0  0  0  0  0  0  0  0  0  0  0
    3.0352    2.5209    0.8366 H   0  0  0  0  0  0  0  0  0  0  0  0
    4.3508    1.9352    0.0017 H   0  0  0  0  0  0  0  0  0  0  0  0
    3.0374    2.5193   -0.8378 H   0  0  0  0  0  0  0  0  0  0  0  0
  1  2  1  0  0  0  0
  1  3  2  0  0  0  0
  1  4  2  0  0  0  0
  1  9  1  0  0  0  0
  5  8  1  0  0  0  0
  5 22  1  0  0  0  0
  5 23  1  0  0  0  0
  5 24  1  0  0  0  0
  6  7  2  0  0  0  0
  6  8  1  0  0  0  0
  6 11  1  0  0  0  0
  7 10  1  0  0  0  0
  7 12  1  0  0  0  0
  8 14  2  0  0  0  0
  9 10  2  0  0  0  0
  9 13  1  0  0  0  0
 10 16  1  0  0  0  0
 11 13  2  0  0  0  0
 11 17  1  0  0  0  0
 12 15  2  0  0  0  0
 12 19  1  0  0  0  0
 13 18  1  0  0  0  0
 14 15  1  0  0  0  0
 14 20  1  0  0  0  0
 15 21  1  0  0  0  0
M  CHG  2   2  -1   5   1
M  END
> <DATABASE_ID>
DB08238

> <DATABASE_NAME>
drugbank

> <ORIGINAL_SOURCE>
PUBCHEM

> <ORIGINAL_SOURCE_URL>
https://pubchem.ncbi.nlm.nih.gov/rest/pug/compound/inchikey/UWPJYQYRSWYIGZ-UHFFFAOYSA-N/SDF?record_type=3d

> <SMILES>
NC1=CC=CC2=CC(=CC=C12)S(O)(=O)=O

> <INCHI_IDENTIFIER>
InChI=1S/C10H9NO3S/c11-10-3-1-2-7-6-8(15(12,13)14)4-5-9(7)10/h1-6H,11H2,(H,12,13,14)

> <INCHI_KEY>
UWPJYQYRSWYIGZ-UHFFFAOYSA-N

> <FORMULA>
C10H9NO3S

> <MOLECULAR_WEIGHT>
223.248

> <EXACT_MASS>
223.030313849

> <JCHEM_ACCEPTOR_COUNT>
4

> <JCHEM_AVERAGE_POLARIZABILITY>
21.723674329689462

> <JCHEM_BIOAVAILABILITY>
1

> <JCHEM_DONOR_COUNT>
2

> <JCHEM_FORMAL_CHARGE>
0

> <JCHEM_GHOSE_FILTER>
1

> <JCHEM_IUPAC>
5-aminonaphthalene-2-sulfonic acid

> <ALOGPS_LOGP>
-0.81

> <JCHEM_LOGP>
1.091967571267071

> <ALOGPS_LOGS>
-2.54

> <JCHEM_MDDR_LIKE_RULE>
0

> <JCHEM_NUMBER_OF_RINGS>
2

> <JCHEM_PHYSIOLOGICAL_CHARGE>
-1

> <JCHEM_PKA_STRONGEST_ACIDIC>
-2.188718055366758

> <JCHEM_PKA_STRONGEST_BASIC>
3.5837172333130196

> <JCHEM_POLAR_SURFACE_AREA>
80.39

> <JCHEM_REFRACTIVITY>
57.83110000000001

> <JCHEM_ROTATABLE_BOND_COUNT>
1

> <JCHEM_RULE_OF_FIVE>
1

> <ALOGPS_SOLUBILITY>
6.44e-01 g/l

> <JCHEM_TRADITIONAL_IUPAC>
cleve Î²-acid

> <JCHEM_VEBER_RULE>
0

> <DRUGBANK_ID>
DB08238

> <DRUG_GROUPS>
experimental

> <GENERIC_NAME>
5-AMINO-NAPHTALENE-2-MONOSULFONATE

$$$$
