REMARK  Name = 6469
REMARK  4 active torsions:
REMARK  status: ('A' for Active; 'I' for Inactive)
REMARK    1  A    between atoms: C_2  and  C_10
REMARK    2  A    between atoms: C_2  and  C_17
REMARK    3  A    between atoms: C_17  and  O_18
REMARK    4  A    between atoms: O_18  and  C_19
REMARK                            x       y       z     vdW  Elec       q    Type
REMARK                         _______ _______ _______ _____ _____    ______ ____
ROOT
ATOM      1  N   UNL     1       3.442   0.105   0.648  0.00  0.00    +0.386 N 
ATOM      2  C   UNL     1       0.193  -0.155  -0.292  0.00  0.00    +0.106 C 
ATOM      3  C   UNL     1       1.057   0.242  -1.516  0.00  0.00    +0.012 C 
ATOM      4  C   UNL     1       1.027  -0.393   0.995  0.00  0.00    -0.008 C 
ATOM      5  C   UNL     1       2.428  -0.431  -1.610  0.00  0.00    -0.022 C 
ATOM      6  C   UNL     1       2.186   0.582   1.241  0.00  0.00    -0.077 C 
ATOM      7  C   UNL     1       3.514   0.287  -0.805  0.00  0.00    -0.077 C 
ATOM      8  C   UNL     1       4.583   0.774   1.282  0.00  0.00    -0.101 C 
ATOM      9  H   UNL     1       3.472  -0.900   0.820  0.00  0.00    -0.080 HD
ENDROOT
BRANCH   2  10
ATOM     10  C   UNL     1      -0.937   0.885  -0.150  0.00  0.00    -0.013 C 
ATOM     11  C   UNL     1      -1.805   1.107  -1.213  0.00  0.00    -0.004 C 
ATOM     12  C   UNL     1      -1.077   1.591   1.040  0.00  0.00    -0.004 C 
ATOM     13  C   UNL     1      -2.827   2.047  -1.084  0.00  0.00    -0.000 C 
ATOM     14  C   UNL     1      -2.099   2.531   1.168  0.00  0.00    -0.000 C 
ATOM     15  C   UNL     1      -2.974   2.760   0.106  0.00  0.00    -0.000 C 
ENDBRANCH   2  10
BRANCH   2  17
ATOM     16  O   UNL     1      -0.237  -2.167  -1.578  0.00  0.00    -0.250 OA
ATOM     17  C   UNL     1      -0.447  -1.504  -0.571  0.00  0.00    +0.320 C 
BRANCH  17  18
ATOM     18  O   UNL     1      -1.270  -1.841   0.463  0.00  0.00    -0.448 OA
BRANCH  18  19
ATOM     19  C   UNL     1      -1.942  -3.097   0.329  0.00  0.00    +0.209 C 
ATOM     20  C   UNL     1      -2.812  -3.323   1.548  0.00  0.00    +0.051 C 
ENDBRANCH  18  19
ENDBRANCH  17  18
ENDBRANCH   2  17
TORSDOF 4
