REMARK  Name = 12818200
REMARK  4 active torsions:
REMARK  status: ('A' for Active; 'I' for Inactive)
REMARK    1  A    between atoms: N_2  and  C_11
REMARK    2  A    between atoms: N_3  and  S_19
REMARK    3  A    between atoms: C_10  and  O_17
REMARK    4  A    between atoms: S_19  and  C_22
REMARK                            x       y       z     vdW  Elec       q    Type
REMARK                         _______ _______ _______ _____ _____    ______ ____
ROOT
ATOM      1  O   UNL     1       0.377   0.992  -1.638  0.00  0.00    -0.251 OA
ATOM      2  N   UNL     1      -0.998   1.098   0.218  0.00  0.00    -0.287 N 
ATOM      3  N   UNL     1       1.254   1.745   0.392  0.00  0.00    -0.169 N 
ATOM      4  C   UNL     1       0.207   1.251  -0.451  0.00  0.00    +0.319 C 
ATOM      5  H   UNL     1      -1.035   1.333   1.174  0.00  0.00    +0.151 HD
ATOM      6  H   UNL     1       1.029   1.923   1.334  0.00  0.00    +0.178 HD
ENDROOT
BRANCH   2  11
ATOM      7  C   UNL     1      -4.303  -0.202   0.483  0.00  0.00    +0.026 C 
ATOM      8  C   UNL     1      -3.877  -1.124  -0.702  0.00  0.00    +0.004 C 
ATOM      9  C   UNL     1      -2.371  -0.931  -0.356  0.00  0.00    +0.021 C 
ATOM     10  C   UNL     1      -3.529   1.122   0.180  0.00  0.00    +0.128 C 
ATOM     11  C   UNL     1      -2.192   0.612  -0.411  0.00  0.00    +0.100 C 
ATOM     12  C   UNL     1      -3.631  -0.888   1.704  0.00  0.00    +0.002 C 
ATOM     13  C   UNL     1      -2.296  -1.382   1.124  0.00  0.00    +0.002 C 
ATOM     14  C   UNL     1      -5.792   0.013   0.687  0.00  0.00    +0.002 C 
ATOM     15  C   UNL     1      -4.280  -0.634  -2.108  0.00  0.00    +0.000 C 
ATOM     16  C   UNL     1      -4.361  -2.587  -0.615  0.00  0.00    +0.000 C 
BRANCH  10  17
ATOM     17  O   UNL     1      -3.398   1.974   1.303  0.00  0.00    -0.383 OA
ATOM     18  H   UNL     1      -4.278   2.245   1.608  0.00  0.00    +0.210 HD
ENDBRANCH  10  17
ENDBRANCH   2  11
BRANCH   3  19
ATOM     19  S   UNL     1       2.861   2.051  -0.103  0.00  0.00    +0.077 S 
ATOM     20  O   UNL     1       2.867   2.448  -1.498  0.00  0.00    -0.150 OA
ATOM     21  O   UNL     1       3.522   2.867   0.897  0.00  0.00    -0.150 OA
BRANCH  19  22
ATOM     22  C   UNL     1       3.564   0.433   0.012  0.00  0.00    +0.125 C 
ATOM     23  C   UNL     1       3.521  -0.403  -1.091  0.00  0.00    +0.020 C 
ATOM     24  C   UNL     1       4.146   0.032   1.202  0.00  0.00    +0.020 C 
ATOM     25  C   UNL     1       4.077  -1.678  -1.000  0.00  0.00    -0.003 C 
ATOM     26  C   UNL     1       4.702  -1.244   1.292  0.00  0.00    -0.003 C 
ATOM     27  C   UNL     1       4.668  -2.099   0.191  0.00  0.00    -0.022 C 
ATOM     28  C   UNL     1       5.262  -3.464   0.288  0.00  0.00    +0.031 C 
ENDBRANCH  19  22
ENDBRANCH   3  19
TORSDOF 4
