REMARK  Name = 15991577
REMARK  8 active torsions:
REMARK  status: ('A' for Active; 'I' for Inactive)
REMARK    1  A    between atoms: C_1  and  N_3
REMARK    2  A    between atoms: C_1  and  C_16
REMARK    3  A    between atoms: N_3  and  C_6
REMARK    4  A    between atoms: C_6  and  C_8
REMARK    5  A    between atoms: C_8  and  C_10
REMARK    6  A    between atoms: C_16  and  C_17
REMARK    7  A    between atoms: C_17  and  C_18
REMARK    8  A    between atoms: C_23  and  C_26
REMARK                            x       y       z     vdW  Elec       q    Type
REMARK                         _______ _______ _______ _____ _____    ______ ____
ROOT
ATOM      1  C   UNL     1       0.278   2.983  -0.927  0.00  0.00    -0.061 C 
ATOM      2  C   UNL     1      -0.202   4.385  -0.549  0.00  0.00    -0.023 C 
ENDROOT
BRANCH   1   3
ATOM      3  N   UNL     1       1.267   2.525   0.050  0.00  0.00    +0.390 N 
ATOM      4  H   UNL     1       0.841   2.511   0.976  0.00  0.00    -0.084 HD
ATOM      5  H   UNL     1       2.063   3.162   0.035  0.00  0.00    -0.084 HD
BRANCH   3   6
ATOM      6  C   UNL     1       1.733   1.187  -0.280  0.00  0.00    -0.011 C 
BRANCH   6   8
ATOM      7  O   UNL     1       2.727   1.140   1.919  0.00  0.00    -0.294 OA
ATOM      8  C   UNL     1       2.753   0.749   0.754  0.00  0.00    +0.152 C 
BRANCH   8  10
ATOM      9  F   UNL     1       6.782  -2.782  -0.822  0.00  0.00    -0.204 F 
ATOM     10  C   UNL     1       3.830  -0.197   0.334  0.00  0.00    +0.033 C 
ATOM     11  C   UNL     1       3.561  -1.095  -0.673  0.00  0.00    +0.005 C 
ATOM     12  C   UNL     1       5.049  -0.131   0.968  0.00  0.00    +0.005 C 
ATOM     13  C   UNL     1       4.568  -1.977  -1.067  0.00  0.00    +0.030 C 
ATOM     14  C   UNL     1       6.056  -1.013   0.574  0.00  0.00    +0.030 C 
ATOM     15  C   UNL     1       5.815  -1.936  -0.443  0.00  0.00    +0.140 C 
ENDBRANCH   8  10
ENDBRANCH   6   8
ENDBRANCH   3   6
ENDBRANCH   1   3
BRANCH   1  16
ATOM     16  C   UNL     1      -0.913   2.010  -1.002  0.00  0.00    -0.017 C 
BRANCH  16  17
ATOM     17  C   UNL     1      -1.660   1.796   0.323  0.00  0.00    +0.024 C 
BRANCH  17  18
ATOM     18  C   UNL     1      -2.779   0.789   0.237  0.00  0.00    -0.022 C 
ATOM     19  C   UNL     1      -4.056   1.216  -0.095  0.00  0.00    -0.004 C 
ATOM     20  C   UNL     1      -2.513  -0.548   0.491  0.00  0.00    -0.004 C 
ATOM     21  C   UNL     1      -5.091   0.284  -0.175  0.00  0.00    +0.004 C 
ATOM     22  C   UNL     1      -3.547  -1.480   0.411  0.00  0.00    +0.004 C 
ATOM     23  C   UNL     1      -4.837  -1.064   0.078  0.00  0.00    +0.053 C 
BRANCH  23  26
ATOM     24  O   UNL     1      -5.723  -3.240   0.233  0.00  0.00    -0.270 OA
ATOM     25  N   UNL     1      -7.184  -1.567  -0.338  0.00  0.00    -0.325 N 
ATOM     26  C   UNL     1      -5.916  -2.035  -0.003  0.00  0.00    +0.243 C 
ATOM     27  H   UNL     1      -7.939  -2.196  -0.403  0.00  0.00    +0.145 HD
ATOM     28  H   UNL     1      -7.325  -0.608  -0.510  0.00  0.00    +0.145 HD
ENDBRANCH  23  26
ENDBRANCH  17  18
ENDBRANCH  16  17
ENDBRANCH   1  16
TORSDOF 8
