REMARK  Name = 19989057
REMARK  2 active torsions:
REMARK  status: ('A' for Active; 'I' for Inactive)
REMARK    1  A    between atoms: N_1  and  O_18
REMARK    2  A    between atoms: C_4  and  N_13
REMARK                            x       y       z     vdW  Elec       q    Type
REMARK                         _______ _______ _______ _____ _____    ______ ____
ROOT
ATOM      1  N   UNL     1      -2.408  -0.014  -0.393  0.00  0.00    -0.175 NA
ATOM      2  C   UNL     1      -1.815  -1.281   0.067  0.00  0.00    +0.071 C 
ATOM      3  C   UNL     1      -1.821   1.282  -0.012  0.00  0.00    +0.071 C 
ATOM      4  C   UNL     1       0.378   0.017   0.382  0.00  0.00    +0.086 C 
ATOM      5  C   UNL     1      -0.284  -1.249  -0.167  0.00  0.00    +0.037 C 
ATOM      6  C   UNL     1      -0.290   1.244  -0.244  0.00  0.00    +0.037 C 
ATOM      7  C   UNL     1      -2.392  -2.413  -0.817  0.00  0.00    +0.018 C 
ATOM      8  C   UNL     1      -2.107  -1.657   1.534  0.00  0.00    +0.018 C 
ATOM      9  C   UNL     1      -2.403   2.355  -0.964  0.00  0.00    +0.018 C 
ATOM     10  C   UNL     1      -2.116   1.747   1.429  0.00  0.00    +0.018 C 
ENDROOT
BRANCH   4  13
ATOM     11  O   UNL     1       2.618   0.076   2.290  0.00  0.00    -0.269 OA
ATOM     12  O   UNL     1       1.688  -0.094  -2.233  0.00  0.00    -0.269 OA
ATOM     13  N   UNL     1       1.795   0.012   0.100  0.00  0.00    -0.224 N 
ATOM     14  C   UNL     1       2.770   0.042   1.076  0.00  0.00    +0.255 C 
ATOM     15  C   UNL     1       2.308  -0.043  -1.180  0.00  0.00    +0.255 C 
ATOM     16  C   UNL     1       4.111   0.019   0.401  0.00  0.00    +0.063 C 
ATOM     17  C   UNL     1       3.806  -0.033  -1.087  0.00  0.00    +0.063 C 
ENDBRANCH   4  13
BRANCH   1  18
ATOM     18  O   UNL     1      -3.839  -0.011  -0.183  0.00  0.00    -0.311 OA
ATOM     19  H   UNL     1      -4.206  -0.872  -0.439  0.00  0.00    +0.237 HD
ENDBRANCH   1  18
TORSDOF 2
