REMARK  Name = 24905144
REMARK  1 active torsions:
REMARK  status: ('A' for Active; 'I' for Inactive)
REMARK    1  A    between atoms: C_5  and  C_11
REMARK                            x       y       z     vdW  Elec       q    Type
REMARK                         _______ _______ _______ _____ _____    ______ ____
ROOT
ATOM      1  N   UNL     1       2.789  -1.704  -0.150  0.00  0.00    -0.196 N 
ATOM      2  N   UNL     1       1.469  -1.899   0.027  0.00  0.00    -0.180 NA
ATOM      3  N   UNL     1       4.388   0.106  -0.310  0.00  0.00    -0.231 NA
ATOM      4  N   UNL     1       3.311   2.284  -0.087  0.00  0.00    -0.234 NA
ATOM      5  C   UNL     1       0.983  -0.657   0.136  0.00  0.00    +0.090 C 
ATOM      6  C   UNL     1       1.982   0.328   0.031  0.00  0.00    +0.150 C 
ATOM      7  C   UNL     1       3.150  -0.390  -0.155  0.00  0.00    +0.137 C 
ATOM      8  C   UNL     1       2.091   1.714   0.063  0.00  0.00    +0.112 C 
ATOM      9  C   UNL     1       3.661  -2.844  -0.309  0.00  0.00    +0.141 C 
ATOM     10  C   UNL     1       4.369   1.456  -0.262  0.00  0.00    +0.252 C 
ATOM     11  N   UNL     1       0.961   2.531   0.249  0.00  0.00    -0.346 N 
ATOM     12  H   UNL     1       1.059   3.511   0.269  0.00  0.00    +0.143 HD
ATOM     13  H   UNL     1       0.071   2.124   0.359  0.00  0.00    +0.143 HD
ENDROOT
BRANCH   5  14
ATOM     14  C   UNL     1      -0.425  -0.457   0.338  0.00  0.00    +0.016 C 
ATOM     15  C   UNL     1      -2.653  -0.121  -0.580  0.00  0.00    +0.000 C 
ATOM     16  C   UNL     1      -1.274  -0.319  -0.760  0.00  0.00    +0.001 C 
ATOM     17  C   UNL     1      -3.178  -0.064   0.733  0.00  0.00    +0.000 C 
ATOM     18  C   UNL     1      -0.941  -0.400   1.629  0.00  0.00    +0.001 C 
ATOM     19  C   UNL     1      -2.308  -0.205   1.827  0.00  0.00    +0.000 C 
ATOM     20  C   UNL     1      -3.522   0.019  -1.674  0.00  0.00    +0.000 C 
ATOM     21  C   UNL     1      -4.556   0.134   0.914  0.00  0.00    +0.000 C 
ATOM     22  C   UNL     1      -4.889   0.215  -1.476  0.00  0.00    +0.000 C 
ATOM     23  C   UNL     1      -5.405   0.272  -0.185  0.00  0.00    +0.000 C 
ENDBRANCH   5  14
TORSDOF 1
