REMARK  Name = 16122642
REMARK  7 active torsions:
REMARK  status: ('A' for Active; 'I' for Inactive)
REMARK    1  A    between atoms: C_2  and  C_10
REMARK    2  A    between atoms: C_3  and  O_18
REMARK    3  A    between atoms: O_18  and  C_19
REMARK    4  A    between atoms: C_19  and  C_20
REMARK    5  A    between atoms: C_20  and  N_21
REMARK    6  A    between atoms: C_20  and  C_25
REMARK    7  A    between atoms: C_25  and  C_27
REMARK                            x       y       z     vdW  Elec       q    Type
REMARK                         _______ _______ _______ _____ _____    ______ ____
ROOT
ATOM      1  N   UNL     1       1.060   3.888   1.715  0.00  0.00    -0.239 NA
ATOM      2  C   UNL     1       1.717   1.904   0.512  0.00  0.00    +0.022 C 
ATOM      3  C   UNL     1      -0.438   2.879   0.108  0.00  0.00    +0.158 C 
ATOM      4  C   UNL     1       0.503   1.890  -0.158  0.00  0.00    +0.040 C 
ATOM      5  C   UNL     1       1.950   2.911   1.429  0.00  0.00    +0.099 C 
ATOM      6  C   UNL     1      -0.113   3.847   1.045  0.00  0.00    +0.136 C 
ENDROOT
BRANCH   2  10
ATOM      7  N   UNL     1       4.568  -2.975  -0.792  0.00  0.00    -0.280 N 
ATOM      8  N   UNL     1       5.481  -2.033  -0.485  0.00  0.00    -0.173 NA
ATOM      9  C   UNL     1       3.354  -1.249  -0.338  0.00  0.00    +0.032 A 
ATOM     10  C   UNL     1       2.719   0.886   0.255  0.00  0.00    +0.002 C 
ATOM     11  C   UNL     1       4.756  -0.938  -0.196  0.00  0.00    +0.102 A 
ATOM     12  C   UNL     1       2.278  -0.395  -0.132  0.00  0.00    +0.003 C 
ATOM     13  C   UNL     1       3.271  -2.558  -0.720  0.00  0.00    +0.053 A 
ATOM     14  C   UNL     1       4.095   1.244   0.410  0.00  0.00    +0.002 C 
ATOM     15  C   UNL     1       5.167   0.351   0.192  0.00  0.00    +0.021 C 
ATOM     16  C   UNL     1       2.144  -3.456  -1.023  0.00  0.00    +0.051 C 
ATOM     17  H   UNL     1       4.817  -3.892  -1.047  0.00  0.00    +0.189 HD
ENDBRANCH   2  10
BRANCH   3  18
ATOM     18  O   UNL     1      -1.634   2.895  -0.529  0.00  0.00    -0.476 OA
BRANCH  18  19
ATOM     19  C   UNL     1      -2.177   1.637  -0.936  0.00  0.00    +0.184 C 
BRANCH  19  20
ATOM     20  C   UNL     1      -3.708   1.712  -0.992  0.00  0.00    -0.017 C 
BRANCH  20  21
ATOM     21  N   UNL     1      -4.084   2.763  -1.942  0.00  0.00    +0.384 N 
ATOM     22  H   UNL     1      -5.100   2.827  -1.993  0.00  0.00    -0.089 HD
ATOM     23  H   UNL     1      -3.711   2.537  -2.864  0.00  0.00    -0.089 HD
ATOM     24  H   UNL     1      -3.702   3.656  -1.630  0.00  0.00    -0.089 HD
ENDBRANCH  20  21
BRANCH  20  25
ATOM     25  C   UNL     1      -4.364   0.391  -1.447  0.00  0.00    +0.008 C 
BRANCH  25  27
ATOM     26 BR   UNL     1      -3.314  -4.422   2.269  0.00  0.00    -0.049 Br
ATOM     27  C   UNL     1      -4.106  -0.786  -0.538  0.00  0.00    -0.024 C 
ATOM     28  C   UNL     1      -3.000  -1.590  -0.764  0.00  0.00    -0.004 C 
ATOM     29  C   UNL     1      -4.981  -1.041   0.505  0.00  0.00    -0.004 C 
ATOM     30  C   UNL     1      -2.763  -2.678   0.076  0.00  0.00    +0.006 C 
ATOM     31  C   UNL     1      -4.744  -2.129   1.345  0.00  0.00    +0.006 C 
ATOM     32  C   UNL     1      -3.635  -2.947   1.131  0.00  0.00    +0.035 C 
ENDBRANCH  25  27
ENDBRANCH  20  25
ENDBRANCH  19  20
ENDBRANCH  18  19
ENDBRANCH   3  18
TORSDOF 7
