REMARK  Name = 6420149
REMARK  6 active torsions:
REMARK  status: ('A' for Active; 'I' for Inactive)
REMARK    1  A    between atoms: C_1  and  C_11
REMARK    2  A    between atoms: C_2  and  N_7
REMARK    3  A    between atoms: C_11  and  C_12
REMARK    4  A    between atoms: C_12  and  C_13
REMARK    5  A    between atoms: C_13  and  C_15
REMARK    6  A    between atoms: C_15  and  O_16
REMARK                            x       y       z     vdW  Elec       q    Type
REMARK                         _______ _______ _______ _____ _____    ______ ____
ROOT
ATOM      1  C   UNL     1      -1.224  -0.010   0.202  0.00  0.00    +0.048 C 
ATOM      2  C   UNL     1      -2.248  -0.815  -0.244  0.00  0.00    +0.044 C 
ATOM      3  C   UNL     1      -1.377   1.347   0.395  0.00  0.00    +0.004 C 
ATOM      4  C   UNL     1      -3.488  -0.235  -0.512  0.00  0.00    +0.014 C 
ATOM      5  C   UNL     1      -2.617   1.926   0.127  0.00  0.00    +0.000 C 
ATOM      6  C   UNL     1      -3.673   1.135  -0.327  0.00  0.00    +0.001 C 
ENDROOT
BRANCH   2   7
ATOM      7  N   UNL     1      -2.082  -2.204  -0.439  0.00  0.00    -0.357 N 
ATOM      8  H   UNL     1      -1.212  -2.627  -0.254  0.00  0.00    +0.142 HD
ATOM      9  H   UNL     1      -2.836  -2.750  -0.760  0.00  0.00    +0.142 HD
ENDBRANCH   2   7
BRANCH   1  11
ATOM     10  O   UNL     1       0.188  -1.764   0.881  0.00  0.00    -0.291 OA
ATOM     11  C   UNL     1       0.116  -0.598   0.498  0.00  0.00    +0.175 C 
BRANCH  11  12
ATOM     12  C   UNL     1       1.351   0.269   0.313  0.00  0.00    +0.081 C 
BRANCH  12  13
ATOM     13  C   UNL     1       2.584  -0.555  -0.044  0.00  0.00    +0.117 C 
BRANCH  13  15
ATOM     14  O   UNL     1       3.780   1.543  -0.057  0.00  0.00    -0.250 OA
ATOM     15  C   UNL     1       3.792   0.329  -0.215  0.00  0.00    +0.314 C 
BRANCH  15  16
ATOM     16  O   UNL     1       4.898  -0.367  -0.577  0.00  0.00    -0.480 OA
ATOM     17  H   UNL     1       4.853  -1.297  -0.684  0.00  0.00    +0.295 HD
ENDBRANCH  15  16
ENDBRANCH  13  15
ENDBRANCH  12  13
ENDBRANCH  11  12
ENDBRANCH   1  11
TORSDOF 6
