REMARK  Name = 6420130
REMARK  2 active torsions:
REMARK  status: ('A' for Active; 'I' for Inactive)
REMARK    1  A    between atoms: C_1  and  N_11
REMARK    2  A    between atoms: C_2  and  O_15
REMARK                            x       y       z     vdW  Elec       q    Type
REMARK                         _______ _______ _______ _____ _____    ______ ____
ROOT
ATOM      1  C   UNL     1      -2.129  -0.144   0.226  0.00  0.00    -0.034 C 
ATOM      2  C   UNL     1      -1.107   0.917  -0.223  0.00  0.00    +0.113 C 
ATOM      3  C   UNL     1      -1.747  -1.522  -0.313  0.00  0.00    -0.015 C 
ATOM      4  C   UNL     1      -0.393  -1.948   0.248  0.00  0.00    +0.024 C 
ATOM      5  C   UNL     1       0.334   0.463  -0.109  0.00  0.00    -0.002 C 
ATOM      6  C   UNL     1       0.667  -0.891   0.084  0.00  0.00    -0.024 C 
ATOM      7  C   UNL     1       1.370   1.402  -0.261  0.00  0.00    -0.002 C 
ATOM      8  C   UNL     1       2.017  -1.268   0.173  0.00  0.00    -0.005 C 
ATOM      9  C   UNL     1       2.708   1.013  -0.184  0.00  0.00    -0.000 C 
ATOM     10  C   UNL     1       3.031  -0.321   0.039  0.00  0.00    -0.000 C 
ENDROOT
BRANCH   1  11
ATOM     11  N   UNL     1      -3.465   0.210  -0.259  0.00  0.00    +0.384 N 
ATOM     12  H   UNL     1      -3.724   1.130   0.099  0.00  0.00    -0.089 HD
ATOM     13  H   UNL     1      -4.139  -0.483   0.065  0.00  0.00    -0.089 HD
ATOM     14  H   UNL     1      -3.462   0.231  -1.279  0.00  0.00    -0.089 HD
ENDBRANCH   1  11
BRANCH   2  15
ATOM     15  O   UNL     1      -1.286   2.086   0.579  0.00  0.00    -0.382 OA
ATOM     16  H   UNL     1      -2.206   2.386   0.514  0.00  0.00    +0.211 HD
ENDBRANCH   2  15
TORSDOF 2
