REMARK  Name = 7020128
REMARK  7 active torsions:
REMARK  status: ('A' for Active; 'I' for Inactive)
REMARK    1  A    between atoms: C_1  and  C_15
REMARK    2  A    between atoms: C_4  and  C_8
REMARK    3  A    between atoms: C_8  and  C_9
REMARK    4  A    between atoms: C_15  and  CA_16
REMARK    5  A    between atoms: CA_16  and  N_17
REMARK    6  A    between atoms: CA_16  and  C_22
REMARK    7  A    between atoms: C_22  and  O_23
REMARK                            x       y       z     vdW  Elec       q    Type
REMARK                         _______ _______ _______ _____ _____    ______ ____
ROOT
ATOM      1  C   UNL     1      -1.968  -1.087   0.114  0.00  0.00    -0.024 C 
ATOM      2  C   UNL     1      -1.401  -0.777  -1.111  0.00  0.00    -0.004 C 
ATOM      3  C   UNL     1      -1.189  -1.450   1.199  0.00  0.00    -0.004 C 
ATOM      4  C   UNL     1       0.785  -1.196  -0.171  0.00  0.00    +0.039 C 
ATOM      5  C   UNL     1      -0.014  -0.832  -1.255  0.00  0.00    +0.003 C 
ATOM      6  C   UNL     1       0.198  -1.505   1.056  0.00  0.00    +0.003 C 
ENDROOT
BRANCH   4   8
ATOM      7  O   UNL     1       2.780  -2.306  -0.677  0.00  0.00    -0.287 OA
ATOM      8  C   UNL     1       2.230  -1.254  -0.320  0.00  0.00    +0.196 C 
BRANCH   8   9
ATOM      9  C   UNL     1       3.110  -0.075  -0.058  0.00  0.00    +0.039 C 
ATOM     10  C   UNL     1       2.527   1.105   0.340  0.00  0.00    +0.003 C 
ATOM     11  C   UNL     1       4.468  -0.218  -0.224  0.00  0.00    +0.003 C 
ATOM     12  C   UNL     1       3.348   2.206   0.586  0.00  0.00    +0.000 C 
ATOM     13  C   UNL     1       5.289   0.882   0.021  0.00  0.00    +0.000 C 
ATOM     14  C   UNL     1       4.729   2.094   0.426  0.00  0.00    +0.000 C 
ENDBRANCH   8   9
ENDBRANCH   4   8
BRANCH   1  15
ATOM     15  C   UNL     1      -3.470  -1.027   0.269  0.00  0.00    +0.015 C 
BRANCH  15  16
ATOM     16  CA  UNL     1      -3.970   0.356   0.717  0.00  0.00    +0.040 C 
BRANCH  16  17
ATOM     17  N   UNL     1      -5.303   0.235   1.300  0.00  0.00    +0.389 N 
ATOM     18  H1  UNL     1      -5.271  -0.409   2.091  0.00  0.00    -0.088 HD
ATOM     19  H2  UNL     1      -5.951  -0.122   0.598  0.00  0.00    -0.088 HD
ATOM     20  H3  UNL     1      -5.619   1.150   1.621  0.00  0.00    -0.088 HD
ENDBRANCH  16  17
BRANCH  16  22
ATOM     21  OXT UNL     1      -5.087   1.454  -1.149  0.00  0.00    -0.253 OA
ATOM     22  C   UNL     1      -4.091   1.324  -0.448  0.00  0.00    +0.293 C 
BRANCH  22  23
ATOM     23  O   UNL     1      -2.971   2.073  -0.616  0.00  0.00    -0.482 OA
ATOM     24  H   UNL     1      -2.230   1.941  -0.057  0.00  0.00    +0.295 HD
ENDBRANCH  22  23
ENDBRANCH  16  22
ENDBRANCH  15  16
ENDBRANCH   1  15
TORSDOF 7
