REMARK  Name = 6575388
REMARK  1 active torsions:
REMARK  status: ('A' for Active; 'I' for Inactive)
REMARK    1  A    between atoms: C_2  and  C_11
REMARK                            x       y       z     vdW  Elec       q    Type
REMARK                         _______ _______ _______ _____ _____    ______ ____
ROOT
ATOM      1  N   UNL     1      -1.767   1.223  -0.234  0.00  0.00    +0.384 N 
ATOM      2  C   UNL     1       0.348   0.003  -0.460  0.00  0.00    +0.082 C 
ATOM      3  C   UNL     1      -0.307   1.261   0.084  0.00  0.00    -0.070 C 
ATOM      4  C   UNL     1      -0.327  -1.261   0.062  0.00  0.00    +0.007 C 
ATOM      5  C   UNL     1      -1.829  -1.235  -0.216  0.00  0.00    -0.023 C 
ATOM      6  C   UNL     1      -2.476   0.032   0.323  0.00  0.00    -0.082 C 
ATOM      7  H   UNL     1      -1.875   1.216  -1.248  0.00  0.00    -0.085 HD
ATOM      8  H   UNL     1      -2.186   2.046   0.199  0.00  0.00    -0.085 HD
ENDROOT
BRANCH   2  11
ATOM      9  O   UNL     1       1.921  -0.015   1.287  0.00  0.00    -0.246 OA
ATOM     10  O   UNL     1       2.655  -0.003  -0.879  0.00  0.00    -0.246 OA
ATOM     11  C   UNL     1       1.782  -0.006   0.033  0.00  0.00    +0.362 C 
ENDBRANCH   2  11
TORSDOF 1
