REMARK  Name = 46937152
REMARK  3 active torsions:
REMARK  status: ('A' for Active; 'I' for Inactive)
REMARK    1  A    between atoms: N_1  and  C_18
REMARK    2  A    between atoms: C_15  and  O_16
REMARK    3  A    between atoms: C_18  and  C_25
REMARK                            x       y       z     vdW  Elec       q    Type
REMARK                         _______ _______ _______ _____ _____    ______ ____
ROOT
ATOM      1  N   UNL     1      -1.780  -0.297  -0.791  0.00  0.00    -0.280 N 
ATOM      2  C   UNL     1      -2.655  -1.330  -0.226  0.00  0.00    +0.052 C 
ATOM      3  C   UNL     1      -1.990  -1.923   0.996  0.00  0.00    +0.014 C 
ATOM      4  C   UNL     1      -1.940   1.004  -0.313  0.00  0.00    +0.052 C 
ATOM      5  C   UNL     1      -3.046  -2.346  -1.273  0.00  0.00    +0.015 C 
ATOM      6  C   UNL     1      -2.003   1.290   1.072  0.00  0.00    +0.017 C 
ATOM      7  C   UNL     1      -1.728  -3.241   1.087  0.00  0.00    +0.001 C 
ATOM      8  C   UNL     1      -2.052  -4.237   0.011  0.00  0.00    +0.000 C 
ATOM      9  C   UNL     1      -1.698  -1.036   2.110  0.00  0.00    +0.001 C 
ATOM     10  C   UNL     1      -2.771  -3.653  -1.165  0.00  0.00    +0.001 C 
ATOM     11  C   UNL     1      -1.736   0.305   2.147  0.00  0.00    +0.001 C 
ATOM     12  C   UNL     1      -2.060   2.077  -1.222  0.00  0.00    +0.018 C 
ATOM     13  C   UNL     1      -2.211   2.621   1.489  0.00  0.00    +0.038 C 
ATOM     14  C   UNL     1      -2.266   3.386  -0.789  0.00  0.00    +0.038 C 
ATOM     15  C   UNL     1      -2.349   3.657   0.568  0.00  0.00    +0.134 C 
ENDROOT
BRANCH  15  16
ATOM     16  O   UNL     1      -2.550   4.932   1.000  0.00  0.00    -0.506 OA
ATOM     17  H   UNL     1      -2.606   5.112   1.918  0.00  0.00    +0.292 HD
ENDBRANCH  15  16
BRANCH   1  18
ATOM     18  C   UNL     1      -0.879  -0.549  -1.906  0.00  0.00    +0.152 C 
BRANCH  18  25
ATOM     19  N   UNL     1       1.092  -0.764  -0.486  0.00  0.00    -0.392 NA
ATOM     20  N   UNL     1       2.470   1.131  -1.958  0.00  0.00    -0.200 NA
ATOM     21  N   UNL     1       4.313   0.884  -0.578  0.00  0.00    -0.271 NA
ATOM     22  N   UNL     1       4.281  -0.657   1.258  0.00  0.00    -0.310 NA
ATOM     23  N   UNL     1       2.342  -1.945   1.668  0.00  0.00    -0.329 N 
ATOM     24  N   UNL     1       6.182   0.637   0.820  0.00  0.00    -0.283 N 
ATOM     25  C   UNL     1       0.528  -0.161  -1.544  0.00  0.00    +0.133 C 
ATOM     26  C   UNL     1       1.209   0.775  -2.271  0.00  0.00    +0.193 C 
ATOM     27  C   UNL     1       2.353  -0.407  -0.175  0.00  0.00    +0.248 C 
ATOM     28  C   UNL     1       3.061   0.547  -0.908  0.00  0.00    +0.131 C 
ATOM     29  C   UNL     1       3.024  -0.969   0.895  0.00  0.00    +0.231 C 
ATOM     30  C   UNL     1       4.861   0.268   0.486  0.00  0.00    +0.207 C 
ATOM     31  H   UNL     1       2.791  -2.365   2.437  0.00  0.00    +0.145 HD
ATOM     32  H   UNL     1       1.421  -2.202   1.435  0.00  0.00    +0.145 HD
ATOM     33  H   UNL     1       6.655   1.314   0.284  0.00  0.00    +0.156 HD
ATOM     34  H   UNL     1       6.630   0.218   1.590  0.00  0.00    +0.156 HD
ENDBRANCH  18  25
ENDBRANCH   1  18
TORSDOF 3
