REMARK  Name = 46937169
REMARK  8 active torsions:
REMARK  status: ('A' for Active; 'I' for Inactive)
REMARK    1  A    between atoms: C_2  and  C_23
REMARK    2  A    between atoms: C_6  and  O_11
REMARK    3  A    between atoms: C_8  and  N_13
REMARK    4  A    between atoms: N_13  and  N_15
REMARK    5  A    between atoms: N_15  and  C_17
REMARK    6  A    between atoms: C_23  and  CA_24
REMARK    7  A    between atoms: CA_24  and  N_25
REMARK    8  A    between atoms: CA_24  and  C_30
REMARK                            x       y       z     vdW  Elec       q    Type
REMARK                         _______ _______ _______ _____ _____    ______ ____
ROOT
ATOM      1  N   UNL     1       2.293   2.392   0.462  0.00  0.00    -0.309 N 
ATOM      2  C   UNL     1       3.052   0.329   0.767  0.00  0.00    -0.008 C 
ATOM      3  C   UNL     1       1.703   0.245   0.324  0.00  0.00    +0.014 C 
ATOM      4  C   UNL     1       1.250   1.554   0.139  0.00  0.00    +0.083 C 
ATOM      5  C   UNL     1       3.386   1.661   0.842  0.00  0.00    +0.058 C 
ATOM      6  C   UNL     1      -0.046   1.850  -0.297  0.00  0.00    +0.161 C 
ATOM      7  C   UNL     1       0.820  -0.821   0.060  0.00  0.00    +0.002 C 
ATOM      8  C   UNL     1      -0.904   0.776  -0.552  0.00  0.00    +0.096 C 
ATOM      9  C   UNL     1      -0.479  -0.539  -0.377  0.00  0.00    +0.019 C 
ATOM     10  H   UNL     1       2.258   3.376   0.424  0.00  0.00    +0.152 HD
ENDROOT
BRANCH   6  11
ATOM     11  O   UNL     1      -0.460   3.142  -0.468  0.00  0.00    -0.503 OA
ATOM     12  H   UNL     1       0.128   3.849  -0.293  0.00  0.00    +0.292 HD
ENDBRANCH   6  11
BRANCH   8  13
ATOM     13  N   UNL     1      -2.225   1.016  -0.996  0.00  0.00    -0.263 N 
ATOM     14  H   UNL     1      -2.518   1.953  -1.069  0.00  0.00    +0.170 HD
BRANCH  13  15
ATOM     15  N   UNL     1      -3.107   0.065  -1.325  0.00  0.00    -0.265 N 
ATOM     16  H   UNL     1      -2.997  -0.373  -2.200  0.00  0.00    +0.170 HD
BRANCH  15  17
ATOM     17  C   UNL     1      -4.178  -0.358  -0.520  0.00  0.00    +0.061 C 
ATOM     18  C   UNL     1      -5.078  -1.309  -1.001  0.00  0.00    +0.016 C 
ATOM     19  C   UNL     1      -4.341   0.173   0.759  0.00  0.00    +0.016 C 
ATOM     20  C   UNL     1      -6.142  -1.729  -0.202  0.00  0.00    +0.001 C 
ATOM     21  C   UNL     1      -5.404  -0.247   1.558  0.00  0.00    +0.001 C 
ATOM     22  C   UNL     1      -6.305  -1.198   1.078  0.00  0.00    +0.000 C 
ENDBRANCH  15  17
ENDBRANCH  13  15
ENDBRANCH   8  13
BRANCH   2  23
ATOM     23  C   UNL     1       3.942  -0.804   1.094  0.00  0.00    +0.013 C 
BRANCH  23  24
ATOM     24  CA  UNL     1       4.558  -1.512  -0.138  0.00  0.00    +0.005 C 
BRANCH  24  25
ATOM     25  N   UNL     1       5.040  -2.846   0.216  0.00  0.00    +0.387 N 
ATOM     26  H1  UNL     1       4.266  -3.401   0.581  0.00  0.00    -0.089 HD
ATOM     27  H2  UNL     1       5.767  -2.767   0.927  0.00  0.00    -0.089 HD
ATOM     28  H3  UNL     1       5.422  -3.300  -0.613  0.00  0.00    -0.089 HD
ENDBRANCH  24  25
BRANCH  24  30
ATOM     29  O   UNL     1       6.890  -1.124  -0.747  0.00  0.00    -0.291 OA
ATOM     30  C   UNL     1       5.734  -0.718  -0.676  0.00  0.00    +0.185 C 
ENDBRANCH  24  30
ENDBRANCH  23  24
ENDBRANCH   2  23
TORSDOF 8
