REMARK  Name = 124075
REMARK  1 active torsions:
REMARK  status: ('A' for Active; 'I' for Inactive)
REMARK    1  A    between atoms: C_9  and  O_16
REMARK                            x       y       z     vdW  Elec       q    Type
REMARK                         _______ _______ _______ _____ _____    ______ ____
ROOT
ATOM      1  O   UNL     1       2.517  -1.273  -0.142  0.00  0.00    -0.433 OA
ATOM      2  O   UNL     1       3.590   0.868  -0.043  0.00  0.00    -0.435 OA
ATOM      3  O   UNL     1      -2.547  -2.744   0.011  0.00  0.00    -0.269 OA
ATOM      4  N   UNL     1      -0.491  -1.637  -0.014  0.00  0.00    -0.250 N 
ATOM      5  C   UNL     1       0.214  -0.387   0.043  0.00  0.00    +0.094 C 
ATOM      6  C   UNL     1      -0.522   0.813   0.171  0.00  0.00    +0.051 C 
ATOM      7  C   UNL     1       1.602  -0.268  -0.022  0.00  0.00    +0.190 C 
ATOM      8  C   UNL     1       2.233   0.960   0.035  0.00  0.00    +0.178 C 
ATOM      9  C   UNL     1      -1.985   0.747   0.245  0.00  0.00    +0.144 C 
ATOM     10  C   UNL     1       0.147   2.060   0.227  0.00  0.00    +0.008 C 
ATOM     11  C   UNL     1       1.536   2.139   0.159  0.00  0.00    +0.040 C 
ATOM     12  C   UNL     1      -1.886  -1.706   0.056  0.00  0.00    +0.256 C 
ATOM     13  C   UNL     1      -2.620  -0.426   0.192  0.00  0.00    +0.095 C 
ATOM     14  C   UNL     1       3.762  -0.554  -0.153  0.00  0.00    +0.429 C 
ATOM     15  C   UNL     1       0.253  -2.885  -0.148  0.00  0.00    +0.120 C 
ENDROOT
BRANCH   9  16
ATOM     16  O   UNL     1      -2.732   1.907   0.336  0.00  0.00    -0.471 OA
ATOM     17  C   UNL     1      -3.071   2.385  -0.950  0.00  0.00    +0.252 C 
ENDBRANCH   9  16
TORSDOF 1
