REMARK  Name = 6323526
REMARK  9 active torsions:
REMARK  status: ('A' for Active; 'I' for Inactive)
REMARK    1  A    between atoms: N_1  and  S_3
REMARK    2  A    between atoms: N_1  and  C_13
REMARK    3  A    between atoms: S_3  and  C_6
REMARK    4  A    between atoms: C_13  and  C_14
REMARK    5  A    between atoms: C_14  and  C_16
REMARK    6  A    between atoms: C_14  and  C_19
REMARK    7  A    between atoms: C_16  and  O_17
REMARK    8  A    between atoms: C_19  and  C_21
REMARK    9  A    between atoms: C_19  and  C_22
REMARK                            x       y       z     vdW  Elec       q    Type
REMARK                         _______ _______ _______ _____ _____    ______ ____
ROOT
ATOM      1  N   UNL     1      -0.377  -0.687   0.655  0.00  0.00    -0.179 NA
ATOM      2  H   UNL     1      -0.264   0.135   1.248  0.00  0.00    +0.149 HD
ENDROOT
BRANCH   1   3
ATOM      3  S   UNL     1       0.993  -1.662   0.901  0.00  0.00    +0.060 S 
ATOM      4  O   UNL     1       0.941  -2.801   0.004  0.00  0.00    -0.153 OA
ATOM      5  O   UNL     1       1.176  -1.863   2.326  0.00  0.00    -0.153 OA
BRANCH   3   6
ATOM      6  C   UNL     1       2.297  -0.600   0.358  0.00  0.00    +0.122 C 
ATOM      7  C   UNL     1       2.906   0.244   1.271  0.00  0.00    +0.020 C 
ATOM      8  C   UNL     1       2.686  -0.631  -0.970  0.00  0.00    +0.020 C 
ATOM      9  C   UNL     1       4.341   1.063  -0.491  0.00  0.00    -0.022 C 
ATOM     10  C   UNL     1       3.936   1.082   0.843  0.00  0.00    -0.003 C 
ATOM     11  C   UNL     1       3.716   0.206  -1.398  0.00  0.00    -0.003 C 
ATOM     12  C   UNL     1       5.442   1.958  -0.949  0.00  0.00    +0.031 C 
ENDBRANCH   3   6
ENDBRANCH   1   3
BRANCH   1  13
ATOM     13  C   UNL     1      -0.698  -0.194  -0.704  0.00  0.00    +0.103 C 
BRANCH  13  14
ATOM     14  C   UNL     1      -2.223  -0.092  -0.891  0.00  0.00    +0.124 C 
BRANCH  14  16
ATOM     15  O   UNL     1      -3.297  -1.858   0.400  0.00  0.00    -0.250 OA
ATOM     16  C   UNL     1      -2.827  -1.473  -0.663  0.00  0.00    +0.315 C 
BRANCH  16  17
ATOM     17  O   UNL     1      -2.790  -2.255  -1.772  0.00  0.00    -0.480 OA
ATOM     18  H   UNL     1      -2.421  -1.923  -2.567  0.00  0.00    +0.295 HD
ENDBRANCH  16  17
ENDBRANCH  14  16
BRANCH  14  19
ATOM     19  C   UNL     1      -2.870   0.990   0.006  0.00  0.00    +0.077 C 
BRANCH  19  21
ATOM     20  O   UNL     1      -1.672   3.001   0.619  0.00  0.00    -0.288 OA
ATOM     21  C   UNL     1      -2.264   2.359  -0.244  0.00  0.00    +0.208 C 
ENDBRANCH  19  21
BRANCH  19  22
ATOM     22  C   UNL     1      -4.397   1.115  -0.142  0.00  0.00    +0.008 C 
ATOM     23  C   UNL     1      -5.019   2.097   0.840  0.00  0.00    +0.000 C 
ENDBRANCH  19  22
ENDBRANCH  14  19
ENDBRANCH  13  14
ENDBRANCH   1  13
TORSDOF 9
