REMARK  Name = 1504717
REMARK  2 active torsions:
REMARK  status: ('A' for Active; 'I' for Inactive)
REMARK    1  A    between atoms: C_6  and  O_14
REMARK    2  A    between atoms: C_7  and  O_16
REMARK                            x       y       z     vdW  Elec       q    Type
REMARK                         _______ _______ _______ _____ _____    ______ ____
ROOT
ATOM      1  O   UNL     1       1.279   3.587   0.113  0.00  0.00    -0.270 OA
ATOM      2  N   UNL     1       1.369   1.253   0.053  0.00  0.00    -0.251 N 
ATOM      3  C   UNL     1       0.644   0.019  -0.031  0.00  0.00    +0.091 C 
ATOM      4  C   UNL     1      -0.761   0.046  -0.125  0.00  0.00    +0.047 C 
ATOM      5  C   UNL     1      -1.465   1.342  -0.135  0.00  0.00    -0.013 C 
ATOM      6  C   UNL     1       1.307  -1.222  -0.022  0.00  0.00    +0.152 C 
ATOM      7  C   UNL     1      -1.462  -1.172  -0.207  0.00  0.00    +0.140 C 
ATOM      8  C   UNL     1       0.725   2.489   0.045  0.00  0.00    +0.253 C 
ATOM      9  C   UNL     1      -0.754   2.474  -0.054  0.00  0.00    +0.054 C 
ATOM     10  C   UNL     1       0.594  -2.418  -0.105  0.00  0.00    +0.041 C 
ATOM     11  C   UNL     1      -0.790  -2.393  -0.198  0.00  0.00    +0.040 C 
ATOM     12  C   UNL     1       2.825   1.214   0.151  0.00  0.00    +0.120 C 
ATOM     13  C   UNL     1      -2.962   1.458  -0.232  0.00  0.00    +0.031 C 
ENDROOT
BRANCH   6  14
ATOM     14  O   UNL     1       2.660  -1.375   0.066  0.00  0.00    -0.470 OA
ATOM     15  C   UNL     1       3.161  -2.709   0.061  0.00  0.00    +0.253 C 
ENDBRANCH   6  14
BRANCH   7  16
ATOM     16  O   UNL     1      -2.821  -1.257  -0.302  0.00  0.00    -0.471 OA
ATOM     17  C   UNL     1      -3.550  -1.334   0.920  0.00  0.00    +0.252 C 
ENDBRANCH   7  16
TORSDOF 2
