REMARK  Name = 705712
REMARK  6 active torsions:
REMARK  status: ('A' for Active; 'I' for Inactive)
REMARK    1  A    between atoms: S_1  and  C_4
REMARK    2  A    between atoms: S_1  and  N_12
REMARK    3  A    between atoms: C_9  and  O_10
REMARK    4  A    between atoms: N_12  and  C_14
REMARK    5  A    between atoms: C_14  and  C_17
REMARK    6  A    between atoms: C_17  and  O_18
REMARK                            x       y       z     vdW  Elec       q    Type
REMARK                         _______ _______ _______ _____ _____    ______ ____
ROOT
ATOM      1  S   UNL     1      -0.957  -1.662  -0.314  0.00  0.00    +0.061 S 
ATOM      2  O   UNL     1      -1.343  -1.547  -1.708  0.00  0.00    -0.153 OA
ATOM      3  O   UNL     1      -0.889  -2.965   0.319  0.00  0.00    -0.153 OA
ENDROOT
BRANCH   1   4
ATOM      4  C   UNL     1       0.634  -0.913  -0.126  0.00  0.00    +0.122 C 
ATOM      5  C   UNL     1       1.031   0.064  -1.021  0.00  0.00    +0.023 C 
ATOM      6  C   UNL     1       1.452  -1.319   0.914  0.00  0.00    +0.023 C 
ATOM      7  C   UNL     1       2.286   0.655  -0.873  0.00  0.00    +0.038 C 
ATOM      8  C   UNL     1       2.707  -0.728   1.063  0.00  0.00    +0.038 C 
ATOM      9  C   UNL     1       3.124   0.259   0.170  0.00  0.00    +0.139 C 
BRANCH   9  10
ATOM     10  O   UNL     1       4.348   0.835   0.315  0.00  0.00    -0.471 OA
ATOM     11  C   UNL     1       4.710   1.838  -0.633  0.00  0.00    +0.252 C 
ENDBRANCH   9  10
ENDBRANCH   1   4
BRANCH   1  12
ATOM     12  N   UNL     1      -1.937  -0.641   0.628  0.00  0.00    -0.170 NA
ATOM     13  H   UNL     1      -1.585  -0.695   1.584  0.00  0.00    +0.149 HD
BRANCH  12  14
ATOM     14  C   UNL     1      -2.045   0.795   0.293  0.00  0.00    +0.174 C 
ATOM     15  C   UNL     1      -1.591   1.622   1.483  0.00  0.00    +0.031 C 
BRANCH  14  17
ATOM     16  O   UNL     1      -4.405   0.268  -0.017  0.00  0.00    -0.249 OA
ATOM     17  C   UNL     1      -3.484   1.070  -0.062  0.00  0.00    +0.330 C 
BRANCH  17  18
ATOM     18  O   UNL     1      -3.643   2.368  -0.432  0.00  0.00    -0.479 OA
ATOM     19  H   UNL     1      -2.904   2.944  -0.451  0.00  0.00    +0.295 HD
ENDBRANCH  17  18
ENDBRANCH  14  17
ENDBRANCH  12  14
ENDBRANCH   1  12
TORSDOF 6
