REMARK  Name = 25271554
REMARK  2 active torsions:
REMARK  status: ('A' for Active; 'I' for Inactive)
REMARK    1  A    between atoms: C_2  and  C_6
REMARK    2  A    between atoms: C_2  and  C_12
REMARK                            x       y       z     vdW  Elec       q    Type
REMARK                         _______ _______ _______ _____ _____    ______ ____
ROOT
ATOM      1  O   UNL     1      -0.394   2.485   0.863  0.00  0.00    -0.283 OA
ATOM      2  C   UNL     1      -0.321   1.339   0.393  0.00  0.00    +0.231 C 
ENDROOT
BRANCH   2   6
ATOM      3  O   UNL     1      -1.562  -0.666  -0.314  0.00  0.00    -0.421 OA
ATOM      4  N   UNL     1      -3.724  -0.139   0.087  0.00  0.00    -0.193 NA
ATOM      5  N   UNL     1      -3.116  -2.277  -0.834  0.00  0.00    -0.313 N 
ATOM      6  C   UNL     1      -1.602   0.593   0.202  0.00  0.00    +0.206 C 
ATOM      7  C   UNL     1      -2.916   0.910   0.444  0.00  0.00    +0.144 C 
ATOM      8  C   UNL     1      -2.871  -1.037  -0.352  0.00  0.00    +0.286 C 
ATOM      9  H   UNL     1      -2.369  -2.846  -1.130  0.00  0.00    +0.147 HD
ATOM     10  H   UNL     1      -4.040  -2.610  -0.888  0.00  0.00    +0.147 HD
ENDBRANCH   2   6
BRANCH   2  12
ATOM     11 BR   UNL     1       3.232  -2.538   1.182  0.00  0.00    -0.049 Br
ATOM     12  C   UNL     1       0.972   0.768   0.051  0.00  0.00    +0.043 C 
ATOM     13  C   UNL     1       1.404  -0.404   0.671  0.00  0.00    +0.010 C 
ATOM     14  C   UNL     1       1.780   1.394  -0.899  0.00  0.00    +0.003 C 
ATOM     15  C   UNL     1       2.645  -0.950   0.342  0.00  0.00    +0.035 C 
ATOM     16  C   UNL     1       3.021   0.847  -1.228  0.00  0.00    +0.001 C 
ATOM     17  C   UNL     1       3.453  -0.325  -0.607  0.00  0.00    +0.007 C 
ENDBRANCH   2  12
TORSDOF 2
