REMARK  Name = 16045418
REMARK  6 active torsions:
REMARK  status: ('A' for Active; 'I' for Inactive)
REMARK    1  A    between atoms: C_2  and  O_8
REMARK    2  A    between atoms: C_4  and  O_23
REMARK    3  A    between atoms: O_8  and  C_9
REMARK    4  A    between atoms: C_9  and  C_14
REMARK    5  A    between atoms: O_23  and  C_25
REMARK    6  A    between atoms: C_28  and  C_32
REMARK                            x       y       z     vdW  Elec       q    Type
REMARK                         _______ _______ _______ _____ _____    ______ ____
ROOT
ATOM      1 CL   UNL     1       4.700   1.830  -1.191  0.00  0.00    -0.079 Cl
ATOM      2  C   UNL     1       2.559  -1.879   0.218  0.00  0.00    +0.142 C 
ATOM      3  C   UNL     1       2.193  -0.640   0.737  0.00  0.00    +0.075 C 
ATOM      4  C   UNL     1       2.850   0.513   0.306  0.00  0.00    +0.159 C 
ATOM      5  C   UNL     1       3.576  -1.975  -0.727  0.00  0.00    +0.038 C 
ATOM      6  C   UNL     1       3.870   0.422  -0.641  0.00  0.00    +0.092 C 
ATOM      7  C   UNL     1       4.233  -0.822  -1.157  0.00  0.00    +0.018 C 
ENDROOT
BRANCH   2   8
ATOM      8  O   UNL     1       1.915  -3.009   0.641  0.00  0.00    -0.469 OA
BRANCH   8   9
ATOM      9  C   UNL     1       0.756  -3.397  -0.099  0.00  0.00    +0.249 C 
BRANCH   9  14
ATOM     10  N   UNL     1      -0.678  -2.631   1.778  0.00  0.00    -0.227 N 
ATOM     11  N   UNL     1      -1.813  -1.977   2.104  0.00  0.00    -0.115 NA
ATOM     12  N   UNL     1      -3.476  -0.940   0.675  0.00  0.00    -0.335 NA
ATOM     13  N   UNL     1      -4.863  -0.054  -1.050  0.00  0.00    -0.332 N 
ATOM     14  C   UNL     1      -0.436  -2.718   0.434  0.00  0.00    +0.097 C 
ATOM     15  C   UNL     1      -1.490  -2.073  -0.152  0.00  0.00    +0.090 C 
ATOM     16  C   UNL     1      -2.324  -1.627   0.918  0.00  0.00    +0.105 C 
ATOM     17  C   UNL     1      -1.686  -1.902  -1.514  0.00  0.00    +0.016 C 
ATOM     18  C   UNL     1      -2.871  -1.195  -1.742  0.00  0.00    +0.049 C 
ATOM     19  C   UNL     1      -3.686  -0.760  -0.668  0.00  0.00    +0.189 C 
ATOM     20  H   UNL     1      -0.073  -3.015   2.454  0.00  0.00    +0.175 HD
ATOM     21  H   UNL     1      -5.481   0.281  -0.361  0.00  0.00    +0.145 HD
ATOM     22  H   UNL     1      -5.058   0.099  -2.003  0.00  0.00    +0.145 HD
ENDBRANCH   9  14
ENDBRANCH   8   9
ENDBRANCH   2   8
BRANCH   4  23
ATOM     23  O   UNL     1       2.474   1.715   0.827  0.00  0.00    -0.452 OA
BRANCH  23  25
ATOM     24 CL   UNL     1      -1.760   3.708   2.826  0.00  0.00    -0.082 Cl
ATOM     25  C   UNL     1       1.162   2.114   0.638  0.00  0.00    +0.147 C 
ATOM     26  C   UNL     1       0.587   1.972  -0.613  0.00  0.00    +0.048 C 
ATOM     27  C   UNL     1       0.457   2.644   1.704  0.00  0.00    +0.049 C 
ATOM     28  C   UNL     1      -0.735   2.373  -0.803  0.00  0.00    +0.072 C 
ATOM     29  C   UNL     1      -0.865   3.045   1.514  0.00  0.00    +0.061 C 
ATOM     30  C   UNL     1      -1.461   2.910   0.260  0.00  0.00    +0.022 C 
BRANCH  28  32
ATOM     31  N   UNL     1      -1.842   2.121  -3.135  0.00  0.00    -0.191 NA
ATOM     32  C   UNL     1      -1.345   2.235  -2.088  0.00  0.00    +0.101 C 
ENDBRANCH  28  32
ENDBRANCH  23  25
ENDBRANCH   4  23
TORSDOF 6
