444705
  -OEChem-10051721243D

 51 52  0     1  0  0  0  0  0999 V2000
    2.8027   -1.7931   -1.3544 O   0  0  0  0  0  0  0  0  0  0  0  0
    6.6275    0.7518    0.9294 O   0  0  0  0  0  0  0  0  0  0  0  0
    4.8566    2.1747    0.8435 O   0  0  0  0  0  0  0  0  0  0  0  0
   -3.3995    0.7447    0.8286 C   0  0  2  0  0  0  0  0  0  0  0  0
   -3.3656   -0.7789    0.4286 C   0  0  0  0  0  0  0  0  0  0  0  0
   -2.1293    1.4101    0.2130 C   0  0  1  0  0  0  0  0  0  0  0  0
   -1.8928   -0.9849    0.1517 C   0  0  0  0  0  0  0  0  0  0  0  0
   -1.2163    0.2338    0.0229 C   0  0  0  0  0  0  0  0  0  0  0  0
   -2.4028    2.1529   -1.0905 C   0  0  0  0  0  0  0  0  0  0  0  0
   -3.4083    0.9993    2.3456 C   0  0  0  0  0  0  0  0  0  0  0  0
   -3.8955   -1.7289    1.5134 C   0  0  0  0  0  0  0  0  0  0  0  0
   -4.1715   -1.0241   -0.8606 C   0  0  0  0  0  0  0  0  0  0  0  0
   -1.2113   -2.1860   -0.0069 C   0  0  0  0  0  0  0  0  0  0  0  0
    0.1437    0.2724   -0.2554 C   0  0  0  0  0  0  0  0  0  0  0  0
   -3.3624    3.3188   -0.8564 C   0  0  0  0  0  0  0  0  0  0  0  0
   -1.0987    2.6505   -1.7123 C   0  0  0  0  0  0  0  0  0  0  0  0
    0.1572   -2.1542   -0.2842 C   0  0  0  0  0  0  0  0  0  0  0  0
    0.8309   -0.9322   -0.4070 C   0  0  0  0  0  0  0  0  0  0  0  0
    0.8863   -3.4502   -0.4391 C   0  0  0  0  0  0  0  0  0  0  0  0
    2.2595   -0.8909   -0.6872 C   0  0  0  0  0  0  0  0  0  0  0  0
    3.1108    0.2761   -0.1588 C   0  0  0  0  0  0  0  0  0  0  0  0
    4.5481   -0.1201    0.1590 C   0  0  0  0  0  0  0  0  0  0  0  0
    5.3306    1.0584    0.6772 C   0  0  0  0  0  0  0  0  0  0  0  0
   -4.3266    1.1885    0.4534 H   0  0  0  0  0  0  0  0  0  0  0  0
   -1.6711    2.0983    0.9362 H   0  0  0  0  0  0  0  0  0  0  0  0
   -2.8701    1.4910   -1.8274 H   0  0  0  0  0  0  0  0  0  0  0  0
   -2.5365    0.5564    2.8384 H   0  0  0  0  0  0  0  0  0  0  0  0
   -3.3976    2.0757    2.5511 H   0  0  0  0  0  0  0  0  0  0  0  0
   -4.3134    0.5963    2.8105 H   0  0  0  0  0  0  0  0  0  0  0  0
   -3.2860   -1.6983    2.4232 H   0  0  0  0  0  0  0  0  0  0  0  0
   -4.9289   -1.4818    1.7806 H   0  0  0  0  0  0  0  0  0  0  0  0
   -3.8913   -2.7706    1.1708 H   0  0  0  0  0  0  0  0  0  0  0  0
   -3.8036   -0.4381   -1.7069 H   0  0  0  0  0  0  0  0  0  0  0  0
   -4.1205   -2.0767   -1.1650 H   0  0  0  0  0  0  0  0  0  0  0  0
   -5.2280   -0.7733   -0.7134 H   0  0  0  0  0  0  0  0  0  0  0  0
   -1.7398   -3.1304    0.0786 H   0  0  0  0  0  0  0  0  0  0  0  0
    0.6576    1.2242   -0.3221 H   0  0  0  0  0  0  0  0  0  0  0  0
   -2.9889    3.9888   -0.0742 H   0  0  0  0  0  0  0  0  0  0  0  0
   -3.4790    3.9115   -1.7707 H   0  0  0  0  0  0  0  0  0  0  0  0
   -4.3647    2.9889   -0.5728 H   0  0  0  0  0  0  0  0  0  0  0  0
   -0.4647    3.1648   -0.9825 H   0  0  0  0  0  0  0  0  0  0  0  0
   -1.3118    3.3718   -2.5108 H   0  0  0  0  0  0  0  0  0  0  0  0
   -0.5368    1.8469   -2.1955 H   0  0  0  0  0  0  0  0  0  0  0  0
    0.2603   -4.2941   -0.1256 H   0  0  0  0  0  0  0  0  0  0  0  0
    1.1517   -3.6267   -1.4862 H   0  0  0  0  0  0  0  0  0  0  0  0
    1.7778   -3.4868    0.1956 H   0  0  0  0  0  0  0  0  0  0  0  0
    3.0911    1.0695   -0.9155 H   0  0  0  0  0  0  0  0  0  0  0  0
    2.6508    0.6669    0.7568 H   0  0  0  0  0  0  0  0  0  0  0  0
    4.5605   -0.9107    0.9170 H   0  0  0  0  0  0  0  0  0  0  0  0
    5.0443   -0.4917   -0.7443 H   0  0  0  0  0  0  0  0  0  0  0  0
    7.1291    1.5269    1.2608 H   0  0  0  0  0  0  0  0  0  0  0  0
  1 20  2  0  0  0  0
  2 23  1  0  0  0  0
  2 51  1  0  0  0  0
  3 23  2  0  0  0  0
  4  5  1  0  0  0  0
  4  6  1  0  0  0  0
  4 10  1  0  0  0  0
  4 24  1  0  0  0  0
  5  7  1  0  0  0  0
  5 11  1  0  0  0  0
  5 12  1  0  0  0  0
  6  8  1  0  0  0  0
  6  9  1  0  0  0  0
  6 25  1  0  0  0  0
  7  8  2  0  0  0  0
  7 13  1  0  0  0  0
  8 14  1  0  0  0  0
  9 15  1  0  0  0  0
  9 16  1  0  0  0  0
  9 26  1  0  0  0  0
 10 27  1  0  0  0  0
 10 28  1  0  0  0  0
 10 29  1  0  0  0  0
 11 30  1  0  0  0  0
 11 31  1  0  0  0  0
 11 32  1  0  0  0  0
 12 33  1  0  0  0  0
 12 34  1  0  0  0  0
 12 35  1  0  0  0  0
 13 17  2  0  0  0  0
 13 36  1  0  0  0  0
 14 18  2  0  0  0  0
 14 37  1  0  0  0  0
 15 38  1  0  0  0  0
 15 39  1  0  0  0  0
 15 40  1  0  0  0  0
 16 41  1  0  0  0  0
 16 42  1  0  0  0  0
 16 43  1  0  0  0  0
 17 18  1  0  0  0  0
 17 19  1  0  0  0  0
 18 20  1  0  0  0  0
 19 44  1  0  0  0  0
 19 45  1  0  0  0  0
 19 46  1  0  0  0  0
 20 21  1  0  0  0  0
 21 22  1  0  0  0  0
 21 47  1  0  0  0  0
 21 48  1  0  0  0  0
 22 23  1  0  0  0  0
 22 49  1  0  0  0  0
 22 50  1  0  0  0  0
M  END
> <DATABASE_ID>
DB08647

> <DATABASE_NAME>
drugbank

> <ORIGINAL_SOURCE>
PUBCHEM

> <ORIGINAL_SOURCE_URL>
https://pubchem.ncbi.nlm.nih.gov/rest/pug/compound/inchikey/YUTXECPABXNXPU-DJJJIMSYSA-N/SDF?record_type=3d

> <SMILES>
[H][C@]1(C)[C@]([H])(C(C)C)C2=C(C=C(C)C(=C2)C(=O)CCC(O)=O)C1(C)C

> <INCHI_IDENTIFIER>
InChI=1S/C20H28O3/c1-11(2)19-13(4)20(5,6)16-9-12(3)14(10-15(16)19)17(21)7-8-18(22)23/h9-11,13,19H,7-8H2,1-6H3,(H,22,23)/t13-,19-/m0/s1

> <INCHI_KEY>
YUTXECPABXNXPU-DJJJIMSYSA-N

> <FORMULA>
C20H28O3

> <MOLECULAR_WEIGHT>
316.4345

> <EXACT_MASS>
316.203844762

> <JCHEM_ACCEPTOR_COUNT>
3

> <JCHEM_AVERAGE_POLARIZABILITY>
36.76181992101466

> <JCHEM_BIOAVAILABILITY>
1

> <JCHEM_DONOR_COUNT>
1

> <JCHEM_FORMAL_CHARGE>
0

> <JCHEM_GHOSE_FILTER>
1

> <JCHEM_IUPAC>
4-oxo-4-[(2S,3S)-1,1,2,6-tetramethyl-3-(propan-2-yl)-2,3-dihydro-1H-inden-5-yl]butanoic acid

> <ALOGPS_LOGP>
4.56

> <JCHEM_LOGP>
4.769555182333335

> <ALOGPS_LOGS>
-5.55

> <JCHEM_MDDR_LIKE_RULE>
0

> <JCHEM_NUMBER_OF_RINGS>
2

> <JCHEM_PHYSIOLOGICAL_CHARGE>
-1

> <JCHEM_PKA>
17.10453716084509

> <JCHEM_PKA_STRONGEST_ACIDIC>
3.926835062792656

> <JCHEM_PKA_STRONGEST_BASIC>
-7.456794290459021

> <JCHEM_POLAR_SURFACE_AREA>
54.37

> <JCHEM_REFRACTIVITY>
92.54699999999997

> <JCHEM_ROTATABLE_BOND_COUNT>
5

> <JCHEM_RULE_OF_FIVE>
1

> <ALOGPS_SOLUBILITY>
8.98e-04 g/l

> <JCHEM_TRADITIONAL_IUPAC>
trazeolide

> <JCHEM_VEBER_RULE>
0

> <DRUGBANK_ID>
DB08647

> <DRUG_GROUPS>
experimental

> <GENERIC_NAME>
TRAZEOLIDE

$$$$
