11167602
  -OEChem-10051721303D

 48 50  0     0  0  0  0  0  0999 V2000
    8.5637    0.0664    1.7635 Cl  0  0  0  0  0  0  0  0  0  0  0  0
   -1.2169    0.0167   -2.4433 F   0  0  0  0  0  0  0  0  0  0  0  0
    7.2232   -1.7777   -2.0515 F   0  0  0  0  0  0  0  0  0  0  0  0
    8.7320   -0.4271   -1.2746 F   0  0  0  0  0  0  0  0  0  0  0  0
    8.2754   -2.2692   -0.2130 F   0  0  0  0  0  0  0  0  0  0  0  0
   -4.4257    2.2979    0.2138 O   0  0  0  0  0  0  0  0  0  0  0  0
    1.8906    1.3942    1.2893 O   0  0  0  0  0  0  0  0  0  0  0  0
   -5.3484   -2.5412    1.3375 O   0  0  0  0  0  0  0  0  0  0  0  0
    3.0459    0.1849   -0.3516 N   0  0  0  0  0  0  0  0  0  0  0  0
    0.7847    0.5838   -0.6054 N   0  0  0  0  0  0  0  0  0  0  0  0
   -7.4898   -0.4222   -0.4809 N   0  0  0  0  0  0  0  0  0  0  0  0
   -7.4196   -2.9549    0.3806 N   0  0  0  0  0  0  0  0  0  0  0  0
    4.3508    0.1508    0.1403 C   0  0  0  0  0  0  0  0  0  0  0  0
    6.6571   -0.5316   -0.0894 C   0  0  0  0  0  0  0  0  0  0  0  0
   -0.5450    1.0207   -0.3985 C   0  0  0  0  0  0  0  0  0  0  0  0
    5.3523   -0.4986   -0.5816 C   0  0  0  0  0  0  0  0  0  0  0  0
   -3.1473    1.8769    0.0122 C   0  0  0  0  0  0  0  0  0  0  0  0
    4.6542    0.7673    1.3541 C   0  0  0  0  0  0  0  0  0  0  0  0
    6.9604    0.0849    1.1244 C   0  0  0  0  0  0  0  0  0  0  0  0
   -1.5151    0.7168   -1.3396 C   0  0  0  0  0  0  0  0  0  0  0  0
   -0.8486    1.7434    0.7436 C   0  0  0  0  0  0  0  0  0  0  0  0
   -2.8254    1.1480   -1.1327 C   0  0  0  0  0  0  0  0  0  0  0  0
   -2.1588    2.1746    0.9503 C   0  0  0  0  0  0  0  0  0  0  0  0
    5.9590    0.7344    1.8462 C   0  0  0  0  0  0  0  0  0  0  0  0
    1.8999    0.7867    0.2234 C   0  0  0  0  0  0  0  0  0  0  0  0
    7.7014   -1.2364   -0.8937 C   0  0  0  0  0  0  0  0  0  0  0  0
   -5.4462    1.3910   -0.0183 C   0  0  0  0  0  0  0  0  0  0  0  0
   -5.3269    0.1046    0.4623 C   0  0  0  0  0  0  0  0  0  0  0  0
   -6.3756   -0.7636    0.2046 C   0  0  0  0  0  0  0  0  0  0  0  0
   -6.5590    1.7957   -0.7239 C   0  0  0  0  0  0  0  0  0  0  0  0
   -7.5524    0.8519   -0.9287 C   0  0  0  0  0  0  0  0  0  0  0  0
   -6.3235   -2.1358    0.6788 C   0  0  0  0  0  0  0  0  0  0  0  0
   -7.5265   -4.3333    0.8020 C   0  0  0  0  0  0  0  0  0  0  0  0
    5.1058   -0.9758   -1.5272 H   0  0  0  0  0  0  0  0  0  0  0  0
    3.9374    1.2894    1.9716 H   0  0  0  0  0  0  0  0  0  0  0  0
    2.9016   -0.2856   -1.2417 H   0  0  0  0  0  0  0  0  0  0  0  0
   -0.1453    2.0151    1.5160 H   0  0  0  0  0  0  0  0  0  0  0  0
    0.9407    0.0589   -1.4623 H   0  0  0  0  0  0  0  0  0  0  0  0
   -3.5694    0.9206   -1.8915 H   0  0  0  0  0  0  0  0  0  0  0  0
   -2.4054    2.7419    1.8438 H   0  0  0  0  0  0  0  0  0  0  0  0
    6.1805    1.2196    2.7936 H   0  0  0  0  0  0  0  0  0  0  0  0
   -4.4647   -0.2134    1.0383 H   0  0  0  0  0  0  0  0  0  0  0  0
   -6.6603    2.8050   -1.1052 H   0  0  0  0  0  0  0  0  0  0  0  0
   -8.4544    1.1047   -1.4762 H   0  0  0  0  0  0  0  0  0  0  0  0
   -8.1777   -2.5729   -0.1777 H   0  0  0  0  0  0  0  0  0  0  0  0
   -6.9363   -4.5087    1.7046 H   0  0  0  0  0  0  0  0  0  0  0  0
   -8.5788   -4.5554    0.9936 H   0  0  0  0  0  0  0  0  0  0  0  0
   -7.1586   -4.9681   -0.0077 H   0  0  0  0  0  0  0  0  0  0  0  0
  1 19  1  0  0  0  0
  2 20  1  0  0  0  0
  3 26  1  0  0  0  0
  4 26  1  0  0  0  0
  5 26  1  0  0  0  0
  6 17  1  0  0  0  0
  6 27  1  0  0  0  0
  7 25  2  0  0  0  0
  8 32  2  0  0  0  0
  9 13  1  0  0  0  0
  9 25  1  0  0  0  0
  9 36  1  0  0  0  0
 10 15  1  0  0  0  0
 10 25  1  0  0  0  0
 10 38  1  0  0  0  0
 11 29  2  0  0  0  0
 11 31  1  0  0  0  0
 12 32  1  0  0  0  0
 12 33  1  0  0  0  0
 12 45  1  0  0  0  0
 13 16  2  0  0  0  0
 13 18  1  0  0  0  0
 14 16  1  0  0  0  0
 14 19  2  0  0  0  0
 14 26  1  0  0  0  0
 15 20  2  0  0  0  0
 15 21  1  0  0  0  0
 16 34  1  0  0  0  0
 17 22  2  0  0  0  0
 17 23  1  0  0  0  0
 18 24  2  0  0  0  0
 18 35  1  0  0  0  0
 19 24  1  0  0  0  0
 20 22  1  0  0  0  0
 21 23  2  0  0  0  0
 21 37  1  0  0  0  0
 22 39  1  0  0  0  0
 23 40  1  0  0  0  0
 24 41  1  0  0  0  0
 27 28  2  0  0  0  0
 27 30  1  0  0  0  0
 28 29  1  0  0  0  0
 28 42  1  0  0  0  0
 29 32  1  0  0  0  0
 30 31  2  0  0  0  0
 30 43  1  0  0  0  0
 31 44  1  0  0  0  0
 33 46  1  0  0  0  0
 33 47  1  0  0  0  0
 33 48  1  0  0  0  0
M  END
> <DATABASE_ID>
DB08896

> <DATABASE_NAME>
drugbank

> <ORIGINAL_SOURCE>
PUBCHEM

> <ORIGINAL_SOURCE_URL>
https://pubchem.ncbi.nlm.nih.gov/rest/pug/compound/inchikey/FNHKPVJBJVTLMP-UHFFFAOYSA-N/SDF?record_type=3d

> <SMILES>
CNC(=O)C1=CC(OC2=CC(F)=C(NC(=O)NC3=CC=C(Cl)C(=C3)C(F)(F)F)C=C2)=CC=N1

> <INCHI_IDENTIFIER>
InChI=1S/C21H15ClF4N4O3/c1-27-19(31)18-10-13(6-7-28-18)33-12-3-5-17(16(23)9-12)30-20(32)29-11-2-4-15(22)14(8-11)21(24,25)26/h2-10H,1H3,(H,27,31)(H2,29,30,32)

> <INCHI_KEY>
FNHKPVJBJVTLMP-UHFFFAOYSA-N

> <FORMULA>
C21H15ClF4N4O3

> <MOLECULAR_WEIGHT>
482.815

> <EXACT_MASS>
482.076880893

> <JCHEM_ACCEPTOR_COUNT>
3

> <JCHEM_AVERAGE_POLARIZABILITY>
41.23447447826536

> <JCHEM_BIOAVAILABILITY>
1

> <JCHEM_DONOR_COUNT>
3

> <JCHEM_FORMAL_CHARGE>
0

> <JCHEM_GHOSE_FILTER>
0

> <JCHEM_IUPAC>
4-[4-({[4-chloro-3-(trifluoromethyl)phenyl]carbamoyl}amino)-3-fluorophenoxy]-N-methylpyridine-2-carboxamide

> <ALOGPS_LOGP>
4.53

> <JCHEM_LOGP>
4.486031697

> <ALOGPS_LOGS>
-5.67

> <JCHEM_MDDR_LIKE_RULE>
1

> <JCHEM_NUMBER_OF_RINGS>
3

> <JCHEM_PHYSIOLOGICAL_CHARGE>
0

> <JCHEM_PKA>
13.968945246285848

> <JCHEM_PKA_STRONGEST_ACIDIC>
10.517571102150528

> <JCHEM_PKA_STRONGEST_BASIC>
2.023422473708148

> <JCHEM_POLAR_SURFACE_AREA>
92.35

> <JCHEM_REFRACTIVITY>
114.73470000000002

> <JCHEM_ROTATABLE_BOND_COUNT>
6

> <JCHEM_RULE_OF_FIVE>
1

> <ALOGPS_SOLUBILITY>
1.02e-03 g/l

> <JCHEM_TRADITIONAL_IUPAC>
regorafenib

> <JCHEM_VEBER_RULE>
0

> <DRUGBANK_ID>
DB08896

> <DRUG_GROUPS>
approved

> <GENERIC_NAME>
Regorafenib

> <SYNONYMS>
Regorafenib; Régorafénib; Regorafenibum

> <PRODUCTS>
Stivarga

> <SALTS>
Regorafenib monohydrate

$$$$
