REMARK  Name = 45268539
REMARK  6 active torsions:
REMARK  status: ('A' for Active; 'I' for Inactive)
REMARK    1  A    between atoms: N_2  and  C_22
REMARK    2  A    between atoms: N_3  and  C_7
REMARK    3  A    between atoms: N_3  and  O_12
REMARK    4  A    between atoms: C_8  and  C_14
REMARK    5  A    between atoms: C_15  and  C_16
REMARK    6  A    between atoms: C_22  and  C_26
REMARK                            x       y       z     vdW  Elec       q    Type
REMARK                         _______ _______ _______ _____ _____    ______ ____
ROOT
ATOM      1  O   UNL     1      -0.679   3.211  -1.156  0.00  0.00    -0.273 OA
ATOM      2  N   UNL     1      -1.242   0.904  -1.263  0.00  0.00    -0.253 N 
ATOM      3  C   UNL     1      -0.482  -0.277  -1.158  0.00  0.00    +0.052 C 
ATOM      4  C   UNL     1       0.864   0.026  -0.951  0.00  0.00    +0.018 C 
ATOM      5  C   UNL     1      -0.437   2.023  -1.130  0.00  0.00    +0.252 C 
ATOM      6  C   UNL     1       0.954   1.473  -0.924  0.00  0.00    +0.202 C 
ATOM      7  C   UNL     1       1.838  -0.940  -0.812  0.00  0.00    -0.001 C 
ATOM      8  C   UNL     1      -0.902  -1.592  -1.234  0.00  0.00    +0.015 C 
ATOM      9  C   UNL     1       1.422  -2.270  -0.887  0.00  0.00    -0.000 C 
ATOM     10  C   UNL     1       0.067  -2.593  -1.096  0.00  0.00    +0.001 C 
ENDROOT
BRANCH   7  11
ATOM     11  C   UNL     1       3.240  -0.631  -0.598  0.00  0.00    -0.000 C 
ATOM     12  C   UNL     1       3.980  -1.044   0.461  0.00  0.00    -0.000 C 
BRANCH  12  13
ATOM     13  C   UNL     1       5.408  -0.745   0.670  0.00  0.00    -0.000 C 
ATOM     14  C   UNL     1       6.001   0.327   0.003  0.00  0.00    -0.000 C 
ATOM     15  C   UNL     1       6.166  -1.533   1.536  0.00  0.00    -0.000 C 
ATOM     16  C   UNL     1       7.353   0.610   0.201  0.00  0.00    +0.000 C 
ATOM     17  C   UNL     1       7.517  -1.250   1.734  0.00  0.00    +0.000 C 
ATOM     18  C   UNL     1       8.111  -0.179   1.066  0.00  0.00    +0.000 C 
ENDBRANCH  12  13
ENDBRANCH   7  11
BRANCH   6  19
ATOM     19  N   UNL     1       1.994   2.211  -0.761  0.00  0.00    -0.075 NA
BRANCH  19  20
ATOM     20  O   UNL     1       1.599   3.551  -0.808  0.00  0.00    -0.294 OA
ATOM     21  H   UNL     1       2.236   4.231  -0.706  0.00  0.00    +0.238 HD
ENDBRANCH  19  20
ENDBRANCH   6  19
BRANCH   2  22
ATOM     22  C   UNL     1      -2.668   0.914  -1.479  0.00  0.00    +0.128 C 
BRANCH  22  26
ATOM     23  F   UNL     1      -3.800   2.337   3.031  0.00  0.00    -0.204 F 
ATOM     24  O   UNL     1      -4.435  -1.222  -1.110  0.00  0.00    -0.448 OA
ATOM     25  O   UNL     1      -5.618  -2.717   0.349  0.00  0.00    -0.311 OA
ATOM     26  C   UNL     1      -3.432   0.712  -0.203  0.00  0.00    +0.034 C 
ATOM     27  C   UNL     1      -4.309  -0.362  -0.048  0.00  0.00    +0.138 C 
ATOM     28  C   UNL     1      -5.002  -0.546   1.155  0.00  0.00    +0.043 C 
ATOM     29  C   UNL     1      -3.261   1.622   0.840  0.00  0.00    +0.030 C 
ATOM     30  C   UNL     1      -5.938  -1.706   1.304  0.00  0.00    +0.176 C 
ATOM     31  C   UNL     1      -4.833   0.378   2.191  0.00  0.00    +0.031 C 
ATOM     32  C   UNL     1      -3.963   1.458   2.034  0.00  0.00    +0.140 C 
ATOM     33  C   UNL     1      -5.514  -2.150  -0.955  0.00  0.00    +0.361 C 
ENDBRANCH  22  26
ENDBRANCH   2  22
TORSDOF 6
