REMARK  Name = 9547984
REMARK  7 active torsions:
REMARK  status: ('A' for Active; 'I' for Inactive)
REMARK    1  A    between atoms: N_1  and  C_4
REMARK    2  A    between atoms: N_1  and  C_14
REMARK    3  A    between atoms: C_4  and  N_5
REMARK    4  A    between atoms: C_14  and  C_15
REMARK    5  A    between atoms: C_15  and  C_18
REMARK    6  A    between atoms: C_20  and  O_23
REMARK    7  A    between atoms: O_23  and  C_24
REMARK                            x       y       z     vdW  Elec       q    Type
REMARK                         _______ _______ _______ _____ _____    ______ ____
ROOT
ATOM      1  N   UNL     1      -2.568  -2.319   0.507  0.00  0.00    -0.315 N 
ATOM      2  H   UNL     1      -3.216  -2.978   0.167  0.00  0.00    +0.148 HD
ENDROOT
BRANCH   1   4
ATOM      3  S   UNL     1      -0.921  -3.778  -0.915  0.00  0.00    -0.019 S 
ATOM      4  C   UNL     1      -1.253  -2.469   0.084  0.00  0.00    +0.136 C 
BRANCH   4   5
ATOM      5  N   UNL     1      -0.353  -1.516   0.583  0.00  0.00    -0.281 N 
ATOM      6  N   UNL     1       1.671  -2.128  -0.477  0.00  0.00    -0.229 NA
ATOM      7  C   UNL     1       1.022  -1.328   0.399  0.00  0.00    +0.133 C 
ATOM      8  C   UNL     1       3.702  -0.933   0.065  0.00  0.00    -0.003 C 
ATOM      9  C   UNL     1       1.634  -0.325   1.133  0.00  0.00    +0.034 C 
ATOM     10  C   UNL     1       3.000  -0.130   0.957  0.00  0.00    +0.000 C 
ATOM     11  C   UNL     1       2.997  -1.909  -0.622  0.00  0.00    +0.096 C 
ATOM     12  C   UNL     1       5.163  -0.750  -0.145  0.00  0.00    +0.033 C 
ATOM     13  H   UNL     1      -0.768  -0.851   1.178  0.00  0.00    +0.155 HD
ENDBRANCH   4   5
ENDBRANCH   1   4
BRANCH   1  14
ATOM     14  C   UNL     1      -3.090  -1.297   1.394  0.00  0.00    +0.095 C 
BRANCH  14  15
ATOM     15  C   UNL     1      -3.579  -0.061   0.641  0.00  0.00    +0.069 C 
BRANCH  15  18
ATOM     16  F   UNL     1      -1.891   1.956   1.657  0.00  0.00    -0.200 F 
ATOM     17  N   UNL     1      -2.383   0.147  -1.452  0.00  0.00    -0.246 NA
ATOM     18  C   UNL     1      -2.498   0.589  -0.188  0.00  0.00    +0.091 C 
ATOM     19  C   UNL     1      -1.718   1.568   0.387  0.00  0.00    +0.187 C 
ATOM     20  C   UNL     1      -0.733   2.146  -0.406  0.00  0.00    +0.169 C 
ATOM     21  C   UNL     1      -0.572   1.725  -1.722  0.00  0.00    +0.060 C 
ATOM     22  C   UNL     1      -1.415   0.731  -2.193  0.00  0.00    +0.102 C 
BRANCH  20  23
ATOM     23  O   UNL     1       0.072   3.118   0.102  0.00  0.00    -0.473 OA
BRANCH  23  24
ATOM     24  C   UNL     1       1.394   3.209  -0.428  0.00  0.00    +0.206 C 
ATOM     25  C   UNL     1       2.317   3.754   0.640  0.00  0.00    +0.051 C 
ENDBRANCH  23  24
ENDBRANCH  20  23
ENDBRANCH  15  18
ENDBRANCH  14  15
ENDBRANCH   1  14
TORSDOF 7
