REMARK  Name = 44112
REMARK  9 active torsions:
REMARK  status: ('A' for Active; 'I' for Inactive)
REMARK    1  A    between atoms: C_1  and  O_2
REMARK    2  A    between atoms: C_1  and  C_11
REMARK    3  A    between atoms: C_1  and  C_19
REMARK    4  A    between atoms: O_2  and  C_4
REMARK    5  A    between atoms: C_4  and  C_5
REMARK    6  A    between atoms: C_11  and  N_12
REMARK    7  A    between atoms: N_12  and  C_15
REMARK    8  A    between atoms: C_19  and  O_20
REMARK    9  A    between atoms: O_20  and  C_23
REMARK                            x       y       z     vdW  Elec       q    Type
REMARK                         _______ _______ _______ _____ _____    ______ ____
ROOT
ATOM      1  C   UNL     1       2.141  -0.986  -0.862  0.00  0.00    +0.192 C 
ENDROOT
BRANCH   1   2
ATOM      2  O   UNL     1       1.153  -1.859  -0.306  0.00  0.00    -0.448 OA
BRANCH   2   4
ATOM      3  O   UNL     1       0.299  -2.425  -2.367  0.00  0.00    -0.245 OA
ATOM      4  C   UNL     1       0.182  -2.270  -1.162  0.00  0.00    +0.341 C 
BRANCH   4   5
ATOM      5  C   UNL     1      -1.085  -2.515  -0.428  0.00  0.00    +0.076 C 
ATOM      6  C   UNL     1      -2.284  -2.324  -1.084  0.00  0.00    +0.006 C 
ATOM      7  C   UNL     1      -1.025  -2.928   0.888  0.00  0.00    +0.006 C 
ATOM      8  C   UNL     1      -3.474  -2.554  -0.395  0.00  0.00    +0.000 C 
ATOM      9  C   UNL     1      -2.215  -3.159   1.577  0.00  0.00    +0.000 C 
ATOM     10  C   UNL     1      -3.440  -2.972   0.936  0.00  0.00    +0.000 C 
ENDBRANCH   4   5
ENDBRANCH   2   4
ENDBRANCH   1   2
BRANCH   1  11
ATOM     11  C   UNL     1       3.163  -0.663   0.231  0.00  0.00    -0.033 C 
BRANCH  11  12
ATOM     12  N   UNL     1       4.192   0.256  -0.236  0.00  0.00    +0.389 N 
ATOM     13  H   UNL     1       4.688  -0.168  -1.020  0.00  0.00    -0.084 HD
ATOM     14  H   UNL     1       3.744   1.126  -0.526  0.00  0.00    -0.084 HD
BRANCH  12  15
ATOM     15  C   UNL     1       5.144   0.554   0.825  0.00  0.00    -0.046 C 
ATOM     16  C   UNL     1       5.820  -0.745   1.281  0.00  0.00    -0.022 C 
ATOM     17  C   UNL     1       4.388   1.193   1.994  0.00  0.00    -0.022 C 
ATOM     18  C   UNL     1       6.193   1.530   0.280  0.00  0.00    -0.022 C 
ENDBRANCH  12  15
ENDBRANCH  11  12
ENDBRANCH   1  11
BRANCH   1  19
ATOM     19  C   UNL     1       1.439   0.251  -1.419  0.00  0.00    +0.246 C 
BRANCH  19  20
ATOM     20  O   UNL     1       0.726   0.887  -0.365  0.00  0.00    -0.472 OA
BRANCH  20  23
ATOM     21  N   UNL     1      -3.513   2.412   0.798  0.00  0.00    -0.316 N 
ATOM     22  C   UNL     1      -1.488   1.714   0.173  0.00  0.00    +0.048 C 
ATOM     23  C   UNL     1      -0.401   1.583  -0.714  0.00  0.00    +0.140 C 
ATOM     24  C   UNL     1      -2.610   2.436  -0.241  0.00  0.00    +0.051 C 
ATOM     25  C   UNL     1      -1.750   1.257   1.495  0.00  0.00    +0.014 C 
ATOM     26  C   UNL     1      -3.002   1.702   1.851  0.00  0.00    +0.026 C 
ATOM     27  C   UNL     1      -0.477   2.176  -1.980  0.00  0.00    +0.037 C 
ATOM     28  C   UNL     1      -2.700   3.035  -1.502  0.00  0.00    +0.015 C 
ATOM     29  C   UNL     1      -1.609   2.891  -2.365  0.00  0.00    +0.004 C 
ATOM     30  C   UNL     1      -3.768   1.523   3.098  0.00  0.00    +0.047 C 
ATOM     31  H   UNL     1      -4.398   2.843   0.785  0.00  0.00    +0.152 HD
ENDBRANCH  20  23
ENDBRANCH  19  20
ENDBRANCH   1  19
TORSDOF 9
