REMARK  Name = 24864082
REMARK  4 active torsions:
REMARK  status: ('A' for Active; 'I' for Inactive)
REMARK    1  A    between atoms: C_3  and  C_9
REMARK    2  A    between atoms: C_4  and  N_20
REMARK    3  A    between atoms: N_8  and  C_12
REMARK    4  A    between atoms: C_21  and  C_25
REMARK                            x       y       z     vdW  Elec       q    Type
REMARK                         _______ _______ _______ _____ _____    ______ ____
ROOT
ATOM      1  N   UNL     1       1.781   2.424   0.265  0.00  0.00    -0.230 N 
ATOM      2  N   UNL     1       0.977   3.501   0.232  0.00  0.00    -0.178 NA
ATOM      3  C   UNL     1       1.113   1.236   0.221  0.00  0.00    +0.133 C 
ATOM      4  C   UNL     1      -0.221   1.557   0.156  0.00  0.00    +0.091 C 
ATOM      5  C   UNL     1      -0.244   2.965   0.166  0.00  0.00    +0.134 C 
ATOM      6  H   UNL     1       2.762   2.487   0.315  0.00  0.00    +0.175 HD
ENDROOT
BRANCH   3   9
ATOM      7  O   UNL     1       1.082  -1.109   0.181  0.00  0.00    -0.269 OA
ATOM      8  N   UNL     1       3.158  -0.085   0.315  0.00  0.00    -0.303 N 
ATOM      9  C   UNL     1       1.772  -0.095   0.244  0.00  0.00    +0.262 C 
ATOM     10  H   UNL     1       3.623   0.782   0.363  0.00  0.00    +0.150 HD
BRANCH   8  12
ATOM     11  N   UNL     1       6.185  -0.226   0.492  0.00  0.00    +0.385 N 
ATOM     12  C   UNL     1       3.945  -1.298   0.321  0.00  0.00    +0.051 C 
ATOM     13  C   UNL     1       4.272  -1.750  -1.106  0.00  0.00    +0.015 C 
ATOM     14  C   UNL     1       5.336  -0.858  -1.742  0.00  0.00    -0.022 C 
ATOM     15  C   UNL     1       5.227  -1.122   1.145  0.00  0.00    -0.062 C 
ATOM     16  C   UNL     1       6.557  -0.716  -0.836  0.00  0.00    -0.082 C 
ATOM     17  H   UNL     1       7.024  -0.161   1.068  0.00  0.00    -0.084 HD
ATOM     18  H   UNL     1       5.747   0.689   0.385  0.00  0.00    -0.084 HD
ENDBRANCH   8  12
ENDBRANCH   3   9
BRANCH   4  20
ATOM     19  O   UNL     1      -3.166   2.098   0.009  0.00  0.00    -0.270 OA
ATOM     20  N   UNL     1      -1.282   0.686   0.095  0.00  0.00    -0.278 N 
ATOM     21  C   UNL     1      -2.663   0.979   0.026  0.00  0.00    +0.254 C 
ATOM     22  H   UNL     1      -1.048  -0.270   0.099  0.00  0.00    +0.155 HD
BRANCH  21  25
ATOM     23  F   UNL     1      -2.040  -1.473   1.275  0.00  0.00    -0.204 F 
ATOM     24  F   UNL     1      -5.163   1.031  -1.282  0.00  0.00    -0.204 F 
ATOM     25  C   UNL     1      -3.579  -0.192  -0.002  0.00  0.00    +0.108 C 
ATOM     26  C   UNL     1      -3.214  -1.378   0.634  0.00  0.00    +0.147 C 
ATOM     27  C   UNL     1      -4.802  -0.104  -0.666  0.00  0.00    +0.147 C 
ATOM     28  C   UNL     1      -4.073  -2.477   0.607  0.00  0.00    +0.030 C 
ATOM     29  C   UNL     1      -5.661  -1.203  -0.693  0.00  0.00    +0.030 C 
ATOM     30  C   UNL     1      -5.296  -2.389  -0.057  0.00  0.00    +0.005 C 
ENDBRANCH  21  25
ENDBRANCH   4  20
TORSDOF 4
