REMARK  Name = 23400214
REMARK  3 active torsions:
REMARK  status: ('A' for Active; 'I' for Inactive)
REMARK    1  A    between atoms: N_1  and  C_10
REMARK    2  A    between atoms: N_16  and  C_18
REMARK    3  A    between atoms: C_21  and  C_27
REMARK                            x       y       z     vdW  Elec       q    Type
REMARK                         _______ _______ _______ _____ _____    ______ ____
ROOT
ATOM      1  N   UNL     1      -3.326  -0.538   0.222  0.00  0.00    -0.176 N 
ATOM      2  N   UNL     1      -3.178  -1.801   0.664  0.00  0.00    -0.175 NA
ATOM      3  N   UNL     1      -1.980   1.326  -0.536  0.00  0.00    -0.231 NA
ATOM      4  N   UNL     1       0.400   0.792  -0.506  0.00  0.00    -0.233 NA
ATOM      5  C   UNL     1      -1.154  -0.853   0.187  0.00  0.00    +0.152 C 
ATOM      6  C   UNL     1      -2.146   0.075  -0.078  0.00  0.00    +0.141 C 
ATOM      7  C   UNL     1       0.159  -0.458  -0.043  0.00  0.00    +0.118 C 
ATOM      8  C   UNL     1      -1.854  -1.987   0.640  0.00  0.00    +0.106 C 
ATOM      9  C   UNL     1      -0.669   1.595  -0.721  0.00  0.00    +0.253 C 
ATOM     10  N   UNL     1       1.230  -1.337   0.199  0.00  0.00    -0.301 N 
ATOM     11  H   UNL     1       0.949  -2.219   0.533  0.00  0.00    +0.153 HD
ENDROOT
BRANCH  10  12
ATOM     12  C   UNL     1       2.628  -1.205   0.058  0.00  0.00    +0.045 C 
ATOM     13  C   UNL     1       3.423  -2.312  -0.237  0.00  0.00    -0.008 C 
ATOM     14  C   UNL     1       3.213   0.051   0.216  0.00  0.00    +0.019 C 
ATOM     15  C   UNL     1       4.594   0.200   0.081  0.00  0.00    +0.055 C 
ATOM     16  C   UNL     1       4.804  -2.164  -0.372  0.00  0.00    -0.003 C 
ATOM     17  C   UNL     1       5.389  -0.907  -0.214  0.00  0.00    +0.004 C 
ATOM     18  C   UNL     1       2.824  -3.670  -0.412  0.00  0.00    +0.032 C 
BRANCH  15  21
ATOM     19  O   UNL     1       6.391   1.612   0.604  0.00  0.00    -0.270 OA
ATOM     20  N   UNL     1       4.405   2.624  -0.036  0.00  0.00    -0.299 N 
ATOM     21  C   UNL     1       5.204   1.510   0.246  0.00  0.00    +0.246 C 
ATOM     22  C   UNL     1       4.874   3.987   0.058  0.00  0.00    +0.111 C 
ATOM     23  H   UNL     1       3.474   2.470  -0.315  0.00  0.00    +0.150 HD
ENDBRANCH  15  21
ENDBRANCH  10  12
BRANCH   1  24
ATOM     24  C   UNL     1      -4.598   0.019   0.109  0.00  0.00    +0.075 C 
ATOM     25  C   UNL     1      -4.775   1.393   0.272  0.00  0.00    +0.017 C 
ATOM     26  C   UNL     1      -5.696  -0.797  -0.166  0.00  0.00    +0.017 C 
ATOM     27  C   UNL     1      -6.049   1.951   0.160  0.00  0.00    +0.001 C 
ATOM     28  C   UNL     1      -6.969  -0.240  -0.278  0.00  0.00    +0.001 C 
ATOM     29  C   UNL     1      -7.146   1.135  -0.115  0.00  0.00    +0.000 C 
ENDBRANCH   1  24
TORSDOF 3
