REMARK  Name = 24779676
REMARK  4 active torsions:
REMARK  status: ('A' for Active; 'I' for Inactive)
REMARK    1  A    between atoms: N_2  and  C_22
REMARK    2  A    between atoms: N_3  and  C_14
REMARK    3  A    between atoms: C_10  and  C_21
REMARK    4  A    between atoms: C_22  and  C_24
REMARK                            x       y       z     vdW  Elec       q    Type
REMARK                         _______ _______ _______ _____ _____    ______ ____
ROOT
ATOM      1  N   UNL     1       2.471  -1.385   0.014  0.00  0.00    -0.123 N 
ATOM      2  N   UNL     1      -1.355  -0.208   0.024  0.00  0.00    -0.254 N 
ATOM      3  N   UNL     1       3.258   0.841   0.019  0.00  0.00    -0.274 N 
ATOM      4  N   UNL     1       0.946   0.322   0.021  0.00  0.00    -0.295 NA
ATOM      5  N   UNL     1       0.186  -1.943   0.015  0.00  0.00    -0.314 NA
ATOM      6  N   UNL     1       3.716  -1.893   0.011  0.00  0.00    -0.170 NA
ATOM      7  C   UNL     1       2.200  -0.026   0.019  0.00  0.00    +0.279 C 
ATOM      8  C   UNL     1       1.482  -2.326   0.012  0.00  0.00    +0.219 C 
ATOM      9  C   UNL     1      -0.053  -0.650   0.019  0.00  0.00    +0.203 C 
ATOM     10  C   UNL     1       2.130  -3.540   0.006  0.00  0.00    +0.203 C 
ATOM     11  C   UNL     1       3.501  -3.212   0.006  0.00  0.00    +0.116 C 
ATOM     12  H   UNL     1      -1.530   0.761   0.027  0.00  0.00    +0.161 HD
ATOM     13  H   UNL     1       4.157   0.439   0.017  0.00  0.00    +0.156 HD
ENDROOT
BRANCH   3  14
ATOM     14  C   UNL     1       3.200   2.236   0.021  0.00  0.00    +0.051 C 
ATOM     15  C   UNL     1       4.215   2.977  -0.584  0.00  0.00    +0.015 C 
ATOM     16  C   UNL     1       2.127   2.888   0.629  0.00  0.00    +0.015 C 
ATOM     17  C   UNL     1       4.156   4.371  -0.582  0.00  0.00    +0.001 C 
ATOM     18  C   UNL     1       2.068   4.282   0.630  0.00  0.00    +0.001 C 
ATOM     19  C   UNL     1       3.083   5.023   0.025  0.00  0.00    +0.000 C 
ENDBRANCH   3  14
BRANCH  10  21
ATOM     20  N   UNL     1       1.034  -5.877  -0.001  0.00  0.00    -0.195 NA
ATOM     21  C   UNL     1       1.527  -4.826   0.002  0.00  0.00    +0.087 C 
ENDBRANCH  10  21
BRANCH   2  22
ATOM     22  C   UNL     1      -2.463  -1.110   0.023  0.00  0.00    +0.125 C 
BRANCH  22  24
ATOM     23 CL   UNL     1      -7.651   1.930  -0.103  0.00  0.00    -0.082 Cl
ATOM     24  C   UNL     1      -3.760  -0.351  -0.008  0.00  0.00    -0.002 C 
ATOM     25  C   UNL     1      -4.379   0.024   1.185  0.00  0.00    -0.002 C 
ATOM     26  C   UNL     1      -4.345  -0.019  -1.231  0.00  0.00    -0.002 C 
ATOM     27  C   UNL     1      -5.582   0.729   1.155  0.00  0.00    +0.011 C 
ATOM     28  C   UNL     1      -5.548   0.686  -1.260  0.00  0.00    +0.011 C 
ATOM     29  C   UNL     1      -6.166   1.060  -0.067  0.00  0.00    +0.058 C 
ENDBRANCH  22  24
ENDBRANCH   2  22
TORSDOF 4
