REMARK  Name = 5189
REMARK  3 active torsions:
REMARK  status: ('A' for Active; 'I' for Inactive)
REMARK    1  A    between atoms: C_16  and  C_23
REMARK    2  A    between atoms: C_23  and  O_24
REMARK    3  A    between atoms: O_24  and  C_25
REMARK                            x       y       z     vdW  Elec       q    Type
REMARK                         _______ _______ _______ _____ _____    ______ ____
ROOT
ATOM      1  S   UNL     1       4.713   0.192  -2.183  0.00  0.00    -0.120 S 
ATOM      2  S   UNL     1      -3.424   2.643   0.542  0.00  0.00    -0.059 S 
ATOM      3  N   UNL     1       1.452   0.589  -0.133  0.00  0.00    -0.283 N 
ATOM      4  N   UNL     1      -1.407   0.926   0.088  0.00  0.00    -0.275 N 
ATOM      5  N   UNL     1       3.474  -0.317   0.605  0.00  0.00    -0.394 NA
ATOM      6  N   UNL     1      -3.662   0.117   0.045  0.00  0.00    -0.378 NA
ATOM      7  C   UNL     1       0.802   1.836  -0.526  0.00  0.00    +0.114 C 
ATOM      8  C   UNL     1       0.599  -0.481   0.375  0.00  0.00    +0.114 C 
ATOM      9  C   UNL     1      -0.487   2.054   0.266  0.00  0.00    +0.115 C 
ATOM     10  C   UNL     1      -0.811  -0.381  -0.208  0.00  0.00    +0.115 C 
ATOM     11  C   UNL     1       2.813   0.429  -0.237  0.00  0.00    +0.171 C 
ATOM     12  C   UNL     1      -2.773   1.086   0.193  0.00  0.00    +0.211 C 
ATOM     13  C   UNL     1       3.484   1.212  -1.348  0.00  0.00    +0.133 C 
ATOM     14  C   UNL     1       4.865  -0.501   0.487  0.00  0.00    +0.124 C 
ATOM     15  C   UNL     1       5.567  -0.351  -0.719  0.00  0.00    +0.122 C 
ATOM     16  C   UNL     1      -4.932   0.631   0.217  0.00  0.00    +0.198 C 
ATOM     17  C   UNL     1      -5.005   1.980   0.493  0.00  0.00    +0.132 C 
ATOM     18  C   UNL     1       5.567  -0.924   1.625  0.00  0.00    +0.029 C 
ATOM     19  C   UNL     1       6.939  -0.626  -0.780  0.00  0.00    -0.009 C 
ATOM     20  C   UNL     1       6.936  -1.186   1.566  0.00  0.00    +0.002 C 
ATOM     21  C   UNL     1       7.621  -1.040   0.363  0.00  0.00    -0.003 C 
ENDROOT
BRANCH  16  23
ATOM     22  O   UNL     1      -7.253   0.161   0.247  0.00  0.00    -0.242 OA
ATOM     23  C   UNL     1      -6.080  -0.225   0.106  0.00  0.00    +0.368 C 
BRANCH  23  24
ATOM     24  O   UNL     1      -5.778  -1.542  -0.175  0.00  0.00    -0.444 OA
BRANCH  24  25
ATOM     25  C   UNL     1      -6.877  -2.451  -0.299  0.00  0.00    +0.209 C 
ATOM     26  C   UNL     1      -6.342  -3.833  -0.607  0.00  0.00    +0.051 C 
ENDBRANCH  24  25
ENDBRANCH  23  24
ENDBRANCH  16  23
TORSDOF 3
