REMARK  Name = 6006216
REMARK  7 active torsions:
REMARK  status: ('A' for Active; 'I' for Inactive)
REMARK    1  A    between atoms: C_2  and  C_6
REMARK    2  A    between atoms: C_3  and  C_17
REMARK    3  A    between atoms: C_9  and  C_13
REMARK    4  A    between atoms: C_13  and  O_14
REMARK    5  A    between atoms: C_16  and  N_20
REMARK    6  A    between atoms: C_16  and  C_21
REMARK    7  A    between atoms: C_21  and  C_22
REMARK                            x       y       z     vdW  Elec       q    Type
REMARK                         _______ _______ _______ _____ _____    ______ ____
ROOT
ATOM      1  O   UNL     1      -0.526   0.258   0.528  0.00  0.00    -0.453 OA
ATOM      2  C   UNL     1       0.606  -0.494   0.496  0.00  0.00    +0.145 C 
ATOM      3  C   UNL     1      -1.542  -0.602   0.758  0.00  0.00    +0.147 C 
ATOM      4  C   UNL     1       0.309  -1.821   0.705  0.00  0.00    +0.041 C 
ATOM      5  C   UNL     1      -1.094  -1.888   0.875  0.00  0.00    +0.041 C 
ENDROOT
BRANCH   2   6
ATOM      6  C   UNL     1       1.822   0.231   0.261  0.00  0.00    +0.035 C 
ATOM      7  C   UNL     1       3.046  -0.442   0.207  0.00  0.00    +0.009 C 
ATOM      8  C   UNL     1       1.790   1.618   0.082  0.00  0.00    +0.003 C 
ATOM      9  C   UNL     1       4.227   0.264  -0.023  0.00  0.00    +0.076 C 
ATOM     10  C   UNL     1       2.970   2.324  -0.147  0.00  0.00    +0.000 C 
ATOM     11  C   UNL     1       4.189   1.647  -0.200  0.00  0.00    +0.006 C 
BRANCH   9  13
ATOM     12  O   UNL     1       5.647  -1.659   0.063  0.00  0.00    -0.245 OA
ATOM     13  C   UNL     1       5.497  -0.442  -0.079  0.00  0.00    +0.338 C 
BRANCH  13  14
ATOM     14  O   UNL     1       6.546   0.394  -0.313  0.00  0.00    -0.477 OA
ATOM     15  H   UNL     1       6.399   1.313  -0.416  0.00  0.00    +0.295 HD
ENDBRANCH  13  14
ENDBRANCH   9  13
ENDBRANCH   2   6
BRANCH   3  17
ATOM     16  C   UNL     1      -3.696  -0.023  -0.211  0.00  0.00    +0.124 C 
ATOM     17  C   UNL     1      -2.894  -0.154   0.855  0.00  0.00    +0.057 C 
BRANCH  16  20
ATOM     18  O   UNL     1      -3.257  -1.648  -1.740  0.00  0.00    -0.126 OA
ATOM     19  O   UNL     1      -2.470   0.381  -2.083  0.00  0.00    -0.126 OA
ATOM     20  N   UNL     1      -3.097  -0.462  -1.435  0.00  0.00    +0.054 N 
ENDBRANCH  16  20
BRANCH  16  21
ATOM     21  C   UNL     1      -5.119   0.418  -0.359  0.00  0.00    +0.051 C 
BRANCH  21  22
ATOM     22  C   UNL     1      -5.750   0.841   0.972  0.00  0.00    +0.006 C 
ATOM     23  C   UNL     1      -7.200   1.261   0.789  0.00  0.00    +0.000 C 
ENDBRANCH  21  22
ENDBRANCH  16  21
ENDBRANCH   3  17
TORSDOF 7
