REMARK  Name = 11653652
REMARK  5 active torsions:
REMARK  status: ('A' for Active; 'I' for Inactive)
REMARK    1  A    between atoms: N_1  and  C_19
REMARK    2  A    between atoms: C_4  and  C_7
REMARK    3  A    between atoms: C_5  and  C_27
REMARK    4  A    between atoms: N_6  and  C_13
REMARK    5  A    between atoms: N_6  and  O_16
REMARK                            x       y       z     vdW  Elec       q    Type
REMARK                         _______ _______ _______ _____ _____    ______ ____
ROOT
ATOM      1  N   UNL     1       2.574   0.777  -0.057  0.00  0.00    -0.212 N 
ATOM      2  N   UNL     1       2.522  -0.564   0.006  0.00  0.00    -0.178 NA
ATOM      3  C   UNL     1       1.350   1.374  -0.140  0.00  0.00    +0.085 C 
ATOM      4  C   UNL     1       0.438   0.351  -0.131  0.00  0.00    +0.032 C 
ATOM      5  C   UNL     1       1.211  -0.819  -0.040  0.00  0.00    +0.100 C 
ENDROOT
BRANCH   4   6
ATOM      6  C   UNL     1      -0.982   0.557  -0.203  0.00  0.00    -0.015 C 
ATOM      7  C   UNL     1      -3.087   0.911   0.879  0.00  0.00    -0.016 C 
ATOM      8  C   UNL     1      -4.058   1.099   2.003  0.00  0.00    -0.002 C 
ATOM      9  C   UNL     1      -3.693   0.949  -0.372  0.00  0.00    +0.016 C 
ATOM     10  C   UNL     1      -5.416   1.270   1.302  0.00  0.00    +0.021 C 
ATOM     11  C   UNL     1      -1.719   0.715   0.975  0.00  0.00    +0.053 C 
ATOM     12  C   UNL     1      -5.110   1.165  -0.169  0.00  0.00    +0.107 C 
ATOM     13  C   UNL     1      -1.614   0.598  -1.458  0.00  0.00    -0.004 C 
ATOM     14  C   UNL     1      -2.991   0.797  -1.553  0.00  0.00    +0.001 C 
BRANCH  12  15
ATOM     15  N   UNL     1      -6.018   1.260  -1.078  0.00  0.00    -0.135 NA
BRANCH  15  16
ATOM     16  O   UNL     1      -7.250   1.467  -0.452  0.00  0.00    -0.265 OA
ATOM     17  H   UNL     1      -8.027   1.560  -0.967  0.00  0.00    +0.247 HD
ENDBRANCH  15  16
ENDBRANCH  12  15
ENDBRANCH   4   6
BRANCH   1  19
ATOM     18  N   UNL     1       6.793   1.516   0.097  0.00  0.00    +0.384 N 
ATOM     19  C   UNL     1       3.874   1.456  -0.031  0.00  0.00    +0.092 C 
ATOM     20  C   UNL     1       4.641   1.220   1.280  0.00  0.00    -0.002 C 
ATOM     21  C   UNL     1       4.753   1.100  -1.240  0.00  0.00    -0.002 C 
ATOM     22  C   UNL     1       5.996   1.925   1.254  0.00  0.00    -0.080 C 
ATOM     23  C   UNL     1       6.104   1.811  -1.161  0.00  0.00    -0.080 C 
ATOM     24  H   UNL     1       6.966   0.512   0.152  0.00  0.00    -0.085 HD
ATOM     25  H   UNL     1       7.669   2.037   0.111  0.00  0.00    -0.085 HD
ENDBRANCH   1  19
BRANCH   5  27
ATOM     26  N   UNL     1      -0.181  -4.812   0.092  0.00  0.00    -0.242 NA
ATOM     27  C   UNL     1       0.737  -2.179   0.005  0.00  0.00    +0.022 C 
ATOM     28  C   UNL     1       0.563  -2.891  -1.173  0.00  0.00    +0.022 C 
ATOM     29  C   UNL     1       0.455  -2.774   1.227  0.00  0.00    +0.022 C 
ATOM     30  C   UNL     1       0.105  -4.195  -1.077  0.00  0.00    +0.099 C 
ATOM     31  C   UNL     1       0.002  -4.083   1.216  0.00  0.00    +0.099 C 
ENDBRANCH   5  27
TORSDOF 5
