REMARK  Name = 5004
REMARK  4 active torsions:
REMARK  status: ('A' for Active; 'I' for Inactive)
REMARK    1  A    between atoms: C_9  and  O_17
REMARK    2  A    between atoms: C_10  and  O_19
REMARK    3  A    between atoms: C_11  and  O_21
REMARK    4  A    between atoms: C_13  and  O_23
REMARK                            x       y       z     vdW  Elec       q    Type
REMARK                         _______ _______ _______ _____ _____    ______ ____
ROOT
ATOM      1  O   UNL     1       0.296   2.451  -0.002  0.00  0.00    -0.286 OA
ATOM      2  O   UNL     1      -0.571  -2.822  -0.001  0.00  0.00    -0.286 OA
ATOM      3  C   UNL     1       1.222   0.292   0.000  0.00  0.00    +0.079 C 
ATOM      4  C   UNL     1      -1.288   0.718   0.000  0.00  0.00    +0.079 C 
ATOM      5  C   UNL     1      -1.522  -0.659   0.000  0.00  0.00    +0.079 C 
ATOM      6  C   UNL     1       0.988  -1.085  -0.001  0.00  0.00    +0.045 C 
ATOM      7  C   UNL     1       0.093   1.244   0.000  0.00  0.00    +0.202 C 
ATOM      8  C   UNL     1      -0.392  -1.611   0.000  0.00  0.00    +0.199 C 
ATOM      9  C   UNL     1       2.535   0.777   0.001  0.00  0.00    +0.171 C 
ATOM     10  C   UNL     1      -2.367   1.610   0.000  0.00  0.00    +0.137 C 
ATOM     11  C   UNL     1      -2.835  -1.144   0.000  0.00  0.00    +0.137 C 
ATOM     12  C   UNL     1       2.068  -1.977   0.000  0.00  0.00    +0.007 C 
ATOM     13  C   UNL     1       3.608  -0.115   0.001  0.00  0.00    +0.168 C 
ATOM     14  C   UNL     1       3.375  -1.489   0.000  0.00  0.00    +0.040 C 
ATOM     15  C   UNL     1      -3.675   1.122   0.001  0.00  0.00    +0.040 C 
ATOM     16  C   UNL     1      -3.908  -0.252   0.001  0.00  0.00    +0.040 C 
ENDROOT
BRANCH   9  17
ATOM     17  O   UNL     1       2.823   2.111   0.001  0.00  0.00    -0.503 OA
ATOM     18  H   UNL     1       2.129   2.740   0.001  0.00  0.00    +0.292 HD
ENDBRANCH   9  17
BRANCH  10  19
ATOM     19  O   UNL     1      -2.212   2.964  -0.001  0.00  0.00    -0.505 OA
ATOM     20  H   UNL     1      -1.353   3.337  -0.001  0.00  0.00    +0.292 HD
ENDBRANCH  10  19
BRANCH  11  21
ATOM     21  O   UNL     1      -3.132  -2.475   0.000  0.00  0.00    -0.505 OA
ATOM     22  H   UNL     1      -2.442  -3.109   0.000  0.00  0.00    +0.292 HD
ENDBRANCH  11  21
BRANCH  13  23
ATOM     23  O   UNL     1       4.893   0.341   0.000  0.00  0.00    -0.503 OA
ATOM     24  H   UNL     1       5.063   1.262   0.000  0.00  0.00    +0.292 HD
ENDBRANCH  13  23
TORSDOF 4
