REMARK  Name = 24779674
REMARK  2 active torsions:
REMARK  status: ('A' for Active; 'I' for Inactive)
REMARK    1  A    between atoms: N_2  and  C_14
REMARK    2  A    between atoms: N_5  and  C_20
REMARK                            x       y       z     vdW  Elec       q    Type
REMARK                         _______ _______ _______ _____ _____    ______ ____
ROOT
ATOM      1  N   UNL     1       0.722  -2.116   0.091  0.00  0.00    -0.124 N 
ATOM      2  N   UNL     1       2.630  -0.732  -0.061  0.00  0.00    -0.274 N 
ATOM      3  N   UNL     1       0.453   0.152   0.248  0.00  0.00    -0.295 NA
ATOM      4  N   UNL     1      -1.455  -1.278   0.397  0.00  0.00    -0.315 NA
ATOM      5  N   UNL     1      -1.722   1.022   0.555  0.00  0.00    -0.238 N 
ATOM      6  N   UNL     1       1.446  -3.239  -0.057  0.00  0.00    -0.171 NA
ATOM      7  C   UNL     1       1.274  -0.845   0.095  0.00  0.00    +0.279 C 
ATOM      8  C   UNL     1      -0.618  -2.328   0.239  0.00  0.00    +0.206 C 
ATOM      9  C   UNL     1      -0.913  -0.080   0.399  0.00  0.00    +0.207 C 
ATOM     10  C   UNL     1      -0.782  -3.693   0.185  0.00  0.00    +0.127 C 
ATOM     11  C   UNL     1       0.520  -4.201   0.002  0.00  0.00    +0.101 C 
ATOM     12  H   UNL     1       3.131  -1.572  -0.167  0.00  0.00    +0.156 HD
ATOM     13  H   UNL     1      -1.319   1.806   0.995  0.00  0.00    +0.166 HD
ENDROOT
BRANCH   2  14
ATOM     14  C   UNL     1       3.376   0.447  -0.084  0.00  0.00    +0.051 C 
ATOM     15  C   UNL     1       4.552   0.514  -0.832  0.00  0.00    +0.015 C 
ATOM     16  C   UNL     1       2.946   1.559   0.640  0.00  0.00    +0.015 C 
ATOM     17  C   UNL     1       5.298   1.692  -0.855  0.00  0.00    +0.001 C 
ATOM     18  C   UNL     1       3.692   2.737   0.617  0.00  0.00    +0.001 C 
ATOM     19  C   UNL     1       4.868   2.804  -0.131  0.00  0.00    +0.000 C 
ENDBRANCH   2  14
BRANCH   5  20
ATOM     20  C   UNL     1      -3.050   1.143   0.157  0.00  0.00    +0.058 C 
ATOM     21  C   UNL     1      -3.917   1.974   0.866  0.00  0.00    +0.015 C 
ATOM     22  C   UNL     1      -3.513   0.433  -0.951  0.00  0.00    +0.015 C 
ATOM     23  C   UNL     1      -5.249   2.095   0.467  0.00  0.00    +0.001 C 
ATOM     24  C   UNL     1      -4.844   0.554  -1.349  0.00  0.00    +0.001 C 
ATOM     25  C   UNL     1      -5.712   1.385  -0.640  0.00  0.00    +0.000 C 
ENDBRANCH   5  20
TORSDOF 2
