REMARK  Name = 11370952
REMARK  6 active torsions:
REMARK  status: ('A' for Active; 'I' for Inactive)
REMARK    1  A    between atoms: N_1  and  C_3
REMARK    2  A    between atoms: N_1  and  C_18
REMARK    3  A    between atoms: C_4  and  N_9
REMARK    4  A    between atoms: N_9  and  C_12
REMARK    5  A    between atoms: C_19  and  N_24
REMARK    6  A    between atoms: N_24  and  C_27
REMARK                            x       y       z     vdW  Elec       q    Type
REMARK                         _______ _______ _______ _____ _____    ______ ____
ROOT
ATOM      1  N   UNL     1      -0.046   1.951  -0.172  0.00  0.00    -0.313 N 
ATOM      2  H   UNL     1      -0.194   2.891  -0.426  0.00  0.00    +0.152 HD
ENDROOT
BRANCH   1   3
ATOM      3  C   UNL     1       1.316   1.594  -0.090  0.00  0.00    +0.048 C 
ATOM      4  C   UNL     1       4.009   0.885   0.080  0.00  0.00    +0.047 C 
ATOM      5  C   UNL     1       2.267   2.550   0.266  0.00  0.00    +0.016 C 
ATOM      6  C   UNL     1       1.711   0.284  -0.360  0.00  0.00    +0.016 C 
ATOM      7  C   UNL     1       3.613   2.196   0.351  0.00  0.00    +0.016 C 
ATOM      8  C   UNL     1       3.057  -0.070  -0.275  0.00  0.00    +0.016 C 
BRANCH   4   9
ATOM      9  N   UNL     1       5.370   0.527   0.168  0.00  0.00    -0.303 N 
ATOM     10  H   UNL     1       5.959   1.273   0.426  0.00  0.00    +0.150 HD
BRANCH   9  13
ATOM     11  N   UNL     1       7.381  -0.658   0.137  0.00  0.00    -0.301 N 
ATOM     12  N   UNL     1       5.558  -1.816  -0.381  0.00  0.00    -0.301 N 
ATOM     13  C   UNL     1       6.052  -0.687  -0.041  0.00  0.00    +0.225 C 
ATOM     14  C   UNL     1       7.807  -1.931  -0.119  0.00  0.00    +0.076 C 
ATOM     15  C   UNL     1       6.664  -2.627  -0.437  0.00  0.00    +0.076 C 
ATOM     16  H   UNL     1       7.932   0.115   0.398  0.00  0.00    +0.150 HD
ATOM     17  H   UNL     1       4.618  -2.047  -0.560  0.00  0.00    +0.150 HD
ENDBRANCH   9  13
ENDBRANCH   4   9
ENDBRANCH   1   3
BRANCH   1  18
ATOM     18  C   UNL     1      -1.236   1.227   0.037  0.00  0.00    +0.048 C 
ATOM     19  C   UNL     1      -3.594  -0.211   0.445  0.00  0.00    +0.047 C 
ATOM     20  C   UNL     1      -2.392   1.564  -0.669  0.00  0.00    +0.016 C 
ATOM     21  C   UNL     1      -1.261   0.170   0.947  0.00  0.00    +0.016 C 
ATOM     22  C   UNL     1      -3.570   0.846  -0.465  0.00  0.00    +0.016 C 
ATOM     23  C   UNL     1      -2.439  -0.549   1.151  0.00  0.00    +0.016 C 
BRANCH  19  24
ATOM     24  N   UNL     1      -4.784  -0.939   0.650  0.00  0.00    -0.303 N 
ATOM     25  H   UNL     1      -4.696  -1.663   1.311  0.00  0.00    +0.150 HD
BRANCH  24  28
ATOM     26  N   UNL     1      -6.983  -1.714   0.537  0.00  0.00    -0.301 N 
ATOM     27  N   UNL     1      -6.487   0.004  -0.779  0.00  0.00    -0.301 N 
ATOM     28  C   UNL     1      -6.075  -0.832   0.096  0.00  0.00    +0.225 C 
ATOM     29  C   UNL     1      -8.134  -1.413  -0.136  0.00  0.00    +0.076 C 
ATOM     30  C   UNL     1      -7.803  -0.349  -0.941  0.00  0.00    +0.076 C 
ATOM     31  H   UNL     1      -6.850  -2.426   1.204  0.00  0.00    +0.150 HD
ATOM     32  H   UNL     1      -5.984   0.724  -1.225  0.00  0.00    +0.150 HD
ENDBRANCH  24  28
ENDBRANCH  19  24
ENDBRANCH   1  18
TORSDOF 6
