REMARK  Name = 5496653
REMARK  11 active torsions:
REMARK  status: ('A' for Active; 'I' for Inactive)
REMARK    1  A    between atoms: P_1  and  O_3
REMARK    2  A    between atoms: P_1  and  O_5
REMARK    3  A    between atoms: P_1  and  C_15
REMARK    4  A    between atoms: O_5  and  C_6
REMARK    5  A    between atoms: C_11  and  N_14
REMARK    6  A    between atoms: C_15  and  C_16
REMARK    7  A    between atoms: C_16  and  C_17
REMARK    8  A    between atoms: C_17  and  C_20
REMARK    9  A    between atoms: N_19  and  CA_22
REMARK   10  A    between atoms: CA_22  and  C_25
REMARK   11  A    between atoms: C_25  and  O_26
REMARK                            x       y       z     vdW  Elec       q    Type
REMARK                         _______ _______ _______ _____ _____    ______ ____
ROOT
ATOM      1  P   UNL     1      -1.086   1.997  -0.015  0.00  0.00    +0.388 P 
ATOM      2  O   UNL     1      -1.200   2.268   1.446  0.00  0.00    -0.244 OA
ENDROOT
BRANCH   1   3
ATOM      3  O   UNL     1      -1.744   3.092  -0.998  0.00  0.00    -0.315 OA
ATOM      4  H   UNL     1      -2.684   3.198  -0.780  0.00  0.00    +0.221 HD
ENDBRANCH   1   3
BRANCH   1   5
ATOM      5  O   UNL     1      -1.641   0.582  -0.541  0.00  0.00    -0.422 OA
BRANCH   5   6
ATOM      6  C   UNL     1      -2.919   0.132  -0.351  0.00  0.00    +0.147 C 
ATOM      7  C   UNL     1      -3.840   0.919   0.341  0.00  0.00    +0.039 C 
ATOM      8  C   UNL     1      -3.301  -1.114  -0.847  0.00  0.00    +0.039 C 
ATOM      9  C   UNL     1      -5.142   0.461   0.536  0.00  0.00    +0.027 C 
ATOM     10  C   UNL     1      -4.604  -1.573  -0.652  0.00  0.00    +0.027 C 
ATOM     11  C   UNL     1      -5.524  -0.786   0.039  0.00  0.00    +0.143 C 
BRANCH  11  14
ATOM     12  O   UNL     1      -7.663  -0.529   0.863  0.00  0.00    -0.126 OA
ATOM     13  O   UNL     1      -7.174  -2.376  -0.217  0.00  0.00    -0.126 OA
ATOM     14  N   UNL     1      -6.851  -1.253   0.238  0.00  0.00    +0.058 N 
ENDBRANCH  11  14
ENDBRANCH   5   6
ENDBRANCH   1   5
BRANCH   1  15
ATOM     15  C   UNL     1       0.627   1.963  -0.589  0.00  0.00    +0.129 C 
BRANCH  15  16
ATOM     16  C   UNL     1       1.477   0.898   0.091  0.00  0.00    +0.023 C 
BRANCH  16  17
ATOM     17  C   UNL     1       2.915   0.893  -0.424  0.00  0.00    +0.086 C 
BRANCH  17  20
ATOM     18  O   UNL     1       3.319  -0.974   1.063  0.00  0.00    -0.275 OA
ATOM     19  N   UNL     1       5.058  -0.184  -0.259  0.00  0.00    -0.297 N 
ATOM     20  C   ACE A   0       3.756  -0.195   0.221  0.00  0.00    +0.223 C 
ATOM     21  H   UNL     1       5.304   0.487  -0.936  0.00  0.00    +0.150 HD
BRANCH  19  22
ATOM     22  CA  UNL     1       6.070  -1.112   0.191  0.00  0.00    +0.171 C 
ATOM     23  CB  UNL     1       6.068  -2.365  -0.671  0.00  0.00    +0.033 C 
BRANCH  22  25
ATOM     24  OXT UNL     1       8.451  -1.059   0.609  0.00  0.00    -0.248 OA
ATOM     25  C   UNL     1       7.451  -0.478   0.199  0.00  0.00    +0.332 C 
BRANCH  25  26
ATOM     26  O   UNL     1       7.495   0.791  -0.274  0.00  0.00    -0.479 OA
ATOM     27  H   UNL     1       6.711   1.204  -0.579  0.00  0.00    +0.295 HD
ENDBRANCH  25  26
ENDBRANCH  22  25
ENDBRANCH  19  22
ENDBRANCH  17  20
ENDBRANCH  16  17
ENDBRANCH  15  16
ENDBRANCH   1  15
TORSDOF 11
