REMARK  Name = 387316
REMARK  9 active torsions:
REMARK  status: ('A' for Active; 'I' for Inactive)
REMARK    1  A    between atoms: C_6  and  C_24
REMARK    2  A    between atoms: C_10  and  O_20
REMARK    3  A    between atoms: C_19  and  O_22
REMARK    4  A    between atoms: C_24  and  C_26
REMARK    5  A    between atoms: C_26  and  C_27
REMARK    6  A    between atoms: C_27  and  C_30
REMARK    7  A    between atoms: N_29  and  C_32
REMARK    8  A    between atoms: C_32  and  C_33
REMARK    9  A    between atoms: C_33  and  S_34
REMARK                            x       y       z     vdW  Elec       q    Type
REMARK                         _______ _______ _______ _____ _____    ______ ____
ROOT
ATOM      1  C   UNL     1      -1.202  -0.351  -0.834  0.00  0.00    +0.002 C 
ATOM      2  C   UNL     1      -0.812  -1.684  -0.161  0.00  0.00    +0.000 C 
ATOM      3  C   UNL     1      -2.702  -0.254  -1.154  0.00  0.00    +0.027 C 
ATOM      4  C   UNL     1      -3.507  -0.386   0.182  0.00  0.00    +0.002 C 
ATOM      5  C   UNL     1      -5.062  -0.296  -0.062  0.00  0.00    +0.000 C 
ATOM      6  C   UNL     1       0.718  -1.468  -0.052  0.00  0.00    +0.000 C 
ATOM      7  C   UNL     1      -5.392   1.041  -0.805  0.00  0.00    +0.005 C 
ATOM      8  C   UNL     1      -1.547  -1.757   1.183  0.00  0.00    +0.000 C 
ATOM      9  C   UNL     1      -3.070  -1.630   1.005  0.00  0.00    +0.000 C 
ATOM     10  C   UNL     1      -3.055   1.038  -1.915  0.00  0.00    +0.110 C 
ATOM     11  C   UNL     1      -0.197  -0.217  -1.974  0.00  0.00    +0.000 C 
ATOM     12  C   UNL     1       1.096  -0.836  -1.411  0.00  0.00    +0.000 C 
ATOM     13  C   UNL     1      -4.566   1.216  -2.095  0.00  0.00    +0.029 C 
ATOM     14  C   UNL     1      -5.881  -0.347   1.262  0.00  0.00    +0.002 C 
ATOM     15  C   UNL     1      -1.138  -2.942  -1.005  0.00  0.00    +0.000 C 
ATOM     16  C   UNL     1      -5.271   2.281   0.106  0.00  0.00    +0.029 C 
ATOM     17  C   UNL     1      -5.565  -1.492  -0.915  0.00  0.00    +0.000 C 
ATOM     18  C   UNL     1      -5.713   0.882   2.145  0.00  0.00    +0.029 C 
ATOM     19  C   UNL     1      -6.091   2.147   1.386  0.00  0.00    +0.111 C 
ENDROOT
BRANCH  10  20
ATOM     20  O   UNL     1      -2.502   2.171  -1.253  0.00  0.00    -0.384 OA
ATOM     21  H   UNL     1      -1.546   2.048  -1.144  0.00  0.00    +0.210 HD
ENDBRANCH  10  20
BRANCH  19  22
ATOM     22  O   UNL     1      -5.852   3.269   2.228  0.00  0.00    -0.384 OA
ATOM     23  H   UNL     1      -6.089   4.083   1.756  0.00  0.00    +0.210 HD
ENDBRANCH  19  22
BRANCH   6  24
ATOM     24  C   UNL     1       1.557  -2.692   0.286  0.00  0.00    +0.000 C 
ATOM     25  C   UNL     1       1.450  -3.004   1.784  0.00  0.00    +0.000 C 
BRANCH  24  26
ATOM     26  C   UNL     1       3.042  -2.520  -0.095  0.00  0.00    +0.010 C 
BRANCH  26  27
ATOM     27  C   UNL     1       3.735  -1.388   0.663  0.00  0.00    +0.085 C 
BRANCH  27  30
ATOM     28  O   UNL     1       5.773  -2.027  -0.477  0.00  0.00    -0.275 OA
ATOM     29  N   UNL     1       5.823  -0.251   1.021  0.00  0.00    -0.303 N 
ATOM     30  C   UNL     1       5.212  -1.283   0.324  0.00  0.00    +0.223 C 
ATOM     31  H   UNL     1       5.276   0.285   1.640  0.00  0.00    +0.149 HD
BRANCH  29  32
ATOM     32  C   UNL     1       7.224   0.076   0.881  0.00  0.00    +0.115 C 
BRANCH  32  33
ATOM     33  C   UNL     1       7.467   1.094  -0.217  0.00  0.00    +0.179 C 
BRANCH  33  34
ATOM     34  S   UNL     1       6.586   2.599   0.056  0.00  0.00    +0.024 S 
ATOM     35  O   UNL     1       7.246   3.455  -1.166  0.00  0.00    -0.069 OA
ATOM     36  O   UNL     1       7.018   3.175   1.316  0.00  0.00    -0.069 OA
ATOM     37  O   UNL     1       5.181   2.377  -0.236  0.00  0.00    -0.069 OA
ENDBRANCH  33  34
ENDBRANCH  32  33
ENDBRANCH  29  32
ENDBRANCH  27  30
ENDBRANCH  26  27
ENDBRANCH  24  26
ENDBRANCH   6  24
TORSDOF 9
