REMARK  Name = 24752837
REMARK  10 active torsions:
REMARK  status: ('A' for Active; 'I' for Inactive)
REMARK    1  A    between atoms: C_2  and  C_25
REMARK    2  A    between atoms: C_3  and  C_30
REMARK    3  A    between atoms: C_6  and  C_8
REMARK    4  A    between atoms: C_7  and  C_16
REMARK    5  A    between atoms: C_13  and  O_14
REMARK    6  A    between atoms: C_21  and  O_22
REMARK    7  A    between atoms: C_25  and  O_26
REMARK    8  A    between atoms: O_26  and  C_27
REMARK    9  A    between atoms: C_30  and  O_31
REMARK   10  A    between atoms: O_31  and  C_32
REMARK                            x       y       z     vdW  Elec       q    Type
REMARK                         _______ _______ _______ _____ _____    ______ ____
ROOT
ATOM      1  O   UNL     1      -0.418  -0.147  -3.001  0.00  0.00    -0.349 OA
ATOM      2  C   UNL     1      -1.609  -1.341  -1.465  0.00  0.00    +0.144 C 
ATOM      3  C   UNL     1      -2.017   0.155  -1.392  0.00  0.00    +0.144 C 
ATOM      4  C   UNL     1      -0.196  -1.242  -2.065  0.00  0.00    +0.149 C 
ATOM      5  C   UNL     1      -0.777   0.850  -2.000  0.00  0.00    +0.149 C 
ATOM      6  C   UNL     1       0.767  -0.569  -1.113  0.00  0.00    +0.003 C 
ATOM      7  C   UNL     1       0.443   0.742  -1.114  0.00  0.00    +0.003 C 
ENDROOT
BRANCH   6   8
ATOM      8  C   UNL     1       1.809  -1.309  -0.404  0.00  0.00    -0.002 C 
ATOM      9  C   UNL     1       2.776  -2.012  -1.122  0.00  0.00    +0.003 C 
ATOM     10  C   UNL     1       1.837  -1.312   0.990  0.00  0.00    +0.003 C 
ATOM     11  C   UNL     1       3.771  -2.719  -0.446  0.00  0.00    +0.037 C 
ATOM     12  C   UNL     1       2.831  -2.018   1.667  0.00  0.00    +0.037 C 
ATOM     13  C   UNL     1       3.798  -2.721   0.949  0.00  0.00    +0.134 C 
BRANCH  13  14
ATOM     14  O   UNL     1       4.769  -3.410   1.609  0.00  0.00    -0.506 OA
ATOM     15  H   UNL     1       5.418  -3.883   1.126  0.00  0.00    +0.292 HD
ENDBRANCH  13  14
ENDBRANCH   6   8
BRANCH   7  16
ATOM     16  C   UNL     1       1.060   1.907  -0.469  0.00  0.00    -0.002 C 
ATOM     17  C   UNL     1       0.272   2.993  -0.092  0.00  0.00    +0.003 C 
ATOM     18  C   UNL     1       2.435   1.927  -0.234  0.00  0.00    +0.003 C 
ATOM     19  C   UNL     1       0.858   4.101   0.521  0.00  0.00    +0.037 C 
ATOM     20  C   UNL     1       3.021   3.034   0.379  0.00  0.00    +0.037 C 
ATOM     21  C   UNL     1       2.233   4.121   0.756  0.00  0.00    +0.134 C 
BRANCH  21  22
ATOM     22  O   UNL     1       2.805   5.201   1.355  0.00  0.00    -0.506 OA
ATOM     23  H   UNL     1       2.275   5.931   1.609  0.00  0.00    +0.292 HD
ENDBRANCH  21  22
ENDBRANCH   7  16
BRANCH   2  25
ATOM     24  O   UNL     1      -0.696  -2.662   0.328  0.00  0.00    -0.250 OA
ATOM     25  C   UNL     1      -1.667  -2.131  -0.194  0.00  0.00    +0.320 C 
BRANCH  25  26
ATOM     26  O   UNL     1      -2.950  -2.157   0.269  0.00  0.00    -0.448 OA
BRANCH  26  27
ATOM     27  C   UNL     1      -3.150  -2.885   1.485  0.00  0.00    +0.209 C 
ATOM     28  C   UNL     1      -4.614  -2.820   1.863  0.00  0.00    +0.051 C 
ENDBRANCH  26  27
ENDBRANCH  25  26
ENDBRANCH   2  25
BRANCH   3  30
ATOM     29  O   UNL     1      -1.641   0.660   0.931  0.00  0.00    -0.250 OA
ATOM     30  C   UNL     1      -2.387   0.680  -0.039  0.00  0.00    +0.320 C 
BRANCH  30  31
ATOM     31  O   UNL     1      -3.659   1.170  -0.072  0.00  0.00    -0.448 OA
BRANCH  31  32
ATOM     32  C   UNL     1      -4.143   1.707   1.163  0.00  0.00    +0.209 C 
ATOM     33  C   UNL     1      -5.558   2.206   0.962  0.00  0.00    +0.051 C 
ENDBRANCH  31  32
ENDBRANCH  30  31
ENDBRANCH   3  30
TORSDOF 10
