REMARK  Name = 10958449
REMARK  10 active torsions:
REMARK  status: ('A' for Active; 'I' for Inactive)
REMARK    1  A    between atoms: C_1  and  N_3
REMARK    2  A    between atoms: C_1  and  C_14
REMARK    3  A    between atoms: C_1  and  C_21
REMARK    4  A    between atoms: C_4  and  O_6
REMARK    5  A    between atoms: O_6  and  C_7
REMARK    6  A    between atoms: C_7  and  C_8
REMARK    7  A    between atoms: C_14  and  C_15
REMARK    8  A    between atoms: C_21  and  O_22
REMARK    9  A    between atoms: C_21  and  C_25
REMARK   10  A    between atoms: C_25  and  O_26
REMARK                            x       y       z     vdW  Elec       q    Type
REMARK                         _______ _______ _______ _____ _____    ______ ____
ROOT
ATOM      1  C   UNL     1       2.134  -1.110   0.220  0.00  0.00    +0.117 C 
ENDROOT
BRANCH   1   3
ATOM      2  O   UNL     1       0.266  -0.189  -1.805  0.00  0.00    -0.226 OA
ATOM      3  N   UNL     1       0.725  -0.800   0.384  0.00  0.00    -0.269 N 
ATOM      4  C   UNL     1      -0.081  -0.367  -0.643  0.00  0.00    +0.402 C 
ATOM      5  H   UNL     1       0.325  -0.904   1.278  0.00  0.00    +0.153 HD
BRANCH   4   6
ATOM      6  O   UNL     1      -1.347  -0.162  -0.171  0.00  0.00    -0.430 OA
BRANCH   6   7
ATOM      7  C   UNL     1      -2.305   0.293  -1.133  0.00  0.00    +0.237 C 
BRANCH   7   8
ATOM      8  C   UNL     1      -3.634   0.468  -0.457  0.00  0.00    +0.021 C 
ATOM      9  C   UNL     1      -3.960   1.693   0.114  0.00  0.00    -0.001 C 
ATOM     10  C   UNL     1      -4.526  -0.598  -0.407  0.00  0.00    -0.001 C 
ATOM     11  C   UNL     1      -5.195   1.854   0.743  0.00  0.00    -0.000 C 
ATOM     12  C   UNL     1      -5.760  -0.436   0.222  0.00  0.00    -0.000 C 
ATOM     13  C   UNL     1      -6.095   0.789   0.797  0.00  0.00    -0.000 C 
ENDBRANCH   7   8
ENDBRANCH   6   7
ENDBRANCH   4   6
ENDBRANCH   1   3
BRANCH   1  14
ATOM     14  C   UNL     1       2.957  -0.129   1.080  0.00  0.00    +0.049 C 
BRANCH  14  15
ATOM     15  C   UNL     1       3.037   1.277   0.541  0.00  0.00    -0.020 C 
ATOM     16  C   UNL     1       2.077   2.206   0.916  0.00  0.00    -0.004 C 
ATOM     17  C   UNL     1       4.067   1.619  -0.322  0.00  0.00    -0.004 C 
ATOM     18  C   UNL     1       2.150   3.506   0.416  0.00  0.00    -0.000 C 
ATOM     19  C   UNL     1       4.141   2.919  -0.821  0.00  0.00    -0.000 C 
ATOM     20  C   UNL     1       3.182   3.863  -0.452  0.00  0.00    -0.000 C 
ENDBRANCH  14  15
ENDBRANCH   1  14
BRANCH   1  21
ATOM     21  C   UNL     1       2.341  -2.605   0.534  0.00  0.00    +0.228 C 
BRANCH  21  22
ATOM     22  O   UNL     1       2.107  -2.848   1.914  0.00  0.00    -0.373 OA
ATOM     23  H   UNL     1       2.678  -2.271   2.445  0.00  0.00    +0.211 HD
ENDBRANCH  21  22
BRANCH  21  25
ATOM     24  O   UNL     1       0.589  -4.262   0.207  0.00  0.00    -0.248 OA
ATOM     25  C   UNL     1       1.436  -3.520  -0.272  0.00  0.00    +0.343 C 
BRANCH  25  26
ATOM     26  O   UNL     1       1.694  -3.461  -1.604  0.00  0.00    -0.478 OA
ATOM     27  H   UNL     1       2.351  -2.878  -1.929  0.00  0.00    +0.295 HD
ENDBRANCH  25  26
ENDBRANCH  21  25
ENDBRANCH   1  21
TORSDOF 10
