REMARK  Name = 73333
REMARK  7 active torsions:
REMARK  status: ('A' for Active; 'I' for Inactive)
REMARK    1  A    between atoms: C_1  and  C_2
REMARK    2  A    between atoms: C_1  and  C_17
REMARK    3  A    between atoms: C_2  and  C_3
REMARK    4  A    between atoms: C_3  and  N_5
REMARK    5  A    between atoms: N_7  and  C_15
REMARK    6  A    between atoms: C_17  and  C_19
REMARK    7  A    between atoms: C_17  and  C_26
REMARK                            x       y       z     vdW  Elec       q    Type
REMARK                         _______ _______ _______ _____ _____    ______ ____
ROOT
ATOM      1  C   UNL     1      -1.079  -0.573   1.335  0.00  0.00    +0.007 C 
ENDROOT
BRANCH   1   2
ATOM      2  C   UNL     1      -0.325   0.343   2.311  0.00  0.00    -0.022 C 
BRANCH   2   3
ATOM      3  C   UNL     1       1.061  -0.217   2.629  0.00  0.00    -0.077 C 
BRANCH   3   5
ATOM      4  O   UNL     1       5.770   1.023  -1.370  0.00  0.00    -0.253 OA
ATOM      5  N   UNL     1       1.847  -0.353   1.403  0.00  0.00    +0.389 N 
ATOM      6  N   UNL     1       4.214  -0.262  -0.228  0.00  0.00    -0.269 N 
ATOM      7  N   UNL     1       6.371  -1.098  -0.729  0.00  0.00    -0.289 N 
ATOM      8  C   UNL     1       2.901  -1.360   1.576  0.00  0.00    -0.055 C 
ATOM      9  C   UNL     1       2.440   0.936   1.025  0.00  0.00    -0.055 C 
ATOM     10  C   UNL     1       3.716  -1.543   0.293  0.00  0.00    +0.072 C 
ATOM     11  C   UNL     1       3.212   0.804  -0.285  0.00  0.00    +0.072 C 
ATOM     12  C   UNL     1       5.475  -0.039  -0.811  0.00  0.00    +0.304 C 
ATOM     13  H   UNL     1       1.223  -0.657   0.657  0.00  0.00    -0.080 HD
ATOM     14  H   UNL     1       6.083  -1.922  -0.272  0.00  0.00    +0.151 HD
BRANCH   7  15
ATOM     15  C   UNL     1       7.708  -1.048  -1.282  0.00  0.00    +0.091 C 
ATOM     16  C   UNL     1       8.658  -0.300  -0.370  0.00  0.00    +0.023 C 
ENDBRANCH   7  15
ENDBRANCH   3   5
ENDBRANCH   2   3
ENDBRANCH   1   2
BRANCH   1  17
ATOM     17  C   UNL     1      -2.530  -0.097   1.068  0.00  0.00    +0.044 C 
BRANCH  17  19
ATOM     18  F   UNL     1      -2.837   4.977  -1.405  0.00  0.00    -0.204 F 
ATOM     19  C   UNL     1      -2.613   1.271   0.401  0.00  0.00    -0.018 C 
ATOM     20  C   UNL     1      -3.709   2.100   0.643  0.00  0.00    -0.002 C 
ATOM     21  C   UNL     1      -1.594   1.694  -0.452  0.00  0.00    -0.002 C 
ATOM     22  C   UNL     1      -3.784   3.352   0.033  0.00  0.00    +0.029 C 
ATOM     23  C   UNL     1      -1.669   2.946  -1.062  0.00  0.00    +0.029 C 
ATOM     24  C   UNL     1      -2.765   3.775  -0.819  0.00  0.00    +0.140 C 
ENDBRANCH  17  19
BRANCH  17  26
ATOM     25  F   UNL     1      -5.642  -3.916  -1.708  0.00  0.00    -0.204 F 
ATOM     26  C   UNL     1      -3.370  -1.127   0.319  0.00  0.00    -0.018 C 
ATOM     27  C   UNL     1      -4.748  -1.187   0.525  0.00  0.00    -0.002 C 
ATOM     28  C   UNL     1      -2.759  -2.010  -0.572  0.00  0.00    -0.002 C 
ATOM     29  C   UNL     1      -5.516  -2.129  -0.160  0.00  0.00    +0.029 C 
ATOM     30  C   UNL     1      -3.527  -2.952  -1.257  0.00  0.00    +0.029 C 
ATOM     31  C   UNL     1      -4.905  -3.011  -1.051  0.00  0.00    +0.140 C 
ENDBRANCH  17  26
ENDBRANCH   1  17
TORSDOF 7
