REMARK  Name = 6852201
REMARK  12 active torsions:
REMARK  status: ('A' for Active; 'I' for Inactive)
REMARK    1  A    between atoms: N_4  and  C_15
REMARK    2  A    between atoms: C_6  and  O_33
REMARK    3  A    between atoms: C_14  and  S_20
REMARK    4  A    between atoms: S_20  and  C_23
REMARK    5  A    between atoms: C_23  and  C_24
REMARK    6  A    between atoms: C_24  and  N_25
REMARK    7  A    between atoms: N_25  and  C_28
REMARK    8  A    between atoms: C_28  and  C_29
REMARK    9  A    between atoms: C_29  and  C_30
REMARK   10  A    between atoms: C_30  and  O_31
REMARK   11  A    between atoms: O_33  and  C_34
REMARK   12  A    between atoms: C_34  and  C_35
REMARK                            x       y       z     vdW  Elec       q    Type
REMARK                         _______ _______ _______ _____ _____    ______ ____
ROOT
ATOM      1  N   UNL     1      -3.007  -0.700   0.076  0.00  0.00    -0.293 NA
ATOM      2  N   UNL     1      -6.453   0.405   0.727  0.00  0.00    -0.266 NA
ATOM      3  N   UNL     1      -4.511  -2.487   0.780  0.00  0.00    -0.316 NA
ATOM      4  N   UNL     1      -2.260  -2.909   0.300  0.00  0.00    -0.238 N 
ATOM      5  N   UNL     1      -6.786  -1.746   1.207  0.00  0.00    -0.296 N 
ATOM      6  C   UNL     1      -3.994   0.221   0.150  0.00  0.00    +0.288 C 
ATOM      7  C   UNL     1      -5.247  -0.208   0.540  0.00  0.00    +0.215 C 
ATOM      8  C   UNL     1      -5.479  -1.542   0.845  0.00  0.00    +0.196 C 
ATOM      9  C   UNL     1      -3.322  -1.979   0.391  0.00  0.00    +0.207 C 
ATOM     10  C   UNL     1      -7.344  -0.557   1.125  0.00  0.00    +0.164 C 
ATOM     11  H   UNL     1      -6.647   1.361   0.598  0.00  0.00    +0.126 HD
ATOM     12  H   UNL     1      -2.518  -3.829   0.534  0.00  0.00    +0.166 HD
ATOM     13  H   UNL     1      -7.213  -2.594   1.470  0.00  0.00    +0.150 HD
ENDROOT
BRANCH   4  15
ATOM     14  C   UNL     1       1.776  -2.509  -0.776  0.00  0.00    +0.106 C 
ATOM     15  C   UNL     1      -0.908  -2.775  -0.061  0.00  0.00    +0.059 C 
ATOM     16  C   UNL     1       1.391  -3.493   0.135  0.00  0.00    +0.020 C 
ATOM     17  C   UNL     1       0.819  -1.658  -1.329  0.00  0.00    +0.020 C 
ATOM     18  C   UNL     1       0.049  -3.626   0.492  0.00  0.00    +0.017 C 
ATOM     19  C   UNL     1      -0.523  -1.791  -0.972  0.00  0.00    +0.017 C 
BRANCH  14  20
ATOM     20  S   UNL     1       3.454  -2.343  -1.225  0.00  0.00    +0.007 S 
ATOM     21  O   UNL     1       4.105  -3.628  -1.011  0.00  0.00    -0.169 OA
ATOM     22  O   UNL     1       3.533  -1.701  -2.530  0.00  0.00    -0.169 OA
BRANCH  20  23
ATOM     23  C   UNL     1       4.117  -1.192  -0.041  0.00  0.00    +0.133 C 
BRANCH  23  24
ATOM     24  C   UNL     1       5.593  -0.932  -0.292  0.00  0.00    -0.056 C 
BRANCH  24  25
ATOM     25  N   UNL     1       6.124   0.028   0.668  0.00  0.00    +0.385 N 
ATOM     26  H   UNL     1       6.034  -0.355   1.609  0.00  0.00    -0.084 HD
ATOM     27  H   UNL     1       5.597   0.897   0.585  0.00  0.00    -0.084 HD
BRANCH  25  28
ATOM     28  C   UNL     1       7.528   0.308   0.400  0.00  0.00    -0.079 C 
BRANCH  28  29
ATOM     29  C   UNL     1       8.072   1.306   1.418  0.00  0.00    +0.008 C 
BRANCH  29  30
ATOM     30  C   UNL     1       9.534   1.636   1.150  0.00  0.00    +0.135 C 
BRANCH  30  31
ATOM     31  O   UNL     1       9.977   2.578   2.117  0.00  0.00    -0.382 OA
ATOM     32  H   UNL     1      10.908   2.795   1.954  0.00  0.00    +0.210 HD
ENDBRANCH  30  31
ENDBRANCH  29  30
ENDBRANCH  28  29
ENDBRANCH  25  28
ENDBRANCH  24  25
ENDBRANCH  23  24
ENDBRANCH  20  23
ENDBRANCH  14  20
ENDBRANCH   4  15
BRANCH   6  33
ATOM     33  O   UNL     1      -3.708   1.527  -0.162  0.00  0.00    -0.453 OA
BRANCH  33  34
ATOM     34  C   UNL     1      -2.378   1.821  -0.546  0.00  0.00    +0.208 C 
BRANCH  34  35
ATOM     35  C   UNL     1      -2.278   3.316  -0.842  0.00  0.00    +0.044 C 
ATOM     36  C   UNL     1      -0.870   3.678  -1.333  0.00  0.00    +0.004 C 
ATOM     37  C   UNL     1      -2.653   4.140   0.397  0.00  0.00    +0.004 C 
ATOM     38  C   UNL     1      -0.729   5.178  -1.585  0.00  0.00    +0.000 C 
ATOM     39  C   UNL     1      -2.510   5.639   0.141  0.00  0.00    +0.000 C 
ATOM     40  C   UNL     1      -1.112   5.994  -0.355  0.00  0.00    +0.000 C 
ENDBRANCH  34  35
ENDBRANCH  33  34
ENDBRANCH   6  33
TORSDOF 12
