REMARK  Name = 11493841
REMARK  4 active torsions:
REMARK  status: ('A' for Active; 'I' for Inactive)
REMARK    1  A    between atoms: N_1  and  C_18
REMARK    2  A    between atoms: N_4  and  C_11
REMARK    3  A    between atoms: C_8  and  C_30
REMARK    4  A    between atoms: C_19  and  N_24
REMARK                            x       y       z     vdW  Elec       q    Type
REMARK                         _______ _______ _______ _____ _____    ______ ____
ROOT
ATOM      1  N   UNL     1      -2.360   1.071   0.157  0.00  0.00    -0.272 N 
ATOM      2  N   UNL     1      -0.054   0.680   0.344  0.00  0.00    -0.322 NA
ATOM      3  N   UNL     1      -0.891   2.814  -0.401  0.00  0.00    -0.170 NA
ATOM      4  N   UNL     1       2.280   0.307   0.525  0.00  0.00    -0.287 N 
ATOM      5  C   UNL     1      -1.085   1.527   0.031  0.00  0.00    +0.146 C 
ATOM      6  C   UNL     1       1.198   1.166   0.209  0.00  0.00    +0.202 C 
ATOM      7  C   UNL     1       0.386   3.234  -0.512  0.00  0.00    +0.120 C 
ATOM      8  C   UNL     1       1.481   2.447  -0.219  0.00  0.00    +0.118 C 
ATOM      9  H   UNL     1      -3.096   1.685  -0.068  0.00  0.00    +0.159 HD
ATOM     10  H   UNL     1       3.077   0.779   0.859  0.00  0.00    +0.155 HD
ENDROOT
BRANCH   4  11
ATOM     11  C   UNL     1       2.436  -1.086   0.453  0.00  0.00    +0.050 C 
ATOM     12  C   UNL     1       1.744  -1.823  -0.513  0.00  0.00    +0.010 C 
ATOM     13  C   UNL     1       3.285  -1.746   1.346  0.00  0.00    +0.015 C 
ATOM     14  C   UNL     1       1.900  -3.207  -0.585  0.00  0.00    -0.021 C 
ATOM     15  C   UNL     1       3.441  -3.130   1.274  0.00  0.00    +0.001 C 
ATOM     16  C   UNL     1       2.748  -3.861   0.309  0.00  0.00    -0.004 C 
ATOM     17  C   UNL     1       1.159  -3.989  -1.616  0.00  0.00    +0.031 C 
ENDBRANCH   4  11
BRANCH   1  18
ATOM     18  C   UNL     1      -2.700  -0.269   0.602  0.00  0.00    +0.060 C 
ATOM     19  C   UNL     1      -4.147  -0.340   1.127  0.00  0.00    -0.047 C 
ATOM     20  C   UNL     1      -2.479  -1.256  -0.549  0.00  0.00    +0.018 C 
ATOM     21  C   UNL     1      -5.187  -0.195   0.008  0.00  0.00    -0.020 C 
ATOM     22  C   UNL     1      -3.522  -1.116  -1.658  0.00  0.00    +0.002 C 
ATOM     23  C   UNL     1      -4.944  -1.204  -1.112  0.00  0.00    -0.002 C 
BRANCH  19  24
ATOM     24  N   UNL     1      -4.388   0.661   2.167  0.00  0.00    +0.383 N 
ATOM     25  H   UNL     1      -3.693   0.557   2.907  0.00  0.00    -0.089 HD
ATOM     26  H   UNL     1      -5.321   0.528   2.557  0.00  0.00    -0.089 HD
ATOM     27  H   UNL     1      -4.318   1.595   1.763  0.00  0.00    -0.089 HD
ENDBRANCH  19  24
ENDBRANCH   1  18
BRANCH   8  30
ATOM     28  O   UNL     1       3.413   3.534   0.578  0.00  0.00    -0.270 OA
ATOM     29  N   UNL     1       3.457   2.809  -1.598  0.00  0.00    -0.325 N 
ATOM     30  C   UNL     1       2.829   2.972  -0.366  0.00  0.00    +0.248 C 
ATOM     31  H   UNL     1       4.369   3.152  -1.734  0.00  0.00    +0.145 HD
ATOM     32  H   UNL     1       2.988   2.351  -2.332  0.00  0.00    +0.145 HD
ENDBRANCH   8  30
TORSDOF 4
