REMARK  Name = 23727982
REMARK  4 active torsions:
REMARK  status: ('A' for Active; 'I' for Inactive)
REMARK    1  A    between atoms: C_4  and  C_14
REMARK    2  A    between atoms: C_6  and  O_20
REMARK    3  A    between atoms: O_20  and  C_21
REMARK    4  A    between atoms: C_21  and  C_22
REMARK                            x       y       z     vdW  Elec       q    Type
REMARK                         _______ _______ _______ _____ _____    ______ ____
ROOT
ATOM      1  N   UNL     1       2.377  -2.373  -0.485  0.00  0.00    -0.297 N 
ATOM      2  N   UNL     1       3.881  -0.572   0.059  0.00  0.00    -0.229 NA
ATOM      3  C   UNL     1       1.434  -0.420   0.048  0.00  0.00    +0.069 C 
ATOM      4  C   UNL     1       0.410  -1.361  -0.241  0.00  0.00    +0.051 C 
ATOM      5  C   UNL     1       2.647  -1.082  -0.113  0.00  0.00    +0.135 C 
ATOM      6  C   UNL     1       1.480   0.930   0.432  0.00  0.00    +0.143 C 
ATOM      7  C   UNL     1       1.020  -2.554  -0.566  0.00  0.00    +0.066 C 
ATOM      8  C   UNL     1       2.733   1.509   0.625  0.00  0.00    +0.058 C 
ATOM      9  C   UNL     1       3.866   0.730   0.429  0.00  0.00    +0.103 C 
ATOM     10  H   UNL     1       3.053  -3.065  -0.667  0.00  0.00    +0.154 HD
ENDROOT
BRANCH   4  14
ATOM     11  N   UNL     1      -1.561  -0.855   0.952  0.00  0.00    -0.338 NA
ATOM     12  N   UNL     1      -3.725  -0.898  -0.107  0.00  0.00    -0.170 NA
ATOM     13  N   UNL     1      -3.505  -0.348   2.163  0.00  0.00    -0.293 N 
ATOM     14  C   UNL     1      -1.017  -1.210  -0.231  0.00  0.00    +0.147 C 
ATOM     15  C   UNL     1      -1.751  -1.424  -1.379  0.00  0.00    +0.055 C 
ATOM     16  C   UNL     1      -3.115  -1.252  -1.257  0.00  0.00    +0.114 C 
ATOM     17  C   UNL     1      -2.901  -0.719   0.943  0.00  0.00    +0.141 C 
ATOM     18  H   UNL     1      -2.950  -0.204   2.964  0.00  0.00    +0.155 HD
ATOM     19  H   UNL     1      -4.481  -0.234   2.215  0.00  0.00    +0.155 HD
ENDBRANCH   4  14
BRANCH   6  20
ATOM     20  O   UNL     1       0.348   1.673   0.619  0.00  0.00    -0.475 OA
BRANCH  20  21
ATOM     21  C   UNL     1       0.195   2.828  -0.200  0.00  0.00    +0.205 C 
BRANCH  21  22
ATOM     22  C   UNL     1      -1.289   3.092  -0.406  0.00  0.00    +0.047 C 
ATOM     23  C   UNL     1      -1.530   4.305  -1.286  0.00  0.00    +0.004 C 
ENDBRANCH  21  22
ENDBRANCH  20  21
ENDBRANCH   6  20
TORSDOF 4
