REMARK  Name = 65013
REMARK  6 active torsions:
REMARK  status: ('A' for Active; 'I' for Inactive)
REMARK    1  A    between atoms: N_3  and  C_20
REMARK    2  A    between atoms: C_5  and  C_10
REMARK    3  A    between atoms: C_6  and  C_13
REMARK    4  A    between atoms: C_13  and  C_14
REMARK    5  A    between atoms: C_20  and  O_21
REMARK    6  A    between atoms: O_21  and  C_22
REMARK                            x       y       z     vdW  Elec       q    Type
REMARK                         _______ _______ _______ _____ _____    ______ ____
ROOT
ATOM      1  O   UNL     1      -1.327   3.726   0.253  0.00  0.00    -0.267 OA
ATOM      2  O   UNL     1      -3.122  -0.129   1.923  0.00  0.00    -0.246 OA
ATOM      3  N   UNL     1      -1.303  -0.311   0.467  0.00  0.00    -0.259 N 
ATOM      4  N   UNL     1      -2.197   1.778   1.089  0.00  0.00    -0.275 N 
ATOM      5  C   UNL     1      -0.298   1.685  -0.418  0.00  0.00    +0.046 A 
ATOM      6  C   UNL     1      -0.350   0.337  -0.334  0.00  0.00    +0.048 A 
ATOM      7  C   UNL     1      -1.303   2.500   0.326  0.00  0.00    +0.258 A 
ATOM      8  C   UNL     1      -2.264   0.395   1.209  0.00  0.00    +0.332 A 
ATOM      9  H   UNL     1      -2.857   2.297   1.602  0.00  0.00    +0.173 HD
ENDROOT
BRANCH   5  10
ATOM     10  C   UNL     1       0.716   2.484  -1.191  0.00  0.00    +0.028 C 
ATOM     11  C   UNL     1       0.021   3.307  -2.269  0.00  0.00    +0.005 C 
ATOM     12  C   UNL     1       1.523   3.375  -0.254  0.00  0.00    +0.005 C 
ENDBRANCH   5  10
BRANCH   6  13
ATOM     13  C   UNL     1       0.604  -0.544  -1.111  0.00  0.00    +0.070 C 
BRANCH  13  14
ATOM     14  C   UNL     1       1.851  -0.839  -0.335  0.00  0.00    -0.016 C 
ATOM     15  C   UNL     1       2.010  -0.313   0.943  0.00  0.00    -0.004 C 
ATOM     16  C   UNL     1       2.843  -1.638  -0.897  0.00  0.00    -0.004 C 
ATOM     17  C   UNL     1       3.170  -0.587   1.667  0.00  0.00    -0.000 C 
ATOM     18  C   UNL     1       4.003  -1.912  -0.174  0.00  0.00    -0.000 C 
ATOM     19  C   UNL     1       4.167  -1.387   1.108  0.00  0.00    -0.000 C 
ENDBRANCH  13  14
ENDBRANCH   6  13
BRANCH   3  20
ATOM     20  C   UNL     1      -1.295  -1.774   0.532  0.00  0.00    +0.259 C 
BRANCH  20  21
ATOM     21  O   UNL     1      -2.138  -2.279  -0.493  0.00  0.00    -0.332 OA
BRANCH  21  22
ATOM     22  C   UNL     1      -2.201  -3.698  -0.464  0.00  0.00    +0.145 C 
ATOM     23  C   UNL     1      -3.111  -4.174  -1.577  0.00  0.00    +0.035 C 
ENDBRANCH  21  22
ENDBRANCH  20  21
ENDBRANCH   3  20
TORSDOF 6
