REMARK  Name = 24776445
REMARK  4 active torsions:
REMARK  status: ('A' for Active; 'I' for Inactive)
REMARK    1  A    between atoms: N_2  and  C_17
REMARK    2  A    between atoms: C_3  and  C_7
REMARK    3  A    between atoms: C_6  and  S_12
REMARK    4  A    between atoms: C_18  and  C_24
REMARK                            x       y       z     vdW  Elec       q    Type
REMARK                         _______ _______ _______ _____ _____    ______ ____
ROOT
ATOM      1  O   UNL     1      -1.147   2.588   0.431  0.00  0.00    -0.270 OA
ATOM      2  N   UNL     1      -0.038   0.540   0.113  0.00  0.00    -0.280 N 
ATOM      3  C   UNL     1      -1.154   1.377   0.237  0.00  0.00    +0.250 C 
ATOM      4  H   UNL     1      -0.229  -0.414  -0.041  0.00  0.00    +0.155 HD
ENDROOT
BRANCH   3   7
ATOM      5 CL   UNL     1      -3.099   2.284  -1.985  0.00  0.00    -0.082 Cl
ATOM      6  C   UNL     1      -4.927  -0.626   0.048  0.00  0.00    +0.107 C 
ATOM      7  C   UNL     1      -2.473   0.699   0.145  0.00  0.00    +0.064 C 
ATOM      8  C   UNL     1      -4.640   0.380  -0.875  0.00  0.00    +0.030 C 
ATOM      9  C   UNL     1      -3.986  -0.970   1.020  0.00  0.00    +0.019 C 
ATOM     10  C   UNL     1      -3.414   1.042  -0.826  0.00  0.00    +0.063 C 
ATOM     11  C   UNL     1      -2.760  -0.308   1.068  0.00  0.00    +0.007 C 
BRANCH   6  12
ATOM     12  S   UNL     1      -6.461  -1.458  -0.013  0.00  0.00    +0.010 S 
ATOM     13  O   UNL     1      -6.970  -1.359  -1.373  0.00  0.00    -0.169 OA
ATOM     14  O   UNL     1      -6.313  -2.766   0.610  0.00  0.00    -0.169 OA
ATOM     15  C   UNL     1      -7.525  -0.499   1.041  0.00  0.00    +0.182 C 
ENDBRANCH   6  12
ENDBRANCH   3   7
BRANCH   2  17
ATOM     16 CL   UNL     1       5.663   2.085   0.411  0.00  0.00    -0.082 Cl
ATOM     17  C   UNL     1       1.311   0.890   0.182  0.00  0.00    +0.051 C 
ATOM     18  C   UNL     1       3.643   0.264   0.102  0.00  0.00    +0.029 C 
ATOM     19  C   UNL     1       2.295  -0.088   0.034  0.00  0.00    +0.017 C 
ATOM     20  C   UNL     1       1.675   2.219   0.398  0.00  0.00    +0.016 C 
ATOM     21  C   UNL     1       4.007   1.593   0.318  0.00  0.00    +0.059 C 
ATOM     22  C   UNL     1       3.024   2.570   0.467  0.00  0.00    +0.013 C 
BRANCH  18  24
ATOM     23  N   UNL     1       5.034  -1.001  -1.332  0.00  0.00    -0.244 NA
ATOM     24  C   UNL     1       4.634  -0.784  -0.059  0.00  0.00    +0.082 C 
ATOM     25  C   UNL     1       5.110  -1.489   1.035  0.00  0.00    +0.019 C 
ATOM     26  C   UNL     1       6.059  -2.479   0.807  0.00  0.00    +0.003 C 
ATOM     27  C   UNL     1       5.957  -1.972  -1.514  0.00  0.00    +0.099 C 
ATOM     28  C   UNL     1       6.495  -2.732  -0.488  0.00  0.00    +0.021 C 
ENDBRANCH  18  24
ENDBRANCH   2  17
TORSDOF 4
