REMARK  Name = 3089
REMARK  5 active torsions:
REMARK  status: ('A' for Active; 'I' for Inactive)
REMARK    1  A    between atoms: N_2  and  C_21
REMARK    2  A    between atoms: C_8  and  S_15
REMARK    3  A    between atoms: S_15  and  N_18
REMARK    4  A    between atoms: C_21  and  C_22
REMARK    5  A    between atoms: C_22  and  N_24
REMARK                            x       y       z     vdW  Elec       q    Type
REMARK                         _______ _______ _______ _____ _____    ______ ____
ROOT
ATOM      1  S   UNL     1      -1.819   2.612   1.131  0.00  0.00    -0.084 S 
ATOM      2  N   UNL     1      -1.297  -0.111  -0.275  0.00  0.00    -0.288 N 
ATOM      3  C   UNL     1      -0.159   0.716  -0.093  0.00  0.00    +0.059 C 
ATOM      4  C   UNL     1      -2.640   0.344  -0.295  0.00  0.00    +0.058 C 
ATOM      5  C   UNL     1      -0.272   1.984   0.510  0.00  0.00    +0.043 C 
ATOM      6  C   UNL     1       1.124   0.328  -0.537  0.00  0.00    +0.035 C 
ATOM      7  C   UNL     1      -2.998   1.576   0.289  0.00  0.00    +0.043 C 
ATOM      8  C   UNL     1       2.244   1.148  -0.370  0.00  0.00    +0.123 C 
ATOM      9  C   UNL     1       0.859   2.803   0.679  0.00  0.00    +0.009 C 
ATOM     10  C   UNL     1      -3.669  -0.389  -0.926  0.00  0.00    +0.015 C 
ATOM     11  C   UNL     1       2.111   2.386   0.241  0.00  0.00    +0.021 C 
ATOM     12  C   UNL     1      -4.330   2.026   0.259  0.00  0.00    +0.008 C 
ATOM     13  C   UNL     1      -4.990   0.066  -0.957  0.00  0.00    +0.001 C 
ATOM     14  C   UNL     1      -5.321   1.273  -0.361  0.00  0.00    +0.001 C 
ENDROOT
BRANCH   8  15
ATOM     15  S   UNL     1       3.811   0.611  -0.924  0.00  0.00    +0.063 S 
ATOM     16  O   UNL     1       3.608  -0.348  -2.004  0.00  0.00    -0.153 OA
ATOM     17  O   UNL     1       4.629   1.790  -1.186  0.00  0.00    -0.153 OA
BRANCH  15  18
ATOM     18  N   UNL     1       4.456  -0.222   0.448  0.00  0.00    -0.153 NA
ATOM     19  C   UNL     1       4.629   0.552   1.704  0.00  0.00    +0.115 C 
ATOM     20  C   UNL     1       3.965  -1.599   0.708  0.00  0.00    +0.115 C 
ENDBRANCH  15  18
ENDBRANCH   8  15
BRANCH   2  21
ATOM     21  C   UNL     1      -1.063  -1.538  -0.531  0.00  0.00    +0.075 C 
BRANCH  21  22
ATOM     22  C   UNL     1      -0.427  -2.207   0.691  0.00  0.00    -0.038 C 
ATOM     23  C   UNL     1      -1.296  -2.071   1.942  0.00  0.00    -0.021 C 
BRANCH  22  24
ATOM     24  N   UNL     1      -0.232  -3.630   0.407  0.00  0.00    +0.387 N 
ATOM     25  C   UNL     1       0.597  -3.803  -0.785  0.00  0.00    -0.101 C 
ATOM     26  C   UNL     1      -1.521  -4.298   0.236  0.00  0.00    -0.101 C 
ATOM     27  H   UNL     1       0.250  -4.056   1.199  0.00  0.00    -0.080 HD
ENDBRANCH  22  24
ENDBRANCH  21  22
ENDBRANCH   2  21
TORSDOF 5
