REMARK  Name = 46937164
REMARK  8 active torsions:
REMARK  status: ('A' for Active; 'I' for Inactive)
REMARK    1  A    between atoms: CA_1  and  C_5
REMARK    2  A    between atoms: CA_1  and  N_14
REMARK    3  A    between atoms: CA_1  and  C_24
REMARK    4  A    between atoms: CA_4  and  C_10
REMARK    5  A    between atoms: C_10  and  O_11
REMARK    6  A    between atoms: C_15  and  C_17
REMARK    7  A    between atoms: C_17  and  C_19
REMARK    8  A    between atoms: C_24  and  O_25
REMARK                            x       y       z     vdW  Elec       q    Type
REMARK                         _______ _______ _______ _____ _____    ______ ____
ROOT
ATOM      1  CA  UNL     1       1.162  -2.040  -0.152  0.00  0.00    +0.217 C 
ENDROOT
BRANCH   1   5
ATOM      2  S   UNL     1       2.117  -0.193  -1.927  0.00  0.00    -0.093 S 
ATOM      3  N   UNL     1       1.467   0.196   0.686  0.00  0.00    -0.253 NA
ATOM      4  CA  UNL     1       1.841   1.606   0.661  0.00  0.00    +0.221 C 
ATOM      5  C   UNL     1       1.557  -0.598  -0.317  0.00  0.00    +0.109 C 
ATOM      6  C   UNL     1       2.417   2.132  -0.623  0.00  0.00    -0.000 C 
ATOM      7  C   UNL     1       1.841   1.589  -1.891  0.00  0.00    +0.088 C 
ATOM      8  C   UNL     1       3.416   3.030  -0.631  0.00  0.00    -0.006 C 
BRANCH   4  10
ATOM      9  OXT UNL     1      -0.532   2.052   0.583  0.00  0.00    -0.248 OA
ATOM     10  C   UNL     1       0.589   2.376   0.946  0.00  0.00    +0.340 C 
BRANCH  10  11
ATOM     11  O   UNL     1       0.867   3.491   1.665  0.00  0.00    -0.479 OA
ATOM     12  H   UNL     1       1.751   3.682   1.911  0.00  0.00    +0.295 HD
ENDBRANCH  10  11
ENDBRANCH   4  10
ENDBRANCH   1   5
BRANCH   1  14
ATOM     13  O   UNL     1      -0.957  -1.943  -2.097  0.00  0.00    -0.275 OA
ATOM     14  N   UNL     1      -0.244  -1.995   0.114  0.00  0.00    -0.291 N 
ATOM     15  C   UNL     1      -1.207  -1.950  -0.894  0.00  0.00    +0.228 C 
ATOM     16  H   UNL     1      -0.545  -1.997   1.051  0.00  0.00    +0.150 HD
BRANCH  15  17
ATOM     17  C   UNL     1      -2.615  -1.915  -0.332  0.00  0.00    +0.118 C 
BRANCH  17  19
ATOM     18  S   UNL     1      -3.647  -0.018   1.421  0.00  0.00    -0.090 S 
ATOM     19  C   UNL     1      -3.146  -0.519  -0.137  0.00  0.00    +0.016 C 
ATOM     20  C   UNL     1      -3.301   0.477  -1.076  0.00  0.00    +0.003 C 
ATOM     21  C   UNL     1      -3.838   1.668  -0.507  0.00  0.00    +0.007 C 
ATOM     22  C   UNL     1      -4.073   1.537   0.844  0.00  0.00    +0.035 C 
ENDBRANCH  17  19
ENDBRANCH  15  17
ENDBRANCH   1  14
BRANCH   1  24
ATOM     23  OXT UNL     1       3.163  -2.908   0.873  0.00  0.00    -0.248 OA
ATOM     24  C   UNL     1       1.946  -2.759   0.912  0.00  0.00    +0.338 C 
BRANCH  24  25
ATOM     25  O   UNL     1       1.177  -3.316   1.879  0.00  0.00    -0.479 OA
ATOM     26  H   UNL     1       0.249  -3.180   1.876  0.00  0.00    +0.295 HD
ENDBRANCH  24  25
ENDBRANCH   1  24
TORSDOF 8
