REMARK  Name = 6102763
REMARK  9 active torsions:
REMARK  status: ('A' for Active; 'I' for Inactive)
REMARK    1  A    between atoms: C_2  and  C_19
REMARK    2  A    between atoms: C_3  and  O_8
REMARK    3  A    between atoms: O_8  and  C_9
REMARK    4  A    between atoms: C_9  and  C_11
REMARK    5  A    between atoms: C_10  and  C_16
REMARK    6  A    between atoms: C_19  and  C_22
REMARK    7  A    between atoms: N_21  and  C_24
REMARK    8  A    between atoms: C_24  and  C_25
REMARK    9  A    between atoms: C_25  and  N_26
REMARK                            x       y       z     vdW  Elec       q    Type
REMARK                         _______ _______ _______ _____ _____    ______ ____
ROOT
ATOM      1 CL   UNL     1       0.374  -2.176   1.823  0.00  0.00    -0.079 Cl
ATOM      2  C   UNL     1      -3.017  -1.491  -0.176  0.00  0.00    -0.012 C 
ATOM      3  C   UNL     1      -0.285  -1.235  -0.643  0.00  0.00    +0.149 C 
ATOM      4  C   UNL     1      -2.103  -1.851   0.815  0.00  0.00    +0.011 C 
ATOM      5  C   UNL     1      -2.561  -1.003  -1.400  0.00  0.00    -0.001 C 
ATOM      6  C   UNL     1      -0.734  -1.723   0.581  0.00  0.00    +0.091 C 
ATOM      7  C   UNL     1      -1.192  -0.875  -1.635  0.00  0.00    +0.037 C 
ENDROOT
BRANCH   3   8
ATOM      8  O   UNL     1       1.054  -1.098  -0.899  0.00  0.00    -0.470 OA
BRANCH   8   9
ATOM      9  C   UNL     1       1.517   0.213  -1.200  0.00  0.00    +0.232 C 
BRANCH   9  11
ATOM     10  C   UNL     1       5.614   0.582  -0.013  0.00  0.00    -0.023 C 
ATOM     11  C   UNL     1       2.944   0.341  -0.787  0.00  0.00    +0.021 C 
ATOM     12  C   UNL     1       4.596   0.897   0.887  0.00  0.00    -0.004 C 
ATOM     13  C   UNL     1       5.297   0.146  -1.300  0.00  0.00    -0.004 C 
ATOM     14  C   UNL     1       3.261   0.776   0.500  0.00  0.00    -0.001 C 
ATOM     15  C   UNL     1       3.962   0.026  -1.687  0.00  0.00    -0.001 C 
BRANCH  10  16
ATOM     16  C   UNL     1       7.041   0.710   0.400  0.00  0.00    +0.022 C 
ATOM     17  C   UNL     1       7.423   2.160   0.755  0.00  0.00    +0.005 C 
ATOM     18  C   UNL     1       7.402  -0.226   1.568  0.00  0.00    +0.005 C 
ENDBRANCH  10  16
ENDBRANCH   9  11
ENDBRANCH   8   9
ENDBRANCH   3   8
BRANCH   2  19
ATOM     19  C   UNL     1      -4.481  -1.627   0.074  0.00  0.00    +0.111 C 
BRANCH  19  22
ATOM     20  O   UNL     1      -4.774   0.085   1.761  0.00  0.00    -0.275 OA
ATOM     21  N   UNL     1      -6.122   0.132  -0.128  0.00  0.00    -0.306 N 
ATOM     22  C   UNL     1      -5.119  -0.385   0.680  0.00  0.00    +0.227 C 
ATOM     23  H   UNL     1      -6.323  -0.321  -0.979  0.00  0.00    +0.149 HD
BRANCH  21  24
ATOM     24  C   UNL     1      -6.882   1.306   0.230  0.00  0.00    +0.066 C 
BRANCH  24  25
ATOM     25  C   UNL     1      -6.219   2.572  -0.294  0.00  0.00    -0.065 C 
BRANCH  25  26
ATOM     26  N   UNL     1      -6.996   3.744   0.086  0.00  0.00    +0.382 N 
ATOM     27  H   UNL     1      -6.540   4.584  -0.271  0.00  0.00    -0.089 HD
ATOM     28  H   UNL     1      -7.057   3.797   1.103  0.00  0.00    -0.089 HD
ATOM     29  H   UNL     1      -7.934   3.673  -0.307  0.00  0.00    -0.089 HD
ENDBRANCH  25  26
ENDBRANCH  24  25
ENDBRANCH  21  24
ENDBRANCH  19  22
ENDBRANCH   2  19
TORSDOF 9
