REMARK  Name = 42647297
REMARK  5 active torsions:
REMARK  status: ('A' for Active; 'I' for Inactive)
REMARK    1  A    between atoms: N_3  and  C_14
REMARK    2  A    between atoms: C_7  and  N_20
REMARK    3  A    between atoms: N_20  and  C_24
REMARK    4  A    between atoms: C_22  and  C_31
REMARK    5  A    between atoms: N_30  and  C_33
REMARK                            x       y       z     vdW  Elec       q    Type
REMARK                         _______ _______ _______ _____ _____    ______ ____
ROOT
ATOM      1  O   UNL     1       0.155  -1.360  -2.744  0.00  0.00    -0.269 OA
ATOM      2  N   UNL     1       1.682  -0.522  -1.182  0.00  0.00    -0.240 N 
ATOM      3  N   UNL     1       2.896   0.660   0.602  0.00  0.00    -0.174 N 
ATOM      4  N   UNL     1       2.686   1.624   1.523  0.00  0.00    -0.171 NA
ATOM      5  C   UNL     1       1.797   0.402  -0.160  0.00  0.00    +0.133 C 
ATOM      6  C   UNL     1       0.816   1.244   0.287  0.00  0.00    +0.064 C 
ATOM      7  C   UNL     1      -0.469   1.211  -0.320  0.00  0.00    +0.057 C 
ATOM      8  C   UNL     1      -0.656   0.332  -1.328  0.00  0.00    +0.073 C 
ATOM      9  C   UNL     1       0.432  -0.596  -1.818  0.00  0.00    +0.255 C 
ATOM     10  C   UNL     1       1.409   1.978   1.324  0.00  0.00    +0.122 C 
ATOM     11  C   UNL     1       2.797  -1.371  -1.579  0.00  0.00    +0.122 C 
ENDROOT
BRANCH   3  14
ATOM     12  F   UNL     1       4.902   1.703  -1.013  0.00  0.00    -0.203 F 
ATOM     13  F   UNL     1       7.907  -1.657   0.418  0.00  0.00    -0.204 F 
ATOM     14  C   UNL     1       4.162   0.076   0.553  0.00  0.00    +0.103 C 
ATOM     15  C   UNL     1       5.152   0.619  -0.265  0.00  0.00    +0.158 C 
ATOM     16  C   UNL     1       4.436  -1.052   1.326  0.00  0.00    +0.021 C 
ATOM     17  C   UNL     1       6.418   0.033  -0.310  0.00  0.00    +0.061 C 
ATOM     18  C   UNL     1       5.701  -1.638   1.280  0.00  0.00    +0.031 C 
ATOM     19  C   UNL     1       6.692  -1.095   0.462  0.00  0.00    +0.142 C 
ENDBRANCH   3  14
BRANCH   7  20
ATOM     20  N   UNL     1      -1.455   2.051   0.121  0.00  0.00    -0.313 N 
ATOM     21  H   UNL     1      -1.152   2.912   0.489  0.00  0.00    +0.152 HD
BRANCH  20  24
ATOM     22  C   UNL     1      -4.705   0.314   0.229  0.00  0.00    +0.055 C 
ATOM     23  C   UNL     1      -3.329   0.542   0.232  0.00  0.00    +0.019 C 
ATOM     24  C   UNL     1      -2.836   1.841   0.116  0.00  0.00    +0.044 C 
ATOM     25  C   UNL     1      -5.589   1.387   0.110  0.00  0.00    +0.004 C 
ATOM     26  C   UNL     1      -3.720   2.914  -0.002  0.00  0.00    -0.008 C 
ATOM     27  C   UNL     1      -5.096   2.687  -0.005  0.00  0.00    -0.003 C 
ATOM     28  C   UNL     1      -3.221   4.317  -0.127  0.00  0.00    +0.032 C 
BRANCH  22  31
ATOM     29  O   UNL     1      -6.337  -1.252   0.852  0.00  0.00    -0.270 OA
ATOM     30  N   UNL     1      -4.395  -2.078  -0.106  0.00  0.00    -0.302 N 
ATOM     31  C   UNL     1      -5.219  -1.041   0.349  0.00  0.00    +0.246 C 
ATOM     32  H   UNL     1      -3.522  -1.844  -0.495  0.00  0.00    +0.150 HD
BRANCH  30  33
ATOM     33  C   UNL     1      -4.761  -3.465  -0.033  0.00  0.00    +0.072 C 
ATOM     34  C   UNL     1      -4.535  -4.263   1.218  0.00  0.00    +0.021 C 
ATOM     35  C   UNL     1      -3.717  -4.543  -0.009  0.00  0.00    +0.021 C 
ENDBRANCH  30  33
ENDBRANCH  22  31
ENDBRANCH  20  24
ENDBRANCH   7  20
TORSDOF 5
