REMARK  Name = 440667
REMARK  4 active torsions:
REMARK  status: ('A' for Active; 'I' for Inactive)
REMARK    1  A    between atoms: C_5  and  C_9
REMARK    2  A    between atoms: C_9  and  O_10
REMARK    3  A    between atoms: C_9  and  C_12
REMARK    4  A    between atoms: C_12  and  O_13
REMARK                            x       y       z     vdW  Elec       q    Type
REMARK                         _______ _______ _______ _____ _____    ______ ____
ROOT
ATOM      1  O   UNL     1       0.150  -1.090   0.602  0.00  0.00    -0.436 OA
ATOM      2  O   UNL     1       0.824   2.347   0.226  0.00  0.00    -0.284 OA
ATOM      3  O   UNL     1       2.914   0.579  -0.545  0.00  0.00    -0.276 OA
ATOM      4  O   UNL     1       2.068  -2.159  -0.174  0.00  0.00    -0.241 OA
ATOM      5  C   UNL     1      -0.354   0.269   0.807  0.00  0.00    +0.262 C 
ATOM      6  C   UNL     1       0.756   1.142   0.311  0.00  0.00    +0.260 C 
ATOM      7  C   UNL     1       1.845   0.234  -0.110  0.00  0.00    +0.308 C 
ATOM      8  C   UNL     1       1.407  -1.180   0.087  0.00  0.00    +0.384 C 
ENDROOT
BRANCH   5   9
ATOM      9  C   UNL     1      -1.626   0.455   0.009  0.00  0.00    +0.188 C 
BRANCH   9  10
ATOM     10  O   UNL     1      -1.362   0.178  -1.368  0.00  0.00    -0.378 OA
ATOM     11  H   UNL     1      -0.661   0.767  -1.687  0.00  0.00    +0.211 HD
ENDBRANCH   9  10
BRANCH   9  12
ATOM     12  C   UNL     1      -2.731  -0.489   0.477  0.00  0.00    +0.171 C 
BRANCH  12  13
ATOM     13  O   UNL     1      -3.891  -0.286  -0.324  0.00  0.00    -0.379 OA
ATOM     14  H   UNL     1      -4.595  -0.885  -0.029  0.00  0.00    +0.211 HD
ENDBRANCH  12  13
ENDBRANCH   9  12
ENDBRANCH   5   9
TORSDOF 4
