REMARK  Name = 2765355
REMARK  2 active torsions:
REMARK  status: ('A' for Active; 'I' for Inactive)
REMARK    1  A    between atoms: C_4  and  C_20
REMARK    2  A    between atoms: C_6  and  C_13
REMARK                            x       y       z     vdW  Elec       q    Type
REMARK                         _______ _______ _______ _____ _____    ______ ____
ROOT
ATOM      1  O   UNL     1      -2.335  -2.424  -0.107  0.00  0.00    -0.353 OA
ATOM      2  N   UNL     1      -1.330  -3.382  -0.109  0.00  0.00    -0.077 NA
ATOM      3  C   UNL     1      -0.441  -1.305   0.036  0.00  0.00    +0.058 A 
ATOM      4  C   UNL     1      -1.796  -1.180  -0.020  0.00  0.00    +0.177 A 
ATOM      5  C   UNL     1      -0.164  -2.717  -0.021  0.00  0.00    +0.123 A 
ATOM      6  C   UNL     1       1.792  -0.767   0.168  0.00  0.00    +0.031 C 
ATOM      7  C   UNL     1       0.475  -0.268   0.131  0.00  0.00    +0.007 C 
ATOM      8  C   UNL     1       1.159  -3.190   0.016  0.00  0.00    +0.023 C 
ATOM      9  C   UNL     1       2.121  -2.159   0.113  0.00  0.00    +0.004 C 
ENDROOT
BRANCH   6  13
ATOM     10  N   UNL     1       3.363   0.619  -0.913  0.00  0.00    -0.338 NA
ATOM     11  N   UNL     1       4.929   1.979   0.314  0.00  0.00    -0.170 NA
ATOM     12  N   UNL     1       4.910   1.983  -2.033  0.00  0.00    -0.293 N 
ATOM     13  C   UNL     1       2.881   0.186   0.267  0.00  0.00    +0.146 C 
ATOM     14  C   UNL     1       3.356   0.591   1.494  0.00  0.00    +0.055 C 
ATOM     15  C   UNL     1       4.394   1.500   1.456  0.00  0.00    +0.114 C 
ATOM     16  C   UNL     1       4.374   1.503  -0.817  0.00  0.00    +0.141 C 
ATOM     17  H   UNL     1       4.542   1.669  -2.891  0.00  0.00    +0.155 HD
ATOM     18  H   UNL     1       5.650   2.631  -2.022  0.00  0.00    +0.155 HD
ENDBRANCH   6  13
BRANCH   4  20
ATOM     19 CL   UNL     1      -5.715   3.301   0.024  0.00  0.00    -0.082 Cl
ATOM     20  C   UNL     1      -2.740  -0.099  -0.010  0.00  0.00    +0.037 C 
ATOM     21  C   UNL     1      -2.446   1.087   0.669  0.00  0.00    +0.004 C 
ATOM     22  C   UNL     1      -3.962  -0.225  -0.678  0.00  0.00    +0.004 C 
ATOM     23  C   UNL     1      -3.364   2.138   0.679  0.00  0.00    +0.011 C 
ATOM     24  C   UNL     1      -4.880   0.825  -0.668  0.00  0.00    +0.011 C 
ATOM     25  C   UNL     1      -4.582   2.006   0.011  0.00  0.00    +0.058 C 
ENDBRANCH   4  20
TORSDOF 2
