REMARK  Name = 4722579
REMARK  3 active torsions:
REMARK  status: ('A' for Active; 'I' for Inactive)
REMARK    1  A    between atoms: N_1  and  C_14
REMARK    2  A    between atoms: C_8  and  C_16
REMARK    3  A    between atoms: C_16  and  N_17
REMARK                            x       y       z     vdW  Elec       q    Type
REMARK                         _______ _______ _______ _____ _____    ______ ____
ROOT
ATOM      1  N   UNL     1      -1.490   1.183   0.179  0.00  0.00    -0.327 N 
ATOM      2  C   UNL     1      -0.132   0.992   0.272  0.00  0.00    +0.060 A 
ATOM      3  C   UNL     1       0.096  -0.383   0.215  0.00  0.00    +0.017 A 
ATOM      4  C   UNL     1      -2.147  -0.019   0.064  0.00  0.00    +0.060 A 
ATOM      5  C   UNL     1      -1.178  -1.022   0.084  0.00  0.00    +0.017 A 
ATOM      6  C   UNL     1       1.425  -0.850   0.290  0.00  0.00    -0.005 C 
ATOM      7  C   UNL     1       0.902   1.926   0.400  0.00  0.00    +0.017 C 
ATOM      8  C   UNL     1       2.470   0.072   0.418  0.00  0.00    -0.044 C 
ATOM      9  C   UNL     1      -3.515  -0.290  -0.056  0.00  0.00    +0.017 C 
ATOM     10  C   UNL     1      -1.596  -2.366  -0.021  0.00  0.00    +0.001 C 
ATOM     11  C   UNL     1       2.210   1.439   0.472  0.00  0.00    -0.005 C 
ATOM     12  C   UNL     1      -3.904  -1.629  -0.157  0.00  0.00    +0.001 C 
ATOM     13  C   UNL     1      -2.960  -2.653  -0.140  0.00  0.00    +0.000 C 
ENDROOT
BRANCH   1  14
ATOM     14  C   UNL     1      -2.142   2.478   0.199  0.00  0.00    +0.106 C 
ATOM     15  C   UNL     1      -2.294   3.067  -1.193  0.00  0.00    +0.026 C 
ENDBRANCH   1  14
BRANCH   8  16
ATOM     16  C   UNL     1       3.878  -0.418   0.497  0.00  0.00    -0.054 C 
BRANCH  16  17
ATOM     17  N   UNL     1       4.503  -0.528  -0.821  0.00  0.00    +0.385 N 
ATOM     18  C   UNL     1       5.875  -0.997  -0.703  0.00  0.00    -0.105 C 
ATOM     19  H   UNL     1       4.500   0.387  -1.271  0.00  0.00    -0.084 HD
ATOM     20  H   UNL     1       3.975  -1.199  -1.380  0.00  0.00    -0.084 HD
ENDBRANCH  16  17
ENDBRANCH   8  16
TORSDOF 3
