REMARK  Name = 16750074
REMARK  3 active torsions:
REMARK  status: ('A' for Active; 'I' for Inactive)
REMARK    1  A    between atoms: C_7  and  C_14
REMARK    2  A    between atoms: C_10  and  O_22
REMARK    3  A    between atoms: C_19  and  O_20
REMARK                            x       y       z     vdW  Elec       q    Type
REMARK                         _______ _______ _______ _____ _____    ______ ____
ROOT
ATOM      1  O   UNL     1       0.145  -1.146   0.177  0.00  0.00    -0.475 OA
ATOM      2  C   UNL     1       0.066   1.258  -0.323  0.00  0.00    +0.049 C 
ATOM      3  C   UNL     1       1.561   1.294  -0.672  0.00  0.00    +0.032 C 
ATOM      4  C   UNL     1      -0.004   1.719   1.146  0.00  0.00    +0.004 C 
ATOM      5  C   UNL     1       2.037   2.530   0.097  0.00  0.00    +0.005 C 
ATOM      6  C   UNL     1       1.297   2.467   1.427  0.00  0.00    +0.000 C 
ATOM      7  C   UNL     1      -0.510  -0.134  -0.602  0.00  0.00    +0.188 C 
ATOM      8  C   UNL     1       2.251   0.003  -0.295  0.00  0.00    +0.045 C 
ATOM      9  C   UNL     1       1.514  -1.124   0.099  0.00  0.00    +0.138 C 
ATOM     10  C   UNL     1       3.649  -0.102  -0.367  0.00  0.00    +0.133 C 
ATOM     11  C   UNL     1       2.164  -2.303   0.474  0.00  0.00    +0.037 C 
ATOM     12  C   UNL     1       4.295  -1.286  -0.008  0.00  0.00    +0.036 C 
ATOM     13  C   UNL     1       3.554  -2.383   0.419  0.00  0.00    +0.006 C 
ENDROOT
BRANCH   7  14
ATOM     14  C   UNL     1      -2.010  -0.185  -0.374  0.00  0.00    +0.017 C 
ATOM     15  C   UNL     1      -2.885   0.125  -1.415  0.00  0.00    +0.002 C 
ATOM     16  C   UNL     1      -2.513  -0.541   0.877  0.00  0.00    +0.002 C 
ATOM     17  C   UNL     1      -4.263   0.078  -1.205  0.00  0.00    +0.036 C 
ATOM     18  C   UNL     1      -3.891  -0.588   1.087  0.00  0.00    +0.036 C 
ATOM     19  C   UNL     1      -4.766  -0.278   0.046  0.00  0.00    +0.134 C 
BRANCH  19  20
ATOM     20  O   UNL     1      -6.111  -0.324   0.251  0.00  0.00    -0.506 OA
ATOM     21  H   UNL     1      -6.699  -0.116  -0.449  0.00  0.00    +0.292 HD
ENDBRANCH  19  20
ENDBRANCH   7  14
BRANCH  10  22
ATOM     22  O   UNL     1       4.421   0.919  -0.841  0.00  0.00    -0.506 OA
ATOM     23  H   UNL     1       4.023   1.729  -1.092  0.00  0.00    +0.292 HD
ENDBRANCH  10  22
TORSDOF 3
