REMARK  Name = 115069
REMARK  3 active torsions:
REMARK  status: ('A' for Active; 'I' for Inactive)
REMARK    1  A    between atoms: C_3  and  C_11
REMARK    2  A    between atoms: C_4  and  S_21
REMARK    3  A    between atoms: C_12  and  S_17
REMARK                            x       y       z     vdW  Elec       q    Type
REMARK                         _______ _______ _______ _____ _____    ______ ____
ROOT
ATOM      1 CL   UNL     1       0.568   1.953  -1.979  0.00  0.00    -0.082 Cl
ATOM      2 CL   UNL     1       3.669  -1.978   1.756  0.00  0.00    -0.081 Cl
ATOM      3  C   UNL     1       0.724   0.020  -0.048  0.00  0.00    +0.012 C 
ATOM      4  C   UNL     1       3.510  -0.044  -0.169  0.00  0.00    +0.117 C 
ATOM      5  C   UNL     1       1.403   0.858  -0.932  0.00  0.00    +0.059 C 
ATOM      6  C   UNL     1       1.438  -0.850   0.777  0.00  0.00    +0.014 C 
ATOM      7  C   UNL     1       2.832  -0.882   0.716  0.00  0.00    +0.075 C 
ATOM      8  C   UNL     1       2.796   0.826  -0.993  0.00  0.00    +0.031 C 
ENDROOT
BRANCH   3  11
ATOM      9 CL   UNL     1      -0.568   1.952   1.980  0.00  0.00    -0.082 Cl
ATOM     10 CL   UNL     1      -3.669  -1.977  -1.756  0.00  0.00    -0.081 Cl
ATOM     11  C   UNL     1      -0.724   0.020   0.048  0.00  0.00    +0.012 C 
ATOM     12  C   UNL     1      -3.510  -0.044   0.169  0.00  0.00    +0.117 C 
ATOM     13  C   UNL     1      -1.403   0.857   0.933  0.00  0.00    +0.059 C 
ATOM     14  C   UNL     1      -1.438  -0.849  -0.777  0.00  0.00    +0.014 C 
ATOM     15  C   UNL     1      -2.832  -0.881  -0.716  0.00  0.00    +0.075 C 
ATOM     16  C   UNL     1      -2.796   0.826   0.994  0.00  0.00    +0.031 C 
BRANCH  12  17
ATOM     17  S   UNL     1      -5.259  -0.039   0.288  0.00  0.00    +0.011 S 
ATOM     18  O   UNL     1      -5.704  -1.423   0.309  0.00  0.00    -0.169 OA
ATOM     19  O   UNL     1      -5.650   0.868   1.356  0.00  0.00    -0.169 OA
ATOM     20  C   UNL     1      -5.797   0.690  -1.240  0.00  0.00    +0.182 C 
ENDBRANCH  12  17
ENDBRANCH   3  11
BRANCH   4  21
ATOM     21  S   UNL     1       5.259  -0.039  -0.288  0.00  0.00    +0.011 S 
ATOM     22  O   UNL     1       5.704  -1.423  -0.310  0.00  0.00    -0.169 OA
ATOM     23  O   UNL     1       5.650   0.869  -1.356  0.00  0.00    -0.169 OA
ATOM     24  C   UNL     1       5.797   0.690   1.241  0.00  0.00    +0.182 C 
ENDBRANCH   4  21
TORSDOF 3
