REMARK  Name = 10401956
REMARK  3 active torsions:
REMARK  status: ('A' for Active; 'I' for Inactive)
REMARK    1  A    between atoms: N_1  and  C_13
REMARK    2  A    between atoms: C_8  and  N_20
REMARK    3  A    between atoms: C_21  and  C_23
REMARK                            x       y       z     vdW  Elec       q    Type
REMARK                         _______ _______ _______ _____ _____    ______ ____
ROOT
ATOM      1  N   UNL     1       1.835  -0.510   0.435  0.00  0.00    -0.301 N 
ATOM      2  N   UNL     1       0.253   3.291   0.014  0.00  0.00    -0.248 NA
ATOM      3  N   UNL     1       2.140   1.818   0.289  0.00  0.00    -0.233 NA
ATOM      4  C   UNL     1      -0.102   0.923   0.159  0.00  0.00    +0.117 C 
ATOM      5  C   UNL     1      -0.581   2.236   0.020  0.00  0.00    +0.067 C 
ATOM      6  C   UNL     1       1.277   0.784   0.290  0.00  0.00    +0.115 C 
ATOM      7  C   UNL     1      -0.983  -0.172   0.163  0.00  0.00    +0.001 C 
ATOM      8  C   UNL     1      -2.352   0.036   0.028  0.00  0.00    +0.047 C 
ATOM      9  C   UNL     1      -1.956   2.415  -0.114  0.00  0.00    +0.016 C 
ATOM     10  C   UNL     1      -2.839   1.331  -0.111  0.00  0.00    +0.016 C 
ATOM     11  C   UNL     1       1.568   3.024   0.149  0.00  0.00    +0.251 C 
ATOM     12  H   UNL     1       1.228  -1.204   0.782  0.00  0.00    +0.153 HD
ENDROOT
BRANCH   1  13
ATOM     13  C   UNL     1       3.124  -0.923   0.150  0.00  0.00    +0.049 C 
ATOM     14  C   UNL     1       3.778  -1.871   0.961  0.00  0.00    +0.015 C 
ATOM     15  C   UNL     1       3.821  -0.406  -0.960  0.00  0.00    +0.015 C 
ATOM     16  C   UNL     1       5.078  -2.286   0.674  0.00  0.00    +0.001 C 
ATOM     17  C   UNL     1       5.122  -0.822  -1.246  0.00  0.00    +0.001 C 
ATOM     18  C   UNL     1       5.750  -1.762  -0.429  0.00  0.00    +0.000 C 
ENDBRANCH   1  13
BRANCH   8  20
ATOM     19  O   UNL     1      -5.343  -0.041  -0.228  0.00  0.00    -0.270 OA
ATOM     20  N   UNL     1      -3.231  -1.047   0.031  0.00  0.00    -0.281 N 
ATOM     21  C   UNL     1      -4.628  -1.026  -0.093  0.00  0.00    +0.250 C 
ATOM     22  H   UNL     1      -2.820  -1.936   0.133  0.00  0.00    +0.155 HD
BRANCH  21  23
ATOM     23  C   UNL     1      -5.205  -2.401  -0.041  0.00  0.00    +0.058 C 
ATOM     24  C   UNL     1      -6.525  -2.588  -0.142  0.00  0.00    +0.005 C 
ENDBRANCH  21  23
ENDBRANCH   8  20
TORSDOF 3
