REMARK  Name = 36688409
REMARK  5 active torsions:
REMARK  status: ('A' for Active; 'I' for Inactive)
REMARK    1  A    between atoms: C_1  and  C_11
REMARK    2  A    between atoms: C_3  and  C_10
REMARK    3  A    between atoms: C_11  and  O_12
REMARK    4  A    between atoms: C_11  and  C_14
REMARK    5  A    between atoms: C_14  and  N_15
REMARK                            x       y       z     vdW  Elec       q    Type
REMARK                         _______ _______ _______ _____ _____    ______ ____
ROOT
ATOM      1  C   UNL     1      -1.206  -0.317  -0.227  0.00  0.00    +0.002 C 
ATOM      2  C   UNL     1       0.005   0.358  -0.376  0.00  0.00    +0.002 C 
ATOM      3  C   UNL     1       1.197  -0.253   0.012  0.00  0.00    +0.071 C 
ATOM      4  C   UNL     1      -1.225  -1.604   0.310  0.00  0.00    -0.002 C 
ATOM      5  C   UNL     1       1.178  -1.540   0.549  0.00  0.00    +0.004 C 
ATOM      6  C   UNL     1      -0.034  -2.216   0.698  0.00  0.00    -0.000 C 
ENDROOT
BRANCH   3  10
ATOM      7  F   UNL     1       3.559  -0.267   0.281  0.00  0.00    -0.166 F 
ATOM      8  F   UNL     1       2.776   0.809  -1.438  0.00  0.00    -0.166 F 
ATOM      9  F   UNL     1       2.554   1.642   0.552  0.00  0.00    -0.166 F 
ATOM     10  C   UNL     1       2.492   0.469  -0.146  0.00  0.00    +0.419 C 
ENDBRANCH   3  10
BRANCH   1  11
ATOM     11  C   UNL     1      -2.481   0.337  -0.641  0.00  0.00    +0.111 C 
BRANCH  11  12
ATOM     12  O   UNL     1      -3.379  -0.664  -1.140  0.00  0.00    -0.382 OA
ATOM     13  H   UNL     1      -2.957  -1.141  -1.871  0.00  0.00    +0.211 HD
ENDBRANCH  11  12
BRANCH  11  14
ATOM     14  C   UNL     1      -3.151   1.096   0.521  0.00  0.00    -0.052 C 
BRANCH  14  15
ATOM     15  N   UNL     1      -2.286   2.150   1.044  0.00  0.00    +0.382 N 
ATOM     16  H   UNL     1      -2.760   2.631   1.809  0.00  0.00    -0.089 HD
ATOM     17  H   UNL     1      -2.076   2.818   0.302  0.00  0.00    -0.089 HD
ATOM     18  H   UNL     1      -1.418   1.739   1.387  0.00  0.00    -0.089 HD
ENDBRANCH  14  15
ENDBRANCH  11  14
ENDBRANCH   1  11
TORSDOF 5
