REMARK  Name = 24764441
REMARK  4 active torsions:
REMARK  status: ('A' for Active; 'I' for Inactive)
REMARK    1  A    between atoms: C_3  and  C_18
REMARK    2  A    between atoms: C_7  and  C_9
REMARK    3  A    between atoms: C_10  and  N_15
REMARK    4  A    between atoms: C_18  and  C_20
REMARK                            x       y       z     vdW  Elec       q    Type
REMARK                         _______ _______ _______ _____ _____    ______ ____
ROOT
ATOM      1  O   UNL     1      -0.561  -1.530   0.500  0.00  0.00    -0.270 OA
ATOM      2  N   UNL     1      -0.384   0.763   0.136  0.00  0.00    -0.277 N 
ATOM      3  C   UNL     1       1.054   0.870   0.394  0.00  0.00    +0.080 C 
ATOM      4  C   UNL     1       1.285   2.376   0.547  0.00  0.00    +0.022 C 
ATOM      5  C   UNL     1       0.235   2.988  -0.372  0.00  0.00    +0.023 C 
ATOM      6  C   UNL     1      -0.962   2.069  -0.179  0.00  0.00    +0.094 C 
ATOM      7  C   UNL     1      -1.066  -0.441   0.234  0.00  0.00    +0.250 C 
ENDROOT
BRANCH   7   9
ATOM      8 BR   UNL     1      -5.917   0.131   2.320  0.00  0.00    -0.049 Br
ATOM      9  C   UNL     1      -2.514  -0.417  -0.013  0.00  0.00    +0.067 C 
ATOM     10  C   UNL     1      -3.036  -0.608  -1.292  0.00  0.00    +0.046 C 
ATOM     11  C   UNL     1      -3.373  -0.196   1.064  0.00  0.00    +0.012 C 
ATOM     12  C   UNL     1      -4.415  -0.579  -1.495  0.00  0.00    +0.015 C 
ATOM     13  C   UNL     1      -4.753  -0.167   0.861  0.00  0.00    +0.035 C 
ATOM     14  C   UNL     1      -5.274  -0.359  -0.418  0.00  0.00    +0.008 C 
BRANCH  10  15
ATOM     15  N   UNL     1      -2.184  -0.833  -2.397  0.00  0.00    -0.357 N 
ATOM     16  H   UNL     1      -1.208  -0.856  -2.269  0.00  0.00    +0.142 HD
ATOM     17  H   UNL     1      -2.566  -0.966  -3.294  0.00  0.00    +0.142 HD
ENDBRANCH  10  15
ENDBRANCH   7   9
BRANCH   3  18
ATOM     18  C   UNL     1       1.875   0.276  -0.749  0.00  0.00    +0.047 C 
BRANCH  18  20
ATOM     19 CL   UNL     1       2.436  -2.534   0.399  0.00  0.00    -0.083 Cl
ATOM     20  C   UNL     1       3.279  -0.043  -0.315  0.00  0.00    -0.010 C 
ATOM     21  C   UNL     1       3.616  -1.288   0.214  0.00  0.00    +0.054 C 
ATOM     22  C   UNL     1       4.255   0.944  -0.452  0.00  0.00    -0.003 C 
ATOM     23  C   UNL     1       4.930  -1.547   0.606  0.00  0.00    +0.011 C 
ATOM     24  C   UNL     1       5.569   0.685  -0.061  0.00  0.00    -0.000 C 
ATOM     25  C   UNL     1       5.906  -0.560   0.468  0.00  0.00    +0.001 C 
ENDBRANCH  18  20
ENDBRANCH   3  18
TORSDOF 4
