REMARK  Name = 24864079
REMARK  4 active torsions:
REMARK  status: ('A' for Active; 'I' for Inactive)
REMARK    1  A    between atoms: C_3  and  N_19
REMARK    2  A    between atoms: C_4  and  C_9
REMARK    3  A    between atoms: N_8  and  C_12
REMARK    4  A    between atoms: C_20  and  C_24
REMARK                            x       y       z     vdW  Elec       q    Type
REMARK                         _______ _______ _______ _____ _____    ______ ____
ROOT
ATOM      1  N   UNL     1       0.964   3.150   0.113  0.00  0.00    -0.230 N 
ATOM      2  N   UNL     1      -0.049   4.031   0.154  0.00  0.00    -0.178 NA
ATOM      3  C   UNL     1      -0.813   1.880   0.079  0.00  0.00    +0.091 C 
ATOM      4  C   UNL     1       0.561   1.847   0.067  0.00  0.00    +0.134 C 
ATOM      5  C   UNL     1      -1.132   3.249   0.134  0.00  0.00    +0.134 C 
ATOM      6  H   UNL     1       1.911   3.419   0.116  0.00  0.00    +0.175 HD
ENDROOT
BRANCH   4   9
ATOM      7  O   UNL     1       0.994  -0.435  -0.046  0.00  0.00    -0.268 OA
ATOM      8  N   UNL     1       2.835   1.019   0.017  0.00  0.00    -0.279 N 
ATOM      9  C   UNL     1       1.450   0.732   0.017  0.00  0.00    +0.266 C 
ATOM     10  H   UNL     1       3.066   1.975   0.069  0.00  0.00    +0.155 HD
BRANCH   8  12
ATOM     11  F   UNL     1       7.154  -2.450  -0.238  0.00  0.00    -0.204 F 
ATOM     12  C   UNL     1       3.938   0.133  -0.048  0.00  0.00    +0.051 C 
ATOM     13  C   UNL     1       3.724  -1.243  -0.126  0.00  0.00    +0.017 C 
ATOM     14  C   UNL     1       5.239   0.637  -0.035  0.00  0.00    +0.017 C 
ATOM     15  C   UNL     1       4.810  -2.115  -0.190  0.00  0.00    +0.031 C 
ATOM     16  C   UNL     1       6.325  -0.236  -0.099  0.00  0.00    +0.031 C 
ATOM     17  C   UNL     1       6.111  -1.612  -0.176  0.00  0.00    +0.140 C 
ENDBRANCH   8  12
ENDBRANCH   4   9
BRANCH   3  19
ATOM     18  O   UNL     1      -3.809   1.785   0.098  0.00  0.00    -0.270 OA
ATOM     19  N   UNL     1      -1.694   0.771   0.043  0.00  0.00    -0.278 N 
ATOM     20  C   UNL     1      -3.095   0.770   0.053  0.00  0.00    +0.254 C 
ATOM     21  H   UNL     1      -1.266  -0.115   0.006  0.00  0.00    +0.155 HD
BRANCH  20  24
ATOM     22  F   UNL     1      -1.886  -1.489   1.194  0.00  0.00    -0.204 F 
ATOM     23  F   UNL     1      -5.605   0.343  -1.123  0.00  0.00    -0.204 F 
ATOM     24  C   UNL     1      -3.729  -0.539   0.036  0.00  0.00    +0.108 C 
ATOM     25  C   UNL     1      -3.087  -1.633   0.617  0.00  0.00    +0.147 C 
ATOM     26  C   UNL     1      -4.979  -0.701  -0.562  0.00  0.00    +0.147 C 
ATOM     27  C   UNL     1      -3.695  -2.888   0.600  0.00  0.00    +0.030 C 
ATOM     28  C   UNL     1      -5.587  -1.956  -0.579  0.00  0.00    +0.030 C 
ATOM     29  C   UNL     1      -4.945  -3.050   0.002  0.00  0.00    +0.005 C 
ENDBRANCH  20  24
ENDBRANCH   3  19
TORSDOF 4
