REMARK  Name = 2737071
REMARK  2 active torsions:
REMARK  status: ('A' for Active; 'I' for Inactive)
REMARK    1  A    between atoms: C_1  and  C_9
REMARK    2  A    between atoms: C_4  and  N_15
REMARK                            x       y       z     vdW  Elec       q    Type
REMARK                         _______ _______ _______ _____ _____    ______ ____
ROOT
ATOM      1  C   UNL     1      -0.651   0.056   0.021  0.00  0.00    +0.015 C 
ATOM      2  C   UNL     1       0.070   1.237  -0.154  0.00  0.00    +0.003 C 
ATOM      3  C   UNL     1       0.022  -1.154   0.186  0.00  0.00    +0.003 C 
ATOM      4  C   UNL     1       2.138  -0.003   0.001  0.00  0.00    +0.143 C 
ATOM      5  C   UNL     1       1.464   1.208  -0.165  0.00  0.00    +0.024 C 
ATOM      6  C   UNL     1       1.417  -1.184   0.176  0.00  0.00    +0.024 C 
ENDROOT
BRANCH   1   9
ATOM      7  N   UNL     1      -2.859  -0.960  -0.388  0.00  0.00    -0.236 N 
ATOM      8  N   UNL     1      -4.181  -0.734  -0.296  0.00  0.00    -0.180 NA
ATOM      9  C   UNL     1      -2.093   0.087   0.032  0.00  0.00    +0.067 C 
ATOM     10  C   UNL     1      -2.972   1.065   0.425  0.00  0.00    +0.038 C 
ATOM     11  C   UNL     1      -4.244   0.504   0.201  0.00  0.00    +0.119 C 
ATOM     12  H   UNL     1      -2.479  -1.802  -0.727  0.00  0.00    +0.174 HD
ENDBRANCH   1   9
BRANCH   4  15
ATOM     13  O   UNL     1       4.187   1.042  -0.169  0.00  0.00    -0.126 OA
ATOM     14  O   UNL     1       4.144  -1.131   0.141  0.00  0.00    -0.126 OA
ATOM     15  N   UNL     1       3.558  -0.032  -0.010  0.00  0.00    +0.058 N 
ENDBRANCH   4  15
TORSDOF 2
