REMARK  Name = 9547890
REMARK  4 active torsions:
REMARK  status: ('A' for Active; 'I' for Inactive)
REMARK    1  A    between atoms: C_6  and  O_18
REMARK    2  A    between atoms: C_8  and  C_15
REMARK    3  A    between atoms: O_18  and  C_19
REMARK    4  A    between atoms: C_19  and  C_20
REMARK                            x       y       z     vdW  Elec       q    Type
REMARK                         _______ _______ _______ _____ _____    ______ ____
ROOT
ATOM      1  N   UNL     1      -1.834   1.108  -0.160  0.00  0.00    -0.269 NA
ATOM      2  N   UNL     1      -3.644  -0.167   0.093  0.00  0.00    -0.299 N 
ATOM      3  N   UNL     1      -0.052  -2.104   0.035  0.00  0.00    -0.293 NA
ATOM      4  N   UNL     1      -2.477  -2.295   0.223  0.00  0.00    -0.316 NA
ATOM      5  N   UNL     1      -1.096  -4.181   0.315  0.00  0.00    -0.283 N 
ATOM      6  C   UNL     1      -0.125  -0.761  -0.094  0.00  0.00    +0.288 C 
ATOM      7  C   UNL     1      -1.374  -0.175  -0.065  0.00  0.00    +0.214 C 
ATOM      8  C   UNL     1      -3.199   1.062  -0.060  0.00  0.00    +0.130 C 
ATOM      9  C   UNL     1      -2.517  -0.948   0.092  0.00  0.00    +0.196 C 
ATOM     10  C   UNL     1      -1.216  -2.779   0.183  0.00  0.00    +0.200 C 
ATOM     11  H   UNL     1      -1.285   1.917  -0.279  0.00  0.00    +0.126 HD
ATOM     12  H   UNL     1      -4.579  -0.461   0.188  0.00  0.00    +0.150 HD
ATOM     13  H   UNL     1      -0.206  -4.603   0.295  0.00  0.00    +0.156 HD
ATOM     14  H   UNL     1      -1.901  -4.736   0.427  0.00  0.00    +0.156 HD
ENDROOT
BRANCH   8  15
ATOM     15  C   UNL     1      -4.011   2.291  -0.125  0.00  0.00    +0.033 C 
ATOM     16  C   UNL     1      -4.806   2.567   1.174  0.00  0.00    +0.003 C 
ATOM     17  C   UNL     1      -4.982   2.318  -1.331  0.00  0.00    +0.003 C 
ENDBRANCH   8  15
BRANCH   6  18
ATOM     18  O   UNL     1       1.037  -0.046  -0.245  0.00  0.00    -0.453 OA
BRANCH  18  19
ATOM     19  C   UNL     1       2.247  -0.779  -0.257  0.00  0.00    +0.208 C 
BRANCH  19  20
ATOM     20  C   UNL     1       3.406   0.200  -0.429  0.00  0.00    +0.044 C 
ATOM     21  C   UNL     1       3.429   1.220   0.717  0.00  0.00    +0.004 C 
ATOM     22  C   UNL     1       4.742  -0.550  -0.520  0.00  0.00    +0.004 C 
ATOM     23  C   UNL     1       4.612   2.179   0.595  0.00  0.00    +0.000 C 
ATOM     24  C   UNL     1       5.922   0.411  -0.639  0.00  0.00    +0.000 C 
ATOM     25  C   UNL     1       5.936   1.429   0.497  0.00  0.00    +0.000 C 
ENDBRANCH  19  20
ENDBRANCH  18  19
ENDBRANCH   6  18
TORSDOF 4
