REMARK  Name = 853608
REMARK  0 active torsions:
REMARK  status: ('A' for Active; 'I' for Inactive)
REMARK                            x       y       z     vdW  Elec       q    Type
REMARK                         _______ _______ _______ _____ _____    ______ ____
ROOT
ATOM      1  O   UNL     1       3.033  -1.137   0.259  0.00  0.00    -0.290 OA
ATOM      2  O   UNL     1       1.275  -2.751  -0.619  0.00  0.00    -0.272 OA
ATOM      3  N   UNL     1      -0.016  -0.975  -0.022  0.00  0.00    -0.276 N 
ATOM      4  C   UNL     1       0.330   1.255  -0.067  0.00  0.00    -0.002 A 
ATOM      5  C   UNL     1       1.060   2.557  -0.115  0.00  0.00    +0.028 C 
ATOM      6  C   UNL     1       0.961   0.024  -0.041  0.00  0.00    +0.097 A 
ATOM      7  C   UNL     1       2.489   2.398   0.410  0.00  0.00    +0.013 C 
ATOM      8  C   UNL     1      -1.067   1.038  -0.028  0.00  0.00    +0.014 A 
ATOM      9  C   UNL     1       3.185   1.194  -0.226  0.00  0.00    +0.071 C 
ATOM     10  C   UNL     1      -1.274  -0.348   0.000  0.00  0.00    +0.066 A 
ATOM     11  C   UNL     1       2.416  -0.100   0.030  0.00  0.00    +0.189 C 
ATOM     12  C   UNL     1      -2.175   1.914  -0.026  0.00  0.00    +0.001 C 
ATOM     13  C   UNL     1      -2.589  -0.858  -0.020  0.00  0.00    +0.018 C 
ATOM     14  C   UNL     1       0.255  -2.358  -0.069  0.00  0.00    +0.242 C 
ATOM     15  C   UNL     1      -3.471   1.399  -0.013  0.00  0.00    +0.000 C 
ATOM     16  C   UNL     1      -3.672   0.028  -0.017  0.00  0.00    +0.001 C 
ATOM     17  C   UNL     1      -0.740  -3.279   0.563  0.00  0.00    +0.098 C 
ENDROOT
TORSDOF 0
