REMARK  Name = 24878044
REMARK  6 active torsions:
REMARK  status: ('A' for Active; 'I' for Inactive)
REMARK    1  A    between atoms: N_2  and  C_6
REMARK    2  A    between atoms: C_3  and  C_18
REMARK    3  A    between atoms: C_7  and  S_12
REMARK    4  A    between atoms: S_12  and  N_15
REMARK    5  A    between atoms: C_18  and  S_19
REMARK    6  A    between atoms: S_19  and  C_31
REMARK                            x       y       z     vdW  Elec       q    Type
REMARK                         _______ _______ _______ _____ _____    ______ ____
ROOT
ATOM      1  O   UNL     1       1.600  -2.409  -1.615  0.00  0.00    -0.274 OA
ATOM      2  N   UNL     1       0.660  -2.236   0.532  0.00  0.00    -0.283 N 
ATOM      3  C   UNL     1       1.659  -2.518  -0.393  0.00  0.00    +0.238 C 
ATOM      4  H   UNL     1       0.884  -2.397   1.477  0.00  0.00    +0.155 HD
ENDROOT
BRANCH   2   6
ATOM      5 CL   UNL     1      -1.135  -1.792   2.954  0.00  0.00    -0.081 Cl
ATOM      6  C   UNL     1      -0.641  -1.743   0.271  0.00  0.00    +0.061 C 
ATOM      7  C   UNL     1      -3.189  -0.770  -0.313  0.00  0.00    +0.123 C 
ATOM      8  C   UNL     1      -1.548  -1.502   1.302  0.00  0.00    +0.072 C 
ATOM      9  C   UNL     1      -1.008  -1.498  -1.053  0.00  0.00    +0.017 C 
ATOM     10  C   UNL     1      -2.822  -1.015   1.010  0.00  0.00    +0.033 C 
ATOM     11  C   UNL     1      -2.282  -1.011  -1.345  0.00  0.00    +0.021 C 
BRANCH   7  12
ATOM     12  S   UNL     1      -4.784  -0.161  -0.679  0.00  0.00    +0.057 S 
ATOM     13  O   UNL     1      -5.114  -0.530  -2.048  0.00  0.00    -0.153 OA
ATOM     14  O   UNL     1      -5.681  -0.531   0.407  0.00  0.00    -0.153 OA
BRANCH  12  15
ATOM     15  N   UNL     1      -4.511   1.525  -0.614  0.00  0.00    -0.203 NA
ATOM     16  H   UNL     1      -5.382   2.018  -0.813  0.00  0.00    +0.144 HD
ATOM     17  H   UNL     1      -3.808   1.783  -1.306  0.00  0.00    +0.144 HD
ENDBRANCH  12  15
ENDBRANCH   7  12
ENDBRANCH   2   6
BRANCH   3  18
ATOM     18  C   UNL     1       2.919  -3.030   0.272  0.00  0.00    +0.152 C 
BRANCH  18  19
ATOM     19  S   UNL     1       4.279  -1.904  -0.110  0.00  0.00    -0.047 S 
BRANCH  19  31
ATOM     20  O   UNL     1       3.914  -0.129   1.761  0.00  0.00    -0.262 OA
ATOM     21  N   UNL     1       2.904   0.424  -0.288  0.00  0.00    -0.250 N 
ATOM     22  C   UNL     1       3.065   1.860  -2.315  0.00  0.00    +0.027 C 
ATOM     23  C   UNL     1       1.676   2.418  -2.088  0.00  0.00    +0.029 C 
ATOM     24  C   UNL     1       3.147   0.454  -1.746  0.00  0.00    +0.099 C 
ATOM     25  C   UNL     1       1.248   2.244  -0.655  0.00  0.00    -0.009 C 
ATOM     26  C   UNL     1       1.837   1.281   0.197  0.00  0.00    +0.051 C 
ATOM     27  C   UNL     1       0.195   3.055  -0.191  0.00  0.00    -0.007 C 
ATOM     28  C   UNL     1       1.318   1.162   1.500  0.00  0.00    +0.014 C 
ATOM     29  C   UNL     1      -0.280   2.932   1.109  0.00  0.00    -0.022 C 
ATOM     30  C   UNL     1       0.279   1.982   1.952  0.00  0.00    -0.003 C 
ATOM     31  C   UNL     1       3.666  -0.385   0.587  0.00  0.00    +0.280 C 
ATOM     32  C   UNL     1      -1.370   3.823   1.598  0.00  0.00    +0.031 C 
ENDBRANCH  19  31
ENDBRANCH  18  19
ENDBRANCH   3  18
TORSDOF 6
