REMARK  Name = 28876
REMARK  5 active torsions:
REMARK  status: ('A' for Active; 'I' for Inactive)
REMARK    1  A    between atoms: N_1  and  C_4
REMARK    2  A    between atoms: N_1  and  O_17
REMARK    3  A    between atoms: O_17  and  C_18
REMARK    4  A    between atoms: C_18  and  C_19
REMARK    5  A    between atoms: C_19  and  N_20
REMARK                            x       y       z     vdW  Elec       q    Type
REMARK                         _______ _______ _______ _____ _____    ______ ____
ROOT
ATOM      1  C   UNL     1       1.753   0.928  -0.155  0.00  0.00    +0.087 C 
ATOM      2  C   UNL     1       0.073  -0.986  -0.290  0.00  0.00    +0.016 C 
ATOM      3  C   UNL     1       0.354   0.456  -0.109  0.00  0.00    +0.093 C 
ATOM      4  C   UNL     1       2.762   0.364   0.638  0.00  0.00    -0.013 C 
ATOM      5  C   UNL     1       0.704  -1.974   0.477  0.00  0.00    +0.001 C 
ATOM      6  C   UNL     1       2.534  -0.692   1.632  0.00  0.00    -0.004 C 
ATOM      7  C   UNL     1       1.649  -1.695   1.564  0.00  0.00    -0.000 C 
ATOM      8  C   UNL     1       2.038   1.994  -1.022  0.00  0.00    -0.016 C 
ATOM      9  C   UNL     1      -0.869  -1.336  -1.270  0.00  0.00    +0.001 C 
ATOM     10  C   UNL     1       4.058   0.898   0.545  0.00  0.00    -0.004 C 
ATOM     11  C   UNL     1       0.355  -3.316   0.250  0.00  0.00    +0.000 C 
ATOM     12  C   UNL     1       3.333   2.499  -1.110  0.00  0.00    -0.004 C 
ATOM     13  C   UNL     1      -1.189  -2.674  -1.489  0.00  0.00    +0.000 C 
ATOM     14  C   UNL     1       4.343   1.951  -0.327  0.00  0.00    -0.001 C 
ATOM     15  C   UNL     1      -0.578  -3.664  -0.728  0.00  0.00    +0.000 C 
ENDROOT
BRANCH   3  16
ATOM     16  N   UNL     1      -0.601   1.319   0.037  0.00  0.00    -0.135 NA
BRANCH  16  17
ATOM     17  O   UNL     1      -1.817   0.627   0.050  0.00  0.00    -0.239 OA
BRANCH  17  18
ATOM     18  C   UNL     1      -2.858   1.579   0.210  0.00  0.00    +0.153 C 
BRANCH  18  19
ATOM     19  C   UNL     1      -4.190   0.848   0.227  0.00  0.00    -0.046 C 
BRANCH  19  20
ATOM     20  N   UNL     1      -5.289   1.785   0.407  0.00  0.00    +0.384 N 
ATOM     21  C   UNL     1      -6.567   1.087   0.466  0.00  0.00    -0.106 C 
ATOM     22  H   UNL     1      -5.301   2.439  -0.376  0.00  0.00    -0.085 HD
ATOM     23  H   UNL     1      -5.150   2.284   1.286  0.00  0.00    -0.085 HD
ENDBRANCH  19  20
ENDBRANCH  18  19
ENDBRANCH  17  18
ENDBRANCH  16  17
ENDBRANCH   3  16
TORSDOF 5
