24755470
  -OEChem-10051721143D

 54 55  0     1  0  0  0  0  0999 V2000
   -3.4291    1.8835   -0.9773 S   0  0  0  0  0  0  0  0  0  0  0  0
    4.5022    1.3636    0.7388 O   0  0  0  0  0  0  0  0  0  0  0  0
   -3.8565    2.7902    0.0711 O   0  0  0  0  0  0  0  0  0  0  0  0
   -3.7342    2.1764   -2.3646 O   0  0  0  0  0  0  0  0  0  0  0  0
   -4.7051   -0.9748    2.7068 O   0  0  0  0  0  0  0  0  0  0  0  0
   -6.0443   -0.3079    1.0040 O   0  0  0  0  0  0  0  0  0  0  0  0
   -3.2179   -4.9421   -1.0911 O   0  0  0  0  0  0  0  0  0  0  0  0
   -1.4121   -3.9745   -0.1098 O   0  0  0  0  0  0  0  0  0  0  0  0
   -3.9641    0.3112   -0.6162 N   0  0  0  0  0  0  0  0  0  0  0  0
   -3.6326   -0.2998    0.6900 C   0  0  2  0  0  0  0  0  0  0  0  0
   -2.7961   -1.5693    0.4907 C   0  0  0  0  0  0  0  0  0  0  0  0
   -1.6741    1.7058   -0.8622 C   0  0  0  0  0  0  0  0  0  0  0  0
    0.3628    1.7845    0.4656 C   0  0  0  0  0  0  0  0  0  0  0  0
    1.1140    1.4234   -0.6783 C   0  0  0  0  0  0  0  0  0  0  0  0
   -1.0306    1.9215    0.3567 C   0  0  0  0  0  0  0  0  0  0  0  0
   -3.4595   -2.7061   -0.2911 C   0  0  0  0  0  0  0  0  0  0  0  0
    6.3715   -0.1252    0.5253 C   0  0  0  0  0  0  0  0  0  0  0  0
    7.0754   -1.1528   -0.3583 C   0  0  0  0  0  0  0  0  0  0  0  0
   -0.9354    1.3509   -1.9870 C   0  0  0  0  0  0  0  0  0  0  0  0
    0.4498    1.2100   -1.8972 C   0  0  0  0  0  0  0  0  0  0  0  0
    5.1179    0.4241   -0.1409 C   0  0  0  0  0  0  0  0  0  0  0  0
    2.5074    1.2863   -0.5695 C   0  0  0  0  0  0  0  0  0  0  0  0
    3.1509    1.5022    0.6494 C   0  0  0  0  0  0  0  0  0  0  0  0
   -4.9215   -0.5087    1.4489 C   0  0  0  0  0  0  0  0  0  0  0  0
    1.0272    1.9978    1.6844 C   0  0  0  0  0  0  0  0  0  0  0  0
    8.3090   -1.7302    0.3351 C   0  0  0  0  0  0  0  0  0  0  0  0
    2.4124    1.8572    1.7743 C   0  0  0  0  0  0  0  0  0  0  0  0
   -2.5810   -3.9188   -0.4698 C   0  0  0  0  0  0  0  0  0  0  0  0
    8.9935   -2.7785   -0.5276 C   0  0  0  0  0  0  0  0  0  0  0  0
   -3.0619    0.4076    1.2978 H   0  0  0  0  0  0  0  0  0  0  0  0
   -2.4995   -1.9556    1.4748 H   0  0  0  0  0  0  0  0  0  0  0  0
   -1.8609   -1.2988   -0.0166 H   0  0  0  0  0  0  0  0  0  0  0  0
   -4.3504   -0.2909   -1.3517 H   0  0  0  0  0  0  0  0  0  0  0  0
   -1.6042    2.2082    1.2355 H   0  0  0  0  0  0  0  0  0  0  0  0
   -3.7363   -2.3634   -1.2932 H   0  0  0  0  0  0  0  0  0  0  0  0
   -4.3665   -3.0277    0.2325 H   0  0  0  0  0  0  0  0  0  0  0  0
    7.0516    0.7026    0.7616 H   0  0  0  0  0  0  0  0  0  0  0  0
    6.1010   -0.5751    1.4889 H   0  0  0  0  0  0  0  0  0  0  0  0
    7.3696   -0.6847   -1.3056 H   0  0  0  0  0  0  0  0  0  0  0  0
    6.3798   -1.9652   -0.6019 H   0  0  0  0  0  0  0  0  0  0  0  0
   -1.4168    1.1705   -2.9439 H   0  0  0  0  0  0  0  0  0  0  0  0
    1.0065    0.9296   -2.7890 H   0  0  0  0  0  0  0  0  0  0  0  0
    5.3803    0.9299   -1.0774 H   0  0  0  0  0  0  0  0  0  0  0  0
    4.4526   -0.4225   -0.3552 H   0  0  0  0  0  0  0  0  0  0  0  0
    3.0699    1.0368   -1.4665 H   0  0  0  0  0  0  0  0  0  0  0  0
    8.0213   -2.1850    1.2902 H   0  0  0  0  0  0  0  0  0  0  0  0
    9.0202   -0.9267    0.5593 H   0  0  0  0  0  0  0  0  0  0  0  0
    0.4700    2.2757    2.5767 H   0  0  0  0  0  0  0  0  0  0  0  0
    2.9087    2.0258    2.7261 H   0  0  0  0  0  0  0  0  0  0  0  0
    8.3181   -3.6131   -0.7412 H   0  0  0  0  0  0  0  0  0  0  0  0
    9.3217   -2.3494   -1.4798 H   0  0  0  0  0  0  0  0  0  0  0  0
    9.8736   -3.1768   -0.0132 H   0  0  0  0  0  0  0  0  0  0  0  0
   -5.5450   -1.1185    3.1927 H   0  0  0  0  0  0  0  0  0  0  0  0
   -2.6328   -5.7206   -1.2082 H   0  0  0  0  0  0  0  0  0  0  0  0
  1  3  2  0  0  0  0
  1  4  2  0  0  0  0
  1  9  1  0  0  0  0
  1 12  1  0  0  0  0
  2 21  1  0  0  0  0
  2 23  1  0  0  0  0
  5 24  1  0  0  0  0
  5 53  1  0  0  0  0
  6 24  2  0  0  0  0
  7 28  1  0  0  0  0
  7 54  1  0  0  0  0
  8 28  2  0  0  0  0
  9 10  1  0  0  0  0
  9 33  1  0  0  0  0
 10 11  1  0  0  0  0
 10 24  1  0  0  0  0
 10 30  1  0  0  0  0
 11 16  1  0  0  0  0
 11 31  1  0  0  0  0
 11 32  1  0  0  0  0
 12 15  2  0  0  0  0
 12 19  1  0  0  0  0
 13 14  2  0  0  0  0
 13 15  1  0  0  0  0
 13 25  1  0  0  0  0
 14 20  1  0  0  0  0
 14 22  1  0  0  0  0
 15 34  1  0  0  0  0
 16 28  1  0  0  0  0
 16 35  1  0  0  0  0
 16 36  1  0  0  0  0
 17 18  1  0  0  0  0
 17 21  1  0  0  0  0
 17 37  1  0  0  0  0
 17 38  1  0  0  0  0
 18 26  1  0  0  0  0
 18 39  1  0  0  0  0
 18 40  1  0  0  0  0
 19 20  2  0  0  0  0
 19 41  1  0  0  0  0
 20 42  1  0  0  0  0
 21 43  1  0  0  0  0
 21 44  1  0  0  0  0
 22 23  2  0  0  0  0
 22 45  1  0  0  0  0
 23 27  1  0  0  0  0
 25 27  2  0  0  0  0
 25 48  1  0  0  0  0
 26 29  1  0  0  0  0
 26 46  1  0  0  0  0
 26 47  1  0  0  0  0
 27 49  1  0  0  0  0
 29 50  1  0  0  0  0
 29 51  1  0  0  0  0
 29 52  1  0  0  0  0
M  END
> <DATABASE_ID>
DB08107

> <DATABASE_NAME>
drugbank

> <ORIGINAL_SOURCE>
PUBCHEM

> <ORIGINAL_SOURCE_URL>
https://pubchem.ncbi.nlm.nih.gov/rest/pug/compound/inchikey/LIGACKDHLKEZFH-GOSISDBHSA-N/SDF?record_type=3d

> <SMILES>
[H][C@](CCC(O)=O)(NS(=O)(=O)C1=CC2=C(C=C1)C=C(OCCCCC)C=C2)C(O)=O

> <INCHI_IDENTIFIER>
InChI=1S/C20H25NO7S/c1-2-3-4-11-28-16-7-5-15-13-17(8-6-14(15)12-16)29(26,27)21-18(20(24)25)9-10-19(22)23/h5-8,12-13,18,21H,2-4,9-11H2,1H3,(H,22,23)(H,24,25)/t18-/m1/s1

> <INCHI_KEY>
LIGACKDHLKEZFH-GOSISDBHSA-N

> <FORMULA>
C20H25NO7S

> <MOLECULAR_WEIGHT>
423.48

> <EXACT_MASS>
423.135172849

> <JCHEM_ACCEPTOR_COUNT>
7

> <JCHEM_AVERAGE_POLARIZABILITY>
44.10238641543706

> <JCHEM_BIOAVAILABILITY>
1

> <JCHEM_DONOR_COUNT>
3

> <JCHEM_FORMAL_CHARGE>
0

> <JCHEM_GHOSE_FILTER>
1

> <JCHEM_IUPAC>
(2R)-2-[6-(pentyloxy)naphthalene-2-sulfonamido]pentanedioic acid

> <ALOGPS_LOGP>
1.52

> <JCHEM_LOGP>
3.096822667666667

> <ALOGPS_LOGS>
-4.70

> <JCHEM_MDDR_LIKE_RULE>
0

> <JCHEM_NUMBER_OF_RINGS>
2

> <JCHEM_PHYSIOLOGICAL_CHARGE>
-2

> <JCHEM_PKA>
3.7524280513021577

> <JCHEM_PKA_STRONGEST_ACIDIC>
2.9695414214901676

> <JCHEM_PKA_STRONGEST_BASIC>
-4.844120896450203

> <JCHEM_POLAR_SURFACE_AREA>
130

> <JCHEM_REFRACTIVITY>
105.8695

> <JCHEM_ROTATABLE_BOND_COUNT>
11

> <JCHEM_RULE_OF_FIVE>
1

> <ALOGPS_SOLUBILITY>
8.47e-03 g/l

> <JCHEM_TRADITIONAL_IUPAC>
(2R)-2-[6-(pentyloxy)naphthalene-2-sulfonamido]pentanedioic acid

> <JCHEM_VEBER_RULE>
0

> <DRUGBANK_ID>
DB08107

> <DRUG_GROUPS>
experimental

> <GENERIC_NAME>
N-{[6-(PENTYLOXY)NAPHTHALEN-2-YL]SULFONYL}-D-GLUTAMIC ACID

$$$$
