REMARK  Name = 1175
REMARK  1 active torsions:
REMARK  status: ('A' for Active; 'I' for Inactive)
REMARK    1  A    between atoms: N_5  and  C_9
REMARK                            x       y       z     vdW  Elec       q    Type
REMARK                         _______ _______ _______ _____ _____    ______ ____
ROOT
ATOM      1  O   UNL     1      -0.734  -2.638  -0.001  0.00  0.00    -0.268 OA
ATOM      2  O   UNL     1      -3.254   1.274   0.001  0.00  0.00    -0.252 OA
ATOM      3  N   UNL     1      -0.949   1.424  -0.001  0.00  0.00    -0.266 N 
ATOM      4  N   UNL     1      -2.012  -0.687   0.000  0.00  0.00    -0.235 N 
ATOM      5  C   UNL     1       0.247   0.781   0.000  0.00  0.00    +0.085 C 
ATOM      6  C   UNL     1       0.359  -0.547   0.000  0.00  0.00    +0.120 C 
ATOM      7  C   UNL     1      -0.816  -1.416   0.000  0.00  0.00    +0.268 C 
ATOM      8  C   UNL     1      -2.154   0.719   0.000  0.00  0.00    +0.311 C 
ATOM      9  H   UNL     1      -0.966   2.408  -0.001  0.00  0.00    +0.156 HD
ATOM     10  H   UNL     1      -2.845  -1.211  -0.001  0.00  0.00    +0.159 HD
ENDROOT
BRANCH   6  12
ATOM     11  O   UNL     1       3.679   0.379   0.000  0.00  0.00    -0.265 OA
ATOM     12  N   UNL     1       1.675  -0.910   0.001  0.00  0.00    -0.272 N 
ATOM     13  C   UNL     1       2.462   0.283   0.000  0.00  0.00    +0.304 C 
ATOM     14  H   UNL     1       2.021  -1.831   0.001  0.00  0.00    +0.155 HD
ENDBRANCH   6  12
TORSDOF 1
REMARK  Name = 1175
REMARK  1 active torsions:
REMARK  status: ('A' for Active; 'I' for Inactive)
REMARK    1  A    between atoms: N_5  and  C_9
REMARK                            x       y       z     vdW  Elec       q    Type
REMARK                         _______ _______ _______ _____ _____    ______ ____
ROOT
ATOM      1  N   UNL     1       1.497   1.338  -0.001  0.00  0.00    -0.163 NA
ATOM      2  H   UNL     1       1.801   2.219  -0.318  0.00  0.00    +0.163 HD
ENDROOT
TORSDOF 0
REMARK  Name = 1175
REMARK  1 active torsions:
REMARK  status: ('A' for Active; 'I' for Inactive)
REMARK    1  A    between atoms: N_5  and  C_9
REMARK                            x       y       z     vdW  Elec       q    Type
REMARK                         _______ _______ _______ _____ _____    ______ ____
ROOT
ATOM      1  H   UNL     1       1.697   2.302  -0.001  0.00  0.00    +0.000 HD
ENDROOT
TORSDOF 0
