REMARK  Name = 55717
REMARK  10 active torsions:
REMARK  status: ('A' for Active; 'I' for Inactive)
REMARK    1  A    between atoms: C_1  and  O_2
REMARK    2  A    between atoms: C_1  and  C_14
REMARK    3  A    between atoms: O_2  and  C_3
REMARK    4  A    between atoms: C_4  and  C_11
REMARK    5  A    between atoms: C_14  and  C_15
REMARK    6  A    between atoms: C_15  and  C_16
REMARK    7  A    between atoms: C_16  and  C_17
REMARK    8  A    between atoms: C_17  and  C_18
REMARK    9  A    between atoms: C_18  and  C_19
REMARK   10  A    between atoms: C_19  and  C_22
REMARK                            x       y       z     vdW  Elec       q    Type
REMARK                         _______ _______ _______ _____ _____    ______ ____
ROOT
ATOM      1  C   UNL     1       1.148   0.502   0.893  0.00  0.00    +0.205 C 
ENDROOT
BRANCH   1   2
ATOM      2  O   UNL     1       2.120   1.450   0.476  0.00  0.00    -0.475 OA
BRANCH   2   3
ATOM      3  C   UNL     1       3.401   0.991   0.307  0.00  0.00    +0.139 C 
ATOM      4  C   UNL     1       6.008   0.058  -0.033  0.00  0.00    +0.053 C 
ATOM      5  C   UNL     1       3.866  -0.075   1.077  0.00  0.00    +0.037 C 
ATOM      6  C   UNL     1       4.239   1.590  -0.633  0.00  0.00    +0.037 C 
ATOM      7  C   UNL     1       5.169  -0.542   0.907  0.00  0.00    +0.008 C 
ATOM      8  C   UNL     1       5.542   1.124  -0.803  0.00  0.00    +0.008 C 
BRANCH   4  11
ATOM      9  O   UNL     1       8.098   0.222  -1.156  0.00  0.00    -0.458 OA
ATOM     10  N   UNL     1       7.934  -1.410   0.436  0.00  0.00    -0.234 NA
ATOM     11  C   UNL     1       7.382  -0.434  -0.212  0.00  0.00    +0.220 C 
ATOM     12  C   UNL     1       9.283  -0.545  -1.301  0.00  0.00    +0.233 C 
ATOM     13  C   UNL     1       9.309  -1.426  -0.073  0.00  0.00    +0.176 C 
ENDBRANCH   4  11
ENDBRANCH   2   3
ENDBRANCH   1   2
BRANCH   1  14
ATOM     14  C   UNL     1      -0.212   0.921   0.353  0.00  0.00    +0.047 C 
BRANCH  14  15
ATOM     15  C   UNL     1      -1.306  -0.067   0.751  0.00  0.00    +0.004 C 
BRANCH  15  16
ATOM     16  C   UNL     1      -2.676   0.385   0.241  0.00  0.00    +0.000 C 
BRANCH  16  17
ATOM     17  C   UNL     1      -3.777  -0.588   0.669  0.00  0.00    +0.000 C 
BRANCH  17  18
ATOM     18  C   UNL     1      -5.152  -0.117   0.186  0.00  0.00    +0.008 C 
BRANCH  18  19
ATOM     19  C   UNL     1      -6.287  -1.075   0.564  0.00  0.00    +0.067 C 
BRANCH  19  22
ATOM     20  O   UNL     1      -8.014  -1.040  -1.158  0.00  0.00    -0.358 OA
ATOM     21  N   UNL     1      -9.273  -0.533  -1.454  0.00  0.00    -0.082 NA
ATOM     22  C   UNL     1      -7.639  -0.617   0.076  0.00  0.00    +0.154 C 
ATOM     23  C   UNL     1      -8.626   0.166   0.615  0.00  0.00    +0.054 C 
ATOM     24  C   UNL     1      -9.618   0.184  -0.381  0.00  0.00    +0.101 C 
ATOM     25  C   UNL     1     -10.917   0.875  -0.348  0.00  0.00    +0.056 C 
ENDBRANCH  19  22
ENDBRANCH  18  19
ENDBRANCH  17  18
ENDBRANCH  16  17
ENDBRANCH  15  16
ENDBRANCH  14  15
ENDBRANCH   1  14
TORSDOF 10
