REMARK  Name = 11655511
REMARK  5 active torsions:
REMARK  status: ('A' for Active; 'I' for Inactive)
REMARK    1  A    between atoms: N_3  and  C_12
REMARK    2  A    between atoms: C_4  and  C_27
REMARK    3  A    between atoms: C_4  and  C_33
REMARK    4  A    between atoms: C_8  and  C_21
REMARK    5  A    between atoms: C_33  and  O_34
REMARK                            x       y       z     vdW  Elec       q    Type
REMARK                         _______ _______ _______ _____ _____    ______ ____
ROOT
ATOM      1  O   UNL     1      -1.933   1.718   0.335  0.00  0.00    -0.252 OA
ATOM      2  N   UNL     1       0.020   0.513   0.106  0.00  0.00    -0.254 N 
ATOM      3  N   UNL     1      -2.137  -0.456  -0.354  0.00  0.00    -0.261 N 
ATOM      4  C   UNL     1       0.877   1.549   0.754  0.00  0.00    +0.126 C 
ATOM      5  C   UNL     1       0.800  -0.689  -0.223  0.00  0.00    +0.122 C 
ATOM      6  C   UNL     1      -1.375   0.654   0.032  0.00  0.00    +0.308 C 
ATOM      7  C   UNL     1       2.235   0.876   0.735  0.00  0.00    -0.004 C 
ATOM      8  C   UNL     1       2.191  -0.364   0.229  0.00  0.00    -0.002 C 
ATOM      9  C   UNL     1      -1.811  -1.352  -1.456  0.00  0.00    +0.116 C 
ENDROOT
BRANCH   3  12
ATOM     10  F   UNL     1      -3.723  -2.690  -0.884  0.00  0.00    -0.238 F 
ATOM     11  N   UNL     1      -6.220  -1.559  -0.056  0.00  0.00    +0.387 N 
ATOM     12  C   UNL     1      -3.462  -0.610   0.193  0.00  0.00    +0.105 C 
ATOM     13  C   UNL     1      -3.833  -2.085   0.334  0.00  0.00    +0.158 C 
ATOM     14  C   UNL     1      -4.499   0.111  -0.669  0.00  0.00    -0.000 C 
ATOM     15  C   UNL     1      -5.271  -2.261   0.822  0.00  0.00    -0.040 C 
ATOM     16  C   UNL     1      -5.915  -0.124  -0.137  0.00  0.00    -0.076 C 
ATOM     17  C   UNL     1      -7.593  -1.766   0.405  0.00  0.00    -0.101 C 
ATOM     18  H   UNL     1      -6.126  -1.950  -0.993  0.00  0.00    -0.080 HD
ENDBRANCH   3  12
BRANCH   8  21
ATOM     19  F   UNL     1       4.413  -0.400   1.985  0.00  0.00    -0.204 F 
ATOM     20  F   UNL     1       4.360  -4.043  -2.096  0.00  0.00    -0.204 F 
ATOM     21  C   UNL     1       3.312  -1.312   0.084  0.00  0.00    +0.027 C 
ATOM     22  C   UNL     1       4.389  -1.289   0.981  0.00  0.00    +0.140 C 
ATOM     23  C   UNL     1       3.312  -2.251  -0.957  0.00  0.00    +0.032 C 
ATOM     24  C   UNL     1       4.369  -3.150  -1.098  0.00  0.00    +0.140 C 
ATOM     25  C   UNL     1       5.446  -2.188   0.840  0.00  0.00    +0.032 C 
ATOM     26  C   UNL     1       5.436  -3.119  -0.200  0.00  0.00    +0.032 C 
ENDBRANCH   8  21
BRANCH   4  27
ATOM     27  C   UNL     1       0.906   2.846  -0.060  0.00  0.00    +0.000 C 
ATOM     28  C   UNL     1       1.227   2.808  -1.415  0.00  0.00    -0.002 C 
ATOM     29  C   UNL     1       0.612   4.059   0.559  0.00  0.00    -0.002 C 
ATOM     30  C   UNL     1       1.254   3.989  -2.155  0.00  0.00    -0.000 C 
ATOM     31  C   UNL     1       0.639   5.240  -0.182  0.00  0.00    -0.000 C 
ATOM     32  C   UNL     1       0.960   5.206  -1.539  0.00  0.00    -0.000 C 
ENDBRANCH   4  27
BRANCH   4  33
ATOM     33  C   UNL     1       0.502   1.709   2.245  0.00  0.00    +0.164 C 
BRANCH  33  34
ATOM     34  O   UNL     1       0.510   0.429   2.844  0.00  0.00    -0.380 OA
ATOM     35  H   UNL     1       0.277   0.510   3.782  0.00  0.00    +0.211 HD
ENDBRANCH  33  34
ENDBRANCH   4  33
TORSDOF 5
