REMARK  Name = 25229552
REMARK  4 active torsions:
REMARK  status: ('A' for Active; 'I' for Inactive)
REMARK    1  A    between atoms: C_1  and  C_11
REMARK    2  A    between atoms: C_2  and  N_17
REMARK    3  A    between atoms: C_4  and  S_20
REMARK    4  A    between atoms: S_20  and  C_24
REMARK                            x       y       z     vdW  Elec       q    Type
REMARK                         _______ _______ _______ _____ _____    ______ ____
ROOT
ATOM      1  C   UNL     1       0.257   1.024  -0.637  0.00  0.00    +0.067 C 
ATOM      2  C   UNL     1       0.190   2.237   0.049  0.00  0.00    +0.049 C 
ATOM      3  C   UNL     1      -0.912   0.416  -1.096  0.00  0.00    +0.012 C 
ATOM      4  C   UNL     1      -2.148   1.022  -0.868  0.00  0.00    +0.032 C 
ATOM      5  C   UNL     1      -1.046   2.842   0.276  0.00  0.00    +0.015 C 
ATOM      6  C   UNL     1      -2.215   2.235  -0.183  0.00  0.00    +0.008 C 
ENDROOT
BRANCH   1  11
ATOM      7  S   UNL     1       4.151  -0.907   1.887  0.00  0.00    -0.060 S 
ATOM      8  O   UNL     1       1.869   0.137  -2.062  0.00  0.00    -0.270 OA
ATOM      9  N   UNL     1       2.276   0.021   0.246  0.00  0.00    -0.251 N 
ATOM     10  N   UNL     1       4.260  -1.074  -0.690  0.00  0.00    -0.388 NA
ATOM     11  C   UNL     1       1.533   0.366  -0.890  0.00  0.00    +0.253 C 
ATOM     12  C   UNL     1       3.527  -0.641   0.312  0.00  0.00    +0.213 C 
ATOM     13  C   UNL     1       5.403  -1.661  -0.185  0.00  0.00    +0.101 C 
ATOM     14  C   UNL     1       5.522  -1.666   1.189  0.00  0.00    +0.120 C 
ATOM     15  C   UNL     1       6.383  -2.222  -1.136  0.00  0.00    +0.063 C 
ATOM     16  H   UNL     1       1.877   0.271   1.111  0.00  0.00    +0.158 HD
ENDBRANCH   1  11
BRANCH   2  17
ATOM     17  N   UNL     1       1.362   2.869   0.521  0.00  0.00    -0.331 N 
ATOM     18  C   UNL     1       1.379   3.696   1.687  0.00  0.00    +0.109 C 
ATOM     19  H   UNL     1       2.202   2.734   0.027  0.00  0.00    +0.147 HD
ENDBRANCH   2  17
BRANCH   4  20
ATOM     20  S   UNL     1      -3.642   0.246  -1.454  0.00  0.00    -0.051 S 
BRANCH  20  24
ATOM     21  N   UNL     1      -5.181  -1.575  -0.024  0.00  0.00    -0.246 N 
ATOM     22  N   UNL     1      -3.429  -0.874   1.083  0.00  0.00    -0.124 NA
ATOM     23  N   UNL     1      -4.117  -1.768   1.878  0.00  0.00    -0.128 NA
ATOM     24  C   UNL     1      -4.082  -0.771  -0.053  0.00  0.00    +0.189 C 
ATOM     25  C   UNL     1      -6.178  -1.775  -1.048  0.00  0.00    +0.121 C 
ATOM     26  C   UNL     1      -5.164  -2.177   1.197  0.00  0.00    +0.193 C 
ENDBRANCH  20  24
ENDBRANCH   4  20
TORSDOF 4
