REMARK  Name = 24864078
REMARK  4 active torsions:
REMARK  status: ('A' for Active; 'I' for Inactive)
REMARK    1  A    between atoms: C_3  and  C_9
REMARK    2  A    between atoms: C_4  and  N_19
REMARK    3  A    between atoms: N_8  and  C_12
REMARK    4  A    between atoms: C_20  and  C_22
REMARK                            x       y       z     vdW  Elec       q    Type
REMARK                         _______ _______ _______ _____ _____    ______ ____
ROOT
ATOM      1  N   UNL     1       0.635   3.107   0.045  0.00  0.00    -0.230 N 
ATOM      2  N   UNL     1      -0.383   3.984   0.053  0.00  0.00    -0.178 NA
ATOM      3  C   UNL     1       0.239   1.802   0.027  0.00  0.00    +0.134 C 
ATOM      4  C   UNL     1      -1.135   1.827   0.023  0.00  0.00    +0.091 C 
ATOM      5  C   UNL     1      -1.461   3.197   0.039  0.00  0.00    +0.134 C 
ATOM      6  H   UNL     1       1.581   3.381   0.052  0.00  0.00    +0.175 HD
ENDROOT
BRANCH   3   9
ATOM      7  O   UNL     1       0.685  -0.480  -0.023  0.00  0.00    -0.268 OA
ATOM      8  N   UNL     1       2.517   0.985   0.024  0.00  0.00    -0.279 N 
ATOM      9  C   UNL     1       1.135   0.691   0.016  0.00  0.00    +0.266 C 
ATOM     10  H   UNL     1       2.743   1.942   0.055  0.00  0.00    +0.155 HD
BRANCH   8  12
ATOM     11  F   UNL     1       6.856  -2.466  -0.095  0.00  0.00    -0.204 F 
ATOM     12  C   UNL     1       3.626   0.103  -0.006  0.00  0.00    +0.051 C 
ATOM     13  C   UNL     1       3.419  -1.276  -0.051  0.00  0.00    +0.017 C 
ATOM     14  C   UNL     1       4.924   0.614   0.009  0.00  0.00    +0.017 C 
ATOM     15  C   UNL     1       4.511  -2.144  -0.081  0.00  0.00    +0.031 C 
ATOM     16  C   UNL     1       6.015  -0.254  -0.020  0.00  0.00    +0.031 C 
ATOM     17  C   UNL     1       5.809  -1.633  -0.065  0.00  0.00    +0.140 C 
ENDBRANCH   8  12
ENDBRANCH   3   9
BRANCH   4  19
ATOM     18  O   UNL     1      -4.130   1.718   0.010  0.00  0.00    -0.270 OA
ATOM     19  N   UNL     1      -2.010   0.714   0.005  0.00  0.00    -0.278 N 
ATOM     20  C   UNL     1      -3.412   0.705  -0.001  0.00  0.00    +0.250 C 
ATOM     21  H   UNL     1      -1.577  -0.170  -0.005  0.00  0.00    +0.155 HD
BRANCH  20  22
ATOM     22  C   UNL     1      -4.038  -0.607   0.008  0.00  0.00    +0.054 C 
ATOM     23  C   UNL     1      -5.308  -0.777  -0.545  0.00  0.00    +0.005 C 
ATOM     24  C   UNL     1      -3.370  -1.696   0.568  0.00  0.00    +0.005 C 
ATOM     25  C   UNL     1      -5.910  -2.035  -0.537  0.00  0.00    +0.000 C 
ATOM     26  C   UNL     1      -3.972  -2.954   0.575  0.00  0.00    +0.000 C 
ATOM     27  C   UNL     1      -5.241  -3.124   0.023  0.00  0.00    +0.000 C 
ENDBRANCH  20  22
ENDBRANCH   4  19
TORSDOF 4
