REMARK  Name = 130188
REMARK  8 active torsions:
REMARK  status: ('A' for Active; 'I' for Inactive)
REMARK    1  A    between atoms: C_1  and  C_5
REMARK    2  A    between atoms: C_1  and  C_15
REMARK    3  A    between atoms: C_15  and  C_16
REMARK    4  A    between atoms: C_16  and  O_17
REMARK    5  A    between atoms: O_17  and  C_18
REMARK    6  A    between atoms: C_23  and  C_25
REMARK    7  A    between atoms: C_25  and  O_26
REMARK    8  A    between atoms: O_26  and  C_27
REMARK                            x       y       z     vdW  Elec       q    Type
REMARK                         _______ _______ _______ _____ _____    ______ ____
ROOT
ATOM      1  C   UNL     1       0.755  -0.571   0.274  0.00  0.00    +0.004 C 
ENDROOT
BRANCH   1   5
ATOM      2  N   UNL     1       5.031  -0.172  -0.059  0.00  0.00    -0.292 N 
ATOM      3  N   UNL     1       7.098  -0.340  -1.210  0.00  0.00    -0.133 NA
ATOM      4  N   UNL     1       8.458  -0.329  -1.201  0.00  0.00    -0.151 NA
ATOM      5  C   UNL     1       2.140  -0.162  -0.219  0.00  0.00    +0.004 C 
ATOM      6  C   UNL     1       2.965  -1.393  -0.613  0.00  0.00    +0.022 C 
ATOM      7  C   UNL     1       2.890   0.632   0.855  0.00  0.00    +0.022 C 
ATOM      8  C   UNL     1       4.368  -1.001  -1.074  0.00  0.00    +0.092 C 
ATOM      9  C   UNL     1       4.297   1.014   0.394  0.00  0.00    +0.092 C 
ATOM     10  C   UNL     1       6.431  -0.160  -0.050  0.00  0.00    +0.153 C 
ATOM     11  C   UNL     1       7.068   0.037   1.159  0.00  0.00    +0.037 C 
ATOM     12  C   UNL     1       8.451   0.048   1.168  0.00  0.00    +0.019 C 
ATOM     13  C   UNL     1       9.107  -0.138  -0.033  0.00  0.00    +0.081 C 
ATOM     14  C   UNL     1      10.597  -0.135  -0.077  0.00  0.00    +0.054 C 
ENDBRANCH   1   5
BRANCH   1  15
ATOM     15  C   UNL     1      -0.226   0.592   0.196  0.00  0.00    +0.047 C 
BRANCH  15  16
ATOM     16  C   UNL     1      -1.619   0.177   0.648  0.00  0.00    +0.205 C 
BRANCH  16  17
ATOM     17  O   UNL     1      -2.489   1.296   0.539  0.00  0.00    -0.475 OA
BRANCH  17  18
ATOM     18  C   UNL     1      -3.811   1.029   0.296  0.00  0.00    +0.139 C 
ATOM     19  C   UNL     1      -4.587   1.942  -0.419  0.00  0.00    +0.037 C 
ATOM     20  C   UNL     1      -4.381  -0.154   0.765  0.00  0.00    +0.037 C 
ATOM     21  C   UNL     1      -5.933   1.672  -0.664  0.00  0.00    +0.010 C 
ATOM     22  C   UNL     1      -5.728  -0.425   0.519  0.00  0.00    +0.010 C 
ATOM     23  C   UNL     1      -6.503   0.488  -0.196  0.00  0.00    +0.076 C 
BRANCH  23  25
ATOM     24  O   UNL     1      -8.669   0.958  -1.074  0.00  0.00    -0.245 OA
ATOM     25  C   UNL     1      -7.907   0.207  -0.451  0.00  0.00    +0.341 C 
BRANCH  25  26
ATOM     26  O   UNL     1      -8.284  -0.995   0.082  0.00  0.00    -0.445 OA
BRANCH  26  27
ATOM     27  C   UNL     1      -9.649  -1.386  -0.105  0.00  0.00    +0.209 C 
ATOM     28  C   UNL     1      -9.870  -2.733   0.550  0.00  0.00    +0.051 C 
ENDBRANCH  26  27
ENDBRANCH  25  26
ENDBRANCH  23  25
ENDBRANCH  17  18
ENDBRANCH  16  17
ENDBRANCH  15  16
ENDBRANCH   1  15
TORSDOF 8
