REMARK  Name = 2856
REMARK  5 active torsions:
REMARK  status: ('A' for Active; 'I' for Inactive)
REMARK    1  A    between atoms: N_1  and  C_12
REMARK    2  A    between atoms: N_5  and  C_24
REMARK    3  A    between atoms: N_15  and  C_18
REMARK    4  A    between atoms: C_24  and  C_25
REMARK    5  A    between atoms: C_25  and  O_26
REMARK                            x       y       z     vdW  Elec       q    Type
REMARK                         _______ _______ _______ _____ _____    ______ ____
ROOT
ATOM      1  N   UNL     1      -3.492   0.897  -0.066  0.00  0.00    -0.262 N 
ATOM      2  N   UNL     1      -1.908   2.463   0.004  0.00  0.00    -0.240 NA
ATOM      3  N   UNL     1      -2.106  -1.098  -0.065  0.00  0.00    -0.311 NA
ATOM      4  N   UNL     1       0.266  -0.529   0.009  0.00  0.00    -0.311 NA
ATOM      5  N   UNL     1      -0.456  -2.757  -0.049  0.00  0.00    -0.256 N 
ATOM      6  C   UNL     1      -2.301   0.229  -0.046  0.00  0.00    +0.220 C 
ATOM      7  C   UNL     1      -1.331   1.218  -0.002  0.00  0.00    +0.168 C 
ATOM      8  C   UNL     1      -3.204   2.235  -0.035  0.00  0.00    +0.222 C 
ATOM      9  C   UNL     1      -0.005   0.798   0.026  0.00  0.00    +0.219 C 
ATOM     10  C   UNL     1      -0.786  -1.382  -0.035  0.00  0.00    +0.202 C 
ATOM     11  H   UNL     1      -1.186  -3.417  -0.078  0.00  0.00    +0.160 HD
ATOM     12  N   UNL     1       1.044   1.733   0.071  0.00  0.00    -0.286 N 
ATOM     13  H   UNL     1       0.737   2.669   0.081  0.00  0.00    +0.155 HD
ENDROOT
BRANCH  12  15
ATOM     14 CL   UNL     1       5.199  -0.986  -1.217  0.00  0.00    -0.082 Cl
ATOM     15  C   UNL     1       2.448   1.598   0.105  0.00  0.00    +0.051 C 
ATOM     16  C   UNL     1       3.058   0.500  -0.502  0.00  0.00    +0.026 C 
ATOM     17  C   UNL     1       3.224   2.561   0.748  0.00  0.00    +0.015 C 
ATOM     18  C   UNL     1       4.445   0.367  -0.467  0.00  0.00    +0.059 C 
ATOM     19  C   UNL     1       4.612   2.428   0.783  0.00  0.00    +0.002 C 
ATOM     20  C   UNL     1       5.223   1.330   0.176  0.00  0.00    +0.011 C 
ENDBRANCH  12  15
BRANCH   1  21
ATOM     21  C   UNL     1      -4.810   0.312  -0.112  0.00  0.00    +0.077 C 
ATOM     22  C   UNL     1      -5.558   0.687  -1.393  0.00  0.00    +0.022 C 
ATOM     23  C   UNL     1      -5.629   0.644   1.137  0.00  0.00    +0.022 C 
ENDBRANCH   1  21
BRANCH   5  24
ATOM     24  C   UNL     1       0.892  -3.229  -0.021  0.00  0.00    +0.130 C 
BRANCH  24  25
ATOM     25  C   UNL     1       0.931  -4.747  -0.089  0.00  0.00    +0.159 C 
BRANCH  25  26
ATOM     26  O   UNL     1       0.242  -5.272   1.039  0.00  0.00    -0.380 OA
ATOM     27  H   UNL     1       0.261  -6.242   1.006  0.00  0.00    +0.211 HD
ENDBRANCH  25  26
ENDBRANCH  24  25
ENDBRANCH   5  24
TORSDOF 5
