REMARK  Name = 46937135
REMARK  8 active torsions:
REMARK  status: ('A' for Active; 'I' for Inactive)
REMARK    1  A    between atoms: C_2  and  N_6
REMARK    2  A    between atoms: C_3  and  O_18
REMARK    3  A    between atoms: C_5  and  C_20
REMARK    4  A    between atoms: C_14  and  N_17
REMARK    5  A    between atoms: C_20  and  O_21
REMARK    6  A    between atoms: O_21  and  P_22
REMARK    7  A    between atoms: P_22  and  O_24
REMARK    8  A    between atoms: P_22  and  O_26
REMARK                            x       y       z     vdW  Elec       q    Type
REMARK                         _______ _______ _______ _____ _____    ______ ____
ROOT
ATOM      1  O   UNL     1      -1.720   0.883   0.961  0.00  0.00    -0.335 OA
ATOM      2  C   UNL     1      -0.495   1.270   0.310  0.00  0.00    +0.199 C 
ATOM      3  C   UNL     1      -2.214   2.593  -0.616  0.00  0.00    +0.144 C 
ATOM      4  C   UNL     1      -0.897   1.955  -0.991  0.00  0.00    +0.083 C 
ATOM      5  C   UNL     1      -2.822   1.583   0.348  0.00  0.00    +0.174 C 
ENDROOT
BRANCH   2   6
ATOM      6  N   UNL     1       0.428   0.096   0.100  0.00  0.00    -0.264 N 
ATOM      7  C   UNL     1       1.804   0.148   0.109  0.00  0.00    +0.054 C 
ATOM      8  C   UNL     1       0.006  -1.186  -0.129  0.00  0.00    +0.067 C 
ATOM      9  C   UNL     1       2.267  -1.149  -0.123  0.00  0.00    +0.017 C 
ATOM     10  C   UNL     1       1.121  -1.980  -0.271  0.00  0.00    +0.017 C 
ATOM     11  C   UNL     1       2.666   1.234   0.303  0.00  0.00    +0.017 C 
ATOM     12  C   UNL     1       3.656  -1.375  -0.164  0.00  0.00    +0.025 C 
ATOM     13  C   UNL     1       4.040   0.985   0.258  0.00  0.00    +0.025 C 
ATOM     14  C   UNL     1       4.530  -0.299   0.028  0.00  0.00    +0.143 C 
BRANCH  14  17
ATOM     15  O   UNL     1       6.707   0.451   0.162  0.00  0.00    -0.126 OA
ATOM     16  O   UNL     1       6.358  -1.683  -0.220  0.00  0.00    -0.126 OA
ATOM     17  N   UNL     1       5.933  -0.521  -0.012  0.00  0.00    +0.058 N 
ENDBRANCH  14  17
ENDBRANCH   2   6
BRANCH   3  18
ATOM     18  O   UNL     1      -1.946   3.812   0.073  0.00  0.00    -0.382 OA
ATOM     19  H   UNL     1      -1.560   4.453  -0.543  0.00  0.00    +0.210 HD
ENDBRANCH   3  18
BRANCH   5  20
ATOM     20  C   UNL     1      -3.699   0.554  -0.353  0.00  0.00    +0.186 C 
BRANCH  20  21
ATOM     21  O   UNL     1      -4.208  -0.344   0.617  0.00  0.00    -0.271 OA
BRANCH  21  22
ATOM     22  P   UNL     1      -5.178  -1.544   0.126  0.00  0.00    +0.473 P 
ATOM     23  O   UNL     1      -5.672  -2.448   1.218  0.00  0.00    -0.227 OA
BRANCH  22  24
ATOM     24  O   UNL     1      -4.328  -2.271  -1.042  0.00  0.00    -0.303 OA
ATOM     25  H   UNL     1      -4.053  -1.613  -1.699  0.00  0.00    +0.222 HD
ENDBRANCH  22  24
BRANCH  22  26
ATOM     26  O   UNL     1      -6.336  -0.762  -0.689  0.00  0.00    -0.303 OA
ATOM     27  H   UNL     1      -5.931  -0.204  -1.371  0.00  0.00    +0.222 HD
ENDBRANCH  22  26
ENDBRANCH  21  22
ENDBRANCH  20  21
ENDBRANCH   5  20
TORSDOF 8
