REMARK  Name = 11840970
REMARK  8 active torsions:
REMARK  status: ('A' for Active; 'I' for Inactive)
REMARK    1  A    between atoms: C_1  and  C_17
REMARK    2  A    between atoms: C_2  and  C_9
REMARK    3  A    between atoms: N_8  and  C_11
REMARK    4  A    between atoms: C_11  and  C_12
REMARK    5  A    between atoms: C_12  and  N_13
REMARK    6  A    between atoms: C_17  and  S_18
REMARK    7  A    between atoms: S_18  and  C_21
REMARK    8  A    between atoms: C_26  and  O_27
REMARK                            x       y       z     vdW  Elec       q    Type
REMARK                         _______ _______ _______ _____ _____    ______ ____
ROOT
ATOM      1  C   UNL     1      -1.882   1.236  -0.122  0.00  0.00    +0.033 C 
ATOM      2  C   UNL     1      -2.951   0.181   0.223  0.00  0.00    +0.078 C 
ATOM      3  C   UNL     1      -2.338   2.640   0.309  0.00  0.00    +0.002 C 
ATOM      4  C   UNL     1      -4.327   0.562  -0.333  0.00  0.00    +0.009 C 
ATOM      5  C   UNL     1      -3.705   2.999  -0.263  0.00  0.00    +0.000 C 
ATOM      6  C   UNL     1      -4.754   1.958   0.107  0.00  0.00    +0.000 C 
ENDROOT
BRANCH   2   9
ATOM      7  O   UNL     1      -1.929  -1.266  -1.379  0.00  0.00    -0.275 OA
ATOM      8  N   UNL     1      -3.084  -2.204   0.412  0.00  0.00    -0.307 N 
ATOM      9  C   UNL     1      -2.584  -1.158  -0.345  0.00  0.00    +0.222 C 
ATOM     10  H   UNL     1      -3.596  -1.990   1.225  0.00  0.00    +0.149 HD
BRANCH   8  11
ATOM     11  C   UNL     1      -2.890  -3.594   0.067  0.00  0.00    +0.066 C 
BRANCH  11  12
ATOM     12  C   UNL     1      -1.619  -4.145   0.695  0.00  0.00    -0.065 C 
BRANCH  12  13
ATOM     13  N   UNL     1      -1.437  -5.543   0.327  0.00  0.00    +0.382 N 
ATOM     14  H   UNL     1      -0.582  -5.899   0.755  0.00  0.00    -0.089 HD
ATOM     15  H   UNL     1      -1.367  -5.621  -0.688  0.00  0.00    -0.089 HD
ATOM     16  H   UNL     1      -2.234  -6.088   0.656  0.00  0.00    -0.089 HD
ENDBRANCH  12  13
ENDBRANCH  11  12
ENDBRANCH   8  11
ENDBRANCH   2   9
BRANCH   1  17
ATOM     17  C   UNL     1      -0.536   0.911   0.533  0.00  0.00    +0.156 C 
BRANCH  17  18
ATOM     18  S   UNL     1       0.695   2.063   0.041  0.00  0.00    +0.009 S 
ATOM     19  O   UNL     1       0.806   3.103   1.054  0.00  0.00    -0.169 OA
ATOM     20  O   UNL     1       0.446   2.427  -1.346  0.00  0.00    -0.169 OA
BRANCH  18  21
ATOM     21  C   UNL     1       2.204   1.140   0.092  0.00  0.00    +0.106 C 
ATOM     22  C   UNL     1       2.619   0.465  -1.041  0.00  0.00    +0.021 C 
ATOM     23  C   UNL     1       2.937   1.112   1.265  0.00  0.00    +0.021 C 
ATOM     24  C   UNL     1       3.809  -0.263  -1.001  0.00  0.00    +0.038 C 
ATOM     25  C   UNL     1       4.126   0.384   1.305  0.00  0.00    +0.038 C 
ATOM     26  C   UNL     1       4.562  -0.304   0.172  0.00  0.00    +0.139 C 
BRANCH  26  27
ATOM     27  O   UNL     1       5.723  -1.013   0.211  0.00  0.00    -0.471 OA
ATOM     28  C   UNL     1       6.110  -1.691  -0.983  0.00  0.00    +0.252 C 
ENDBRANCH  26  27
ENDBRANCH  18  21
ENDBRANCH  17  18
ENDBRANCH   1  17
TORSDOF 8
