REMARK  Name = 9822610
REMARK  5 active torsions:
REMARK  status: ('A' for Active; 'I' for Inactive)
REMARK    1  A    between atoms: N_1  and  C_16
REMARK    2  A    between atoms: N_2  and  C_22
REMARK    3  A    between atoms: C_23  and  O_28
REMARK    4  A    between atoms: C_24  and  O_30
REMARK    5  A    between atoms: C_25  and  O_32
REMARK                            x       y       z     vdW  Elec       q    Type
REMARK                         _______ _______ _______ _____ _____    ______ ____
ROOT
ATOM      1  N   UNL     1       2.390  -2.514   0.603  0.00  0.00    -0.287 N 
ATOM      2  N   UNL     1      -2.233  -2.360  -0.373  0.00  0.00    -0.247 N 
ATOM      3  N   UNL     1       0.061  -2.414   0.115  0.00  0.00    -0.322 NA
ATOM      4  N   UNL     1      -1.110  -4.412  -0.553  0.00  0.00    -0.170 NA
ATOM      5  C   UNL     1       1.200  -3.144   0.213  0.00  0.00    +0.198 C 
ATOM      6  C   UNL     1      -1.035  -3.099  -0.265  0.00  0.00    +0.150 C 
ATOM      7  C   UNL     1       1.244  -4.504  -0.058  0.00  0.00    +0.070 C 
ATOM      8  C   UNL     1       0.053  -5.087  -0.439  0.00  0.00    +0.116 C 
ATOM      9  H   UNL     1       3.012  -3.103   1.087  0.00  0.00    +0.155 HD
ATOM     10  H   UNL     1      -3.007  -2.900  -0.653  0.00  0.00    +0.165 HD
ENDROOT
BRANCH   1  16
ATOM     11  N   UNL     1       3.564   2.825  -1.265  0.00  0.00    -0.280 N 
ATOM     12  N   UNL     1       2.820   1.792  -1.707  0.00  0.00    -0.173 NA
ATOM     13  C   UNL     1       3.869   1.320   0.252  0.00  0.00    +0.032 A 
ATOM     14  C   UNL     1       2.987   0.831  -0.781  0.00  0.00    +0.103 A 
ATOM     15  C   UNL     1       4.218   2.596  -0.090  0.00  0.00    +0.053 A 
ATOM     16  C   UNL     1       2.869  -1.187   0.434  0.00  0.00    +0.052 C 
ATOM     17  C   UNL     1       2.454  -0.469  -0.709  0.00  0.00    +0.036 C 
ATOM     18  C   UNL     1       4.295   0.641   1.386  0.00  0.00    +0.004 C 
ATOM     19  C   UNL     1       3.746  -0.656   1.432  0.00  0.00    +0.015 C 
ATOM     20  C   UNL     1       5.077   3.615   0.536  0.00  0.00    +0.051 C 
ATOM     21  H   UNL     1       3.630   3.678  -1.752  0.00  0.00    +0.189 HD
ENDBRANCH   1  16
BRANCH   2  22
ATOM     22  C   UNL     1      -2.538  -1.003  -0.160  0.00  0.00    +0.064 C 
ATOM     23  C   UNL     1      -3.142   1.691   0.264  0.00  0.00    +0.206 C 
ATOM     24  C   UNL     1      -1.867   1.321  -0.165  0.00  0.00    +0.177 C 
ATOM     25  C   UNL     1      -4.115   0.715   0.480  0.00  0.00    +0.177 C 
ATOM     26  C   UNL     1      -1.565  -0.024  -0.377  0.00  0.00    +0.055 C 
ATOM     27  C   UNL     1      -3.813  -0.630   0.269  0.00  0.00    +0.055 C 
BRANCH  23  28
ATOM     28  O   UNL     1      -3.437   3.006   0.470  0.00  0.00    -0.465 OA
ATOM     29  C   UNL     1      -3.311   3.880  -0.649  0.00  0.00    +0.253 C 
ENDBRANCH  23  28
BRANCH  24  30
ATOM     30  O   UNL     1      -0.907   2.264  -0.380  0.00  0.00    -0.468 OA
ATOM     31  C   UNL     1      -0.075   2.606   0.727  0.00  0.00    +0.253 C 
ENDBRANCH  24  30
BRANCH  25  32
ATOM     32  O   UNL     1      -5.364   1.063   0.899  0.00  0.00    -0.468 OA
ATOM     33  C   UNL     1      -6.333   1.335  -0.111  0.00  0.00    +0.253 C 
ENDBRANCH  25  32
ENDBRANCH   2  22
TORSDOF 5
