REMARK  Name = 447099
REMARK  5 active torsions:
REMARK  status: ('A' for Active; 'I' for Inactive)
REMARK    1  A    between atoms: N_1  and  C_20
REMARK    2  A    between atoms: C_20  and  C_21
REMARK    3  A    between atoms: C_20  and  C_24
REMARK    4  A    between atoms: C_21  and  O_22
REMARK    5  A    between atoms: C_24  and  O_25
REMARK                            x       y       z     vdW  Elec       q    Type
REMARK                         _______ _______ _______ _____ _____    ______ ____
ROOT
ATOM      1  N   UNL     1       1.751   0.011   0.302  0.00  0.00    -0.283 N 
ATOM      2  N   UNL     1      -3.465  -0.038  -1.454  0.00  0.00    -0.332 NA
ATOM      3  N   UNL     1      -4.166   0.004   0.855  0.00  0.00    -0.317 NA
ATOM      4  N   UNL     1      -2.619   0.042   2.595  0.00  0.00    -0.335 N 
ATOM      5  N   UNL     1      -5.739  -0.033  -0.880  0.00  0.00    -0.283 N 
ATOM      6  C   UNL     1       0.522  -0.005  -0.318  0.00  0.00    +0.049 C 
ATOM      7  C   UNL     1      -0.450   0.011   0.683  0.00  0.00    +0.007 C 
ATOM      8  C   UNL     1       1.592   0.036   1.661  0.00  0.00    +0.065 C 
ATOM      9  C   UNL     1      -1.818   0.000   0.285  0.00  0.00    +0.144 C 
ATOM     10  C   UNL     1       0.243   0.037   1.929  0.00  0.00    +0.014 C 
ATOM     11  C   UNL     1       0.199  -0.032  -1.676  0.00  0.00    +0.017 C 
ATOM     12  C   UNL     1      -2.175  -0.027  -1.075  0.00  0.00    +0.134 C 
ATOM     13  C   UNL     1      -1.158  -0.043  -2.023  0.00  0.00    +0.031 C 
ATOM     14  C   UNL     1      -2.867   0.014   1.207  0.00  0.00    +0.178 C 
ATOM     15  C   UNL     1      -4.388  -0.022  -0.470  0.00  0.00    +0.197 C 
ATOM     16  H   UNL     1      -3.373   0.052   3.229  0.00  0.00    +0.144 HD
ATOM     17  H   UNL     1      -1.694   0.051   2.930  0.00  0.00    +0.144 HD
ATOM     18  H   UNL     1      -5.963  -0.052  -1.839  0.00  0.00    +0.156 HD
ATOM     19  H   UNL     1      -6.458  -0.022  -0.207  0.00  0.00    +0.156 HD
ENDROOT
BRANCH   1  20
ATOM     20  C   UNL     1       3.032   0.003  -0.369  0.00  0.00    +0.136 C 
BRANCH  20  21
ATOM     21  C   UNL     1       3.850  -1.254  -0.034  0.00  0.00    +0.165 C 
BRANCH  21  22
ATOM     22  O   UNL     1       3.113  -2.430  -0.350  0.00  0.00    -0.349 OA
ATOM     23  C   UNL     1       3.889  -3.601  -0.142  0.00  0.00    +0.174 C 
ENDBRANCH  21  22
ENDBRANCH  20  21
BRANCH  20  24
ATOM     24  C   UNL     1       3.831   1.280  -0.079  0.00  0.00    +0.165 C 
BRANCH  24  25
ATOM     25  O   UNL     1       3.048   2.419  -0.418  0.00  0.00    -0.349 OA
ATOM     26  C   UNL     1       3.775   3.625  -0.229  0.00  0.00    +0.174 C 
ENDBRANCH  24  25
ENDBRANCH  20  24
ENDBRANCH   1  20
TORSDOF 5
