REMARK  Name = 16750097
REMARK  3 active torsions:
REMARK  status: ('A' for Active; 'I' for Inactive)
REMARK    1  A    between atoms: N_3  and  C_10
REMARK    2  A    between atoms: N_3  and  C_23
REMARK    3  A    between atoms: C_23  and  C_24
REMARK                            x       y       z     vdW  Elec       q    Type
REMARK                         _______ _______ _______ _____ _____    ______ ____
ROOT
ATOM      1  O   UNL     1      -5.604   0.209  -2.583  0.00  0.00    -0.209 OA
ATOM      2  N   UNL     1      -0.599  -0.382  -1.097  0.00  0.00    -0.305 N 
ATOM      3  N   UNL     1      -0.553  -0.406   1.124  0.00  0.00    -0.305 N 
ATOM      4  N   UNL     1      -5.461   0.159   1.419  0.00  0.00    -0.275 N 
ATOM      5  N   UNL     1      -6.726   0.323  -0.590  0.00  0.00    -0.302 NA
ATOM      6  N   UNL     1      -7.737   0.423   1.521  0.00  0.00    -0.320 N 
ATOM      7  C   UNL     1      -1.904  -0.234  -0.702  0.00  0.00    +0.061 C 
ATOM      8  C   UNL     1      -1.849  -0.253   0.688  0.00  0.00    +0.061 C 
ATOM      9  C   UNL     1       0.170  -0.480   0.029  0.00  0.00    +0.208 C 
ATOM     10  C   UNL     1      -4.251   0.025   0.732  0.00  0.00    +0.064 C 
ATOM     11  C   UNL     1      -4.266   0.038  -0.671  0.00  0.00    +0.110 C 
ATOM     12  C   UNL     1      -3.090  -0.091  -1.425  0.00  0.00    +0.030 C 
ATOM     13  C   UNL     1      -3.038  -0.122   1.425  0.00  0.00    +0.031 C 
ATOM     14  C   UNL     1      -5.581   0.197  -1.356  0.00  0.00    +0.208 C 
ATOM     15  C   UNL     1      -6.634   0.301   0.714  0.00  0.00    +0.248 C 
ATOM     16  H   UNL     1      -0.273  -0.412  -2.025  0.00  0.00    +0.150 HD
ATOM     17  H   UNL     1      -0.236  -0.450   2.055  0.00  0.00    +0.150 HD
ATOM     18  H   UNL     1      -5.474   0.152   2.403  0.00  0.00    +0.156 HD
ATOM     19  H   UNL     1      -7.635   0.403   2.500  0.00  0.00    +0.146 HD
ATOM     20  H   UNL     1      -8.630   0.531   1.121  0.00  0.00    +0.146 HD
ENDROOT
BRANCH   9  21
ATOM     21  N   UNL     1       1.504  -0.632  -0.117  0.00  0.00    -0.263 NA
ATOM     22  H   UNL     1       1.864  -0.666  -1.033  0.00  0.00    +0.127 HD
BRANCH  21  23
ATOM     23  C   UNL     1       2.445  -0.748   0.983  0.00  0.00    +0.098 C 
BRANCH  23  24
ATOM     24  C   UNL     1       3.851  -0.868   0.464  0.00  0.00    -0.006 C 
ATOM     25  C   UNL     1       4.659   0.257   0.236  0.00  0.00    -0.003 C 
ATOM     26  C   UNL     1       5.975   0.077  -0.254  0.00  0.00    -0.000 C 
ATOM     27  C   UNL     1       4.333  -2.153   0.212  0.00  0.00    -0.003 C 
ATOM     28  C   UNL     1       4.191   1.558   0.483  0.00  0.00    -0.000 C 
ATOM     29  C   UNL     1       6.443  -1.224  -0.502  0.00  0.00    -0.000 C 
ATOM     30  C   UNL     1       5.626  -2.331  -0.269  0.00  0.00    -0.000 C 
ATOM     31  C   UNL     1       6.783   1.202  -0.482  0.00  0.00    -0.000 C 
ATOM     32  C   UNL     1       5.008   2.665   0.250  0.00  0.00    -0.000 C 
ATOM     33  C   UNL     1       6.302   2.487  -0.231  0.00  0.00    -0.000 C 
ENDBRANCH  23  24
ENDBRANCH  21  23
ENDBRANCH   9  21
TORSDOF 3
