REMARK  Name = 5289428
REMARK  4 active torsions:
REMARK  status: ('A' for Active; 'I' for Inactive)
REMARK    1  A    between atoms: N_2  and  N_5
REMARK    2  A    between atoms: C_3  and  O_9
REMARK    3  A    between atoms: N_5  and  C_8
REMARK    4  A    between atoms: O_9  and  C_10
REMARK                            x       y       z     vdW  Elec       q    Type
REMARK                         _______ _______ _______ _____ _____    ______ ____
ROOT
ATOM      1  O   UNL     1      -0.149  -0.176  -1.261  0.00  0.00    -0.225 OA
ATOM      2  N   UNL     1       0.995   0.515   0.630  0.00  0.00    -0.190 N 
ATOM      3  C   UNL     1      -0.130   0.165  -0.082  0.00  0.00    +0.418 C 
ATOM      4  H   UNL     1       0.923   0.777   1.576  0.00  0.00    +0.177 HD
ENDROOT
BRANCH   2   5
ATOM      5  N   UNL     1       2.295   0.493  -0.033  0.00  0.00    -0.172 N 
ATOM      6  C   UNL     1       2.988   1.801  -0.044  0.00  0.00    +0.148 C 
BRANCH   5   8
ATOM      7  N   UNL     1       3.481  -1.705   0.176  0.00  0.00    -0.173 NA
ATOM      8  C   UNL     1       2.931  -0.688   0.081  0.00  0.00    +0.188 C 
ENDBRANCH   5   8
ENDBRANCH   2   5
BRANCH   3   9
ATOM      9  O   UNL     1      -1.232   0.254   0.720  0.00  0.00    -0.441 OA
BRANCH   9  10
ATOM     10  C   UNL     1      -2.480  -0.082   0.103  0.00  0.00    +0.138 C 
ATOM     11  C   UNL     1      -2.407  -1.528  -0.386  0.00  0.00    +0.044 C 
ATOM     12  C   UNL     1      -3.572   0.074   1.160  0.00  0.00    +0.044 C 
ATOM     13  C   UNL     1      -2.720   0.876  -1.063  0.00  0.00    +0.044 C 
ENDBRANCH   9  10
ENDBRANCH   3   9
TORSDOF 4
