REMARK  Name = 9547945
REMARK  2 active torsions:
REMARK  status: ('A' for Active; 'I' for Inactive)
REMARK    1  A    between atoms: C_2  and  C_11
REMARK    2  A    between atoms: C_8  and  C_20
REMARK                            x       y       z     vdW  Elec       q    Type
REMARK                         _______ _______ _______ _____ _____    ______ ____
ROOT
ATOM      1  N   UNL     1       0.496   1.190  -0.024  0.00  0.00    -0.313 N 
ATOM      2  C   UNL     1       1.166   0.004  -0.158  0.00  0.00    +0.048 C 
ATOM      3  C   UNL     1      -1.056  -0.408  -0.135  0.00  0.00    +0.015 C 
ATOM      4  C   UNL     1      -0.862   0.969  -0.007  0.00  0.00    +0.048 C 
ATOM      5  C   UNL     1       0.233  -1.004  -0.229  0.00  0.00    +0.016 C 
ATOM      6  C   UNL     1      -2.373  -0.910  -0.147  0.00  0.00    +0.004 C 
ATOM      7  C   UNL     1      -1.924   1.873   0.111  0.00  0.00    +0.015 C 
ATOM      8  C   UNL     1      -3.445  -0.017  -0.030  0.00  0.00    +0.031 C 
ATOM      9  C   UNL     1      -3.221   1.353   0.097  0.00  0.00    +0.004 C 
ATOM     10  H   UNL     1       0.924   2.074   0.050  0.00  0.00    +0.152 HD
ENDROOT
BRANCH   2  11
ATOM     11  C   UNL     1       2.607  -0.060  -0.204  0.00  0.00    +0.009 C 
ATOM     12  C   UNL     1       3.362  -0.208   0.961  0.00  0.00    -0.021 C 
ATOM     13  C   UNL     1       3.248   0.028  -1.441  0.00  0.00    +0.001 C 
ATOM     14  C   UNL     1       4.754  -0.267   0.889  0.00  0.00    -0.004 C 
ATOM     15  C   UNL     1       2.712  -0.305   2.304  0.00  0.00    +0.031 C 
ATOM     16  C   UNL     1       4.640  -0.032  -1.512  0.00  0.00    +0.000 C 
ATOM     17  C   UNL     1       5.393  -0.179  -0.347  0.00  0.00    -0.000 C 
ENDBRANCH   2  11
BRANCH   8  20
ATOM     18  N   UNL     1      -5.902   0.328   0.072  0.00  0.00    -0.343 N 
ATOM     19  N   UNL     1      -5.022  -1.825  -0.158  0.00  0.00    -0.285 NA
ATOM     20  C   UNL     1      -4.807  -0.527  -0.042  0.00  0.00    +0.117 C 
ATOM     21  H   UNL     1      -6.815  -0.039   0.062  0.00  0.00    +0.144 HD
ATOM     22  H   UNL     1      -5.761   1.298   0.163  0.00  0.00    +0.144 HD
ATOM     23  H   UNL     1      -5.943  -2.173  -0.166  0.00  0.00    +0.188 HD
ENDBRANCH   8  20
TORSDOF 2
