REMARK  Name = 11304743
REMARK  5 active torsions:
REMARK  status: ('A' for Active; 'I' for Inactive)
REMARK    1  A    between atoms: C_4  and  C_15
REMARK    2  A    between atoms: C_5  and  N_28
REMARK    3  A    between atoms: N_10  and  C_19
REMARK    4  A    between atoms: C_19  and  C_21
REMARK    5  A    between atoms: C_30  and  O_31
REMARK                            x       y       z     vdW  Elec       q    Type
REMARK                         _______ _______ _______ _____ _____    ______ ____
ROOT
ATOM      1  N   UNL     1       1.308   0.906  -1.040  0.00  0.00    -0.326 NA
ATOM      2  N   UNL     1       1.687  -1.250  -0.033  0.00  0.00    -0.326 NA
ATOM      3  N   UNL     1       3.123   2.365  -1.468  0.00  0.00    -0.334 N 
ATOM      4  C   UNL     1       0.915  -0.284  -0.557  0.00  0.00    +0.160 C 
ATOM      5  C   UNL     1       3.542   0.220  -0.465  0.00  0.00    +0.213 C 
ATOM      6  C   UNL     1       2.638   1.127  -0.978  0.00  0.00    +0.193 C 
ATOM      7  C   UNL     1       3.004  -0.963  -0.002  0.00  0.00    +0.193 C 
ATOM      8  H   UNL     1       2.497   3.027  -1.839  0.00  0.00    +0.144 HD
ATOM      9  H   UNL     1       4.088   2.562  -1.437  0.00  0.00    +0.144 HD
ATOM     10  N   UNL     1       3.879  -1.938   0.540  0.00  0.00    -0.334 N 
ATOM     11  H   UNL     1       3.518  -2.790   0.877  0.00  0.00    +0.144 HD
ATOM     12  H   UNL     1       4.847  -1.764   0.580  0.00  0.00    +0.144 HD
ENDROOT
BRANCH   4  18
ATOM     13  N   UNL     1      -2.543  -0.238  -1.000  0.00  0.00    -0.229 N 
ATOM     14  N   UNL     1      -1.340   0.352  -1.116  0.00  0.00    -0.155 NA
ATOM     15  N   UNL     1      -3.536  -2.295  -0.203  0.00  0.00    -0.225 NA
ATOM     16  C   UNL     1      -1.155  -1.722  -0.168  0.00  0.00    +0.066 A 
ATOM     17  C   UNL     1      -2.493  -1.480  -0.440  0.00  0.00    +0.162 A 
ATOM     18  C   UNL     1      -0.499  -0.555  -0.608  0.00  0.00    +0.189 A 
ATOM     19  C   UNL     1      -0.817  -2.946   0.421  0.00  0.00    +0.007 C 
ATOM     20  C   UNL     1      -1.858  -3.835   0.690  0.00  0.00    +0.021 C 
ATOM     21  C   UNL     1      -3.159  -3.465   0.366  0.00  0.00    +0.101 C 
BRANCH  13  22
ATOM     22  C   UNL     1      -3.723   0.458  -1.459  0.00  0.00    +0.158 C 
BRANCH  22  24
ATOM     23  F   UNL     1      -5.686  -0.539   0.313  0.00  0.00    -0.204 F 
ATOM     24  C   UNL     1      -4.331   1.290  -0.362  0.00  0.00    +0.030 C 
ATOM     25  C   UNL     1      -5.291   0.732   0.471  0.00  0.00    +0.138 C 
ATOM     26  C   UNL     1      -3.922   2.607  -0.200  0.00  0.00    -0.000 C 
ATOM     27  C   UNL     1      -5.853   1.507   1.486  0.00  0.00    +0.029 C 
ATOM     28  C   UNL     1      -4.484   3.381   0.815  0.00  0.00    -0.000 C 
ATOM     29  C   UNL     1      -5.450   2.831   1.658  0.00  0.00    +0.002 C 
ENDBRANCH  22  24
ENDBRANCH  13  22
ENDBRANCH   4  18
BRANCH   5  31
ATOM     30  O   UNL     1       5.116   0.300   1.932  0.00  0.00    -0.226 OA
ATOM     31  N   UNL     1       4.913   0.484  -0.414  0.00  0.00    -0.231 N 
ATOM     32  C   UNL     1       5.702   0.756  -1.654  0.00  0.00    +0.119 C 
ATOM     33  C   UNL     1       5.630   0.505   0.835  0.00  0.00    +0.406 C 
BRANCH  33  34
ATOM     34  O   UNL     1       6.963   0.812   0.711  0.00  0.00    -0.430 OA
ATOM     35  C   UNL     1       7.719   0.879   1.927  0.00  0.00    +0.257 C 
ENDBRANCH  33  34
ENDBRANCH   5  31
TORSDOF 5
