REMARK  Name = 24755470
REMARK  14 active torsions:
REMARK  status: ('A' for Active; 'I' for Inactive)
REMARK    1  A    between atoms: S_1  and  C_4
REMARK    2  A    between atoms: S_1  and  N_20
REMARK    3  A    between atoms: C_11  and  O_14
REMARK    4  A    between atoms: O_14  and  C_15
REMARK    5  A    between atoms: C_15  and  C_16
REMARK    6  A    between atoms: C_16  and  C_17
REMARK    7  A    between atoms: C_17  and  C_18
REMARK    8  A    between atoms: N_20  and  C_22
REMARK    9  A    between atoms: C_22  and  C_24
REMARK   10  A    between atoms: C_22  and  C_27
REMARK   11  A    between atoms: C_24  and  O_25
REMARK   12  A    between atoms: C_27  and  C_28
REMARK   13  A    between atoms: C_28  and  C_30
REMARK   14  A    between atoms: C_30  and  O_31
REMARK                            x       y       z     vdW  Elec       q    Type
REMARK                         _______ _______ _______ _____ _____    ______ ____
ROOT
ATOM      1  S   UNL     1      -3.429   1.883  -0.977  0.00  0.00    +0.061 S 
ATOM      2  O   UNL     1      -3.857   2.790   0.071  0.00  0.00    -0.153 OA
ATOM      3  O   UNL     1      -3.734   2.176  -2.365  0.00  0.00    -0.153 OA
ENDROOT
BRANCH   1   4
ATOM      4  C   UNL     1      -1.674   1.706  -0.862  0.00  0.00    +0.122 C 
ATOM      5  C   UNL     1       0.363   1.784   0.466  0.00  0.00    +0.002 C 
ATOM      6  C   UNL     1       1.114   1.423  -0.678  0.00  0.00    +0.003 C 
ATOM      7  C   UNL     1      -1.031   1.921   0.357  0.00  0.00    +0.020 C 
ATOM      8  C   UNL     1      -0.935   1.351  -1.987  0.00  0.00    +0.020 C 
ATOM      9  C   UNL     1       0.450   1.210  -1.897  0.00  0.00    +0.001 C 
ATOM     10  C   UNL     1       2.507   1.286  -0.570  0.00  0.00    +0.037 C 
ATOM     11  C   UNL     1       3.151   1.502   0.649  0.00  0.00    +0.139 C 
ATOM     12  C   UNL     1       1.027   1.998   1.684  0.00  0.00    +0.003 C 
ATOM     13  C   UNL     1       2.412   1.857   1.774  0.00  0.00    +0.037 C 
BRANCH  11  14
ATOM     14  O   UNL     1       4.502   1.364   0.739  0.00  0.00    -0.475 OA
BRANCH  14  15
ATOM     15  C   UNL     1       5.118   0.424  -0.141  0.00  0.00    +0.205 C 
BRANCH  15  16
ATOM     16  C   UNL     1       6.372  -0.125   0.525  0.00  0.00    +0.047 C 
BRANCH  16  17
ATOM     17  C   UNL     1       7.075  -1.153  -0.358  0.00  0.00    +0.004 C 
BRANCH  17  18
ATOM     18  C   UNL     1       8.309  -1.730   0.335  0.00  0.00    +0.000 C 
ATOM     19  C   UNL     1       8.993  -2.779  -0.528  0.00  0.00    +0.000 C 
ENDBRANCH  17  18
ENDBRANCH  16  17
ENDBRANCH  15  16
ENDBRANCH  14  15
ENDBRANCH  11  14
ENDBRANCH   1   4
BRANCH   1  20
ATOM     20  N   UNL     1      -3.964   0.311  -0.616  0.00  0.00    -0.170 NA
ATOM     21  H   UNL     1      -3.581  -0.303  -1.335  0.00  0.00    +0.149 HD
BRANCH  20  22
ATOM     22  C   UNL     1      -3.633  -0.300   0.690  0.00  0.00    +0.174 C 
BRANCH  22  24
ATOM     23  O   UNL     1      -6.044  -0.308   1.004  0.00  0.00    -0.249 OA
ATOM     24  C   UNL     1      -4.921  -0.509   1.449  0.00  0.00    +0.330 C 
BRANCH  24  25
ATOM     25  O   UNL     1      -4.705  -0.975   2.707  0.00  0.00    -0.479 OA
ATOM     26  H   UNL     1      -3.830  -1.115   3.010  0.00  0.00    +0.295 HD
ENDBRANCH  24  25
ENDBRANCH  22  24
BRANCH  22  27
ATOM     27  C   UNL     1      -2.796  -1.569   0.491  0.00  0.00    +0.040 C 
BRANCH  27  28
ATOM     28  C   UNL     1      -3.459  -2.706  -0.291  0.00  0.00    +0.111 C 
BRANCH  28  30
ATOM     29  O   UNL     1      -1.412  -3.974  -0.110  0.00  0.00    -0.250 OA
ATOM     30  C   UNL     1      -2.581  -3.919  -0.470  0.00  0.00    +0.314 C 
BRANCH  30  31
ATOM     31  O   UNL     1      -3.218  -4.942  -1.091  0.00  0.00    -0.480 OA
ATOM     32  H   UNL     1      -4.114  -4.849  -1.347  0.00  0.00    +0.295 HD
ENDBRANCH  30  31
ENDBRANCH  28  30
ENDBRANCH  27  28
ENDBRANCH  22  27
ENDBRANCH  20  22
ENDBRANCH   1  20
TORSDOF 14
