REMARK  Name = 123920
REMARK  0 active torsions:
REMARK  status: ('A' for Active; 'I' for Inactive)
REMARK                            x       y       z     vdW  Elec       q    Type
REMARK                         _______ _______ _______ _____ _____    ______ ____
ROOT
ATOM      1 CL   UNL     1      -1.555   2.407  -0.075  0.00  0.00    -0.082 Cl
ATOM      2 CL   UNL     1      -3.719   0.072  -0.005  0.00  0.00    -0.081 Cl
ATOM      3  N   UNL     1       2.687   1.066   0.362  0.00  0.00    +0.387 N 
ATOM      4  C   UNL     1       2.157  -1.310   0.047  0.00  0.00    +0.003 C 
ATOM      5  C   UNL     1       0.696  -0.939   0.008  0.00  0.00    -0.029 C 
ATOM      6  C   UNL     1       0.309   0.413   0.006  0.00  0.00    -0.036 C 
ATOM      7  C   UNL     1       3.069  -0.149  -0.355  0.00  0.00    -0.077 C 
ATOM      8  C   UNL     1       1.348   1.506  -0.048  0.00  0.00    -0.054 C 
ATOM      9  C   UNL     1      -0.283  -1.941   0.033  0.00  0.00    -0.004 C 
ATOM     10  C   UNL     1      -1.053   0.741  -0.008  0.00  0.00    +0.062 C 
ATOM     11  C   UNL     1      -1.636  -1.602   0.029  0.00  0.00    +0.012 C 
ATOM     12  C   UNL     1      -2.021  -0.264   0.007  0.00  0.00    +0.068 C 
ATOM     13  H   UNL     1       3.360   1.804   0.156  0.00  0.00    -0.084 HD
ATOM     14  H   UNL     1       2.676   0.869   1.363  0.00  0.00    -0.084 HD
ENDROOT
TORSDOF 0
