REMARK  Name = 11338033
REMARK  4 active torsions:
REMARK  status: ('A' for Active; 'I' for Inactive)
REMARK    1  A    between atoms: C_3  and  C_9
REMARK    2  A    between atoms: C_4  and  N_20
REMARK    3  A    between atoms: N_8  and  C_12
REMARK    4  A    between atoms: C_21  and  C_25
REMARK                            x       y       z     vdW  Elec       q    Type
REMARK                         _______ _______ _______ _____ _____    ______ ____
ROOT
ATOM      1  N   UNL     1       1.795  -2.380  -0.051  0.00  0.00    -0.230 N 
ATOM      2  N   UNL     1       1.008  -3.447  -0.268  0.00  0.00    -0.178 NA
ATOM      3  C   UNL     1       1.093  -1.242   0.059  0.00  0.00    +0.133 C 
ATOM      4  C   UNL     1      -0.215  -1.527  -0.084  0.00  0.00    +0.091 C 
ATOM      5  C   UNL     1      -0.219  -2.920  -0.287  0.00  0.00    +0.134 C 
ATOM      6  H   UNL     1       2.776  -2.427   0.019  0.00  0.00    +0.175 HD
ENDROOT
BRANCH   3   9
ATOM      7  O   UNL     1       1.075   1.106   0.372  0.00  0.00    -0.269 OA
ATOM      8  N   UNL     1       3.115   0.050   0.406  0.00  0.00    -0.302 N 
ATOM      9  C   UNL     1       1.726   0.062   0.298  0.00  0.00    +0.262 C 
ATOM     10  H   UNL     1       3.591  -0.809   0.340  0.00  0.00    +0.150 HD
BRANCH   8  12
ATOM     11  N   UNL     1       6.538   0.999  -0.612  0.00  0.00    +0.384 N 
ATOM     12  C   UNL     1       3.881   1.258   0.610  0.00  0.00    +0.068 C 
ATOM     13  C   UNL     1       4.243   1.911  -0.727  0.00  0.00    -0.004 C 
ATOM     14  C   UNL     1       5.143   0.986   1.433  0.00  0.00    -0.004 C 
ATOM     15  C   UNL     1       5.354   1.154  -1.456  0.00  0.00    -0.080 C 
ATOM     16  C   UNL     1       6.226   0.274   0.620  0.00  0.00    -0.080 C 
ATOM     17  H   UNL     1       6.896   1.923  -0.370  0.00  0.00    -0.085 HD
ATOM     18  H   UNL     1       7.234   0.464  -1.131  0.00  0.00    -0.085 HD
ENDBRANCH   8  12
ENDBRANCH   3   9
BRANCH   4  20
ATOM     19  O   UNL     1      -3.132  -2.099  -0.331  0.00  0.00    -0.270 OA
ATOM     20  N   UNL     1      -1.286  -0.667  -0.043  0.00  0.00    -0.278 N 
ATOM     21  C   UNL     1      -2.649  -0.984  -0.164  0.00  0.00    +0.251 C 
ATOM     22  H   UNL     1      -1.073   0.285   0.088  0.00  0.00    +0.155 HD
BRANCH  21  25
ATOM     23 CL   UNL     1      -3.603  -0.306   2.645  0.00  0.00    -0.082 Cl
ATOM     24 CL   UNL     1      -3.387   0.411  -2.765  0.00  0.00    -0.082 Cl
ATOM     25  C   UNL     1      -3.586   0.164  -0.049  0.00  0.00    +0.075 C 
ATOM     26  C   UNL     1      -4.058   0.525   1.200  0.00  0.00    +0.063 C 
ATOM     27  C   UNL     1      -3.962   0.843  -1.194  0.00  0.00    +0.063 C 
ATOM     28  C   UNL     1      -4.936   1.604   1.308  0.00  0.00    +0.012 C 
ATOM     29  C   UNL     1      -4.840   1.922  -1.086  0.00  0.00    +0.012 C 
ATOM     30  C   UNL     1      -5.326   2.302   0.165  0.00  0.00    +0.002 C 
ENDBRANCH  21  25
ENDBRANCH   4  20
TORSDOF 4
