REMARK  Name = 73094
REMARK  10 active torsions:
REMARK  status: ('A' for Active; 'I' for Inactive)
REMARK    1  A    between atoms: C_1  and  C_3
REMARK    2  A    between atoms: C_1  and  N_6
REMARK    3  A    between atoms: C_1  and  C_18
REMARK    4  A    between atoms: C_3  and  C_5
REMARK    5  A    between atoms: N_6  and  S_8
REMARK    6  A    between atoms: S_8  and  C_11
REMARK    7  A    between atoms: C_18  and  C_19
REMARK    8  A    between atoms: C_19  and  C_20
REMARK    9  A    between atoms: C_20  and  C_21
REMARK   10  A    between atoms: C_21  and  N_22
REMARK                            x       y       z     vdW  Elec       q    Type
REMARK                         _______ _______ _______ _____ _____    ______ ____
ROOT
ATOM      1  C   UNL     1      -0.878   0.114  -0.478  0.00  0.00    +0.134 C 
ENDROOT
BRANCH   1   3
ATOM      2  O   UNL     1      -0.229   1.378   1.467  0.00  0.00    -0.293 OA
ATOM      3  C   UNL     1      -0.574   1.395   0.285  0.00  0.00    +0.183 C 
BRANCH   3   5
ATOM      4 CL   UNL     1       0.399   3.913   0.137  0.00  0.00    -0.105 Cl
ATOM      5  C   UNL     1      -0.699   2.681  -0.505  0.00  0.00    +0.160 C 
ENDBRANCH   3   5
ENDBRANCH   1   3
BRANCH   1   6
ATOM      6  N   UNL     1      -0.609  -1.040   0.408  0.00  0.00    -0.174 NA
ATOM      7  H   UNL     1      -0.375  -0.660   1.325  0.00  0.00    +0.149 HD
BRANCH   6   8
ATOM      8  S   UNL     1       0.616  -2.149   0.009  0.00  0.00    +0.061 S 
ATOM      9  O   UNL     1       0.395  -2.648  -1.335  0.00  0.00    -0.153 OA
ATOM     10  O   UNL     1       0.789  -3.074   1.112  0.00  0.00    -0.153 OA
BRANCH   8  11
ATOM     11  C   UNL     1       2.047  -1.112  -0.024  0.00  0.00    +0.122 C 
ATOM     12  C   UNL     1       2.410  -0.498  -1.210  0.00  0.00    +0.020 C 
ATOM     13  C   UNL     1       2.780  -0.934   1.137  0.00  0.00    +0.020 C 
ATOM     14  C   UNL     1       4.290   0.510  -0.075  0.00  0.00    -0.022 C 
ATOM     15  C   UNL     1       3.540   0.319  -1.236  0.00  0.00    -0.003 C 
ATOM     16  C   UNL     1       3.909  -0.117   1.112  0.00  0.00    -0.003 C 
ATOM     17  C   UNL     1       5.498   1.383  -0.103  0.00  0.00    +0.031 C 
ENDBRANCH   8  11
ENDBRANCH   6   8
ENDBRANCH   1   6
BRANCH   1  18
ATOM     18  C   UNL     1      -2.316   0.055  -1.001  0.00  0.00    +0.025 C 
BRANCH  18  19
ATOM     19  C   UNL     1      -3.385   0.081   0.101  0.00  0.00    -0.000 C 
BRANCH  19  20
ATOM     20  C   UNL     1      -4.816  -0.029  -0.441  0.00  0.00    -0.024 C 
BRANCH  20  21
ATOM     21  C   UNL     1      -5.920  -0.067   0.618  0.00  0.00    -0.086 C 
BRANCH  21  22
ATOM     22  N   UNL     1      -7.246  -0.160   0.022  0.00  0.00    +0.380 N 
ATOM     23  H   UNL     1      -7.950  -0.183   0.760  0.00  0.00    -0.089 HD
ATOM     24  H   UNL     1      -7.310  -1.012  -0.535  0.00  0.00    -0.089 HD
ATOM     25  H   UNL     1      -7.407   0.650  -0.577  0.00  0.00    -0.089 HD
ENDBRANCH  21  22
ENDBRANCH  20  21
ENDBRANCH  19  20
ENDBRANCH  18  19
ENDBRANCH   1  18
TORSDOF 10
