REMARK  Name = 24851689
REMARK  1 active torsions:
REMARK  status: ('A' for Active; 'I' for Inactive)
REMARK    1  A    between atoms: C_7  and  C_26
REMARK                            x       y       z     vdW  Elec       q    Type
REMARK                         _______ _______ _______ _____ _____    ______ ____
ROOT
ATOM      1 CL   UNL     1      -6.108  -0.490   0.879  0.00  0.00    -0.082 Cl
ATOM      2  O   UNL     1       1.051   2.941  -1.060  0.00  0.00    -0.269 OA
ATOM      3  N   UNL     1       2.160   0.982  -0.577  0.00  0.00    -0.302 N 
ATOM      4  N   UNL     1       4.718  -0.371   1.672  0.00  0.00    +0.384 N 
ATOM      5  N   UNL     1      -1.462   1.584  -0.266  0.00  0.00    -0.322 N 
ATOM      6  C   UNL     1       2.204  -0.359   0.079  0.00  0.00    +0.070 C 
ATOM      7  C   UNL     1       0.913  -1.186  -0.287  0.00  0.00    +0.131 C 
ATOM      8  C   UNL     1       2.260  -0.160   1.621  0.00  0.00    -0.004 C 
ATOM      9  C   UNL     1       3.493  -1.106  -0.351  0.00  0.00    -0.004 C 
ATOM     10  C   UNL     1      -0.293  -0.304  -0.185  0.00  0.00    +0.015 A 
ATOM     11  C   UNL     1       3.583   0.445   2.094  0.00  0.00    -0.080 C 
ATOM     12  C   UNL     1       4.774  -0.489   0.218  0.00  0.00    -0.080 C 
ATOM     13  C   UNL     1      -0.206   1.059  -0.394  0.00  0.00    +0.111 A 
ATOM     14  C   UNL     1       1.013   1.766  -0.702  0.00  0.00    +0.261 C 
ATOM     15  C   UNL     1      -1.651  -0.615   0.107  0.00  0.00    +0.014 A 
ATOM     16  C   UNL     1      -2.361   0.588   0.050  0.00  0.00    +0.061 A 
ATOM     17  C   UNL     1      -2.350  -1.801   0.409  0.00  0.00    +0.002 C 
ATOM     18  C   UNL     1      -1.809   2.982  -0.413  0.00  0.00    +0.131 C 
ATOM     19  C   UNL     1      -3.739   0.661   0.285  0.00  0.00    +0.029 C 
ATOM     20  C   UNL     1      -3.728  -1.741   0.646  0.00  0.00    +0.011 C 
ATOM     21  C   UNL     1      -4.410  -0.528   0.584  0.00  0.00    +0.059 C 
ATOM     22  H   UNL     1       3.000   1.338  -0.948  0.00  0.00    +0.150 HD
ATOM     23  H   UNL     1       4.627  -1.302   2.078  0.00  0.00    -0.085 HD
ATOM     24  H   UNL     1       5.576   0.079   1.992  0.00  0.00    -0.085 HD
ENDROOT
BRANCH   7  26
ATOM     25  N   UNL     1       0.990  -2.140  -2.745  0.00  0.00    -0.196 NA
ATOM     26  C   UNL     1       0.956  -1.720  -1.664  0.00  0.00    +0.078 C 
ENDBRANCH   7  26
TORSDOF 1
