REMARK  Name = 10320144
REMARK  6 active torsions:
REMARK  status: ('A' for Active; 'I' for Inactive)
REMARK    1  A    between atoms: C_1  and  C_2
REMARK    2  A    between atoms: C_1  and  C_19
REMARK    3  A    between atoms: C_1  and  C_22
REMARK    4  A    between atoms: C_5  and  C_11
REMARK    5  A    between atoms: C_22  and  C_30
REMARK    6  A    between atoms: C_22  and  N_31
REMARK                            x       y       z     vdW  Elec       q    Type
REMARK                         _______ _______ _______ _____ _____    ______ ____
ROOT
ATOM      1  C   UNL     1       1.707   0.986   0.478  0.00  0.00    +0.088 C 
ENDROOT
BRANCH   1   2
ATOM      2  C   UNL     1       0.239   0.597   0.331  0.00  0.00    -0.015 C 
ATOM      3  C   UNL     1      -0.666   1.059   1.262  0.00  0.00    -0.004 C 
ATOM      4  C   UNL     1      -0.132  -0.203  -0.728  0.00  0.00    -0.004 C 
ATOM      5  C   UNL     1      -2.412  -0.106   0.065  0.00  0.00    +0.001 C 
ATOM      6  C   UNL     1      -2.008   0.703   1.127  0.00  0.00    -0.000 C 
ATOM      7  C   UNL     1      -1.474  -0.559  -0.863  0.00  0.00    -0.000 C 
BRANCH   5  11
ATOM      8  N   UNL     1      -6.137   0.031   0.227  0.00  0.00    -0.170 N 
ATOM      9  N   UNL     1      -7.228   0.747   0.601  0.00  0.00    -0.150 NA
ATOM     10  N   UNL     1      -7.877  -1.227  -0.349  0.00  0.00    -0.206 NA
ATOM     11  C   UNL     1      -3.831  -0.483  -0.077  0.00  0.00    +0.017 C 
ATOM     12  C   UNL     1      -4.788   0.365   0.358  0.00  0.00    +0.091 C 
ATOM     13  C   UNL     1      -4.266  -1.743  -0.686  0.00  0.00    +0.004 C 
ATOM     14  C   UNL     1      -6.564  -1.167  -0.351  0.00  0.00    +0.157 C 
ATOM     15  C   UNL     1      -5.566  -2.066  -0.815  0.00  0.00    +0.036 C 
ATOM     16  C   UNL     1      -8.230  -0.050   0.235  0.00  0.00    +0.219 C 
ENDBRANCH   5  11
ENDBRANCH   1   2
BRANCH   1  19
ATOM     17  O   UNL     1       2.642   1.181  -1.731  0.00  0.00    -0.275 OA
ATOM     18  N   UNL     1       2.055   3.178  -0.723  0.00  0.00    -0.276 N 
ATOM     19  C   UNL     1       2.167   1.784  -0.761  0.00  0.00    +0.228 C 
ATOM     20  C   UNL     1       1.508   3.967   0.378  0.00  0.00    +0.115 C 
ATOM     21  C   UNL     1       2.600   3.964  -1.825  0.00  0.00    +0.115 C 
ENDBRANCH   1  19
BRANCH   1  22
ATOM     22  C   UNL     1       2.584  -0.275   0.703  0.00  0.00    +0.026 C 
BRANCH  22  30
ATOM     23  F   UNL     1       6.168  -2.333  -1.803  0.00  0.00    -0.235 F 
ATOM     24  O   UNL     1       4.365   1.191   1.297  0.00  0.00    -0.277 OA
ATOM     25  N   UNL     1       4.941  -0.891   0.479  0.00  0.00    -0.278 N 
ATOM     26  C   UNL     1       4.620  -2.216  -0.050  0.00  0.00    +0.128 C 
ATOM     27  C   UNL     1       6.381  -0.695   0.563  0.00  0.00    +0.096 C 
ATOM     28  C   UNL     1       5.955  -2.761  -0.528  0.00  0.00    +0.182 C 
ATOM     29  C   UNL     1       6.966  -2.088   0.387  0.00  0.00    +0.059 C 
ATOM     30  C   UNL     1       4.040   0.086   0.860  0.00  0.00    +0.206 C 
ENDBRANCH  22  30
BRANCH  22  31
ATOM     31  N   UNL     1       2.241  -0.978   1.940  0.00  0.00    +0.388 N 
ATOM     32  H   UNL     1       1.261  -1.258   1.911  0.00  0.00    -0.089 HD
ATOM     33  H   UNL     1       2.394  -0.359   2.736  0.00  0.00    -0.089 HD
ATOM     34  H   UNL     1       2.829  -1.806   2.034  0.00  0.00    -0.089 HD
ENDBRANCH  22  31
ENDBRANCH   1  22
TORSDOF 6
