REMARK  Name = 448968
REMARK  5 active torsions:
REMARK  status: ('A' for Active; 'I' for Inactive)
REMARK    1  A    between atoms: N_1  and  C_13
REMARK    2  A    between atoms: C_5  and  C_17
REMARK    3  A    between atoms: C_13  and  C_14
REMARK    4  A    between atoms: C_14  and  C_15
REMARK    5  A    between atoms: C_17  and  C_20
REMARK                            x       y       z     vdW  Elec       q    Type
REMARK                         _______ _______ _______ _____ _____    ______ ____
ROOT
ATOM      1  N   UNL     1      -2.000   0.411  -0.522  0.00  0.00    -0.249 N 
ATOM      2  N   UNL     1      -0.361  -1.047  -0.129  0.00  0.00    -0.385 NA
ATOM      3  N   UNL     1      -3.929  -1.018  -0.150  0.00  0.00    -0.227 NA
ATOM      4  N   UNL     1      -3.249  -3.283   0.455  0.00  0.00    -0.227 NA
ATOM      5  C   UNL     1      -0.675   0.167  -0.453  0.00  0.00    +0.169 C 
ATOM      6  C   UNL     1      -2.612  -0.769  -0.211  0.00  0.00    +0.167 C 
ATOM      7  C   UNL     1      -1.578  -1.661   0.030  0.00  0.00    +0.195 C 
ATOM      8  C   UNL     1      -1.936  -2.960   0.375  0.00  0.00    +0.155 C 
ATOM      9  C   UNL     1      -4.151  -2.306   0.191  0.00  0.00    +0.253 C 
ATOM     10  N   UNL     1      -0.953  -3.930   0.636  0.00  0.00    -0.341 N 
ATOM     11  H   UNL     1      -1.218  -4.847   0.879  0.00  0.00    +0.144 HD
ATOM     12  H   UNL     1       0.001  -3.693   0.577  0.00  0.00    +0.144 HD
ENDROOT
BRANCH   1  13
ATOM     13  C   UNL     1      -2.661   1.652  -0.855  0.00  0.00    +0.099 C 
BRANCH  13  14
ATOM     14  C   UNL     1      -2.929   2.509   0.381  0.00  0.00    +0.022 C 
BRANCH  14  15
ATOM     15  C   UNL     1      -3.638   3.810   0.007  0.00  0.00    +0.002 C 
ATOM     16  C   UNL     1      -3.944   4.651   1.237  0.00  0.00    +0.000 C 
ENDBRANCH  14  15
ENDBRANCH  13  14
ENDBRANCH   1  13
BRANCH   5  17
ATOM     17  C   UNL     1       0.331   1.264  -0.742  0.00  0.00    +0.102 C 
BRANCH  17  20
ATOM     18  O   UNL     1       4.509   0.523   1.782  0.00  0.00    -0.435 OA
ATOM     19  O   UNL     1       5.649  -0.372  -0.144  0.00  0.00    -0.435 OA
ATOM     20  C   UNL     1       1.749   0.818  -0.618  0.00  0.00    -0.011 C 
ATOM     21  C   UNL     1       2.404   0.922   0.611  0.00  0.00    +0.036 C 
ATOM     22  C   UNL     1       2.414   0.295  -1.741  0.00  0.00    -0.000 C 
ATOM     23  C   UNL     1       3.715   0.497   0.677  0.00  0.00    +0.176 C 
ATOM     24  C   UNL     1       4.366  -0.015  -0.423  0.00  0.00    +0.176 C 
ATOM     25  C   UNL     1       3.742  -0.129  -1.648  0.00  0.00    +0.040 C 
ATOM     26  C   UNL     1       5.733  -0.029   1.255  0.00  0.00    +0.429 C 
ENDBRANCH  17  20
ENDBRANCH   5  17
TORSDOF 5
