REMARK  Name = 5288712
REMARK  5 active torsions:
REMARK  status: ('A' for Active; 'I' for Inactive)
REMARK    1  A    between atoms: C_1  and  N_18
REMARK    2  A    between atoms: C_2  and  S_7
REMARK    3  A    between atoms: S_7  and  N_10
REMARK    4  A    between atoms: N_10  and  C_13
REMARK    5  A    between atoms: N_18  and  C_26
REMARK                            x       y       z     vdW  Elec       q    Type
REMARK                         _______ _______ _______ _____ _____    ______ ____
ROOT
ATOM      1  C   UNL     1      -0.405  -0.713   0.205  0.00  0.00    +0.048 C 
ATOM      2  C   UNL     1      -3.138  -0.216   0.516  0.00  0.00    +0.129 C 
ATOM      3  C   UNL     1      -1.323  -1.763   0.128  0.00  0.00    +0.016 C 
ATOM      4  C   UNL     1      -0.861   0.588   0.438  0.00  0.00    +0.016 C 
ATOM      5  C   UNL     1      -2.687  -1.515   0.283  0.00  0.00    +0.022 C 
ATOM      6  C   UNL     1      -2.225   0.836   0.594  0.00  0.00    +0.022 C 
ENDROOT
BRANCH   2   7
ATOM      7  S   UNL     1      -4.845   0.095   0.711  0.00  0.00    +0.103 S 
ATOM      8  O   UNL     1      -4.989   1.313   1.501  0.00  0.00    -0.146 OA
ATOM      9  O   UNL     1      -5.431  -1.148   1.199  0.00  0.00    -0.146 OA
BRANCH   7  10
ATOM     10  N   UNL     1      -5.368   0.399  -0.810  0.00  0.00    -0.093 NA
BRANCH  10  13
ATOM     11  N   UNL     1      -7.168   0.951  -2.304  0.00  0.00    -0.369 N 
ATOM     12  N   UNL     1      -7.550   0.731  -0.065  0.00  0.00    -0.369 N 
ATOM     13  C   UNL     1      -6.617   0.680  -1.072  0.00  0.00    +0.212 C 
ATOM     14  H   UNL     1      -6.602   0.946  -3.109  0.00  0.00    +0.159 HD
ATOM     15  H   UNL     1      -8.129   1.151  -2.379  0.00  0.00    +0.159 HD
ATOM     16  H   UNL     1      -7.280   0.554   0.866  0.00  0.00    +0.159 HD
ATOM     17  H   UNL     1      -8.488   0.943  -0.273  0.00  0.00    +0.159 HD
ENDBRANCH  10  13
ENDBRANCH   7  10
ENDBRANCH   2   7
BRANCH   1  18
ATOM     18  N   UNL     1       0.969  -0.962   0.048  0.00  0.00    -0.311 N 
ATOM     19  H   UNL     1       1.216  -1.901  -0.114  0.00  0.00    +0.152 HD
BRANCH  18  26
ATOM     20  O   UNL     1       3.212  -2.741  -0.412  0.00  0.00    -0.270 OA
ATOM     21  N   UNL     1       5.231  -1.514  -0.407  0.00  0.00    -0.280 N 
ATOM     22  C   UNL     1       4.419   0.603  -0.021  0.00  0.00    +0.019 C 
ATOM     23  C   UNL     1       3.301  -0.333  -0.063  0.00  0.00    +0.069 C 
ATOM     24  C   UNL     1       5.567  -0.166  -0.236  0.00  0.00    +0.051 C 
ATOM     25  C   UNL     1       3.849  -1.708  -0.315  0.00  0.00    +0.251 C 
ATOM     26  C   UNL     1       2.000  -0.081   0.089  0.00  0.00    +0.066 C 
ATOM     27  C   UNL     1       4.511   1.968   0.175  0.00  0.00    +0.001 C 
ATOM     28  C   UNL     1       6.832   0.386  -0.264  0.00  0.00    +0.015 C 
ATOM     29  C   UNL     1       5.784   2.548   0.150  0.00  0.00    +0.000 C 
ATOM     30  C   UNL     1       6.933   1.765  -0.067  0.00  0.00    +0.001 C 
ATOM     31  H   UNL     1       5.884  -2.233  -0.571  0.00  0.00    +0.155 HD
ENDBRANCH  18  26
ENDBRANCH   1  18
TORSDOF 5
