REMARK  Name = 5289085
REMARK  6 active torsions:
REMARK  status: ('A' for Active; 'I' for Inactive)
REMARK    1  A    between atoms: C_1  and  C_7
REMARK    2  A    between atoms: C_2  and  C_15
REMARK    3  A    between atoms: C_7  and  C_12
REMARK    4  A    between atoms: C_8  and  O_9
REMARK    5  A    between atoms: C_12  and  O_13
REMARK    6  A    between atoms: C_16  and  C_17
REMARK                            x       y       z     vdW  Elec       q    Type
REMARK                         _______ _______ _______ _____ _____    ______ ____
ROOT
ATOM      1  C   UNL     1      -1.979   0.489  -0.035  0.00  0.00    +0.009 C 
ATOM      2  C   UNL     1      -1.004   1.173   0.676  0.00  0.00    +0.000 C 
ATOM      3  C   UNL     1      -3.264   1.002  -0.161  0.00  0.00    +0.000 C 
ATOM      4  C   UNL     1      -1.317   2.394   1.272  0.00  0.00    +0.000 C 
ATOM      5  C   UNL     1      -3.577   2.223   0.436  0.00  0.00    +0.000 C 
ATOM      6  C   UNL     1      -2.604   2.919   1.153  0.00  0.00    +0.000 C 
ENDROOT
BRANCH   1   7
ATOM      7  C   UNL     1      -1.696  -0.804  -0.681  0.00  0.00    +0.113 C 
ATOM      8  C   UNL     1      -1.249  -0.857  -1.946  0.00  0.00    +0.179 C 
BRANCH   8   9
ATOM      9  O   UNL     1      -1.020   0.243  -2.731  0.00  0.00    -0.468 OA
ATOM     10  C   UNL     1       0.019  -0.003  -3.664  0.00  0.00    +0.253 C 
ENDBRANCH   8   9
BRANCH   7  12
ATOM     11  O   UNL     1      -1.643  -3.201  -0.476  0.00  0.00    -0.245 OA
ATOM     12  C   UNL     1      -1.867  -2.108   0.024  0.00  0.00    +0.344 C 
BRANCH  12  13
ATOM     13  O   UNL     1      -2.315  -1.886   1.291  0.00  0.00    -0.441 OA
ATOM     14  C   UNL     1      -2.535  -3.056   2.085  0.00  0.00    +0.256 C 
ENDBRANCH  12  13
ENDBRANCH   7  12
ENDBRANCH   1   7
BRANCH   2  15
ATOM     15  C   UNL     1       0.354   0.661   0.827  0.00  0.00    +0.000 C 
ATOM     16  C   UNL     1       1.388   0.947   0.004  0.00  0.00    +0.000 C 
BRANCH  16  17
ATOM     17  C   UNL     1       2.764   0.446   0.168  0.00  0.00    +0.000 C 
ATOM     18  C   UNL     1       2.988  -0.679   0.945  0.00  0.00    +0.000 C 
ATOM     19  C   UNL     1       3.806   1.110  -0.459  0.00  0.00    +0.000 C 
ATOM     20  C   UNL     1       4.291  -1.153   1.100  0.00  0.00    +0.000 C 
ATOM     21  C   UNL     1       5.109   0.635  -0.304  0.00  0.00    +0.000 C 
ATOM     22  C   UNL     1       5.351  -0.496   0.476  0.00  0.00    +0.000 C 
ENDBRANCH  16  17
ENDBRANCH   2  15
TORSDOF 6
