REMARK  Name = 3000323
REMARK  2 active torsions:
REMARK  status: ('A' for Active; 'I' for Inactive)
REMARK    1  A    between atoms: N_3  and  C_19
REMARK    2  A    between atoms: C_19  and  C_20
REMARK                            x       y       z     vdW  Elec       q    Type
REMARK                         _______ _______ _______ _____ _____    ______ ____
ROOT
ATOM      1 CL   UNL     1       1.931   2.446   1.165  0.00  0.00    -0.083 Cl
ATOM      2  S   UNL     1      -4.776  -1.318  -0.723  0.00  0.00    -0.013 S 
ATOM      3  N   UNL     1       0.836  -1.597   0.492  0.00  0.00    +0.395 N 
ATOM      4  N   UNL     1      -2.215  -0.659   0.167  0.00  0.00    -0.310 N 
ATOM      5  N   UNL     1      -3.435   1.052  -0.710  0.00  0.00    -0.333 N 
ATOM      6  C   UNL     1      -0.356  -2.319  -0.001  0.00  0.00    -0.034 C 
ATOM      7  C   UNL     1      -1.711  -1.942   0.639  0.00  0.00    +0.087 C 
ATOM      8  C   UNL     1       0.621  -0.411   1.328  0.00  0.00    -0.047 C 
ATOM      9  C   UNL     1      -1.447   0.518   0.225  0.00  0.00    +0.072 A 
ATOM     10  C   UNL     1      -0.164   0.707   0.703  0.00  0.00    -0.015 C 
ATOM     11  C   UNL     1      -2.196   1.558  -0.320  0.00  0.00    +0.074 A 
ATOM     12  C   UNL     1      -0.103  -3.817   0.221  0.00  0.00    -0.021 C 
ATOM     13  C   UNL     1      -3.472  -0.335  -0.414  0.00  0.00    +0.159 A 
ATOM     14  C   UNL     1       0.346   2.012   0.613  0.00  0.00    +0.053 C 
ATOM     15  C   UNL     1      -1.712   2.842  -0.419  0.00  0.00    +0.019 C 
ATOM     16  C   UNL     1      -0.417   3.063   0.058  0.00  0.00    +0.013 C 
ATOM     17  H   UNL     1       1.227  -2.260   1.161  0.00  0.00    -0.079 HD
ATOM     18  H   UNL     1      -4.163   1.570  -1.122  0.00  0.00    +0.168 HD
ENDROOT
BRANCH   3  19
ATOM     19  C   UNL     1       1.808  -1.351  -0.573  0.00  0.00    -0.050 C 
BRANCH  19  20
ATOM     20  C   UNL     1       3.144  -0.957  -0.015  0.00  0.00    -0.058 C 
ATOM     21  C   UNL     1       4.077  -0.158  -0.567  0.00  0.00    -0.050 C 
ATOM     22  C   UNL     1       5.401   0.197   0.049  0.00  0.00    +0.026 C 
ATOM     23  C   UNL     1       3.840   0.466  -1.918  0.00  0.00    +0.026 C 
ENDBRANCH  19  20
ENDBRANCH   3  19
TORSDOF 2
