REMARK  Name = 6102762
REMARK  8 active torsions:
REMARK  status: ('A' for Active; 'I' for Inactive)
REMARK    1  A    between atoms: C_1  and  S_20
REMARK    2  A    between atoms: C_2  and  N_9
REMARK    3  A    between atoms: C_10  and  C_12
REMARK    4  A    between atoms: C_12  and  C_17
REMARK    5  A    between atoms: C_12  and  O_18
REMARK    6  A    between atoms: S_20  and  N_23
REMARK    7  A    between atoms: N_23  and  C_24
REMARK    8  A    between atoms: N_23  and  C_30
REMARK                            x       y       z     vdW  Elec       q    Type
REMARK                         _______ _______ _______ _____ _____    ______ ____
ROOT
ATOM      1  C   UNL     1       1.279   1.225   0.580  0.00  0.00    +0.125 C 
ATOM      2  C   UNL     1      -1.356   0.370   0.500  0.00  0.00    +0.046 C 
ATOM      3  C   UNL     1      -0.439  -0.328   1.269  0.00  0.00    -0.007 C 
ATOM      4  C   UNL     1       0.888   0.102   1.309  0.00  0.00    +0.017 C 
ATOM      5  C   UNL     1       0.345   1.918  -0.189  0.00  0.00    +0.021 C 
ATOM      6  C   UNL     1      -0.982   1.488  -0.230  0.00  0.00    +0.016 C 
ATOM      7  C   UNL     1      -0.831  -1.533   2.060  0.00  0.00    +0.032 C 
ENDROOT
BRANCH   2   9
ATOM      8  O   UNL     1      -3.860   1.954   0.092  0.00  0.00    -0.272 OA
ATOM      9  N   UNL     1      -2.706  -0.051   0.445  0.00  0.00    -0.282 N 
ATOM     10  C   UNL     1      -3.836   0.736   0.253  0.00  0.00    +0.259 C 
ATOM     11  H   UNL     1      -2.864  -1.016   0.557  0.00  0.00    +0.155 HD
BRANCH  10  12
ATOM     12  C   UNL     1      -5.139  -0.083   0.253  0.00  0.00    +0.245 C 
ATOM     13  C   UNL     1      -5.336  -0.819   1.579  0.00  0.00    +0.048 C 
BRANCH  12  17
ATOM     14  F   UNL     1      -4.182  -1.922  -0.924  0.00  0.00    -0.167 F 
ATOM     15  F   UNL     1      -5.143  -0.364  -2.102  0.00  0.00    -0.167 F 
ATOM     16  F   UNL     1      -6.356  -1.744  -0.929  0.00  0.00    -0.167 F 
ATOM     17  C   UNL     1      -5.203  -1.039  -0.930  0.00  0.00    +0.427 C 
ENDBRANCH  12  17
BRANCH  12  18
ATOM     18  O   UNL     1      -6.217   0.840   0.098  0.00  0.00    -0.372 OA
ATOM     19  H   UNL     1      -6.114   1.319  -0.739  0.00  0.00    +0.211 HD
ENDBRANCH  12  18
ENDBRANCH  10  12
ENDBRANCH   2   9
BRANCH   1  20
ATOM     20  S   UNL     1       2.940   1.762   0.628  0.00  0.00    +0.077 S 
ATOM     21  O   UNL     1       2.961   3.189   0.323  0.00  0.00    -0.150 OA
ATOM     22  O   UNL     1       3.521   1.318   1.892  0.00  0.00    -0.150 OA
BRANCH  20  23
ATOM     23  N   UNL     1       3.696   0.904  -0.682  0.00  0.00    -0.191 N 
BRANCH  23  24
ATOM     24  C   UNL     1       4.263  -0.387  -0.346  0.00  0.00    +0.069 C 
ATOM     25  C   UNL     1       3.440  -1.499  -0.317  0.00  0.00    +0.016 C 
ATOM     26  C   UNL     1       5.615  -0.478  -0.065  0.00  0.00    +0.016 C 
ATOM     27  C   UNL     1       3.986  -2.742   0.005  0.00  0.00    +0.001 C 
ATOM     28  C   UNL     1       6.161  -1.721   0.257  0.00  0.00    +0.001 C 
ATOM     29  C   UNL     1       5.346  -2.853   0.292  0.00  0.00    +0.000 C 
ENDBRANCH  23  24
BRANCH  23  30
ATOM     30  C   UNL     1       3.059   1.014  -2.021  0.00  0.00    +0.116 C 
ATOM     31  C   UNL     1       4.088   0.744  -3.100  0.00  0.00    +0.025 C 
ENDBRANCH  23  30
ENDBRANCH  20  23
ENDBRANCH   1  20
TORSDOF 8
