REMARK  Name = 5147
REMARK  2 active torsions:
REMARK  status: ('A' for Active; 'I' for Inactive)
REMARK    1  A    between atoms: C_1  and  C_9
REMARK    2  A    between atoms: C_2  and  O_12
REMARK                            x       y       z     vdW  Elec       q    Type
REMARK                         _______ _______ _______ _____ _____    ______ ____
ROOT
ATOM      1  C   UNL     1       0.274   0.214   0.002  0.00  0.00    +0.087 C 
ATOM      2  C   UNL     1      -0.421  -0.995   0.002  0.00  0.00    +0.138 C 
ATOM      3  C   UNL     1      -0.425   1.421   0.000  0.00  0.00    +0.008 C 
ATOM      4  C   UNL     1      -1.816  -0.996   0.000  0.00  0.00    +0.037 C 
ATOM      5  C   UNL     1      -1.820   1.420  -0.002  0.00  0.00    +0.000 C 
ATOM      6  C   UNL     1      -2.515   0.211  -0.002  0.00  0.00    +0.003 C 
ENDROOT
BRANCH   1   9
ATOM      7  O   UNL     1       2.394  -0.811  -0.011  0.00  0.00    -0.270 OA
ATOM      8  N   UNL     1       2.355   1.482   0.003  0.00  0.00    -0.325 N 
ATOM      9  C   UNL     1       1.730   0.239   0.004  0.00  0.00    +0.246 C 
ATOM     10  H   UNL     1       3.338   1.538   0.005  0.00  0.00    +0.145 HD
ATOM     11  H   UNL     1       1.815   2.304   0.002  0.00  0.00    +0.145 HD
ENDBRANCH   1   9
BRANCH   2  12
ATOM     12  O   UNL     1       0.243  -2.184   0.004  0.00  0.00    -0.505 OA
ATOM     13  H   UNL     1       1.180  -2.197   0.005  0.00  0.00    +0.292 HD
ENDBRANCH   2  12
TORSDOF 2
