REMARK  Name = 9865528
REMARK  10 active torsions:
REMARK  status: ('A' for Active; 'I' for Inactive)
REMARK    1  A    between atoms: C_1  and  C_20
REMARK    2  A    between atoms: C_4  and  N_8
REMARK    3  A    between atoms: C_9  and  C_11
REMARK    4  A    between atoms: C_11  and  C_15
REMARK    5  A    between atoms: C_20  and  C_21
REMARK    6  A    between atoms: C_21  and  N_22
REMARK    7  A    between atoms: N_22  and  C_25
REMARK    8  A    between atoms: C_25  and  C_26
REMARK    9  A    between atoms: C_26  and  C_27
REMARK   10  A    between atoms: C_26  and  O_33
REMARK                            x       y       z     vdW  Elec       q    Type
REMARK                         _______ _______ _______ _____ _____    ______ ____
ROOT
ATOM      1  C   UNL     1      -0.197   1.814  -0.333  0.00  0.00    -0.024 C 
ATOM      2  C   UNL     1       0.664   1.051  -1.122  0.00  0.00    -0.003 C 
ATOM      3  C   UNL     1       0.253   2.348   0.874  0.00  0.00    -0.003 C 
ATOM      4  C   UNL     1       2.424   1.355   0.504  0.00  0.00    +0.050 C 
ATOM      5  C   UNL     1       1.974   0.821  -0.703  0.00  0.00    +0.014 C 
ATOM      6  C   UNL     1       1.563   2.118   1.293  0.00  0.00    +0.014 C 
ENDROOT
BRANCH   4   8
ATOM      7  O   UNL     1       4.638  -0.194  -0.801  0.00  0.00    -0.274 OA
ATOM      8  N   UNL     1       3.735   1.126   0.924  0.00  0.00    -0.284 N 
ATOM      9  C   UNL     1       4.740   0.391   0.273  0.00  0.00    +0.233 C 
ATOM     10  H   UNL     1       3.988   1.531   1.785  0.00  0.00    +0.155 HD
BRANCH   9  11
ATOM     11  C   UNL     1       6.030   0.393   1.082  0.00  0.00    +0.141 C 
BRANCH  11  15
ATOM     12  S   UNL     1       9.143  -0.988  -1.018  0.00  0.00    -0.060 S 
ATOM     13  N   UNL     1       7.288  -1.688   0.641  0.00  0.00    -0.389 NA
ATOM     14  N   UNL     1       8.736  -3.428  -0.042  0.00  0.00    -0.328 N 
ATOM     15  C   UNL     1       7.141  -0.337   0.396  0.00  0.00    +0.109 C 
ATOM     16  C   UNL     1       8.053   0.220  -0.476  0.00  0.00    +0.121 C 
ATOM     17  C   UNL     1       8.312  -2.136  -0.051  0.00  0.00    +0.204 C 
ATOM     18  H   UNL     1       9.512  -3.695  -0.586  0.00  0.00    +0.145 HD
ATOM     19  H   UNL     1       8.267  -4.096   0.509  0.00  0.00    +0.145 HD
ENDBRANCH  11  15
ENDBRANCH   9  11
ENDBRANCH   4   8
BRANCH   1  20
ATOM     20  C   UNL     1      -1.598   2.060  -0.781  0.00  0.00    +0.003 C 
BRANCH  20  21
ATOM     21  C   UNL     1      -2.564   0.979  -0.277  0.00  0.00    -0.077 C 
BRANCH  21  22
ATOM     22  N   UNL     1      -3.926   1.217  -0.743  0.00  0.00    +0.386 N 
ATOM     23  H   UNL     1      -3.937   1.208  -1.763  0.00  0.00    -0.084 HD
ATOM     24  H   UNL     1      -4.238   2.122  -0.391  0.00  0.00    -0.084 HD
BRANCH  22  25
ATOM     25  C   UNL     1      -4.831   0.189  -0.248  0.00  0.00    -0.047 C 
BRANCH  25  26
ATOM     26  C   UNL     1      -6.267   0.456  -0.714  0.00  0.00    +0.112 C 
BRANCH  26  27
ATOM     27  C   UNL     1      -7.220  -0.604  -0.207  0.00  0.00    +0.002 C 
ATOM     28  C   UNL     1      -7.460  -1.748  -0.969  0.00  0.00    -0.002 C 
ATOM     29  C   UNL     1      -7.860  -0.438   1.021  0.00  0.00    -0.002 C 
ATOM     30  C   UNL     1      -8.338  -2.725  -0.503  0.00  0.00    -0.000 C 
ATOM     31  C   UNL     1      -8.739  -1.416   1.488  0.00  0.00    -0.000 C 
ATOM     32  C   UNL     1      -8.978  -2.559   0.726  0.00  0.00    -0.000 C 
ENDBRANCH  26  27
BRANCH  26  33
ATOM     33  O   UNL     1      -6.715   1.724  -0.234  0.00  0.00    -0.382 OA
ATOM     34  H   UNL     1      -6.116   2.418  -0.548  0.00  0.00    +0.211 HD
ENDBRANCH  26  33
ENDBRANCH  25  26
ENDBRANCH  22  25
ENDBRANCH  21  22
ENDBRANCH  20  21
ENDBRANCH   1  20
TORSDOF 10
