REMARK  Name = 1613
REMARK  6 active torsions:
REMARK  status: ('A' for Active; 'I' for Inactive)
REMARK    1  A    between atoms: N_2  and  C_12
REMARK    2  A    between atoms: C_6  and  C_26
REMARK    3  A    between atoms: C_12  and  C_15
REMARK    4  A    between atoms: C_19  and  C_25
REMARK    5  A    between atoms: C_26  and  C_28
REMARK    6  A    between atoms: C_28  and  O_29
REMARK                            x       y       z     vdW  Elec       q    Type
REMARK                         _______ _______ _______ _____ _____    ______ ____
ROOT
ATOM      1  O   UNL     1       1.316   2.644   1.235  0.00  0.00    -0.266 OA
ATOM      2  N   UNL     1       1.650   0.371   1.566  0.00  0.00    -0.209 N 
ATOM      3  N   UNL     1       2.339  -0.772   1.289  0.00  0.00    -0.170 NA
ATOM      4  C   UNL     1       3.747   0.484  -0.255  0.00  0.00    +0.020 A 
ATOM      5  C   UNL     1       3.045   1.651   0.028  0.00  0.00    +0.059 A 
ATOM      6  C   UNL     1       3.319  -0.740   0.444  0.00  0.00    +0.090 A 
ATOM      7  C   UNL     1       1.931   1.607   0.992  0.00  0.00    +0.277 A 
ATOM      8  C   UNL     1       4.806   0.508  -1.167  0.00  0.00    +0.001 C 
ATOM      9  C   UNL     1       3.397   2.852  -0.598  0.00  0.00    +0.005 C 
ATOM     10  C   UNL     1       5.157   1.706  -1.792  0.00  0.00    +0.000 C 
ATOM     11  C   UNL     1       4.454   2.875  -1.508  0.00  0.00    +0.000 C 
ENDROOT
BRANCH   2  12
ATOM     12  C   UNL     1       0.572   0.210   2.528  0.00  0.00    +0.196 C 
BRANCH  12  15
ATOM     13  S   UNL     1      -1.062  -1.770   1.534  0.00  0.00    -0.074 S 
ATOM     14  N   UNL     1      -1.542   0.759   1.375  0.00  0.00    -0.401 NA
ATOM     15  C   UNL     1      -0.697  -0.131   1.807  0.00  0.00    +0.159 C 
ATOM     16  C   UNL     1      -2.602   0.110   0.758  0.00  0.00    +0.123 C 
ATOM     17  C   UNL     1      -2.517  -1.286   0.746  0.00  0.00    +0.128 C 
ATOM     18  C   UNL     1      -3.723   0.726   0.161  0.00  0.00    +0.033 C 
ATOM     19  C   UNL     1      -4.717  -0.062  -0.425  0.00  0.00    +0.073 C 
ATOM     20  C   UNL     1      -3.512  -2.084   0.159  0.00  0.00    -0.008 C 
ATOM     21  C   UNL     1      -4.611  -1.449  -0.425  0.00  0.00    +0.001 C 
BRANCH  19  25
ATOM     22  F   UNL     1      -6.795  -0.292  -1.588  0.00  0.00    -0.166 F 
ATOM     23  F   UNL     1      -6.629   1.355  -0.187  0.00  0.00    -0.166 F 
ATOM     24  F   UNL     1      -5.556   1.427  -2.077  0.00  0.00    -0.166 F 
ATOM     25  C   UNL     1      -5.901   0.592  -1.055  0.00  0.00    +0.419 C 
ENDBRANCH  19  25
ENDBRANCH  12  15
ENDBRANCH   2  12
BRANCH   6  26
ATOM     26  C   UNL     1       4.048  -2.035   0.173  0.00  0.00    +0.157 C 
BRANCH  26  28
ATOM     27  O   UNL     1       2.494  -2.481  -1.640  0.00  0.00    -0.250 OA
ATOM     28  C   UNL     1       3.451  -2.810  -0.956  0.00  0.00    +0.320 C 
BRANCH  28  29
ATOM     29  O   UNL     1       4.138  -3.969  -1.123  0.00  0.00    -0.480 OA
ATOM     30  H   UNL     1       4.865  -4.167  -0.566  0.00  0.00    +0.295 HD
ENDBRANCH  28  29
ENDBRANCH  26  28
ENDBRANCH   6  26
TORSDOF 6
