REMARK  Name = 9994066
REMARK  3 active torsions:
REMARK  status: ('A' for Active; 'I' for Inactive)
REMARK    1  A    between atoms: C_1  and  S_7
REMARK    2  A    between atoms: C_2  and  N_13
REMARK    3  A    between atoms: S_7  and  N_10
REMARK                            x       y       z     vdW  Elec       q    Type
REMARK                         _______ _______ _______ _____ _____    ______ ____
ROOT
ATOM      1  C   UNL     1      -2.735   0.035   0.053  0.00  0.00    +0.122 C 
ATOM      2  C   UNL     1      -0.093   0.916   0.210  0.00  0.00    +0.050 C 
ATOM      3  C   UNL     1      -2.461   1.359   0.393  0.00  0.00    +0.021 C 
ATOM      4  C   UNL     1      -1.689  -0.850  -0.209  0.00  0.00    +0.021 C 
ATOM      5  C   UNL     1      -1.140   1.800   0.472  0.00  0.00    +0.016 C 
ATOM      6  C   UNL     1      -0.368  -0.409  -0.130  0.00  0.00    +0.016 C 
ENDROOT
BRANCH   2   7
ATOM      7  N   UNL     1       1.243   1.361   0.290  0.00  0.00    -0.287 N 
ATOM      8  H   UNL     1       1.329   2.310   0.537  0.00  0.00    +0.155 HD
ATOM      9 CL   UNL     1       3.946  -2.822   0.449  0.00  0.00    -0.050 Cl
ATOM     10  N   UNL     1       2.595  -0.606   0.342  0.00  0.00    -0.376 NA
ATOM     11  N   UNL     1       4.756   0.918  -0.593  0.00  0.00    -0.256 NA
ATOM     12  C   UNL     1       2.477   0.714   0.087  0.00  0.00    +0.203 C 
ATOM     13  C   UNL     1       3.542   1.461  -0.373  0.00  0.00    +0.141 C 
ATOM     14  C   UNL     1       3.809  -1.149   0.122  0.00  0.00    +0.192 C 
ATOM     15  C   UNL     1       4.870  -0.401  -0.337  0.00  0.00    +0.196 C 
ENDBRANCH   2   7
BRANCH   1  16
ATOM     16  S   UNL     1      -4.389  -0.517  -0.045  0.00  0.00    +0.057 S 
ATOM     17  O   UNL     1      -4.406  -1.958   0.164  0.00  0.00    -0.153 OA
ATOM     18  O   UNL     1      -5.215   0.344   0.789  0.00  0.00    -0.153 OA
BRANCH  16  19
ATOM     19  N   UNL     1      -4.743  -0.194  -1.685  0.00  0.00    -0.203 NA
ATOM     20  H   UNL     1      -5.703  -0.475  -1.888  0.00  0.00    +0.144 HD
ATOM     21  H   UNL     1      -4.103  -0.719  -2.281  0.00  0.00    +0.144 HD
ENDBRANCH  16  19
ENDBRANCH   1  16
TORSDOF 3
