REMARK  Name = 3000237
REMARK  2 active torsions:
REMARK  status: ('A' for Active; 'I' for Inactive)
REMARK    1  A    between atoms: N_3  and  C_19
REMARK    2  A    between atoms: C_19  and  C_20
REMARK                            x       y       z     vdW  Elec       q    Type
REMARK                         _______ _______ _______ _____ _____    ______ ____
ROOT
ATOM      1 CL   UNL     1      -1.525  -4.602  -0.224  0.00  0.00    -0.082 Cl
ATOM      2  S   UNL     1      -4.101   2.796  -0.067  0.00  0.00    -0.013 S 
ATOM      3  N   UNL     1       1.228   0.989  -0.117  0.00  0.00    +0.395 N 
ATOM      4  N   UNL     1      -1.837   1.219   0.335  0.00  0.00    -0.310 N 
ATOM      5  N   UNL     1      -3.719   0.111  -0.305  0.00  0.00    -0.333 N 
ATOM      6  C   UNL     1       0.459   2.246   0.036  0.00  0.00    -0.034 C 
ATOM      7  C   UNL     1      -0.869   2.185   0.827  0.00  0.00    +0.087 C 
ATOM      8  C   UNL     1       0.913  -0.076   0.845  0.00  0.00    -0.048 C 
ATOM      9  C   UNL     1      -1.543  -0.154   0.251  0.00  0.00    +0.071 A 
ATOM     10  C   UNL     1      -0.349  -0.811   0.479  0.00  0.00    -0.025 C 
ATOM     11  C   UNL     1      -2.700  -0.826  -0.136  0.00  0.00    +0.075 A 
ATOM     12  C   UNL     1       0.193   2.818  -1.366  0.00  0.00    -0.021 C 
ATOM     13  C   UNL     1      -3.204   1.399  -0.009  0.00  0.00    +0.159 A 
ATOM     14  C   UNL     1      -0.376  -2.208   0.332  0.00  0.00    +0.007 C 
ATOM     15  C   UNL     1      -2.740  -2.191  -0.296  0.00  0.00    +0.030 C 
ATOM     16  C   UNL     1      -1.555  -2.887  -0.050  0.00  0.00    +0.059 C 
ATOM     17  H   UNL     1       0.929   0.620  -1.020  0.00  0.00    -0.079 HD
ATOM     18  H   UNL     1      -4.642  -0.088  -0.584  0.00  0.00    +0.168 HD
ENDROOT
BRANCH   3  19
ATOM     19  C   UNL     1       2.671   1.257  -0.128  0.00  0.00    -0.050 C 
BRANCH  19  20
ATOM     20  C   UNL     1       3.452   0.036  -0.513  0.00  0.00    -0.058 C 
ATOM     21  C   UNL     1       4.696  -0.315  -0.133  0.00  0.00    -0.050 C 
ATOM     22  C   UNL     1       5.423  -1.558  -0.559  0.00  0.00    +0.026 C 
ATOM     23  C   UNL     1       5.484   0.572   0.796  0.00  0.00    +0.026 C 
ENDBRANCH  19  20
ENDBRANCH   3  19
TORSDOF 2
