REMARK  Name = 131704308
REMARK  8 active torsions:
REMARK  status: ('A' for Active; 'I' for Inactive)
REMARK    1  A    between atoms: N_2  and  CA_17
REMARK    2  A    between atoms: C_3  and  C_6
REMARK    3  A    between atoms: N_5  and  O_15
REMARK    4  A    between atoms: C_6  and  C_10
REMARK    5  A    between atoms: CA_17  and  C_20
REMARK    6  A    between atoms: CA_17  and  C_30
REMARK    7  A    between atoms: CA_23  and  C_26
REMARK    8  A    between atoms: C_26  and  O_27
REMARK                            x       y       z     vdW  Elec       q    Type
REMARK                         _______ _______ _______ _____ _____    ______ ____
ROOT
ATOM      1  O   UNL     1      -2.125   1.362   1.907  0.00  0.00    -0.268 OA
ATOM      2  N   UNL     1      -0.419   1.336   0.295  0.00  0.00    -0.292 N 
ATOM      3  C   UNL     1      -1.682   1.097   0.801  0.00  0.00    +0.269 C 
ATOM      4  H   UNL     1      -0.215   1.059  -0.627  0.00  0.00    +0.150 HD
ENDROOT
BRANCH   3   6
ATOM      5  N   UNL     1      -3.319   1.114  -1.000  0.00  0.00    -0.076 NA
ATOM      6  C   UNL     1      -2.588   0.412  -0.187  0.00  0.00    +0.198 C 
BRANCH   6  10
ATOM      7  S   UNL     1      -3.176  -3.479  -0.805  0.00  0.00    -0.060 S 
ATOM      8  N   UNL     1      -1.840  -1.810   0.648  0.00  0.00    -0.383 NA
ATOM      9  N   UNL     1      -1.436  -4.093   1.111  0.00  0.00    -0.328 N 
ATOM     10  C   UNL     1      -2.624  -1.075  -0.219  0.00  0.00    +0.148 C 
ATOM     11  C   UNL     1      -3.416  -1.804  -1.082  0.00  0.00    +0.127 C 
ATOM     12  C   UNL     1      -2.049  -3.089   0.429  0.00  0.00    +0.204 C 
ATOM     13  H   UNL     1      -1.640  -5.032   0.894  0.00  0.00    +0.145 HD
ATOM     14  H   UNL     1      -0.788  -3.881   1.821  0.00  0.00    +0.145 HD
ENDBRANCH   6  10
BRANCH   5  15
ATOM     15  O   UNL     1      -3.131   2.490  -0.812  0.00  0.00    -0.373 OA
ATOM     16  C   UNL     1      -3.961   3.179  -1.734  0.00  0.00    +0.288 C 
ENDBRANCH   5  15
ENDBRANCH   3   6
BRANCH   2  17
ATOM     17  CA  UNL     1       0.604   1.976   1.071  0.00  0.00    +0.170 C 
BRANCH  17  20
ATOM     18  S   UNL     1       1.357  -0.381   2.196  0.00  0.00    -0.110 S 
ATOM     19  N   UNL     1       2.379   0.880  -0.140  0.00  0.00    -0.253 NA
ATOM     20  C   UNL     1       1.832   1.077   1.207  0.00  0.00    +0.176 C 
ATOM     21  C   UNL     1       2.850  -1.341   1.857  0.00  0.00    +0.087 C 
ATOM     22  C   UNL     1       3.038  -1.480   0.378  0.00  0.00    +0.012 C 
ATOM     23  CA  UNL     1       2.897  -0.249  -0.461  0.00  0.00    +0.149 C 
ATOM     24  C   UNL     1       3.292  -2.668  -0.191  0.00  0.00    -0.002 C 
BRANCH  23  26
ATOM     25  OXT UNL     1       2.727  -0.641  -2.788  0.00  0.00    -0.243 OA
ATOM     26  C   UNL     1       3.417  -0.293  -1.858  0.00  0.00    +0.355 C 
BRANCH  26  27
ATOM     27  O   UNL     1       4.692   0.107  -1.857  0.00  0.00    -0.476 OA
ATOM     28  H   UNL     1       5.106   0.351  -1.053  0.00  0.00    +0.295 HD
ENDBRANCH  26  27
ENDBRANCH  23  26
ENDBRANCH  17  20
BRANCH  17  30
ATOM     29  O   UNL     1       1.735   4.098   0.847  0.00  0.00    -0.286 OA
ATOM     30  C   UNL     1       0.945   3.277   0.389  0.00  0.00    +0.230 C 
ENDBRANCH  17  30
ENDBRANCH   2  17
TORSDOF 8
