REMARK  Name = 12606920
REMARK  3 active torsions:
REMARK  status: ('A' for Active; 'I' for Inactive)
REMARK    1  A    between atoms: S_1  and  C_11
REMARK    2  A    between atoms: S_1  and  N_16
REMARK    3  A    between atoms: N_16  and  C_19
REMARK                            x       y       z     vdW  Elec       q    Type
REMARK                         _______ _______ _______ _____ _____    ______ ____
ROOT
ATOM      1  S   UNL     1      -0.964  -2.578  -0.468  0.00  0.00    +0.074 S 
ATOM      2  O   UNL     1      -0.751  -3.928   0.038  0.00  0.00    -0.150 OA
ATOM      3  O   UNL     1      -1.265  -2.397  -1.883  0.00  0.00    -0.150 OA
ENDROOT
BRANCH   1  11
ATOM      4  N   UNL     1       3.192   2.384  -0.712  0.00  0.00    +0.387 N 
ATOM      5  C   UNL     1       2.728  -0.128   0.548  0.00  0.00    -0.030 C 
ATOM      6  C   UNL     1       1.896   0.265  -0.515  0.00  0.00    -0.046 C 
ATOM      7  C   UNL     1       3.934   0.699   0.913  0.00  0.00    +0.003 C 
ATOM      8  C   UNL     1       2.248   1.465  -1.360  0.00  0.00    -0.055 C 
ATOM      9  C   UNL     1       4.354   1.653  -0.208  0.00  0.00    -0.077 C 
ATOM     10  C   UNL     1       0.766  -0.502  -0.827  0.00  0.00    +0.014 C 
ATOM     11  C   UNL     1       0.451  -1.633  -0.074  0.00  0.00    +0.125 C 
ATOM     12  C   UNL     1       2.397  -1.259   1.306  0.00  0.00    -0.003 C 
ATOM     13  C   UNL     1       1.264  -2.009   0.993  0.00  0.00    +0.020 C 
ATOM     14  H   UNL     1       2.725   2.850   0.067  0.00  0.00    -0.084 HD
ATOM     15  H   UNL     1       3.506   3.071  -1.396  0.00  0.00    -0.084 HD
ENDBRANCH   1  11
BRANCH   1  16
ATOM     16  N   UNL     1      -2.195  -1.838   0.482  0.00  0.00    -0.215 N 
ATOM     17  H   UNL     1      -2.767  -2.375   1.078  0.00  0.00    +0.174 HD
BRANCH  16  19
ATOM     18 CL   UNL     1      -2.892   4.045   0.064  0.00  0.00    -0.082 Cl
ATOM     19  C   UNL     1      -2.364  -0.413   0.381  0.00  0.00    +0.065 C 
ATOM     20  C   UNL     1      -2.678   0.156  -0.847  0.00  0.00    +0.017 C 
ATOM     21  C   UNL     1      -2.212   0.379   1.513  0.00  0.00    +0.017 C 
ATOM     22  C   UNL     1      -2.841   1.538  -0.945  0.00  0.00    +0.013 C 
ATOM     23  C   UNL     1      -2.376   1.761   1.415  0.00  0.00    +0.013 C 
ATOM     24  C   UNL     1      -2.691   2.340   0.186  0.00  0.00    +0.058 C 
ENDBRANCH  16  19
ENDBRANCH   1  16
TORSDOF 3
