REMARK  Name = 68707
REMARK  9 active torsions:
REMARK  status: ('A' for Active; 'I' for Inactive)
REMARK    1  A    between atoms: C_3  and  C_12
REMARK    2  A    between atoms: C_4  and  C_9
REMARK    3  A    between atoms: C_9  and  O_10
REMARK    4  A    between atoms: C_12  and  C_13
REMARK    5  A    between atoms: C_13  and  S_14
REMARK    6  A    between atoms: S_14  and  C_15
REMARK    7  A    between atoms: C_15  and  C_17
REMARK    8  A    between atoms: C_17  and  O_18
REMARK    9  A    between atoms: O_18  and  C_19
REMARK                            x       y       z     vdW  Elec       q    Type
REMARK                         _______ _______ _______ _____ _____    ______ ____
ROOT
ATOM      1  S   UNK     1      -3.654   2.262   0.153  0.00  0.00    -0.165 S 
ATOM      2  N   UNK     1      -2.608  -0.189   0.244  0.00  0.00    +0.400 N 
ATOM      3  C   UNK     1      -2.265   1.187   0.633  0.00  0.00    -0.010 C 
ATOM      4  C   UNK     1      -4.061  -0.314   0.433  0.00  0.00    +0.052 C 
ATOM      5  C   UNK     1      -4.728   0.867  -0.257  0.00  0.00    +0.045 C 
ATOM      6  H   UNK     1      -2.116  -0.858   0.836  0.00  0.00    -0.082 HD
ATOM      7  H   UNK     1      -2.340  -0.383  -0.720  0.00  0.00    -0.082 HD
ENDROOT
BRANCH   4   9
ATOM      8  O   UNK     1      -3.726  -2.400  -0.731  0.00  0.00    -0.253 OA
ATOM      9  C   UNK     1      -4.476  -1.614  -0.173  0.00  0.00    +0.294 C 
BRANCH   9  10
ATOM     10  O   UNK     1      -5.810  -1.807  -0.023  0.00  0.00    -0.482 OA
ATOM     11  H   UNK     1      -6.330  -1.163   0.416  0.00  0.00    +0.295 HD
ENDBRANCH   9  10
ENDBRANCH   4   9
BRANCH   3  12
ATOM     12  C   UNK     1      -0.975   1.641  -0.034  0.00  0.00    +0.001 C 
BRANCH  12  13
ATOM     13  C   UNK     1       0.201   0.765   0.386  0.00  0.00    +0.057 C 
BRANCH  13  14
ATOM     14  S   UNK     1       1.729   1.318  -0.422  0.00  0.00    -0.129 S 
BRANCH  14  15
ATOM     15  C   UNK     1       2.848   0.068   0.250  0.00  0.00    +0.167 C 
BRANCH  15  17
ATOM     16  O   UNK     1       4.636   1.137  -1.020  0.00  0.00    -0.249 OA
ATOM     17  C   UNK     1       4.256   0.263  -0.255  0.00  0.00    +0.328 C 
BRANCH  17  18
ATOM     18  O   UNK     1       5.047  -0.710   0.294  0.00  0.00    -0.448 OA
BRANCH  18  19
ATOM     19  C   UNK     1       6.427  -0.670  -0.083  0.00  0.00    +0.209 C 
ATOM     20  C   UNK     1       7.159  -1.803   0.603  0.00  0.00    +0.051 C 
ENDBRANCH  18  19
ENDBRANCH  17  18
ENDBRANCH  15  17
ENDBRANCH  14  15
ENDBRANCH  13  14
ENDBRANCH  12  13
ENDBRANCH   3  12
TORSDOF 9
