REMARK  Name = 6323527
REMARK  10 active torsions:
REMARK  status: ('A' for Active; 'I' for Inactive)
REMARK    1  A    between atoms: N_1  and  S_3
REMARK    2  A    between atoms: N_1  and  C_15
REMARK    3  A    between atoms: S_3  and  C_6
REMARK    4  A    between atoms: C_11  and  N_14
REMARK    5  A    between atoms: C_15  and  C_16
REMARK    6  A    between atoms: C_16  and  C_18
REMARK    7  A    between atoms: C_16  and  C_21
REMARK    8  A    between atoms: C_18  and  O_19
REMARK    9  A    between atoms: C_21  and  C_23
REMARK   10  A    between atoms: C_21  and  C_24
REMARK                            x       y       z     vdW  Elec       q    Type
REMARK                         _______ _______ _______ _____ _____    ______ ____
ROOT
ATOM      1  N   UNL     1      -1.020   0.811  -0.651  0.00  0.00    -0.179 NA
ATOM      2  H   UNL     1      -0.837   0.048  -1.302  0.00  0.00    +0.149 HD
ENDROOT
BRANCH   1   3
ATOM      3  S   UNL     1       0.206   1.964  -0.888  0.00  0.00    +0.060 S 
ATOM      4  O   UNL     1       0.060   3.029   0.085  0.00  0.00    -0.153 OA
ATOM      5  O   UNL     1       0.291   2.274  -2.302  0.00  0.00    -0.153 OA
BRANCH   3   6
ATOM      6  C   UNL     1       1.656   1.042  -0.474  0.00  0.00    +0.122 C 
ATOM      7  C   UNL     1       2.317   0.340  -1.467  0.00  0.00    +0.022 C 
ATOM      8  C   UNL     1       2.104   1.039   0.836  0.00  0.00    +0.022 C 
ATOM      9  C   UNL     1       3.461  -0.388  -1.141  0.00  0.00    +0.025 C 
ATOM     10  C   UNL     1       3.249   0.311   1.162  0.00  0.00    +0.025 C 
ATOM     11  C   UNL     1       3.927  -0.403   0.174  0.00  0.00    +0.143 C 
BRANCH  11  14
ATOM     12  O   UNL     1       5.689  -1.776  -0.398  0.00  0.00    -0.126 OA
ATOM     13  O   UNL     1       5.495  -1.142   1.695  0.00  0.00    -0.126 OA
ATOM     14  N   UNL     1       5.093  -1.143   0.506  0.00  0.00    +0.058 N 
ENDBRANCH  11  14
ENDBRANCH   3   6
ENDBRANCH   1   3
BRANCH   1  15
ATOM     15  C   UNL     1      -1.210   0.199   0.683  0.00  0.00    +0.103 C 
BRANCH  15  16
ATOM     16  C   UNL     1      -2.699  -0.105   0.927  0.00  0.00    +0.124 C 
BRANCH  16  18
ATOM     17  O   UNL     1      -4.045   1.588  -0.195  0.00  0.00    -0.250 OA
ATOM     18  C   UNL     1      -3.479   1.200   0.819  0.00  0.00    +0.315 C 
BRANCH  18  19
ATOM     19  O   UNL     1      -3.482   1.910   1.976  0.00  0.00    -0.480 OA
ATOM     20  H   UNL     1      -3.037   1.579   2.730  0.00  0.00    +0.295 HD
ENDBRANCH  18  19
ENDBRANCH  16  18
BRANCH  16  21
ATOM     21  C   UNL     1      -3.254  -1.202  -0.013  0.00  0.00    +0.077 C 
BRANCH  21  23
ATOM     22  O   UNL     1      -1.850  -3.005  -0.811  0.00  0.00    -0.288 OA
ATOM     23  C   UNL     1      -2.473  -2.498   0.117  0.00  0.00    +0.208 C 
ENDBRANCH  21  23
BRANCH  21  24
ATOM     24  C   UNL     1      -4.744  -1.527   0.190  0.00  0.00    +0.008 C 
ATOM     25  C   UNL     1      -5.290  -2.517  -0.830  0.00  0.00    +0.000 C 
ENDBRANCH  21  24
ENDBRANCH  16  21
ENDBRANCH  15  16
ENDBRANCH   1  15
TORSDOF 10
