REMARK  Name = 25271555
REMARK  5 active torsions:
REMARK  status: ('A' for Active; 'I' for Inactive)
REMARK    1  A    between atoms: N_2  and  C_12
REMARK    2  A    between atoms: N_2  and  C_19
REMARK    3  A    between atoms: C_3  and  C_7
REMARK    4  A    between atoms: C_12  and  C_13
REMARK    5  A    between atoms: C_19  and  C_20
REMARK                            x       y       z     vdW  Elec       q    Type
REMARK                         _______ _______ _______ _____ _____    ______ ____
ROOT
ATOM      1  O   UNL     1      -0.137  -0.762   2.527  0.00  0.00    -0.266 OA
ATOM      2  N   UNL     1      -0.099   0.412   0.507  0.00  0.00    -0.265 N 
ATOM      3  C   UNL     1       0.014  -0.725   1.307  0.00  0.00    +0.286 C 
ENDROOT
BRANCH   3   7
ATOM      4  O   UNL     1      -0.038  -2.210  -0.632  0.00  0.00    -0.419 OA
ATOM      5  N   UNL     1       1.079  -4.047   0.070  0.00  0.00    -0.193 NA
ATOM      6  N   UNL     1       0.171  -3.918  -2.154  0.00  0.00    -0.313 N 
ATOM      7  C   UNL     1       0.356  -2.000   0.655  0.00  0.00    +0.221 C 
ATOM      8  C   UNL     1       1.034  -3.116   1.077  0.00  0.00    +0.146 C 
ATOM      9  C   UNL     1       0.432  -3.457  -0.909  0.00  0.00    +0.286 C 
ATOM     10  H   UNL     1      -0.331  -3.359  -2.791  0.00  0.00    +0.147 HD
ATOM     11  H   UNL     1       0.483  -4.812  -2.423  0.00  0.00    +0.147 HD
ENDBRANCH   3   7
BRANCH   2  12
ATOM     12  C   UNL     1      -0.989   1.523   0.848  0.00  0.00    +0.121 C 
BRANCH  12  13
ATOM     13  C   UNL     1      -2.369   1.329   0.316  0.00  0.00    -0.002 C 
ATOM     14  C   UNL     1      -2.700   1.803  -0.954  0.00  0.00    -0.003 C 
ATOM     15  C   UNL     1      -3.328   0.673   1.087  0.00  0.00    -0.003 C 
ATOM     16  C   UNL     1      -3.990   1.622  -1.451  0.00  0.00    -0.000 C 
ATOM     17  C   UNL     1      -4.619   0.492   0.590  0.00  0.00    -0.000 C 
ATOM     18  C   UNL     1      -4.950   0.966  -0.680  0.00  0.00    -0.000 C 
ENDBRANCH  12  13
ENDBRANCH   2  12
BRANCH   2  19
ATOM     19  C   UNL     1       0.662   0.576  -0.726  0.00  0.00    +0.121 C 
BRANCH  19  20
ATOM     20  C   UNL     1       2.003   1.215  -0.477  0.00  0.00    -0.002 C 
ATOM     21  C   UNL     1       2.133   2.603  -0.519  0.00  0.00    -0.003 C 
ATOM     22  C   UNL     1       3.115   0.418  -0.204  0.00  0.00    -0.003 C 
ATOM     23  C   UNL     1       3.375   3.195  -0.289  0.00  0.00    -0.000 C 
ATOM     24  C   UNL     1       4.357   1.010   0.027  0.00  0.00    -0.000 C 
ATOM     25  C   UNL     1       4.487   2.398  -0.016  0.00  0.00    -0.000 C 
ENDBRANCH  19  20
ENDBRANCH   2  19
TORSDOF 5
