REMARK  Name = 46937118
REMARK  9 active torsions:
REMARK  status: ('A' for Active; 'I' for Inactive)
REMARK    1  A    between atoms: N_2  and  C_17
REMARK    2  A    between atoms: C_3  and  C_5
REMARK    3  A    between atoms: C_5  and  N_8
REMARK    4  A    between atoms: C_9  and  C_11
REMARK    5  A    between atoms: C_11  and  N_13
REMARK    6  A    between atoms: C_17  and  C_18
REMARK    7  A    between atoms: C_17  and  C_22
REMARK    8  A    between atoms: C_18  and  O_20
REMARK    9  A    between atoms: C_22  and  C_23
REMARK                            x       y       z     vdW  Elec       q    Type
REMARK                         _______ _______ _______ _____ _____    ______ ____
ROOT
ATOM      1  O   UNL     1       0.070  -1.059  -1.615  0.00  0.00    -0.273 OA
ATOM      2  N   UNL     1       1.343  -1.171   0.321  0.00  0.00    -0.302 N 
ATOM      3  C   UNL     1       0.221  -1.427  -0.452  0.00  0.00    +0.240 C 
ATOM      4  H   UNL     1       1.368  -1.510   1.245  0.00  0.00    +0.150 HD
ENDROOT
BRANCH   3   5
ATOM      5  C   UNL     1      -0.831  -2.216   0.319  0.00  0.00    +0.149 C 
ATOM      6  C   UNL     1      -0.628  -3.711   0.108  0.00  0.00    +0.031 C 
BRANCH   5   8
ATOM      7  O   UNL     1      -2.444  -0.051   1.318  0.00  0.00    -0.277 OA
ATOM      8  N   UNL     1      -2.150  -1.812  -0.161  0.00  0.00    -0.300 N 
ATOM      9  C   UNL     1      -2.842  -0.754   0.391  0.00  0.00    +0.202 C 
ATOM     10  H   UNL     1      -2.559  -2.312  -0.904  0.00  0.00    +0.150 HD
BRANCH   9  11
ATOM     11  C   UNL     1      -4.194  -0.558  -0.285  0.00  0.00    +0.013 C 
ATOM     12  C   UNL     1      -4.067   0.423  -1.444  0.00  0.00    -0.015 C 
BRANCH  11  13
ATOM     13  N   UNL     1      -5.134  -0.048   0.709  0.00  0.00    +0.387 N 
ATOM     14  H   UNL     1      -5.209  -0.713   1.479  0.00  0.00    -0.089 HD
ATOM     15  H   UNL     1      -6.050   0.078   0.278  0.00  0.00    -0.089 HD
ATOM     16  H   UNL     1      -4.800   0.848   1.065  0.00  0.00    -0.089 HD
ENDBRANCH  11  13
ENDBRANCH   9  11
ENDBRANCH   5   8
ENDBRANCH   3   5
BRANCH   2  17
ATOM     17  C   UNL     1       2.482  -0.426  -0.177  0.00  0.00    +0.103 C 
BRANCH  17  18
ATOM     18  C   UNL     1       3.747  -1.309  -0.192  0.00  0.00    +0.129 C 
ATOM     19  C   UNL     1       4.190  -1.742   1.202  0.00  0.00    +0.033 C 
BRANCH  18  20
ATOM     20  O   UNL     1       3.519  -2.467  -0.991  0.00  0.00    -0.383 OA
ATOM     21  H   UNL     1       3.237  -2.198  -1.879  0.00  0.00    +0.210 HD
ENDBRANCH  18  20
ENDBRANCH  17  18
BRANCH  17  22
ATOM     22  C   UNL     1       2.640   0.859   0.659  0.00  0.00    +0.048 C 
BRANCH  22  23
ATOM     23  C   UNL     1       1.622   1.926   0.341  0.00  0.00    -0.020 C 
ATOM     24  C   UNL     1       1.889   2.874  -0.646  0.00  0.00    -0.004 C 
ATOM     25  C   UNL     1       0.412   1.963   1.035  0.00  0.00    -0.004 C 
ATOM     26  C   UNL     1       0.947   3.860  -0.939  0.00  0.00    -0.000 C 
ATOM     27  C   UNL     1      -0.530   2.949   0.742  0.00  0.00    -0.000 C 
ATOM     28  C   UNL     1      -0.262   3.898  -0.245  0.00  0.00    -0.000 C 
ENDBRANCH  22  23
ENDBRANCH  17  22
ENDBRANCH   2  17
TORSDOF 9
