REMARK  Name = 24771758
REMARK  7 active torsions:
REMARK  status: ('A' for Active; 'I' for Inactive)
REMARK    1  A    between atoms: C_7  and  C_27
REMARK    2  A    between atoms: C_9  and  C_14
REMARK    3  A    between atoms: C_16  and  O_24
REMARK    4  A    between atoms: C_17  and  S_18
REMARK    5  A    between atoms: S_18  and  N_21
REMARK    6  A    between atoms: O_24  and  C_25
REMARK    7  A    between atoms: C_27  and  C_28
REMARK                            x       y       z     vdW  Elec       q    Type
REMARK                         _______ _______ _______ _____ _____    ______ ____
ROOT
ATOM      1  O   UNL     1       1.478  -3.829   0.050  0.00  0.00    -0.208 OA
ATOM      2  N   UNL     1       3.772  -1.889   0.157  0.00  0.00    -0.236 N 
ATOM      3  N   UNL     1       1.052   0.232   0.075  0.00  0.00    -0.284 N 
ATOM      4  N   UNL     1       4.492  -0.746   0.200  0.00  0.00    -0.172 NA
ATOM      5  N   UNL     1       0.092  -1.983   0.015  0.00  0.00    -0.316 NA
ATOM      6  C   UNL     1       2.274  -0.321   0.115  0.00  0.00    +0.095 A 
ATOM      7  C   UNL     1       3.559   0.216   0.175  0.00  0.00    +0.094 A 
ATOM      8  C   UNL     1       2.425  -1.680   0.106  0.00  0.00    +0.187 A 
ATOM      9  C   UNL     1      -0.013  -0.673   0.021  0.00  0.00    +0.200 C 
ATOM     10  C   UNL     1       1.333  -2.612   0.056  0.00  0.00    +0.225 C 
ATOM     11  C   UNL     1       4.461  -3.157   0.167  0.00  0.00    +0.155 C 
ATOM     12  H   UNL     1       0.915   1.207   0.082  0.00  0.00    +0.155 HD
ENDROOT
BRANCH   9  14
ATOM     13  S   UNL     1      -3.343   1.569  -0.092  0.00  0.00    -0.031 S 
ATOM     14  C   UNL     1      -1.402  -0.113  -0.029  0.00  0.00    +0.087 C 
ATOM     15  C   UNL     1      -2.596  -0.889  -0.083  0.00  0.00    +0.034 C 
ATOM     16  C   UNL     1      -1.664   1.239  -0.028  0.00  0.00    +0.174 C 
ATOM     17  C   UNL     1      -3.725  -0.100  -0.121  0.00  0.00    +0.154 C 
BRANCH  17  18
ATOM     18  S   UNL     1      -5.444  -0.460  -0.193  0.00  0.00    +0.063 S 
ATOM     19  O   UNL     1      -6.048  -0.008   1.048  0.00  0.00    -0.153 OA
ATOM     20  O   UNL     1      -5.950   0.012  -1.469  0.00  0.00    -0.153 OA
BRANCH  18  21
ATOM     21  N   UNL     1      -5.406  -2.166  -0.206  0.00  0.00    -0.203 NA
ATOM     22  H   UNL     1      -6.359  -2.527  -0.248  0.00  0.00    +0.144 HD
ATOM     23  H   UNL     1      -4.952  -2.503   0.642  0.00  0.00    +0.144 HD
ENDBRANCH  18  21
ENDBRANCH  17  18
BRANCH  16  24
ATOM     24  O   UNL     1      -0.794   2.246   0.015  0.00  0.00    -0.469 OA
BRANCH  24  25
ATOM     25  C   UNL     1      -0.874   3.166   1.120  0.00  0.00    +0.206 C 
ATOM     26  C   UNL     1       0.211   4.211   0.971  0.00  0.00    +0.051 C 
ENDBRANCH  24  25
ENDBRANCH  16  24
ENDBRANCH   9  14
BRANCH   7  27
ATOM     27  C   UNL     1       3.964   1.631   0.212  0.00  0.00    +0.049 C 
BRANCH  27  28
ATOM     28  C   UNL     1       3.883   2.316  -1.168  0.00  0.00    +0.006 C 
ATOM     29  C   UNL     1       4.264   3.787  -1.114  0.00  0.00    +0.000 C 
ENDBRANCH  27  28
ENDBRANCH   7  27
TORSDOF 7
