25271555
  -OEChem-10051721183D

 40 42  0     0  0  0  0  0  0999 V2000
   -0.0381   -2.2098   -0.6319 O   0  0  0  0  0  0  0  0  0  0  0  0
   -0.1371   -0.7620    2.5274 O   0  0  0  0  0  0  0  0  0  0  0  0
   -0.0985    0.4120    0.5071 N   0  0  0  0  0  0  0  0  0  0  0  0
    1.0789   -4.0466    0.0703 N   0  0  0  0  0  0  0  0  0  0  0  0
    0.1711   -3.9176   -2.1542 N   0  0  0  0  0  0  0  0  0  0  0  0
   -0.9889    1.5229    0.8479 C   0  0  0  0  0  0  0  0  0  0  0  0
    0.6622    0.5764   -0.7258 C   0  0  0  0  0  0  0  0  0  0  0  0
   -2.3688    1.3288    0.3156 C   0  0  0  0  0  0  0  0  0  0  0  0
    2.0028    1.2149   -0.4768 C   0  0  0  0  0  0  0  0  0  0  0  0
    0.0142   -0.7254    1.3068 C   0  0  0  0  0  0  0  0  0  0  0  0
   -2.6998    1.8032   -0.9536 C   0  0  0  0  0  0  0  0  0  0  0  0
    2.1329    2.6030   -0.5193 C   0  0  0  0  0  0  0  0  0  0  0  0
   -3.3281    0.6731    1.0873 C   0  0  0  0  0  0  0  0  0  0  0  0
    3.1150    0.4183   -0.2040 C   0  0  0  0  0  0  0  0  0  0  0  0
    0.3564   -1.9995    0.6546 C   0  0  0  0  0  0  0  0  0  0  0  0
   -3.9903    1.6218   -1.4511 C   0  0  0  0  0  0  0  0  0  0  0  0
    3.3750    3.1945   -0.2888 C   0  0  0  0  0  0  0  0  0  0  0  0
   -4.6185    0.4916    0.5897 C   0  0  0  0  0  0  0  0  0  0  0  0
    4.3570    1.0097    0.0267 C   0  0  0  0  0  0  0  0  0  0  0  0
   -4.9496    0.9659   -0.6796 C   0  0  0  0  0  0  0  0  0  0  0  0
    4.4870    2.3979   -0.0157 C   0  0  0  0  0  0  0  0  0  0  0  0
    1.0336   -3.1164    1.0768 C   0  0  0  0  0  0  0  0  0  0  0  0
    0.4319   -3.4567   -0.9094 C   0  0  0  0  0  0  0  0  0  0  0  0
   -0.5651    2.4730    0.5068 H   0  0  0  0  0  0  0  0  0  0  0  0
   -1.0351    1.5961    1.9420 H   0  0  0  0  0  0  0  0  0  0  0  0
    0.0873    1.1834   -1.4341 H   0  0  0  0  0  0  0  0  0  0  0  0
    0.8469   -0.3547   -1.2572 H   0  0  0  0  0  0  0  0  0  0  0  0
   -1.9677    2.3246   -1.5638 H   0  0  0  0  0  0  0  0  0  0  0  0
    1.2794    3.2377   -0.7404 H   0  0  0  0  0  0  0  0  0  0  0  0
   -3.0837    0.2973    2.0773 H   0  0  0  0  0  0  0  0  0  0  0  0
    3.0310   -0.6643   -0.1710 H   0  0  0  0  0  0  0  0  0  0  0  0
   -4.2489    1.9931   -2.4384 H   0  0  0  0  0  0  0  0  0  0  0  0
    3.4769    4.2752   -0.3242 H   0  0  0  0  0  0  0  0  0  0  0  0
   -5.3654   -0.0193    1.1902 H   0  0  0  0  0  0  0  0  0  0  0  0
    5.2231    0.3895    0.2383 H   0  0  0  0  0  0  0  0  0  0  0  0
   -5.9544    0.8249   -1.0669 H   0  0  0  0  0  0  0  0  0  0  0  0
    5.4542    2.8584    0.1631 H   0  0  0  0  0  0  0  0  0  0  0  0
    1.4871   -3.3015    2.0394 H   0  0  0  0  0  0  0  0  0  0  0  0
    0.4784   -4.8345   -2.4612 H   0  0  0  0  0  0  0  0  0  0  0  0
   -0.3424   -3.3650   -2.8329 H   0  0  0  0  0  0  0  0  0  0  0  0
  1 15  1  0  0  0  0
  1 23  1  0  0  0  0
  2 10  2  0  0  0  0
  3  6  1  0  0  0  0
  3  7  1  0  0  0  0
  3 10  1  0  0  0  0
  4 22  1  0  0  0  0
  4 23  2  0  0  0  0
  5 23  1  0  0  0  0
  5 39  1  0  0  0  0
  5 40  1  0  0  0  0
  6  8  1  0  0  0  0
  6 24  1  0  0  0  0
  6 25  1  0  0  0  0
  7  9  1  0  0  0  0
  7 26  1  0  0  0  0
  7 27  1  0  0  0  0
  8 11  2  0  0  0  0
  8 13  1  0  0  0  0
  9 12  2  0  0  0  0
  9 14  1  0  0  0  0
 10 15  1  0  0  0  0
 11 16  1  0  0  0  0
 11 28  1  0  0  0  0
 12 17  1  0  0  0  0
 12 29  1  0  0  0  0
 13 18  2  0  0  0  0
 13 30  1  0  0  0  0
 14 19  2  0  0  0  0
 14 31  1  0  0  0  0
 15 22  2  0  0  0  0
 16 20  2  0  0  0  0
 16 32  1  0  0  0  0
 17 21  2  0  0  0  0
 17 33  1  0  0  0  0
 18 20  1  0  0  0  0
 18 34  1  0  0  0  0
 19 21  1  0  0  0  0
 19 35  1  0  0  0  0
 20 36  1  0  0  0  0
 21 37  1  0  0  0  0
 22 38  1  0  0  0  0
M  END
> <DATABASE_ID>
DB08315

> <DATABASE_NAME>
drugbank

> <ORIGINAL_SOURCE>
PUBCHEM

> <ORIGINAL_SOURCE_URL>
https://pubchem.ncbi.nlm.nih.gov/rest/pug/compound/inchikey/KIJXWOGFYAWTNC-UHFFFAOYSA-N/SDF?record_type=3d

> <SMILES>
NC1=NC=C(O1)C(=O)N(CC1=CC=CC=C1)CC1=CC=CC=C1

> <INCHI_IDENTIFIER>
InChI=1S/C18H17N3O2/c19-18-20-11-16(23-18)17(22)21(12-14-7-3-1-4-8-14)13-15-9-5-2-6-10-15/h1-11H,12-13H2,(H2,19,20)

> <INCHI_KEY>
KIJXWOGFYAWTNC-UHFFFAOYSA-N

> <FORMULA>
C18H17N3O2

> <MOLECULAR_WEIGHT>
307.3465

> <EXACT_MASS>
307.132076803

> <JCHEM_ACCEPTOR_COUNT>
3

> <JCHEM_AVERAGE_POLARIZABILITY>
31.532796960070456

> <JCHEM_BIOAVAILABILITY>
1

> <JCHEM_DONOR_COUNT>
1

> <JCHEM_FORMAL_CHARGE>
0

> <JCHEM_GHOSE_FILTER>
1

> <JCHEM_IUPAC>
2-amino-N,N-dibenzyl-1,3-oxazole-5-carboxamide

> <ALOGPS_LOGP>
2.48

> <JCHEM_LOGP>
2.437401035666668

> <ALOGPS_LOGS>
-3.63

> <JCHEM_MDDR_LIKE_RULE>
0

> <JCHEM_NUMBER_OF_RINGS>
3

> <JCHEM_PHYSIOLOGICAL_CHARGE>
0

> <JCHEM_PKA_STRONGEST_ACIDIC>
13.59788474380808

> <JCHEM_PKA_STRONGEST_BASIC>
1.222995629446486

> <JCHEM_POLAR_SURFACE_AREA>
72.36

> <JCHEM_REFRACTIVITY>
88.91560000000004

> <JCHEM_ROTATABLE_BOND_COUNT>
5

> <JCHEM_RULE_OF_FIVE>
1

> <ALOGPS_SOLUBILITY>
7.17e-02 g/l

> <JCHEM_TRADITIONAL_IUPAC>
2-amino-N,N-dibenzyl-1,3-oxazole-5-carboxamide

> <JCHEM_VEBER_RULE>
0

> <DRUGBANK_ID>
DB08315

> <DRUG_GROUPS>
experimental

> <GENERIC_NAME>
2-AMINO-N,N-BIS(PHENYLMETHYL)-1,3-OXAZOLE-5-CARBOXAMIDE

$$$$
