REMARK  Name = 68867
REMARK  8 active torsions:
REMARK  status: ('A' for Active; 'I' for Inactive)
REMARK    1  A    between atoms: N_2  and  C_6
REMARK    2  A    between atoms: C_3  and  C_19
REMARK    3  A    between atoms: N_5  and  C_12
REMARK    4  A    between atoms: C_12  and  C_13
REMARK    5  A    between atoms: C_20  and  O_31
REMARK    6  A    between atoms: C_22  and  N_27
REMARK    7  A    between atoms: C_24  and  N_28
REMARK    8  A    between atoms: O_31  and  C_32
REMARK                            x       y       z     vdW  Elec       q    Type
REMARK                         _______ _______ _______ _____ _____    ______ ____
ROOT
ATOM      1  O   UNL     1       1.864  -1.654   2.104  0.00  0.00    -0.270 OA
ATOM      2  N   UNL     1       0.527  -1.280   0.246  0.00  0.00    -0.303 N 
ATOM      3  C   UNL     1       1.680  -1.142   1.003  0.00  0.00    +0.249 C 
ATOM      4  H   UNL     1       0.476  -0.829  -0.627  0.00  0.00    +0.150 HD
ENDROOT
BRANCH   2   6
ATOM      5  N   UNL     1      -3.073  -0.924  -0.425  0.00  0.00    +0.387 N 
ATOM      6  C   UNL     1      -0.604  -2.062   0.693  0.00  0.00    +0.068 C 
ATOM      7  C   UNL     1      -2.361  -0.227   0.655  0.00  0.00    -0.076 C 
ATOM      8  C   UNL     1      -2.140  -1.658  -1.290  0.00  0.00    -0.076 C 
ATOM      9  C   UNL     1      -1.571  -1.212   1.522  0.00  0.00    -0.003 C 
ATOM     10  C   UNL     1      -1.341  -2.692  -0.491  0.00  0.00    -0.003 C 
ATOM     11  H   UNL     1      -3.704  -1.603   0.002  0.00  0.00    -0.080 HD
BRANCH   5  12
ATOM     12  C   UNL     1      -3.864   0.022  -1.211  0.00  0.00    -0.077 C 
BRANCH  12  13
ATOM     13  C   UNL     1      -5.154   0.399  -0.486  0.00  0.00    -0.016 C 
ATOM     14  C   UNL     1      -5.957   1.432  -1.287  0.00  0.00    +0.003 C 
ATOM     15  C   UNL     1      -6.009  -0.851  -0.210  0.00  0.00    +0.024 C 
ATOM     16  C   UNL     1      -7.229   1.847  -0.541  0.00  0.00    +0.026 C 
ATOM     17  C   UNL     1      -7.408  -0.524   0.223  0.00  0.00    -0.031 C 
ATOM     18  C   UNL     1      -7.951   0.693   0.086  0.00  0.00    -0.031 C 
ENDBRANCH  12  13
ENDBRANCH   5  12
ENDBRANCH   2   6
BRANCH   3  19
ATOM     19  C   UNL     1       2.741  -0.283   0.416  0.00  0.00    +0.089 C 
ATOM     20  C   UNL     1       2.497   1.060   0.128  0.00  0.00    +0.144 C 
ATOM     21  C   UNL     1       3.995  -0.836   0.153  0.00  0.00    +0.033 C 
ATOM     22  C   UNL     1       5.004  -0.045  -0.397  0.00  0.00    +0.156 C 
ATOM     23  C   UNL     1       3.506   1.850  -0.423  0.00  0.00    +0.053 C 
ATOM     24  C   UNL     1       4.760   1.297  -0.685  0.00  0.00    +0.067 C 
BRANCH  22  27
ATOM     25  O   UNL     1       6.481  -1.160  -1.773  0.00  0.00    -0.126 OA
ATOM     26  O   UNL     1       7.147  -0.607   0.244  0.00  0.00    -0.126 OA
ATOM     27  N   UNL     1       6.274  -0.634  -0.654  0.00  0.00    +0.059 N 
ENDBRANCH  22  27
BRANCH  24  28
ATOM     28  N   UNL     1       5.766   2.119  -1.242  0.00  0.00    -0.356 N 
ATOM     29  H   UNL     1       6.656   1.746  -1.434  0.00  0.00    +0.142 HD
ATOM     30  H   UNL     1       5.576   3.065  -1.439  0.00  0.00    +0.142 HD
ENDBRANCH  24  28
BRANCH  20  31
ATOM     31  O   UNL     1       1.279   1.618   0.376  0.00  0.00    -0.475 OA
BRANCH  31  32
ATOM     32  C   UNL     1       1.243   2.718   1.282  0.00  0.00    +0.206 C 
ATOM     33  C   UNL     1      -0.099   2.737   1.983  0.00  0.00    +0.051 C 
ENDBRANCH  31  32
ENDBRANCH  20  31
ENDBRANCH   3  19
TORSDOF 8
