REMARK  Name = 24764442
REMARK  6 active torsions:
REMARK  status: ('A' for Active; 'I' for Inactive)
REMARK    1  A    between atoms: C_2  and  C_17
REMARK    2  A    between atoms: C_3  and  N_19
REMARK    3  A    between atoms: C_20  and  C_22
REMARK    4  A    between atoms: C_22  and  C_23
REMARK    5  A    between atoms: C_23  and  C_25
REMARK    6  A    between atoms: C_25  and  O_26
REMARK                            x       y       z     vdW  Elec       q    Type
REMARK                         _______ _______ _______ _____ _____    ______ ____
ROOT
ATOM      1 BR   UNL     1       4.881  -3.567   0.301  0.00  0.00    -0.049 Br
ATOM      2  C   UNL     1       1.815  -0.918  -0.649  0.00  0.00    +0.068 C 
ATOM      3  C   UNL     1       0.674  -1.579  -0.195  0.00  0.00    +0.055 C 
ATOM      4  C   UNL     1       3.069  -1.510  -0.502  0.00  0.00    +0.012 C 
ATOM      5  C   UNL     1       0.786  -2.832   0.408  0.00  0.00    +0.015 C 
ATOM      6  C   UNL     1       3.182  -2.763   0.101  0.00  0.00    +0.035 C 
ATOM      7  C   UNL     1       2.041  -3.424   0.555  0.00  0.00    +0.008 C 
ENDROOT
BRANCH   2  17
ATOM      8  O   UNL     1       1.576   0.407  -2.507  0.00  0.00    -0.270 OA
ATOM      9  N   UNL     1       1.818   1.534  -0.473  0.00  0.00    -0.276 N 
ATOM     10  C   UNL     1       0.898   2.284   1.686  0.00  0.00    +0.020 C 
ATOM     11  C   UNL     1       0.590   3.669  -0.420  0.00  0.00    +0.020 C 
ATOM     12  C   UNL     1       0.759   3.703   1.109  0.00  0.00    +0.003 C 
ATOM     13  C   UNL     1       2.031   1.530   0.980  0.00  0.00    +0.094 C 
ATOM     14  C   UNL     1       1.724   2.866  -1.072  0.00  0.00    +0.094 C 
ATOM     15  C   UNL     1       1.136   2.332   3.193  0.00  0.00    +0.002 C 
ATOM     16  C   UNL     1       0.530   5.083  -0.990  0.00  0.00    +0.002 C 
ATOM     17  C   UNL     1       1.731   0.402  -1.287  0.00  0.00    +0.250 C 
ENDBRANCH   2  17
BRANCH   3  19
ATOM     18  O   UNL     1      -2.030  -2.599   0.636  0.00  0.00    -0.275 OA
ATOM     19  N   UNL     1      -0.594  -1.004  -0.332  0.00  0.00    -0.284 N 
ATOM     20  C   UNL     1      -1.827  -1.529   0.069  0.00  0.00    +0.227 C 
ATOM     21  H   UNL     1      -0.621  -0.120  -0.764  0.00  0.00    +0.155 HD
BRANCH  20  22
ATOM     22  C   UNL     1      -2.983  -0.598  -0.256  0.00  0.00    +0.097 C 
BRANCH  22  23
ATOM     23  C   UNL     1      -4.312  -1.196   0.191  0.00  0.00    +0.119 C 
BRANCH  23  25
ATOM     24  O   UNL     1      -5.361   0.789  -0.702  0.00  0.00    -0.250 OA
ATOM     25  C   UNL     1      -5.472  -0.286  -0.127  0.00  0.00    +0.314 C 
BRANCH  25  26
ATOM     26  O   UNL     1      -6.662  -0.793   0.283  0.00  0.00    -0.480 OA
ATOM     27  H   UNL     1      -6.692  -1.622   0.719  0.00  0.00    +0.295 HD
ENDBRANCH  25  26
ENDBRANCH  23  25
ENDBRANCH  22  23
ENDBRANCH  20  22
ENDBRANCH   3  19
TORSDOF 6
