REMARK  Name = 24963032
REMARK  12 active torsions:
REMARK  status: ('A' for Active; 'I' for Inactive)
REMARK    1  A    between atoms: N_2  and  C_10
REMARK    2  A    between atoms: C_5  and  O_21
REMARK    3  A    between atoms: C_6  and  O_23
REMARK    4  A    between atoms: C_7  and  O_25
REMARK    5  A    between atoms: C_10  and  N_11
REMARK    6  A    between atoms: N_11  and  C_13
REMARK    7  A    between atoms: C_13  and  C_14
REMARK    8  A    between atoms: C_14  and  C_15
REMARK    9  A    between atoms: C_15  and  C_16
REMARK   10  A    between atoms: C_16  and  C_17
REMARK   11  A    between atoms: C_17  and  C_18
REMARK   12  A    between atoms: C_18  and  C_19
REMARK                            x       y       z     vdW  Elec       q    Type
REMARK                         _______ _______ _______ _____ _____    ______ ____
ROOT
ATOM      1  O   UNL     1      -4.343   0.298  -0.312  0.00  0.00    -0.334 OA
ATOM      2  N   UNL     1      -2.356  -0.757  -0.152  0.00  0.00    -0.264 N 
ATOM      3  C   UNL     1      -2.221   0.030  -1.331  0.00  0.00    +0.135 C 
ATOM      4  C   UNL     1      -3.361  -0.145   0.651  0.00  0.00    +0.224 C 
ATOM      5  C   UNL     1      -1.476   1.319  -0.917  0.00  0.00    +0.160 C 
ATOM      6  C   UNL     1      -2.735   1.101   1.301  0.00  0.00    +0.187 C 
ATOM      7  C   UNL     1      -2.203   2.072   0.224  0.00  0.00    +0.170 C 
ATOM      8  C   UNL     1      -3.702   0.261  -1.615  0.00  0.00    +0.166 C 
ENDROOT
BRANCH   2  10
ATOM      9  S   UNL     1      -1.827  -2.642   1.638  0.00  0.00    -0.019 S 
ATOM     10  C   UNL     1      -1.552  -1.799   0.220  0.00  0.00    +0.136 C 
BRANCH  10  11
ATOM     11  N   UNL     1      -0.510  -2.125  -0.624  0.00  0.00    -0.316 N 
ATOM     12  H   UNL     1      -0.414  -1.583  -1.440  0.00  0.00    +0.148 HD
BRANCH  11  13
ATOM     13  C   UNL     1       0.450  -3.176  -0.429  0.00  0.00    +0.088 C 
BRANCH  13  14
ATOM     14  C   UNL     1       1.688  -2.704   0.326  0.00  0.00    +0.021 C 
BRANCH  14  15
ATOM     15  C   UNL     1       2.441  -1.595  -0.415  0.00  0.00    +0.002 C 
BRANCH  15  16
ATOM     16  C   UNL     1       3.722  -1.147   0.297  0.00  0.00    +0.000 C 
BRANCH  16  17
ATOM     17  C   UNL     1       4.476   0.018  -0.352  0.00  0.00    +0.000 C 
BRANCH  17  18
ATOM     18  C   UNL     1       5.709   0.462   0.439  0.00  0.00    +0.000 C 
BRANCH  18  19
ATOM     19  C   UNL     1       6.473   1.562  -0.299  0.00  0.00    +0.000 C 
ATOM     20  C   UNL     1       7.681   2.030   0.496  0.00  0.00    +0.000 C 
ENDBRANCH  18  19
ENDBRANCH  17  18
ENDBRANCH  16  17
ENDBRANCH  15  16
ENDBRANCH  14  15
ENDBRANCH  13  14
ENDBRANCH  11  13
ENDBRANCH  10  11
ENDBRANCH   2  10
BRANCH   5  21
ATOM     21  O   UNL     1      -1.361   2.173  -2.053  0.00  0.00    -0.380 OA
ATOM     22  H   UNL     1      -0.906   1.701  -2.767  0.00  0.00    +0.211 HD
ENDBRANCH   5  21
BRANCH   6  23
ATOM     23  O   UNL     1      -3.710   1.780   2.087  0.00  0.00    -0.378 OA
ATOM     24  H   UNL     1      -4.052   1.180   2.768  0.00  0.00    +0.211 HD
ENDBRANCH   6  23
BRANCH   7  25
ATOM     25  O   UNL     1      -1.282   2.985   0.822  0.00  0.00    -0.379 OA
ATOM     26  H   UNL     1      -0.948   3.595   0.146  0.00  0.00    +0.211 HD
ENDBRANCH   7  25
TORSDOF 12
