REMARK  Name = 25920890
REMARK  6 active torsions:
REMARK  status: ('A' for Active; 'I' for Inactive)
REMARK    1  A    between atoms: N_1  and  C_24
REMARK    2  A    between atoms: N_4  and  C_11
REMARK    3  A    between atoms: C_6  and  C_35
REMARK    4  A    between atoms: C_14  and  S_17
REMARK    5  A    between atoms: S_17  and  N_20
REMARK    6  A    between atoms: C_23  and  N_28
REMARK                            x       y       z     vdW  Elec       q    Type
REMARK                         _______ _______ _______ _____ _____    ______ ____
ROOT
ATOM      1  N   UNL     1       2.499   0.499  -0.254  0.00  0.00    -0.311 N 
ATOM      2  N   UNL     1       0.839  -1.139  -0.054  0.00  0.00    -0.322 NA
ATOM      3  N   UNL     1       1.463  -3.451   0.216  0.00  0.00    -0.170 NA
ATOM      4  N   UNL     1      -0.794  -2.812   0.153  0.00  0.00    -0.247 N 
ATOM      5  C   UNL     1       2.151  -0.828  -0.096  0.00  0.00    +0.198 C 
ATOM      6  C   UNL     1       3.163  -1.760   0.010  0.00  0.00    +0.136 C 
ATOM      7  C   UNL     1       2.756  -3.069   0.166  0.00  0.00    +0.119 C 
ATOM      8  C   UNL     1       0.570  -2.449   0.102  0.00  0.00    +0.150 C 
ATOM      9  H   UNL     1       3.456   0.730  -0.285  0.00  0.00    +0.149 HD
ATOM     10  H   UNL     1      -0.943  -3.778   0.269  0.00  0.00    +0.165 HD
ENDROOT
BRANCH   4  11
ATOM     11  C   UNL     1      -1.982  -2.062   0.070  0.00  0.00    +0.058 C 
ATOM     12  C   UNL     1      -3.129  -2.494   0.736  0.00  0.00    +0.017 C 
ATOM     13  C   UNL     1      -2.012  -0.884  -0.678  0.00  0.00    +0.017 C 
ATOM     14  C   UNL     1      -4.336  -0.574  -0.095  0.00  0.00    +0.122 C 
ATOM     15  C   UNL     1      -4.306  -1.750   0.653  0.00  0.00    +0.021 C 
ATOM     16  C   UNL     1      -3.189  -0.141  -0.760  0.00  0.00    +0.021 C 
BRANCH  14  17
ATOM     17  S   UNL     1      -5.809   0.358  -0.198  0.00  0.00    +0.060 S 
ATOM     18  O   UNL     1      -5.784   1.140  -1.428  0.00  0.00    -0.153 OA
ATOM     19  O   UNL     1      -6.925  -0.544   0.050  0.00  0.00    -0.153 OA
BRANCH  17  20
ATOM     20  N   UNL     1      -5.664   1.424   1.130  0.00  0.00    -0.178 NA
ATOM     21  C   UNL     1      -4.529   2.356   1.202  0.00  0.00    +0.110 C 
ATOM     22  H   UNL     1      -5.624   0.846   1.969  0.00  0.00    +0.149 HD
ENDBRANCH  17  20
ENDBRANCH  14  17
ENDBRANCH   4  11
BRANCH   1  24
ATOM     23  C   UNL     1       2.199   2.923  -0.098  0.00  0.00    -0.040 C 
ATOM     24  C   UNL     1       1.533   1.567  -0.376  0.00  0.00    +0.053 C 
ATOM     25  C   UNL     1       1.513   3.878  -1.070  0.00  0.00    -0.019 C 
ATOM     26  C   UNL     1       0.996   1.656  -1.813  0.00  0.00    +0.017 C 
ATOM     27  C   UNL     1       1.404   3.034  -2.329  0.00  0.00    -0.000 C 
BRANCH  23  28
ATOM     28  N   UNL     1       2.048   3.349   1.285  0.00  0.00    +0.386 N 
ATOM     29  C   UNL     1       2.634   4.675   1.477  0.00  0.00    -0.101 C 
ATOM     30  C   UNL     1       2.666   2.380   2.188  0.00  0.00    -0.101 C 
ATOM     31  H   UNL     1       1.052   3.402   1.502  0.00  0.00    -0.080 HD
ENDBRANCH  23  28
ENDBRANCH   1  24
BRANCH   6  35
ATOM     32  F   UNL     1       5.420  -2.506   0.091  0.00  0.00    -0.166 F 
ATOM     33  F   UNL     1       4.995  -0.808  -1.200  0.00  0.00    -0.166 F 
ATOM     34  F   UNL     1       5.001  -0.554   0.954  0.00  0.00    -0.166 F 
ATOM     35  C   UNL     1       4.608  -1.413  -0.035  0.00  0.00    +0.424 C 
ENDBRANCH   6  35
TORSDOF 6
