REMARK  Name = 5289386
REMARK  6 active torsions:
REMARK  status: ('A' for Active; 'I' for Inactive)
REMARK    1  A    between atoms: S_1  and  O_23
REMARK    2  A    between atoms: CA_6  and  C_26
REMARK    3  A    between atoms: CA_7  and  N_13
REMARK    4  A    between atoms: C_14  and  C_16
REMARK    5  A    between atoms: C_16  and  C_17
REMARK    6  A    between atoms: C_26  and  O_27
REMARK                            x       y       z     vdW  Elec       q    Type
REMARK                         _______ _______ _______ _____ _____    ______ ____
ROOT
ATOM      1  S   UNL     1      -0.740   0.777   0.543  0.00  0.00    -0.113 S 
ATOM      2  O   UNL     1      -2.337  -2.483  -1.692  0.00  0.00    -0.273 OA
ATOM      3  N   UNL     1      -2.481  -0.887   0.038  0.00  0.00    -0.259 N 
ATOM      4  C   UNL     1      -1.353  -0.812   0.982  0.00  0.00    +0.154 C 
ATOM      5  C   UNL     1      -1.963   1.334  -0.660  0.00  0.00    +0.071 C 
ATOM      6  CA  UNL     1      -3.104   0.306  -0.507  0.00  0.00    +0.185 C 
ATOM      7  CA  UNL     1      -0.789  -2.061   0.292  0.00  0.00    +0.178 C 
ATOM      8  C   UNL     1      -1.992  -1.948  -0.663  0.00  0.00    +0.247 C 
ATOM      9  C   UNL     1      -2.380   2.790  -0.445  0.00  0.00    +0.013 C 
ATOM     10  C   UNL     1      -1.325   1.215  -2.056  0.00  0.00    +0.013 C 
ATOM     11  H   UNL     1       0.556   0.859   0.138  0.00  0.00    +0.112 HD
ENDROOT
BRANCH   7  13
ATOM     12  O   UNL     1       1.785  -1.806   1.584  0.00  0.00    -0.275 OA
ATOM     13  N   UNL     1       0.515  -1.905  -0.356  0.00  0.00    -0.296 N 
ATOM     14  C   UNL     1       1.711  -1.789   0.358  0.00  0.00    +0.227 C 
ATOM     15  H   UNL     1       0.552  -1.881  -1.340  0.00  0.00    +0.150 HD
BRANCH  14  16
ATOM     16  C   UNL     1       2.911  -1.637  -0.555  0.00  0.00    +0.111 C 
BRANCH  16  17
ATOM     17  C   UNL     1       3.666  -0.352  -0.338  0.00  0.00    -0.013 C 
ATOM     18  C   UNL     1       3.313   0.779  -1.061  0.00  0.00    -0.004 C 
ATOM     19  C   UNL     1       4.704  -0.316   0.583  0.00  0.00    -0.004 C 
ATOM     20  C   UNL     1       4.013   1.969  -0.860  0.00  0.00    -0.000 C 
ATOM     21  C   UNL     1       5.403   0.874   0.785  0.00  0.00    -0.000 C 
ATOM     22  C   UNL     1       5.057   2.016   0.063  0.00  0.00    -0.000 C 
ENDBRANCH  16  17
ENDBRANCH  14  16
ENDBRANCH   7  13
BRANCH   1  23
ATOM     23  O   UNL     1      -1.158   1.609   1.869  0.00  0.00    -0.350 OA
ATOM     24  H   UNL     1      -2.100   1.471   2.054  0.00  0.00    +0.225 HD
ENDBRANCH   1  23
BRANCH   6  26
ATOM     25  OXT UNL     1      -4.070   0.455   1.702  0.00  0.00    -0.248 OA
ATOM     26  C   UNL     1      -4.157   0.653   0.499  0.00  0.00    +0.333 C 
BRANCH  26  27
ATOM     27  O   UNL     1      -5.230   1.219  -0.106  0.00  0.00    -0.479 OA
ATOM     28  H   UNL     1      -5.232   1.342  -1.035  0.00  0.00    +0.295 HD
ENDBRANCH  26  27
ENDBRANCH   6  26
TORSDOF 6
