REMARK  Name = 11987823
REMARK  8 active torsions:
REMARK  status: ('A' for Active; 'I' for Inactive)
REMARK    1  A    between atoms: C_1  and  C_7
REMARK    2  A    between atoms: C_1  and  C_13
REMARK    3  A    between atoms: C_13  and  C_14
REMARK    4  A    between atoms: C_14  and  C_15
REMARK    5  A    between atoms: C_15  and  O_16
REMARK    6  A    between atoms: O_16  and  P_17
REMARK    7  A    between atoms: P_17  and  O_19
REMARK    8  A    between atoms: P_17  and  O_21
REMARK                            x       y       z     vdW  Elec       q    Type
REMARK                         _______ _______ _______ _____ _____    ______ ____
ROOT
ATOM      1  C   UNL     1      -0.802  -0.088   1.224  0.00  0.00    +0.034 C 
ENDROOT
BRANCH   1   7
ATOM      2 CL   UNL     1      -2.337  -2.783   0.382  0.00  0.00    -0.063 Cl
ATOM      3  O   UNL     1      -2.162   2.301   0.634  0.00  0.00    -0.267 OA
ATOM      4  O   UNL     1      -5.814   0.193  -1.228  0.00  0.00    -0.247 OA
ATOM      5  N   UNL     1      -4.074  -1.072  -0.415  0.00  0.00    -0.298 N 
ATOM      6  N   UNL     1      -3.991   1.257  -0.298  0.00  0.00    -0.275 N 
ATOM      7  C   UNL     1      -2.141  -0.081   0.566  0.00  0.00    +0.060 A 
ATOM      8  C   UNL     1      -2.848  -1.155   0.184  0.00  0.00    +0.119 A 
ATOM      9  C   UNL     1      -2.745   1.267   0.314  0.00  0.00    +0.259 A 
ATOM     10  C   UNL     1      -4.709   0.127  -0.688  0.00  0.00    +0.328 A 
ATOM     11  H   UNL     1      -4.529  -1.908  -0.665  0.00  0.00    +0.171 HD
ATOM     12  H   UNL     1      -4.407   2.132  -0.474  0.00  0.00    +0.173 HD
ENDBRANCH   1   7
BRANCH   1  13
ATOM     13  C   UNL     1       0.335  -0.049   0.203  0.00  0.00    +0.008 C 
BRANCH  13  14
ATOM     14  C   UNL     1       1.699  -0.090   0.890  0.00  0.00    +0.033 C 
BRANCH  14  15
ATOM     15  C   UNL     1       2.838  -0.009  -0.117  0.00  0.00    +0.154 C 
BRANCH  15  16
ATOM     16  O   UNL     1       4.073  -0.036   0.585  0.00  0.00    -0.273 OA
BRANCH  16  17
ATOM     17  P   UNL     1       5.444   0.038  -0.270  0.00  0.00    +0.473 P 
ATOM     18  O   UNL     1       6.704   0.004   0.545  0.00  0.00    -0.227 OA
BRANCH  17  19
ATOM     19  O   UNL     1       5.252   1.354  -1.190  0.00  0.00    -0.303 OA
ATOM     20  H   UNL     1       4.416   1.289  -1.678  0.00  0.00    +0.222 HD
ENDBRANCH  17  19
BRANCH  17  21
ATOM     21  O   UNL     1       5.277  -1.179  -1.321  0.00  0.00    -0.303 OA
ATOM     22  H   UNL     1       4.441  -1.078  -1.803  0.00  0.00    +0.222 HD
ENDBRANCH  17  21
ENDBRANCH  16  17
ENDBRANCH  15  16
ENDBRANCH  14  15
ENDBRANCH  13  14
ENDBRANCH   1  13
TORSDOF 8
