REMARK  Name = 1587957
REMARK  5 active torsions:
REMARK  status: ('A' for Active; 'I' for Inactive)
REMARK    1  A    between atoms: C_4  and  C_10
REMARK    2  A    between atoms: C_6  and  C_16
REMARK    3  A    between atoms: N_22  and  C_24
REMARK    4  A    between atoms: C_24  and  C_25
REMARK    5  A    between atoms: C_25  and  O_26
REMARK                            x       y       z     vdW  Elec       q    Type
REMARK                         _______ _______ _______ _____ _____    ______ ____
ROOT
ATOM      1  O   UNL     1      -1.117   2.254   0.044  0.00  0.00    -0.440 OA
ATOM      2  N   UNL     1       0.804   3.672   0.030  0.00  0.00    -0.214 NA
ATOM      3  N   UNL     1       2.917   2.463  -0.056  0.00  0.00    -0.233 NA
ATOM      4  C   UNL     1      -0.118   0.237  -0.034  0.00  0.00    +0.028 C 
ATOM      5  C   UNL     1       0.891   1.231  -0.035  0.00  0.00    +0.155 C 
ATOM      6  C   UNL     1      -1.317   0.910   0.015  0.00  0.00    +0.144 C 
ATOM      7  C   UNL     1       0.232   2.455   0.014  0.00  0.00    +0.214 C 
ATOM      8  C   UNL     1       2.283   1.268  -0.070  0.00  0.00    +0.115 C 
ATOM      9  C   UNL     1       2.148   3.575  -0.007  0.00  0.00    +0.254 C 
ATOM     10  N   UNL     1       3.040   0.084  -0.121  0.00  0.00    -0.319 N 
ATOM     11  H   UNL     1       2.565  -0.778  -0.130  0.00  0.00    +0.148 HD
ENDROOT
BRANCH   4  12
ATOM     12  C   UNL     1      -0.017  -1.194  -0.074  0.00  0.00    -0.000 C 
ATOM     13  C   UNL     1       0.065  -1.921   1.114  0.00  0.00    -0.000 C 
ATOM     14  C   UNL     1       0.001  -1.859  -1.300  0.00  0.00    -0.000 C 
ATOM     15  C   UNL     1       0.164  -3.312   1.076  0.00  0.00    -0.000 C 
ATOM     16  C   UNL     1       0.100  -3.249  -1.339  0.00  0.00    -0.000 C 
ATOM     17  C   UNL     1       0.182  -3.976  -0.151  0.00  0.00    -0.000 C 
ENDBRANCH   4  12
BRANCH   6  18
ATOM     18  C   UNL     1      -2.699   0.510   0.040  0.00  0.00    +0.034 C 
ATOM     19  C   UNL     1      -3.341   0.283   1.259  0.00  0.00    +0.003 C 
ATOM     20  C   UNL     1      -3.404   0.345  -1.155  0.00  0.00    +0.003 C 
ATOM     21  C   UNL     1      -4.680  -0.106   1.284  0.00  0.00    +0.000 C 
ATOM     22  C   UNL     1      -4.744  -0.044  -1.130  0.00  0.00    +0.000 C 
ATOM     23  C   UNL     1      -5.381  -0.270   0.090  0.00  0.00    +0.000 C 
ENDBRANCH   6  18
BRANCH  10  24
ATOM     24  C   UNL     1       4.472   0.074  -0.158  0.00  0.00    +0.120 C 
BRANCH  24  25
ATOM     25  C   UNL     1       4.970  -1.357  -0.246  0.00  0.00    +0.158 C 
BRANCH  25  26
ATOM     26  O   UNL     1       4.551  -2.074   0.908  0.00  0.00    -0.380 OA
ATOM     27  H   UNL     1       4.869  -2.989   0.854  0.00  0.00    +0.211 HD
ENDBRANCH  25  26
ENDBRANCH  24  25
ENDBRANCH  10  24
TORSDOF 5
