REMARK  Name = 449003
REMARK  4 active torsions:
REMARK  status: ('A' for Active; 'I' for Inactive)
REMARK    1  A    between atoms: C_2  and  C_12
REMARK    2  A    between atoms: C_3  and  S_20
REMARK    3  A    between atoms: C_4  and  N_17
REMARK    4  A    between atoms: S_20  and  C_23
REMARK                            x       y       z     vdW  Elec       q    Type
REMARK                         _______ _______ _______ _____ _____    ______ ____
ROOT
ATOM      1  F   UNL     1       3.092   2.595  -0.592  0.00  0.00    -0.204 F 
ATOM      2  C   UNL     1      -0.724   1.284   0.293  0.00  0.00    +0.067 C 
ATOM      3  C   UNL     1       1.665   1.116   0.610  0.00  0.00    +0.060 C 
ATOM      4  C   UNL     1      -0.531   2.327  -0.613  0.00  0.00    +0.048 C 
ATOM      5  C   UNL     1       0.374   0.678   0.904  0.00  0.00    +0.015 C 
ATOM      6  C   UNL     1       1.859   2.159  -0.296  0.00  0.00    +0.147 C 
ATOM      7  C   UNL     1       0.761   2.765  -0.907  0.00  0.00    +0.044 C 
ENDROOT
BRANCH   2  12
ATOM      8  S   UNL     1      -4.060  -2.098  -1.230  0.00  0.00    -0.051 S 
ATOM      9  O   UNL     1      -2.655   1.309   1.585  0.00  0.00    -0.270 OA
ATOM     10  N   UNL     1      -2.546  -0.229  -0.190  0.00  0.00    -0.261 N 
ATOM     11  N   UNL     1      -4.697  -0.647   0.812  0.00  0.00    -0.222 NA
ATOM     12  C   UNL     1      -2.060   0.804   0.621  0.00  0.00    +0.252 C 
ATOM     13  C   UNL     1      -3.777  -0.881  -0.072  0.00  0.00    +0.166 C 
ATOM     14  C   UNL     1      -5.585  -2.373  -0.495  0.00  0.00    +0.059 C 
ATOM     15  C   UNL     1      -5.747  -1.511   0.569  0.00  0.00    +0.108 C 
ATOM     16  H   UNL     1      -1.958  -0.527  -0.921  0.00  0.00    +0.157 HD
ENDBRANCH   2  12
BRANCH   4  17
ATOM     17  N   UNL     1      -1.629   2.954  -1.243  0.00  0.00    -0.357 N 
ATOM     18  H   UNL     1      -2.546   2.655  -1.045  0.00  0.00    +0.142 HD
ATOM     19  H   UNL     1      -1.477   3.689  -1.880  0.00  0.00    +0.142 HD
ENDBRANCH   4  17
BRANCH   3  20
ATOM     20  S   UNL     1       3.063   0.336   1.396  0.00  0.00    -0.050 S 
BRANCH  20  23
ATOM     21  N   UNL     1       4.351  -1.820   0.346  0.00  0.00    -0.263 N 
ATOM     22  N   UNL     1       2.649  -1.087  -0.878  0.00  0.00    -0.221 NA
ATOM     23  C   UNL     1       3.352  -0.931   0.194  0.00  0.00    +0.167 C 
ATOM     24  C   UNL     1       4.291  -2.643  -0.743  0.00  0.00    +0.088 C 
ATOM     25  C   UNL     1       5.318  -1.936   1.414  0.00  0.00    +0.119 C 
ATOM     26  C   UNL     1       3.233  -2.171  -1.484  0.00  0.00    +0.117 C 
ENDBRANCH  20  23
ENDBRANCH   3  20
TORSDOF 4
