REMARK  Name = 5289293
REMARK  9 active torsions:
REMARK  status: ('A' for Active; 'I' for Inactive)
REMARK    1  A    between atoms: P_1  and  O_3
REMARK    2  A    between atoms: P_1  and  O_5
REMARK    3  A    between atoms: P_1  and  C_14
REMARK    4  A    between atoms: O_5  and  C_6
REMARK    5  A    between atoms: C_6  and  C_9
REMARK    6  A    between atoms: C_14  and  C_15
REMARK    7  A    between atoms: C_15  and  C_16
REMARK    8  A    between atoms: C_16  and  C_17
REMARK    9  A    between atoms: C_17  and  C_18
REMARK                            x       y       z     vdW  Elec       q    Type
REMARK                         _______ _______ _______ _____ _____    ______ ____
ROOT
ATOM      1  P   UNL     1       0.472   2.044   0.030  0.00  0.00    +0.340 P 
ATOM      2  O   UNL     1       0.781   3.073   1.064  0.00  0.00    -0.258 OA
ENDROOT
BRANCH   1   3
ATOM      3  O   UNL     1      -0.359   2.584  -1.241  0.00  0.00    -0.323 OA
ATOM      4  H   UNL     1      -1.188   2.985  -0.938  0.00  0.00    +0.220 HD
ENDBRANCH   1   3
BRANCH   1   5
ATOM      5  O   UNL     1      -0.358   0.768   0.556  0.00  0.00    -0.292 OA
BRANCH   5   6
ATOM      6  C   UNL     1      -0.805  -0.241  -0.332  0.00  0.00    +0.183 C 
BRANCH   6   9
ATOM      7  O   UNL     1      -3.126   0.134   0.247  0.00  0.00    -0.332 OA
ATOM      8  O   UNL     1      -4.033  -1.976  -0.249  0.00  0.00    -0.332 OA
ATOM      9  C   UNL     1      -2.083  -0.844   0.212  0.00  0.00    +0.177 C 
ATOM     10  C   UNL     1      -4.341  -0.626   0.138  0.00  0.00    +0.187 C 
ATOM     11  C   UNL     1      -2.666  -1.931  -0.659  0.00  0.00    +0.177 C 
ATOM     12  C   UNL     1      -5.220   0.015  -0.928  0.00  0.00    +0.061 C 
ATOM     13  C   UNL     1      -5.041  -0.654   1.490  0.00  0.00    +0.061 C 
ENDBRANCH   6   9
ENDBRANCH   5   6
ENDBRANCH   1   5
BRANCH   1  14
ATOM     14  C   UNL     1       1.956   1.346  -0.729  0.00  0.00    +0.116 C 
BRANCH  14  15
ATOM     15  C   UNL     1       2.885   0.659   0.264  0.00  0.00    +0.013 C 
BRANCH  15  16
ATOM     16  C   UNL     1       4.099   0.028  -0.420  0.00  0.00    +0.005 C 
BRANCH  16  17
ATOM     17  C   UNL     1       5.027  -0.634   0.601  0.00  0.00    +0.026 C 
BRANCH  17  18
ATOM     18  C   UNL     1       6.234  -1.227  -0.064  0.00  0.00    -0.026 C 
ATOM     19  C   UNL     1       6.577  -2.518   0.020  0.00  0.00    -0.005 C 
ENDBRANCH  17  18
ENDBRANCH  16  17
ENDBRANCH  15  16
ENDBRANCH  14  15
ENDBRANCH   1  14
TORSDOF 9
