REMARK  Name = 440483
REMARK  5 active torsions:
REMARK  status: ('A' for Active; 'I' for Inactive)
REMARK    1  A    between atoms: C_1  and  C_6
REMARK    2  A    between atoms: C_1  and  C_14
REMARK    3  A    between atoms: C_14  and  C_15
REMARK    4  A    between atoms: C_17  and  O_22
REMARK    5  A    between atoms: C_19  and  O_24
REMARK                            x       y       z     vdW  Elec       q    Type
REMARK                         _______ _______ _______ _____ _____    ______ ____
ROOT
ATOM      1  C   UNL     1       0.248   0.599  -1.034  0.00  0.00    +0.012 C 
ENDROOT
BRANCH   1   6
ATOM      2  O   UNL     1      -4.823  -1.766   1.153  0.00  0.00    -0.296 OA
ATOM      3  O   UNL     1      -0.743   2.960   0.075  0.00  0.00    -0.296 OA
ATOM      4  C   UNL     1      -1.931  -0.355  -0.176  0.00  0.00    +0.014 C 
ATOM      5  C   UNL     1      -3.459  -0.161  -0.063  0.00  0.00    +0.052 C 
ATOM      6  C   UNL     1      -1.260   0.803  -0.911  0.00  0.00    +0.058 C 
ATOM      7  C   UNL     1      -1.773  -1.773  -0.715  0.00  0.00    +0.009 C 
ATOM      8  C   UNL     1      -3.702   1.032   0.859  0.00  0.00    +0.015 C 
ATOM      9  C   UNL     1      -3.818  -1.525   0.498  0.00  0.00    +0.150 C 
ATOM     10  C   UNL     1      -2.784  -2.571   0.120  0.00  0.00    +0.065 C 
ATOM     11  C   UNL     1      -3.031   2.297   0.315  0.00  0.00    +0.065 C 
ATOM     12  C   UNL     1      -1.584   2.081  -0.121  0.00  0.00    +0.150 C 
ATOM     13  C   UNL     1      -4.219  -0.011  -1.392  0.00  0.00    +0.007 C 
ENDBRANCH   1   6
BRANCH   1  14
ATOM     14  C   UNL     1       0.896   0.429   0.339  0.00  0.00    +0.030 C 
BRANCH  14  15
ATOM     15  C   UNL     1       2.382   0.206   0.224  0.00  0.00    +0.011 C 
ATOM     16  C   UNL     1       3.245   1.295   0.232  0.00  0.00    -0.023 C 
ATOM     17  C   UNL     1       2.870  -1.089   0.110  0.00  0.00    +0.163 C 
ATOM     18  C   UNL     1       4.620   1.084   0.126  0.00  0.00    -0.001 C 
ATOM     19  C   UNL     1       4.245  -1.300   0.003  0.00  0.00    +0.167 C 
ATOM     20  C   UNL     1       2.735   2.693   0.354  0.00  0.00    +0.031 C 
ATOM     21  C   UNL     1       5.120  -0.213   0.011  0.00  0.00    +0.039 C 
BRANCH  17  22
ATOM     22  O   UNL     1       2.020  -2.155   0.101  0.00  0.00    -0.503 OA
ATOM     23  H   UNL     1       1.096  -2.018   0.172  0.00  0.00    +0.292 HD
ENDBRANCH  17  22
BRANCH  19  24
ATOM     24  O   UNL     1       4.747  -2.561  -0.110  0.00  0.00    -0.503 OA
ATOM     25  H   UNL     1       4.167  -3.297  -0.116  0.00  0.00    +0.292 HD
ENDBRANCH  19  24
ENDBRANCH  14  15
ENDBRANCH   1  14
TORSDOF 5
