1788
  -OEChem-10051721263D

 45 47  0     0  0  0  0  0  0999 V2000
   -1.9107    2.6925   -0.8558 Cl  0  0  0  0  0  0  0  0  0  0  0  0
   -0.8276   -0.0648   -1.3641 O   0  0  0  0  0  0  0  0  0  0  0  0
    7.0488   -1.0223   -0.3932 O   0  0  0  0  0  0  0  0  0  0  0  0
   -6.7247   -1.1884    0.5562 O   0  0  0  0  0  0  0  0  0  0  0  0
   -6.8498    1.0886    0.7220 N   0  0  0  0  0  0  0  0  0  0  0  0
    8.2843   -0.3926   -0.4847 N   0  0  0  0  0  0  0  0  0  0  0  0
    2.5263   -0.8654    0.1283 C   0  0  0  0  0  0  0  0  0  0  0  0
    3.9186   -0.2707   -0.0900 C   0  0  0  0  0  0  0  0  0  0  0  0
    1.4798   -0.1596   -0.7313 C   0  0  0  0  0  0  0  0  0  0  0  0
    4.9616   -0.9569    0.7967 C   0  0  0  0  0  0  0  0  0  0  0  0
    0.0985   -0.7734   -0.5521 C   0  0  0  0  0  0  0  0  0  0  0  0
    6.3421   -0.3986    0.5596 C   0  0  0  0  0  0  0  0  0  0  0  0
   -2.1254   -0.0179   -0.9254 C   0  0  0  0  0  0  0  0  0  0  0  0
    7.0210    0.6146    1.1204 C   0  0  0  0  0  0  0  0  0  0  0  0
   -4.7617    0.0165   -0.0366 C   0  0  0  0  0  0  0  0  0  0  0  0
   -6.1547    0.0341    0.4334 C   0  0  0  0  0  0  0  0  0  0  0  0
    8.2442    0.5815    0.4287 C   0  0  0  0  0  0  0  0  0  0  0  0
   -2.7460    1.1969   -0.6536 C   0  0  0  0  0  0  0  0  0  0  0  0
   -2.8125   -1.2159   -0.7565 C   0  0  0  0  0  0  0  0  0  0  0  0
   -4.0677    1.2143   -0.2081 C   0  0  0  0  0  0  0  0  0  0  0  0
   -4.1341   -1.1987   -0.3107 C   0  0  0  0  0  0  0  0  0  0  0  0
   -8.0951   -0.9184    0.8055 C   0  0  0  0  0  0  0  0  0  0  0  0
   -8.1222    0.5390    1.2022 C   0  0  0  0  0  0  0  0  0  0  0  0
    9.4070    1.4655    0.6091 C   0  0  0  0  0  0  0  0  0  0  0  0
    2.2504   -0.7788    1.1863 H   0  0  0  0  0  0  0  0  0  0  0  0
    2.5431   -1.9347   -0.1153 H   0  0  0  0  0  0  0  0  0  0  0  0
    4.2016   -0.3751   -1.1453 H   0  0  0  0  0  0  0  0  0  0  0  0
    3.8995    0.8049    0.1268 H   0  0  0  0  0  0  0  0  0  0  0  0
    1.7621   -0.2073   -1.7905 H   0  0  0  0  0  0  0  0  0  0  0  0
    1.4397    0.9075   -0.4793 H   0  0  0  0  0  0  0  0  0  0  0  0
    4.6998   -0.8244    1.8535 H   0  0  0  0  0  0  0  0  0  0  0  0
    4.9704   -2.0363    0.6019 H   0  0  0  0  0  0  0  0  0  0  0  0
    0.1106   -1.8248   -0.8614 H   0  0  0  0  0  0  0  0  0  0  0  0
   -0.1903   -0.7222    0.5058 H   0  0  0  0  0  0  0  0  0  0  0  0
    6.7030    1.2844    1.9053 H   0  0  0  0  0  0  0  0  0  0  0  0
   -2.3398   -2.1694   -0.9751 H   0  0  0  0  0  0  0  0  0  0  0  0
   -8.6643   -1.1062   -0.1109 H   0  0  0  0  0  0  0  0  0  0  0  0
   -8.4737   -1.5699    1.5984 H   0  0  0  0  0  0  0  0  0  0  0  0
   -8.9771    1.0600    0.7609 H   0  0  0  0  0  0  0  0  0  0  0  0
   -8.1783    0.6521    2.2906 H   0  0  0  0  0  0  0  0  0  0  0  0
   -4.5504    2.1657    0.0039 H   0  0  0  0  0  0  0  0  0  0  0  0
   -4.6442   -2.1503   -0.1905 H   0  0  0  0  0  0  0  0  0  0  0  0
    9.2238    2.2104    1.3904 H   0  0  0  0  0  0  0  0  0  0  0  0
    9.6335    2.0017   -0.3183 H   0  0  0  0  0  0  0  0  0  0  0  0
   10.2914    0.8881    0.8976 H   0  0  0  0  0  0  0  0  0  0  0  0
  1 18  1  0  0  0  0
  2 11  1  0  0  0  0
  2 13  1  0  0  0  0
  3  6  1  0  0  0  0
  3 12  1  0  0  0  0
  4 16  1  0  0  0  0
  4 22  1  0  0  0  0
  5 16  2  0  0  0  0
  5 23  1  0  0  0  0
  6 17  2  0  0  0  0
  7  8  1  0  0  0  0
  7  9  1  0  0  0  0
  7 25  1  0  0  0  0
  7 26  1  0  0  0  0
  8 10  1  0  0  0  0
  8 27  1  0  0  0  0
  8 28  1  0  0  0  0
  9 11  1  0  0  0  0
  9 29  1  0  0  0  0
  9 30  1  0  0  0  0
 10 12  1  0  0  0  0
 10 31  1  0  0  0  0
 10 32  1  0  0  0  0
 11 33  1  0  0  0  0
 11 34  1  0  0  0  0
 12 14  2  0  0  0  0
 13 18  2  0  0  0  0
 13 19  1  0  0  0  0
 14 17  1  0  0  0  0
 14 35  1  0  0  0  0
 15 16  1  0  0  0  0
 15 20  2  0  0  0  0
 15 21  1  0  0  0  0
 17 24  1  0  0  0  0
 18 20  1  0  0  0  0
 19 21  2  0  0  0  0
 19 36  1  0  0  0  0
 20 41  1  0  0  0  0
 21 42  1  0  0  0  0
 22 23  1  0  0  0  0
 22 37  1  0  0  0  0
 22 38  1  0  0  0  0
 23 39  1  0  0  0  0
 23 40  1  0  0  0  0
 24 43  1  0  0  0  0
 24 44  1  0  0  0  0
 24 45  1  0  0  0  0
M  END
> <DATABASE_ID>
DB08719

> <DATABASE_NAME>
drugbank

> <ORIGINAL_SOURCE>
PUBCHEM

> <ORIGINAL_SOURCE_URL>
https://pubchem.ncbi.nlm.nih.gov/rest/pug/compound/inchikey/FCSKOFQQCWLGMV-UHFFFAOYSA-N/SDF?record_type=3d

> <SMILES>
CC1=NOC(CCCCCOC2=CC=C(C=C2Cl)C2=NCCO2)=C1

> <INCHI_IDENTIFIER>
InChI=1S/C18H21ClN2O3/c1-13-11-15(24-21-13)5-3-2-4-9-22-17-7-6-14(12-16(17)19)18-20-8-10-23-18/h6-7,11-12H,2-5,8-10H2,1H3

> <INCHI_KEY>
FCSKOFQQCWLGMV-UHFFFAOYSA-N

> <FORMULA>
C18H21ClN2O3

> <MOLECULAR_WEIGHT>
348.824

> <EXACT_MASS>
348.124070255

> <JCHEM_ACCEPTOR_COUNT>
3

> <JCHEM_AVERAGE_POLARIZABILITY>
38.421093977410784

> <JCHEM_BIOAVAILABILITY>
1

> <JCHEM_DONOR_COUNT>
0

> <JCHEM_FORMAL_CHARGE>
0

> <JCHEM_GHOSE_FILTER>
1

> <JCHEM_IUPAC>
5-{5-[2-chloro-4-(4,5-dihydro-1,3-oxazol-2-yl)phenoxy]pentyl}-3-methyl-1,2-oxazole

> <ALOGPS_LOGP>
4.48

> <JCHEM_LOGP>
3.8616917093333334

> <ALOGPS_LOGS>
-4.31

> <JCHEM_MDDR_LIKE_RULE>
1

> <JCHEM_NUMBER_OF_RINGS>
3

> <JCHEM_PHYSIOLOGICAL_CHARGE>
0

> <JCHEM_PKA_STRONGEST_BASIC>
3.2897958647718113

> <JCHEM_POLAR_SURFACE_AREA>
56.85000000000001

> <JCHEM_REFRACTIVITY>
93.8406

> <JCHEM_ROTATABLE_BOND_COUNT>
8

> <JCHEM_RULE_OF_FIVE>
1

> <ALOGPS_SOLUBILITY>
1.72e-02 g/l

> <JCHEM_TRADITIONAL_IUPAC>
compound VII

> <JCHEM_VEBER_RULE>
0

> <DRUGBANK_ID>
DB08719

> <DRUG_GROUPS>
experimental

> <GENERIC_NAME>
5-(5-(6-CHLORO-4-(4,5-DIHYDRO-2-OXAZOLYL)PHENOXY)PENTYL)-3-METHYL ISOXAZOLE

$$$$
