24812721
  -OEChem-10051721233D

 51 54  0     0  0  0  0  0  0999 V2000
   -5.3421   -1.9387   -0.0205 O   0  0  0  0  0  0  0  0  0  0  0  0
    5.2306   -1.6780   -2.0399 O   0  0  0  0  0  0  0  0  0  0  0  0
    4.5443    1.3575    2.3283 O   0  0  0  0  0  0  0  0  0  0  0  0
   -1.3734    0.3330    0.1739 N   0  0  0  0  0  0  0  0  0  0  0  0
    3.3551   -0.6392   -0.1834 N   0  0  0  0  0  0  0  0  0  0  0  0
    4.6334    2.5592    0.3772 N   0  0  0  0  0  0  0  0  0  0  0  0
   -1.9873   -0.8211    0.5666 C   0  0  0  0  0  0  0  0  0  0  0  0
   -3.2833   -0.8092    0.0972 C   0  0  0  0  0  0  0  0  0  0  0  0
   -1.3459   -1.8971    1.3646 C   0  0  0  0  0  0  0  0  0  0  0  0
   -2.4439   -2.7160    2.0607 C   0  0  0  0  0  0  0  0  0  0  0  0
   -3.4718    0.4139   -0.6069 C   0  0  0  0  0  0  0  0  0  0  0  0
   -2.2583    1.1093   -0.5434 C   0  0  0  0  0  0  0  0  0  0  0  0
   -3.5683   -3.1211    1.0957 C   0  0  0  0  0  0  0  0  0  0  0  0
   -4.1767   -1.9237    0.3658 C   0  0  0  0  0  0  0  0  0  0  0  0
   -0.0452    0.6772    0.4475 C   0  0  0  0  0  0  0  0  0  0  0  0
   -4.5507    1.0056   -1.2961 C   0  0  0  0  0  0  0  0  0  0  0  0
   -2.0754    2.3647   -1.1351 C   0  0  0  0  0  0  0  0  0  0  0  0
    0.9933   -0.1405    0.0019 C   0  0  0  0  0  0  0  0  0  0  0  0
    0.2402    1.8377    1.1669 C   0  0  0  0  0  0  0  0  0  0  0  0
   -4.3803    2.2607   -1.8917 C   0  0  0  0  0  0  0  0  0  0  0  0
   -3.1606    2.9280   -1.8113 C   0  0  0  0  0  0  0  0  0  0  0  0
    2.3173    0.2025    0.2756 C   0  0  0  0  0  0  0  0  0  0  0  0
    2.6029    1.3629    0.9951 C   0  0  0  0  0  0  0  0  0  0  0  0
    1.5642    2.1805    1.4406 C   0  0  0  0  0  0  0  0  0  0  0  0
    3.1103   -1.8375   -0.9225 C   0  0  0  0  0  0  0  0  0  0  0  0
    3.9754    1.7496    1.2964 C   0  0  0  0  0  0  0  0  0  0  0  0
    4.4247   -2.5315   -1.2372 C   0  0  0  0  0  0  0  0  0  0  0  0
    6.4715   -2.2886   -2.3661 C   0  0  0  0  0  0  0  0  0  0  0  0
   -0.6684   -1.4962    2.1260 H   0  0  0  0  0  0  0  0  0  0  0  0
   -0.7682   -2.5533    0.7035 H   0  0  0  0  0  0  0  0  0  0  0  0
   -2.0049   -3.6096    2.5184 H   0  0  0  0  0  0  0  0  0  0  0  0
   -2.8758   -2.1174    2.8739 H   0  0  0  0  0  0  0  0  0  0  0  0
   -3.1871   -3.8168    0.3395 H   0  0  0  0  0  0  0  0  0  0  0  0
   -4.3633   -3.6246    1.6565 H   0  0  0  0  0  0  0  0  0  0  0  0
   -5.5096    0.5007   -1.3704 H   0  0  0  0  0  0  0  0  0  0  0  0
   -1.1299    2.8942   -1.0929 H   0  0  0  0  0  0  0  0  0  0  0  0
    0.7449   -1.0286   -0.5722 H   0  0  0  0  0  0  0  0  0  0  0  0
   -0.5547    2.4819    1.5349 H   0  0  0  0  0  0  0  0  0  0  0  0
   -5.2103    2.7179   -2.4237 H   0  0  0  0  0  0  0  0  0  0  0  0
   -3.0491    3.9007   -2.2837 H   0  0  0  0  0  0  0  0  0  0  0  0
    1.7735    3.0859    2.0047 H   0  0  0  0  0  0  0  0  0  0  0  0
    4.3105   -0.3632    0.0120 H   0  0  0  0  0  0  0  0  0  0  0  0
    2.4830   -2.5303   -0.3500 H   0  0  0  0  0  0  0  0  0  0  0  0
    2.6075   -1.5974   -1.8670 H   0  0  0  0  0  0  0  0  0  0  0  0
    4.9586   -2.7726   -0.3098 H   0  0  0  0  0  0  0  0  0  0  0  0
    4.2251   -3.4626   -1.7802 H   0  0  0  0  0  0  0  0  0  0  0  0
    5.5918    2.8532    0.5328 H   0  0  0  0  0  0  0  0  0  0  0  0
    4.1857    2.8816   -0.4749 H   0  0  0  0  0  0  0  0  0  0  0  0
    6.3089   -3.2071   -2.9381 H   0  0  0  0  0  0  0  0  0  0  0  0
    7.0467   -1.5917   -2.9816 H   0  0  0  0  0  0  0  0  0  0  0  0
    7.0428   -2.5055   -1.4583 H   0  0  0  0  0  0  0  0  0  0  0  0
  1 14  2  0  0  0  0
  2 27  1  0  0  0  0
  2 28  1  0  0  0  0
  3 26  2  0  0  0  0
  4  7  1  0  0  0  0
  4 12  1  0  0  0  0
  4 15  1  0  0  0  0
  5 22  1  0  0  0  0
  5 25  1  0  0  0  0
  5 42  1  0  0  0  0
  6 26  1  0  0  0  0
  6 47  1  0  0  0  0
  6 48  1  0  0  0  0
  7  8  2  0  0  0  0
  7  9  1  0  0  0  0
  8 11  1  0  0  0  0
  8 14  1  0  0  0  0
  9 10  1  0  0  0  0
  9 29  1  0  0  0  0
  9 30  1  0  0  0  0
 10 13  1  0  0  0  0
 10 31  1  0  0  0  0
 10 32  1  0  0  0  0
 11 12  1  0  0  0  0
 11 16  2  0  0  0  0
 12 17  2  0  0  0  0
 13 14  1  0  0  0  0
 13 33  1  0  0  0  0
 13 34  1  0  0  0  0
 15 18  2  0  0  0  0
 15 19  1  0  0  0  0
 16 20  1  0  0  0  0
 16 35  1  0  0  0  0
 17 21  1  0  0  0  0
 17 36  1  0  0  0  0
 18 22  1  0  0  0  0
 18 37  1  0  0  0  0
 19 24  2  0  0  0  0
 19 38  1  0  0  0  0
 20 21  2  0  0  0  0
 20 39  1  0  0  0  0
 21 40  1  0  0  0  0
 22 23  2  0  0  0  0
 23 24  1  0  0  0  0
 23 26  1  0  0  0  0
 24 41  1  0  0  0  0
 25 27  1  0  0  0  0
 25 43  1  0  0  0  0
 25 44  1  0  0  0  0
 27 45  1  0  0  0  0
 27 46  1  0  0  0  0
 28 49  1  0  0  0  0
 28 50  1  0  0  0  0
 28 51  1  0  0  0  0
M  END
> <DATABASE_ID>
DB08557

> <DATABASE_NAME>
drugbank

> <ORIGINAL_SOURCE>
PUBCHEM

> <ORIGINAL_SOURCE_URL>
https://pubchem.ncbi.nlm.nih.gov/rest/pug/compound/inchikey/XQKFKSJUBJPOLY-UHFFFAOYSA-N/SDF?record_type=3d

> <SMILES>
COCCNC1=CC(=CC=C1C(N)=O)N1C2=C(C3=CC=CC=C13)C(=O)CCC2

> <INCHI_IDENTIFIER>
InChI=1S/C22H23N3O3/c1-28-12-11-24-17-13-14(9-10-15(17)22(23)27)25-18-6-3-2-5-16(18)21-19(25)7-4-8-20(21)26/h2-3,5-6,9-10,13,24H,4,7-8,11-12H2,1H3,(H2,23,27)

> <INCHI_KEY>
XQKFKSJUBJPOLY-UHFFFAOYSA-N

> <FORMULA>
C22H23N3O3

> <MOLECULAR_WEIGHT>
377.4363

> <EXACT_MASS>
377.173941617

> <JCHEM_ACCEPTOR_COUNT>
4

> <JCHEM_AVERAGE_POLARIZABILITY>
41.99371663356624

> <JCHEM_BIOAVAILABILITY>
1

> <JCHEM_DONOR_COUNT>
2

> <JCHEM_FORMAL_CHARGE>
0

> <JCHEM_GHOSE_FILTER>
1

> <JCHEM_IUPAC>
2-[(2-methoxyethyl)amino]-4-(4-oxo-2,3,4,9-tetrahydro-1H-carbazol-9-yl)benzamide

> <ALOGPS_LOGP>
3.09

> <JCHEM_LOGP>
1.8861

> <ALOGPS_LOGS>
-4.44

> <JCHEM_MDDR_LIKE_RULE>
1

> <JCHEM_NUMBER_OF_RINGS>
4

> <JCHEM_PHYSIOLOGICAL_CHARGE>
0

> <JCHEM_PKA>
16.169822362719913

> <JCHEM_PKA_STRONGEST_ACIDIC>
15.320055036860758

> <JCHEM_PKA_STRONGEST_BASIC>
2.2812736469989066

> <JCHEM_POLAR_SURFACE_AREA>
86.35

> <JCHEM_REFRACTIVITY>
120.754

> <JCHEM_ROTATABLE_BOND_COUNT>
6

> <JCHEM_RULE_OF_FIVE>
1

> <ALOGPS_SOLUBILITY>
1.36e-02 g/l

> <JCHEM_TRADITIONAL_IUPAC>
2-[(2-methoxyethyl)amino]-4-(4-oxo-2,3-dihydro-1H-carbazol-9-yl)benzamide

> <JCHEM_VEBER_RULE>
0

> <DRUGBANK_ID>
DB08557

> <DRUG_GROUPS>
experimental

> <GENERIC_NAME>
2-[(2-methoxyethyl)amino]-4-(4-oxo-1,2,3,4-tetrahydro-9H-carbazol-9-yl)benzamide

$$$$
