REMARK  Name = 54708746
REMARK  4 active torsions:
REMARK  status: ('A' for Active; 'I' for Inactive)
REMARK    1  A    between atoms: C_10  and  C_15
REMARK    2  A    between atoms: C_11  and  O_13
REMARK    3  A    between atoms: C_15  and  C_16
REMARK    4  A    between atoms: C_15  and  C_22
REMARK                            x       y       z     vdW  Elec       q    Type
REMARK                         _______ _______ _______ _____ _____    ______ ____
ROOT
ATOM      1  O   UNL     1      -1.718   1.552  -1.129  0.00  0.00    -0.426 OA
ATOM      2  O   UNL     1       0.203   2.684  -1.492  0.00  0.00    -0.245 OA
ATOM      3  C   UNL     1      -1.779  -0.433   0.238  0.00  0.00    +0.042 A 
ATOM      4  C   UNL     1      -2.391  -1.720   0.765  0.00  0.00    +0.032 C 
ATOM      5  C   UNL     1      -3.540  -2.321  -0.046  0.00  0.00    +0.005 C 
ATOM      6  C   UNL     1      -4.878  -1.617   0.143  0.00  0.00    +0.001 C 
ATOM      7  C   UNL     1      -4.822  -0.095   0.088  0.00  0.00    +0.008 C 
ATOM      8  C   UNL     1      -3.863   0.448  -0.967  0.00  0.00    +0.064 C 
ATOM      9  C   UNL     1      -2.408   0.446  -0.569  0.00  0.00    +0.125 A 
ATOM     10  C   UNL     1       0.297   0.866   0.025  0.00  0.00    +0.091 A 
ATOM     11  C   UNL     1      -0.386  -0.150   0.578  0.00  0.00    +0.135 A 
ATOM     12  C   UNL     1      -0.389   1.768  -0.930  0.00  0.00    +0.345 A 
ENDROOT
BRANCH  11  13
ATOM     13  O   UNL     1       0.227  -0.951   1.528  0.00  0.00    -0.506 OA
ATOM     14  H   UNL     1      -0.245  -1.661   1.917  0.00  0.00    +0.292 HD
ENDBRANCH  11  13
BRANCH  10  15
ATOM     15  C   UNL     1       1.730   1.192   0.330  0.00  0.00    +0.054 C 
BRANCH  15  16
ATOM     16  C   UNL     1       2.644   0.045  -0.064  0.00  0.00    -0.018 C 
ATOM     17  C   UNL     1       3.114  -0.053  -1.374  0.00  0.00    -0.004 C 
ATOM     18  C   UNL     1       3.014  -0.909   0.883  0.00  0.00    -0.004 C 
ATOM     19  C   UNL     1       3.953  -1.107  -1.736  0.00  0.00    -0.000 C 
ATOM     20  C   UNL     1       3.853  -1.963   0.521  0.00  0.00    -0.000 C 
ATOM     21  C   UNL     1       4.323  -2.062  -0.788  0.00  0.00    -0.000 C 
ENDBRANCH  15  16
BRANCH  15  22
ATOM     22  C   UNL     1       1.871   1.614   1.808  0.00  0.00    +0.009 C 
ATOM     23  C   UNL     1       0.948   2.766   2.189  0.00  0.00    +0.001 C 
ENDBRANCH  15  22
ENDBRANCH  10  15
TORSDOF 4
