REMARK  Name = 46937117
REMARK  6 active torsions:
REMARK  status: ('A' for Active; 'I' for Inactive)
REMARK    1  A    between atoms: N_1  and  C_21
REMARK    2  A    between atoms: C_4  and  C_9
REMARK    3  A    between atoms: C_9  and  C_12
REMARK    4  A    between atoms: C_9  and  C_20
REMARK    5  A    between atoms: C_21  and  C_22
REMARK    6  A    between atoms: C_22  and  C_24
REMARK                            x       y       z     vdW  Elec       q    Type
REMARK                         _______ _______ _______ _____ _____    ______ ____
ROOT
ATOM      1  N   UNL     1       3.284   0.942   0.901  0.00  0.00    -0.268 N 
ATOM      2  N   UNL     1       1.879  -0.843   0.314  0.00  0.00    -0.341 NA
ATOM      3  N   UNL     1       3.788  -0.273  -1.042  0.00  0.00    -0.170 NA
ATOM      4  C   UNL     1       1.606  -1.839  -0.555  0.00  0.00    +0.144 C 
ATOM      5  C   UNL     1       2.968  -0.110   0.014  0.00  0.00    +0.144 C 
ATOM      6  C   UNL     1       2.367  -2.110  -1.674  0.00  0.00    +0.052 C 
ATOM      7  C   UNL     1       3.457  -1.287  -1.869  0.00  0.00    +0.114 C 
ATOM      8  H   UNL     1       4.074   1.497   0.710  0.00  0.00    +0.159 HD
ENDROOT
BRANCH   4   9
ATOM      9  C   UNL     1       0.371  -2.704  -0.251  0.00  0.00    +0.202 C 
BRANCH   9  12
ATOM     10  S   UNL     1      -1.744  -1.676  -1.683  0.00  0.00    -0.056 S 
ATOM     11  N   UNL     1      -1.409  -1.399   0.860  0.00  0.00    -0.402 NA
ATOM     12  C   UNL     1      -0.887  -1.926  -0.224  0.00  0.00    +0.159 C 
ATOM     13  C   UNL     1      -2.935  -0.779  -0.818  0.00  0.00    +0.057 C 
ATOM     14  C   UNL     1      -2.585  -0.738   0.535  0.00  0.00    +0.120 C 
ATOM     15  C   UNL     1      -4.097  -0.156  -1.302  0.00  0.00    +0.008 C 
ATOM     16  C   UNL     1      -3.428  -0.049   1.433  0.00  0.00    +0.085 C 
ATOM     17  C   UNL     1      -4.915   0.519  -0.392  0.00  0.00    -0.004 C 
ATOM     18  C   UNL     1      -4.586   0.573   0.958  0.00  0.00    -0.019 C 
ENDBRANCH   9  12
BRANCH   9  20
ATOM     19  N   UNL     1       0.797  -4.216   1.893  0.00  0.00    -0.195 NA
ATOM     20  C   UNL     1       0.596  -3.561   0.956  0.00  0.00    +0.087 C 
ENDBRANCH   9  20
ENDBRANCH   4   9
BRANCH   1  21
ATOM     21  C   UNL     1       2.506   1.235   2.063  0.00  0.00    +0.103 C 
BRANCH  21  22
ATOM     22  C   UNL     1       1.888   2.629   1.970  0.00  0.00    +0.050 C 
BRANCH  22  24
ATOM     23  N   UNL     1      -1.185   2.654  -0.247  0.00  0.00    -0.243 NA
ATOM     24  C   UNL     1       1.010   2.807   0.755  0.00  0.00    -0.001 C 
ATOM     25  C   UNL     1       1.535   3.267  -0.448  0.00  0.00    -0.001 C 
ATOM     26  C   UNL     1      -0.344   2.518   0.803  0.00  0.00    +0.095 C 
ATOM     27  C   UNL     1       0.702   3.420  -1.550  0.00  0.00    +0.020 C 
ATOM     28  C   UNL     1      -0.639   3.103  -1.399  0.00  0.00    +0.099 C 
ENDBRANCH  22  24
ENDBRANCH  21  22
ENDBRANCH   1  21
TORSDOF 6
