REMARK  Name = 4462
REMARK  4 active torsions:
REMARK  status: ('A' for Active; 'I' for Inactive)
REMARK    1  A    between atoms: C_3  and  C_14
REMARK    2  A    between atoms: C_7  and  O_10
REMARK    3  A    between atoms: C_8  and  O_12
REMARK    4  A    between atoms: C_14  and  C_15
REMARK                            x       y       z     vdW  Elec       q    Type
REMARK                         _______ _______ _______ _____ _____    ______ ____
ROOT
ATOM      1  O   UNL     1      -0.663  -1.912   0.562  0.00  0.00    -0.284 OA
ATOM      2  O   UNL     1       2.322   2.451  -0.029  0.00  0.00    -0.284 OA
ATOM      3  C   UNL     1      -0.569   0.463   0.684  0.00  0.00    +0.024 C 
ATOM      4  C   UNL     1       0.192   1.565   0.551  0.00  0.00    +0.020 C 
ATOM      5  C   UNL     1       0.007  -0.892   0.425  0.00  0.00    +0.229 C 
ATOM      6  C   UNL     1       1.617   1.455   0.117  0.00  0.00    +0.228 C 
ATOM      7  C   UNL     1       1.422  -0.986   0.002  0.00  0.00    +0.214 C 
ATOM      8  C   UNL     1       2.172   0.108  -0.142  0.00  0.00    +0.214 C 
ATOM      9  C   UNL     1      -0.265   2.973   0.827  0.00  0.00    +0.034 C 
ENDROOT
BRANCH   7  10
ATOM     10  O   UNL     1       1.944  -2.241  -0.240  0.00  0.00    -0.465 OA
ATOM     11  C   UNL     1       2.506  -2.785   0.937  0.00  0.00    +0.253 C 
ENDBRANCH   7  10
BRANCH   8  12
ATOM     12  O   UNL     1       3.494   0.053  -0.538  0.00  0.00    -0.465 OA
ATOM     13  C   UNL     1       3.599   0.123  -1.946  0.00  0.00    +0.253 C 
ENDBRANCH   8  12
BRANCH   3  14
ATOM     14  C   UNL     1      -2.023   0.454   1.071  0.00  0.00    +0.055 C 
BRANCH  14  15
ATOM     15  C   UNL     1      -2.910   0.656  -0.117  0.00  0.00    -0.030 C 
ATOM     16  C   UNL     1      -3.889  -0.155  -0.562  0.00  0.00    -0.048 C 
ATOM     17  C   UNL     1      -4.749   0.104  -1.766  0.00  0.00    +0.026 C 
ATOM     18  C   UNL     1      -4.207  -1.436   0.164  0.00  0.00    +0.026 C 
ENDBRANCH  14  15
ENDBRANCH   3  14
TORSDOF 4
