REMARK  Name = 25023709
REMARK  6 active torsions:
REMARK  status: ('A' for Active; 'I' for Inactive)
REMARK    1  A    between atoms: C_3  and  N_22
REMARK    2  A    between atoms: C_4  and  C_13
REMARK    3  A    between atoms: N_10  and  C_16
REMARK    4  A    between atoms: C_16  and  C_17
REMARK    5  A    between atoms: C_17  and  N_18
REMARK    6  A    between atoms: N_22  and  C_26
REMARK                            x       y       z     vdW  Elec       q    Type
REMARK                         _______ _______ _______ _____ _____    ______ ____
ROOT
ATOM      1  F   UNL     1       2.957   1.854  -0.591  0.00  0.00    -0.200 F 
ATOM      2  F   UNL     1       2.226   4.459  -0.278  0.00  0.00    -0.202 F 
ATOM      3  C   UNL     1       0.730   1.145  -0.166  0.00  0.00    +0.083 C 
ATOM      4  C   UNL     1      -0.593   1.471   0.132  0.00  0.00    +0.071 C 
ATOM      5  C   UNL     1       1.682   2.155  -0.304  0.00  0.00    +0.181 C 
ATOM      6  C   UNL     1      -0.964   2.806   0.291  0.00  0.00    +0.008 C 
ATOM      7  C   UNL     1       1.311   3.490  -0.145  0.00  0.00    +0.169 C 
ATOM      8  C   UNL     1      -0.012   3.816   0.152  0.00  0.00    +0.032 C 
ENDROOT
BRANCH   4  13
ATOM      9  O   UNL     1      -2.872   0.807  -0.058  0.00  0.00    -0.405 OA
ATOM     10  N   UNL     1      -4.876  -0.332  -0.048  0.00  0.00    -0.289 N 
ATOM     11  N   UNL     1      -1.504  -0.794   0.696  0.00  0.00    -0.106 NA
ATOM     12  N   UNL     1      -2.782  -1.317   0.637  0.00  0.00    -0.092 NA
ATOM     13  C   UNL     1      -1.604   0.447   0.281  0.00  0.00    +0.252 A 
ATOM     14  C   UNL     1      -3.547  -0.348   0.192  0.00  0.00    +0.309 A 
ATOM     15  H   UNL     1      -5.269   0.506  -0.385  0.00  0.00    +0.151 HD
BRANCH  10  16
ATOM     16  C   UNL     1      -5.776  -1.468   0.154  0.00  0.00    +0.067 C 
BRANCH  16  17
ATOM     17  C   UNL     1      -7.191  -1.080  -0.257  0.00  0.00    -0.064 C 
BRANCH  17  18
ATOM     18  N   UNL     1      -8.100  -2.204  -0.069  0.00  0.00    +0.382 N 
ATOM     19  H   UNL     1      -9.042  -1.930  -0.348  0.00  0.00    -0.089 HD
ATOM     20  H   UNL     1      -8.102  -2.479   0.914  0.00  0.00    -0.089 HD
ATOM     21  H   UNL     1      -7.791  -2.991  -0.640  0.00  0.00    -0.089 HD
ENDBRANCH  17  18
ENDBRANCH  16  17
ENDBRANCH  10  16
ENDBRANCH   4  13
BRANCH   3  22
ATOM     22  N   UNL     1       1.132  -0.201  -0.333  0.00  0.00    -0.309 N 
ATOM     23  H   UNL     1       0.421  -0.786  -0.681  0.00  0.00    +0.152 HD
BRANCH  22  26
ATOM     24  I   UNL     1       6.560  -3.160   0.726  0.00  0.00    -0.042 I 
ATOM     25  F   UNL     1       1.891  -2.410  -1.843  0.00  0.00    -0.203 F 
ATOM     26  C   UNL     1       2.348  -0.865  -0.098  0.00  0.00    +0.076 C 
ATOM     27  C   UNL     1       2.703  -1.971  -0.871  0.00  0.00    +0.154 C 
ATOM     28  C   UNL     1       3.201  -0.417   0.911  0.00  0.00    +0.017 C 
ATOM     29  C   UNL     1       3.910  -2.628  -0.635  0.00  0.00    +0.037 C 
ATOM     30  C   UNL     1       4.408  -1.075   1.147  0.00  0.00    +0.007 C 
ATOM     31  C   UNL     1       4.763  -2.181   0.374  0.00  0.00    +0.032 C 
ENDBRANCH  22  26
ENDBRANCH   3  22
TORSDOF 6
