3000477
  -OEChem-10051721253D

 38 38  0     0  0  0  0  0  0999 V2000
    3.5064    2.5230   -0.2968 Cl  0  0  0  0  0  0  0  0  0  0  0  0
   -4.7918    0.6331    0.1198 S   0  0  0  0  0  0  0  0  0  0  0  0
    1.9192   -1.1780   -0.4562 O   0  0  0  0  0  0  0  0  0  0  0  0
   -2.4906   -0.5805   -0.4838 O   0  0  0  0  0  0  0  0  0  0  0  0
    3.0302   -0.1960    1.3046 O   0  0  0  0  0  0  0  0  0  0  0  0
   -2.3270    1.6678    0.1368 N   0  0  0  0  0  0  0  0  0  0  0  0
    2.7134   -2.3603   -0.3104 C   0  0  0  0  0  0  0  0  0  0  0  0
   -2.9558   -1.9131   -0.1838 C   0  0  0  0  0  0  0  0  0  0  0  0
    1.3003    0.9854    0.1660 C   0  0  0  0  0  0  0  0  0  0  0  0
   -0.9486    1.8591    0.0373 C   0  0  0  0  0  0  0  0  0  0  0  0
   -0.0777    0.7940    0.2674 C   0  0  0  0  0  0  0  0  0  0  0  0
    2.5260   -2.9195    1.0917 C   0  0  0  0  0  0  0  0  0  0  0  0
    2.3153   -3.3661   -1.3797 C   0  0  0  0  0  0  0  0  0  0  0  0
    2.1719   -0.1563    0.4159 C   0  0  0  0  0  0  0  0  0  0  0  0
    1.8073    2.2419   -0.1655 C   0  0  0  0  0  0  0  0  0  0  0  0
   -0.4417    3.1156   -0.2941 C   0  0  0  0  0  0  0  0  0  0  0  0
   -2.0084   -2.9264   -0.8080 C   0  0  0  0  0  0  0  0  0  0  0  0
   -3.0525   -2.0821    1.3248 C   0  0  0  0  0  0  0  0  0  0  0  0
    0.9363    3.3069   -0.3956 C   0  0  0  0  0  0  0  0  0  0  0  0
   -3.1322    0.5513   -0.0906 C   0  0  0  0  0  0  0  0  0  0  0  0
    3.7668   -2.0976   -0.4693 H   0  0  0  0  0  0  0  0  0  0  0  0
   -3.9391   -2.0608   -0.6449 H   0  0  0  0  0  0  0  0  0  0  0  0
   -0.4420   -0.1805    0.5766 H   0  0  0  0  0  0  0  0  0  0  0  0
    2.8562   -3.9635    1.1376 H   0  0  0  0  0  0  0  0  0  0  0  0
    3.1121   -2.3922    1.8479 H   0  0  0  0  0  0  0  0  0  0  0  0
    1.4752   -2.8797    1.4000 H   0  0  0  0  0  0  0  0  0  0  0  0
    2.9274   -4.2715   -1.3252 H   0  0  0  0  0  0  0  0  0  0  0  0
    2.4284   -2.9269   -2.3767 H   0  0  0  0  0  0  0  0  0  0  0  0
    1.2619   -3.6479   -1.2785 H   0  0  0  0  0  0  0  0  0  0  0  0
   -2.3422   -3.9522   -0.6257 H   0  0  0  0  0  0  0  0  0  0  0  0
   -1.9371   -2.7668   -1.8892 H   0  0  0  0  0  0  0  0  0  0  0  0
   -0.9962   -2.8092   -0.4060 H   0  0  0  0  0  0  0  0  0  0  0  0
   -3.3004   -3.1175    1.5817 H   0  0  0  0  0  0  0  0  0  0  0  0
   -3.8091   -1.4479    1.7894 H   0  0  0  0  0  0  0  0  0  0  0  0
   -2.0988   -1.8316    1.8034 H   0  0  0  0  0  0  0  0  0  0  0  0
   -1.1091    3.9538   -0.4771 H   0  0  0  0  0  0  0  0  0  0  0  0
   -2.8589    2.5285    0.2511 H   0  0  0  0  0  0  0  0  0  0  0  0
    1.3152    4.2924   -0.6545 H   0  0  0  0  0  0  0  0  0  0  0  0
  1 15  1  0  0  0  0
  2 20  2  0  0  0  0
  3  7  1  0  0  0  0
  3 14  1  0  0  0  0
  4  8  1  0  0  0  0
  4 20  1  0  0  0  0
  5 14  2  0  0  0  0
  6 10  1  0  0  0  0
  6 20  1  0  0  0  0
  6 37  1  0  0  0  0
  7 12  1  0  0  0  0
  7 13  1  0  0  0  0
  7 21  1  0  0  0  0
  8 17  1  0  0  0  0
  8 18  1  0  0  0  0
  8 22  1  0  0  0  0
  9 11  1  0  0  0  0
  9 14  1  0  0  0  0
  9 15  2  0  0  0  0
 10 11  2  0  0  0  0
 10 16  1  0  0  0  0
 11 23  1  0  0  0  0
 12 24  1  0  0  0  0
 12 25  1  0  0  0  0
 12 26  1  0  0  0  0
 13 27  1  0  0  0  0
 13 28  1  0  0  0  0
 13 29  1  0  0  0  0
 15 19  1  0  0  0  0
 16 19  2  0  0  0  0
 16 36  1  0  0  0  0
 17 30  1  0  0  0  0
 17 31  1  0  0  0  0
 17 32  1  0  0  0  0
 18 33  1  0  0  0  0
 18 34  1  0  0  0  0
 18 35  1  0  0  0  0
 19 38  1  0  0  0  0
M  END
> <DATABASE_ID>
DB08681

> <DATABASE_NAME>
drugbank

> <ORIGINAL_SOURCE>
PUBCHEM

> <ORIGINAL_SOURCE_URL>
https://pubchem.ncbi.nlm.nih.gov/rest/pug/compound/inchikey/AXTNFJKQZPETJA-UHFFFAOYSA-N/SDF?record_type=3d

> <SMILES>
CC(C)OC(=S)NC1=CC(C(=O)OC(C)C)=C(Cl)C=C1

> <INCHI_IDENTIFIER>
InChI=1S/C14H18ClNO3S/c1-8(2)18-13(17)11-7-10(5-6-12(11)15)16-14(20)19-9(3)4/h5-9H,1-4H3,(H,16,20)

> <INCHI_KEY>
AXTNFJKQZPETJA-UHFFFAOYSA-N

> <FORMULA>
C14H18ClNO3S

> <MOLECULAR_WEIGHT>
315.816

> <EXACT_MASS>
315.069591844

> <JCHEM_ACCEPTOR_COUNT>
2

> <JCHEM_AVERAGE_POLARIZABILITY>
32.61691040638037

> <JCHEM_BIOAVAILABILITY>
1

> <JCHEM_DONOR_COUNT>
1

> <JCHEM_FORMAL_CHARGE>
0

> <JCHEM_GHOSE_FILTER>
1

> <JCHEM_IUPAC>
propan-2-yl 2-chloro-5-{[(propan-2-yloxy)methanethioyl]amino}benzoate

> <ALOGPS_LOGP>
4.11

> <JCHEM_LOGP>
4.874404502666667

> <ALOGPS_LOGS>
-5.07

> <JCHEM_MDDR_LIKE_RULE>
0

> <JCHEM_NUMBER_OF_RINGS>
1

> <JCHEM_PHYSIOLOGICAL_CHARGE>
0

> <JCHEM_PKA_STRONGEST_ACIDIC>
10.652676996576533

> <JCHEM_PKA_STRONGEST_BASIC>
-2.0738636228783083

> <JCHEM_POLAR_SURFACE_AREA>
47.56

> <JCHEM_REFRACTIVITY>
85.70040000000003

> <JCHEM_ROTATABLE_BOND_COUNT>
6

> <JCHEM_RULE_OF_FIVE>
1

> <ALOGPS_SOLUBILITY>
2.68e-03 g/l

> <JCHEM_TRADITIONAL_IUPAC>
isopropyl 2-chloro-5-[(isopropoxymethanethioyl)amino]benzoate

> <JCHEM_VEBER_RULE>
0

> <DRUGBANK_ID>
DB08681

> <DRUG_GROUPS>
experimental

> <GENERIC_NAME>
1-METHYL ETHYL 2-CHLORO-5-[[[(1-METHYLETHOXY)THIOOXO]METHYL]AMINO]-BENZOATE

$$$$
