REMARK  Name = 176407
REMARK  5 active torsions:
REMARK  status: ('A' for Active; 'I' for Inactive)
REMARK    1  A    between atoms: N_1  and  C_20
REMARK    2  A    between atoms: C_11  and  C_16
REMARK    3  A    between atoms: C_20  and  C_21
REMARK    4  A    between atoms: C_21  and  C_22
REMARK    5  A    between atoms: C_27  and  O_28
REMARK                            x       y       z     vdW  Elec       q    Type
REMARK                         _______ _______ _______ _____ _____    ______ ____
ROOT
ATOM      1  N   UNL     1       1.377  -1.903   0.037  0.00  0.00    -0.258 N 
ATOM      2  N   UNL     1      -2.570  -1.288  -0.011  0.00  0.00    -0.059 N 
ATOM      3  N   UNL     1      -0.396  -0.406   0.040  0.00  0.00    -0.245 NA
ATOM      4  N   UNL     1      -0.824  -2.758  -0.014  0.00  0.00    -0.294 NA
ATOM      5  N   UNL     1      -3.862  -0.929  -0.024  0.00  0.00    -0.090 NA
ATOM      6  N   UNL     1      -2.470   0.887   0.034  0.00  0.00    -0.267 NA
ATOM      7  N   UNL     1      -3.042  -3.597  -0.064  0.00  0.00    -0.318 N 
ATOM      8  C   UNL     1       0.025  -1.652   0.021  0.00  0.00    +0.213 C 
ATOM      9  C   UNL     1      -1.736  -0.207   0.023  0.00  0.00    +0.251 C 
ATOM     10  C   UNL     1      -2.114  -2.592  -0.030  0.00  0.00    +0.282 C 
ATOM     11  C   UNL     1      -3.748   0.401   0.005  0.00  0.00    +0.153 C 
ATOM     12  H   UNL     1       1.688  -2.837   0.023  0.00  0.00    +0.160 HD
ATOM     13  H   UNL     1      -4.003  -3.380  -0.075  0.00  0.00    +0.146 HD
ATOM     14  H   UNL     1      -2.750  -4.537  -0.079  0.00  0.00    +0.146 HD
ENDROOT
BRANCH  11  16
ATOM     15  O   UNL     1      -6.212   0.854  -0.026  0.00  0.00    -0.439 OA
ATOM     16  C   UNL     1      -4.925   1.288   0.004  0.00  0.00    +0.221 C 
ATOM     17  C   UNL     1      -4.880   2.663   0.031  0.00  0.00    +0.052 C 
ATOM     18  C   UNL     1      -6.226   3.101   0.017  0.00  0.00    +0.045 C 
ATOM     19  C   UNL     1      -6.997   1.963  -0.018  0.00  0.00    +0.181 C 
ENDBRANCH  11  16
BRANCH   1  20
ATOM     20  C   UNL     1       2.343  -0.852   0.072  0.00  0.00    +0.103 C 
BRANCH  20  21
ATOM     21  C   UNL     1       3.763  -1.413   0.009  0.00  0.00    +0.048 C 
BRANCH  21  22
ATOM     22  C   UNL     1       4.824  -0.340  -0.002  0.00  0.00    -0.020 C 
ATOM     23  C   UNL     1       5.260   0.172  -1.214  0.00  0.00    -0.001 C 
ATOM     24  C   UNL     1       5.343   0.114   1.200  0.00  0.00    -0.001 C 
ATOM     25  C   UNL     1       6.241   1.163  -1.224  0.00  0.00    +0.036 C 
ATOM     26  C   UNL     1       6.324   1.105   1.190  0.00  0.00    +0.036 C 
ATOM     27  C   UNL     1       6.773   1.630  -0.022  0.00  0.00    +0.134 C 
BRANCH  27  28
ATOM     28  O   UNL     1       7.730   2.598  -0.033  0.00  0.00    -0.506 OA
ATOM     29  H   UNL     1       8.031   2.950  -0.847  0.00  0.00    +0.292 HD
ENDBRANCH  27  28
ENDBRANCH  21  22
ENDBRANCH  20  21
ENDBRANCH   1  20
TORSDOF 5
