REMARK  Name = 11281011
REMARK  12 active torsions:
REMARK  status: ('A' for Active; 'I' for Inactive)
REMARK    1  A    between atoms: N_2  and  C_16
REMARK    2  A    between atoms: C_3  and  O_5
REMARK    3  A    between atoms: O_5  and  C_6
REMARK    4  A    between atoms: C_6  and  C_7
REMARK    5  A    between atoms: C_6  and  O_10
REMARK    6  A    between atoms: O_10  and  C_12
REMARK    7  A    between atoms: C_12  and  C_13
REMARK    8  A    between atoms: C_16  and  C_17
REMARK    9  A    between atoms: C_17  and  C_19
REMARK   10  A    between atoms: C_17  and  C_25
REMARK   11  A    between atoms: C_25  and  C_27
REMARK   12  A    between atoms: C_27  and  O_28
REMARK                            x       y       z     vdW  Elec       q    Type
REMARK                         _______ _______ _______ _____ _____    ______ ____
ROOT
ATOM      1  O   UNL     1       0.244   0.599  -1.851  0.00  0.00    -0.226 OA
ATOM      2  N   UNL     1      -1.100   2.232  -0.899  0.00  0.00    -0.270 N 
ATOM      3  C   UNL     1       0.083   1.552  -1.096  0.00  0.00    +0.404 C 
ATOM      4  H   UNL     1      -1.106   2.986  -0.266  0.00  0.00    +0.153 HD
ENDROOT
BRANCH   3   5
ATOM      5  O   UNL     1       1.063   2.103  -0.321  0.00  0.00    -0.399 OA
BRANCH   5   6
ATOM      6  C   UNL     1       2.378   1.509  -0.407  0.00  0.00    +0.345 C 
BRANCH   6   7
ATOM      7  C   UNL     1       3.338   2.288   0.518  0.00  0.00    +0.085 C 
ATOM      8  C   UNL     1       3.448   3.752   0.088  0.00  0.00    +0.008 C 
ATOM      9  C   UNL     1       2.911   2.210   1.988  0.00  0.00    +0.008 C 
ENDBRANCH   6   7
BRANCH   6  10
ATOM     10  O   UNL     1       2.336   0.123  -0.004  0.00  0.00    -0.414 OA
BRANCH  10  12
ATOM     11  O   UNL     1       4.594  -0.145  -0.395  0.00  0.00    -0.250 OA
ATOM     12  C   UNL     1       3.505  -0.581  -0.046  0.00  0.00    +0.319 C 
BRANCH  12  13
ATOM     13  C   UNL     1       3.252  -2.003   0.424  0.00  0.00    +0.099 C 
ATOM     14  C   UNL     1       4.181  -2.982  -0.287  0.00  0.00    +0.012 C 
ATOM     15  C   UNL     1       3.429  -2.083   1.936  0.00  0.00    +0.012 C 
ENDBRANCH  12  13
ENDBRANCH  10  12
ENDBRANCH   6  10
ENDBRANCH   5   6
ENDBRANCH   3   5
BRANCH   2  16
ATOM     16  C   UNL     1      -2.332   1.896  -1.574  0.00  0.00    +0.098 C 
BRANCH  16  17
ATOM     17  C   UNL     1      -3.181   0.867  -0.802  0.00  0.00    +0.053 C 
BRANCH  17  19
ATOM     18 CL   UNL     1      -0.011  -4.166   0.000  0.00  0.00    -0.082 Cl
ATOM     19  C   UNL     1      -2.376  -0.410  -0.599  0.00  0.00    -0.020 C 
ATOM     20  C   UNL     1      -2.375  -1.362  -1.597  0.00  0.00    -0.003 C 
ATOM     21  C   UNL     1      -1.674  -0.574   0.577  0.00  0.00    -0.003 C 
ATOM     22  C   UNL     1      -1.638  -2.531  -1.410  0.00  0.00    +0.011 C 
ATOM     23  C   UNL     1      -0.937  -1.744   0.764  0.00  0.00    +0.011 C 
ATOM     24  C   UNL     1      -0.919  -2.722  -0.230  0.00  0.00    +0.058 C 
ENDBRANCH  17  19
BRANCH  17  25
ATOM     25  C   UNL     1      -3.678   1.407   0.558  0.00  0.00    +0.115 C 
BRANCH  25  27
ATOM     26  O   UNL     1      -5.338  -0.367   0.754  0.00  0.00    -0.250 OA
ATOM     27  C   UNL     1      -4.612   0.462   1.285  0.00  0.00    +0.314 C 
BRANCH  27  28
ATOM     28  O   UNL     1      -4.590   0.671   2.628  0.00  0.00    -0.480 OA
ATOM     29  H   UNL     1      -4.018   1.317   2.992  0.00  0.00    +0.295 HD
ENDBRANCH  27  28
ENDBRANCH  25  27
ENDBRANCH  17  25
ENDBRANCH  16  17
ENDBRANCH   2  16
TORSDOF 12
