REMARK  Name = 11840992
REMARK  6 active torsions:
REMARK  status: ('A' for Active; 'I' for Inactive)
REMARK    1  A    between atoms: N_1  and  N_3
REMARK    2  A    between atoms: N_1  and  C_14
REMARK    3  A    between atoms: N_3  and  C_8
REMARK    4  A    between atoms: N_6  and  C_9
REMARK    5  A    between atoms: N_7  and  C_10
REMARK    6  A    between atoms: C_13  and  C_22
REMARK                            x       y       z     vdW  Elec       q    Type
REMARK                         _______ _______ _______ _____ _____    ______ ____
ROOT
ATOM      1  N   UNL     1       0.083  -0.216   0.001  0.00  0.00    -0.261 N 
ATOM      2  H   UNL     1       0.213   0.760   0.002  0.00  0.00    +0.168 HD
ENDROOT
BRANCH   1   4
ATOM      3  C   UNL     1      -2.338   0.093   0.001  0.00  0.00    +0.086 C 
ATOM      4  C   UNL     1      -1.225  -0.748   0.000  0.00  0.00    +0.063 C 
ATOM      5  C   UNL     1      -3.623  -0.450   0.002  0.00  0.00    +0.005 C 
ATOM      6  C   UNL     1      -1.398  -2.132   0.001  0.00  0.00    +0.016 C 
ATOM      7  C   UNL     1      -3.795  -1.834   0.003  0.00  0.00    +0.000 C 
ATOM      8  C   UNL     1      -2.683  -2.675   0.002  0.00  0.00    +0.001 C 
BRANCH   3  12
ATOM      9  F   UNL     1      -3.371   2.251   0.000  0.00  0.00    -0.166 F 
ATOM     10  F   UNL     1      -1.501   2.056   1.081  0.00  0.00    -0.166 F 
ATOM     11  F   UNL     1      -1.504   2.033  -1.093  0.00  0.00    -0.166 F 
ATOM     12  C   UNL     1      -2.183   1.579  -0.001  0.00  0.00    +0.420 C 
ENDBRANCH   3  12
ENDBRANCH   1   4
BRANCH   1  13
ATOM     13  N   UNL     1       1.150  -1.031  -0.001  0.00  0.00    -0.120 NA
BRANCH  13  16
ATOM     14  N   UNL     1       4.518   0.193   0.000  0.00  0.00    -0.133 NA
ATOM     15  N   UNL     1       3.862   1.297   0.001  0.00  0.00    -0.133 NA
ATOM     16  C   UNL     1       2.272  -0.396   0.000  0.00  0.00    +0.207 C 
ATOM     17  C   UNL     1       3.649  -0.886   0.000  0.00  0.00    +0.168 C 
ATOM     18  C   UNL     1       2.501   1.047   0.001  0.00  0.00    +0.168 C 
BRANCH  17  19
ATOM     19  N   UNL     1       4.005  -2.120  -0.002  0.00  0.00    -0.249 NA
ATOM     20  H   UNL     1       4.961  -2.357  -0.002  0.00  0.00    +0.171 HD
ENDBRANCH  17  19
BRANCH  18  21
ATOM     21  N   UNL     1       1.578   1.940   0.003  0.00  0.00    -0.249 NA
ATOM     22  H   UNL     1       1.817   2.896   0.003  0.00  0.00    +0.171 HD
ENDBRANCH  18  21
ENDBRANCH  13  16
ENDBRANCH   1  13
TORSDOF 6
