REMARK  Name = 71955
REMARK  7 active torsions:
REMARK  status: ('A' for Active; 'I' for Inactive)
REMARK    1  A    between atoms: C_1  and  O_2
REMARK    2  A    between atoms: C_1  and  C_12
REMARK    3  A    between atoms: O_2  and  C_5
REMARK    4  A    between atoms: C_12  and  O_13
REMARK    5  A    between atoms: C_12  and  C_15
REMARK    6  A    between atoms: C_15  and  N_16
REMARK    7  A    between atoms: N_16  and  C_19
REMARK                            x       y       z     vdW  Elec       q    Type
REMARK                         _______ _______ _______ _____ _____    ______ ____
ROOT
ATOM      1  C   UNL     1       1.096   2.054  -0.280  0.00  0.00    +0.232 C 
ENDROOT
BRANCH   1   2
ATOM      2  O   UNL     1       0.102   1.459   0.555  0.00  0.00    -0.473 OA
BRANCH   2   5
ATOM      3  C   UNL     1      -1.740  -0.067   0.456  0.00  0.00    +0.016 C 
ATOM      4  C   UNL     1      -2.904  -0.525  -0.178  0.00  0.00    -0.001 C 
ATOM      5  C   UNL     1      -1.026   1.005  -0.049  0.00  0.00    +0.135 C 
ATOM      6  C   UNL     1      -3.465  -1.687   0.581  0.00  0.00    -0.004 C 
ATOM      7  C   UNL     1      -1.488  -0.884   1.630  0.00  0.00    +0.055 C 
ATOM      8  C   UNL     1      -2.463  -1.804   1.705  0.00  0.00    -0.021 C 
ATOM      9  C   UNL     1      -3.380   0.076  -1.329  0.00  0.00    -0.000 C 
ATOM     10  C   UNL     1      -1.499   1.620  -1.212  0.00  0.00    +0.037 C 
ATOM     11  C   UNL     1      -2.666   1.160  -1.846  0.00  0.00    +0.003 C 
ENDBRANCH   2   5
ENDBRANCH   1   2
BRANCH   1  12
ATOM     12  C   UNL     1       2.469   1.831   0.351  0.00  0.00    +0.133 C 
BRANCH  12  13
ATOM     13  O   UNL     1       2.495   2.473   1.629  0.00  0.00    -0.383 OA
ATOM     14  H   UNL     1       3.363   2.337   2.040  0.00  0.00    +0.210 HD
ENDBRANCH  12  13
BRANCH  12  15
ATOM     15  C   UNL     1       2.808   0.352   0.552  0.00  0.00    -0.048 C 
BRANCH  15  16
ATOM     16  N   UNL     1       2.865  -0.373  -0.710  0.00  0.00    +0.387 N 
ATOM     17  H   UNL     1       3.553   0.071  -1.319  0.00  0.00    -0.084 HD
ATOM     18  H   UNL     1       1.941  -0.352  -1.140  0.00  0.00    -0.084 HD
BRANCH  16  19
ATOM     19  C   UNL     1       3.246  -1.763  -0.496  0.00  0.00    -0.062 C 
ATOM     20  C   UNL     1       3.290  -2.510  -1.825  0.00  0.00    -0.023 C 
ATOM     21  C   UNL     1       2.260  -2.416   0.467  0.00  0.00    -0.023 C 
ENDBRANCH  16  19
ENDBRANCH  15  16
ENDBRANCH  12  15
ENDBRANCH   1  12
TORSDOF 7
