REMARK  Name = 745994
REMARK  5 active torsions:
REMARK  status: ('A' for Active; 'I' for Inactive)
REMARK    1  A    between atoms: C_1  and  C_13
REMARK    2  A    between atoms: C_2  and  S_7
REMARK    3  A    between atoms: S_7  and  N_10
REMARK    4  A    between atoms: C_13  and  C_14
REMARK    5  A    between atoms: C_14  and  N_16
REMARK                            x       y       z     vdW  Elec       q    Type
REMARK                         _______ _______ _______ _____ _____    ______ ____
ROOT
ATOM      1  C   UNL     1      -0.510   1.119   0.366  0.00  0.00    -0.020 C 
ATOM      2  C   UNL     1       2.074   0.095   0.129  0.00  0.00    +0.122 C 
ATOM      3  C   UNL     1      -0.200  -0.126   0.913  0.00  0.00    -0.003 C 
ATOM      4  C   UNL     1       0.473   1.852  -0.300  0.00  0.00    -0.003 C 
ATOM      5  C   UNL     1       1.092  -0.638   0.795  0.00  0.00    +0.020 C 
ATOM      6  C   UNL     1       1.764   1.340  -0.419  0.00  0.00    +0.020 C 
ENDROOT
BRANCH   2   7
ATOM      7  S   UNL     1       3.692  -0.546  -0.019  0.00  0.00    +0.057 S 
ATOM      8  O   UNL     1       4.612   0.567  -0.202  0.00  0.00    -0.153 OA
ATOM      9  O   UNL     1       3.913  -1.497   1.062  0.00  0.00    -0.153 OA
BRANCH   7  10
ATOM     10  N   UNL     1       3.567  -1.407  -1.490  0.00  0.00    -0.203 NA
ATOM     11  H   UNL     1       4.464  -1.844  -1.705  0.00  0.00    +0.144 HD
ATOM     12  H   UNL     1       3.314  -0.763  -2.240  0.00  0.00    +0.144 HD
ENDBRANCH   7  10
ENDBRANCH   2   7
BRANCH   1  13
ATOM     13  C   UNL     1      -1.891   1.667   0.492  0.00  0.00    +0.048 C 
BRANCH  13  14
ATOM     14  C   UNL     1      -2.816   1.271  -0.665  0.00  0.00    +0.094 C 
BRANCH  14  16
ATOM     15  O   UNL     1      -4.842  -0.361   0.624  0.00  0.00    -0.275 OA
ATOM     16  N   UNL     1      -2.985  -0.154  -0.767  0.00  0.00    -0.304 N 
ATOM     17  C   UNL     1      -3.989  -0.853  -0.111  0.00  0.00    +0.223 C 
ATOM     18  C   UNL     1      -3.954  -2.328  -0.410  0.00  0.00    +0.095 C 
ATOM     19  H   UNL     1      -2.357  -0.660  -1.331  0.00  0.00    +0.149 HD
ENDBRANCH  14  16
ENDBRANCH  13  14
ENDBRANCH   1  13
TORSDOF 5
