REMARK  Name = 71496458
REMARK  9 active torsions:
REMARK  status: ('A' for Active; 'I' for Inactive)
REMARK    1  A    between atoms: C_1  and  N_33
REMARK    2  A    between atoms: C_2  and  N_26
REMARK    3  A    between atoms: C_4  and  N_7
REMARK    4  A    between atoms: C_5  and  O_31
REMARK    5  A    between atoms: C_10  and  C_18
REMARK    6  A    between atoms: C_27  and  C_29
REMARK    7  A    between atoms: N_33  and  C_35
REMARK    8  A    between atoms: C_35  and  C_36
REMARK    9  A    between atoms: C_36  and  N_37
REMARK                            x       y       z     vdW  Elec       q    Type
REMARK                         _______ _______ _______ _____ _____    ______ ____
ROOT
ATOM      1  C   UNL     1       2.999  -0.324  -0.951  0.00  0.00    +0.065 C 
ATOM      2  C   UNL     1       1.684   0.014  -1.273  0.00  0.00    +0.065 C 
ATOM      3  C   UNL     1       3.293  -1.600  -0.471  0.00  0.00    +0.054 C 
ATOM      4  C   UNL     1       0.958  -2.200  -0.634  0.00  0.00    +0.093 C 
ATOM      5  C   UNL     1       2.272  -2.538  -0.313  0.00  0.00    +0.154 C 
ATOM      6  C   UNL     1       0.664  -0.923  -1.115  0.00  0.00    +0.034 C 
ENDROOT
BRANCH   4   7
ATOM      7  N   UNL     1      -0.081  -3.136  -0.478  0.00  0.00    -0.244 N 
ATOM      8  N   UNL     1      -1.910  -1.742  -0.011  0.00  0.00    -0.337 NA
ATOM      9  N   UNL     1      -2.172  -4.136  -0.108  0.00  0.00    -0.170 NA
ATOM     10  C   UNL     1      -3.227  -1.647   0.268  0.00  0.00    +0.147 C 
ATOM     11  C   UNL     1      -1.456  -2.998  -0.185  0.00  0.00    +0.149 C 
ATOM     12  C   UNL     1      -4.069  -2.735   0.373  0.00  0.00    +0.055 C 
ATOM     13  C   UNL     1      -3.480  -3.967   0.173  0.00  0.00    +0.114 C 
ATOM     14  H   UNL     1       0.206  -4.070  -0.597  0.00  0.00    +0.165 HD
BRANCH  10  18
ATOM     15  N   UNL     1      -5.189   1.357   0.445  0.00  0.00    -0.284 N 
ATOM     16  C   UNL     1      -3.078   0.845   0.954  0.00  0.00    +0.017 C 
ATOM     17  C   UNL     1      -4.014   1.881   0.936  0.00  0.00    +0.052 C 
ATOM     18  C   UNL     1      -3.731  -0.317   0.457  0.00  0.00    +0.047 C 
ATOM     19  C   UNL     1      -5.027   0.029   0.153  0.00  0.00    +0.068 C 
ATOM     20  C   UNL     1      -1.775   1.116   1.418  0.00  0.00    +0.001 C 
ATOM     21  C   UNL     1      -3.712   3.180   1.361  0.00  0.00    +0.015 C 
ATOM     22  C   UNL     1      -6.423   2.089   0.260  0.00  0.00    +0.117 C 
ATOM     23  C   UNL     1      -1.459   2.411   1.847  0.00  0.00    +0.000 C 
ATOM     24  C   UNL     1      -2.414   3.425   1.818  0.00  0.00    +0.001 C 
ENDBRANCH  10  18
ENDBRANCH   4   7
BRANCH   2  26
ATOM     25  O   UNL     1      -0.962   1.180  -2.085  0.00  0.00    -0.270 OA
ATOM     26  N   UNL     1       1.365   1.287  -1.755  0.00  0.00    -0.279 N 
ATOM     27  C   UNL     1       0.106   1.779  -2.120  0.00  0.00    +0.250 C 
ATOM     28  H   UNL     1       2.118   1.914  -1.850  0.00  0.00    +0.155 HD
BRANCH  27  29
ATOM     29  C   UNL     1       0.185   3.193  -2.588  0.00  0.00    +0.058 C 
ATOM     30  C   UNL     1      -0.916   3.841  -2.981  0.00  0.00    +0.005 C 
ENDBRANCH  27  29
ENDBRANCH   2  26
BRANCH   5  31
ATOM     31  O   UNL     1       2.580  -3.780   0.158  0.00  0.00    -0.470 OA
ATOM     32  C   UNL     1       2.539  -3.965   1.571  0.00  0.00    +0.253 C 
ENDBRANCH   5  31
BRANCH   1  33
ATOM     33  N   UNL     1       4.048   0.610  -1.105  0.00  0.00    -0.307 N 
ATOM     34  C   UNL     1       4.774   0.696  -2.355  0.00  0.00    +0.112 C 
BRANCH  33  35
ATOM     35  C   UNL     1       4.402   1.497  -0.016  0.00  0.00    +0.068 C 
BRANCH  35  36
ATOM     36  C   UNL     1       5.440   0.825   0.874  0.00  0.00    -0.056 C 
BRANCH  36  37
ATOM     37  N   UNL     1       5.829   1.716   1.960  0.00  0.00    +0.385 N 
ATOM     38  C   UNL     1       4.821   1.706   3.022  0.00  0.00    -0.101 C 
ATOM     39  C   UNL     1       7.136   1.332   2.498  0.00  0.00    -0.101 C 
ATOM     40  H   UNL     1       5.897   2.662   1.586  0.00  0.00    -0.080 HD
ENDBRANCH  36  37
ENDBRANCH  35  36
ENDBRANCH  33  35
ENDBRANCH   1  33
TORSDOF 9
