REMARK  Name = 15387
REMARK  5 active torsions:
REMARK  status: ('A' for Active; 'I' for Inactive)
REMARK    1  A    between atoms: C_1  and  C_2
REMARK    2  A    between atoms: C_1  and  C_11
REMARK    3  A    between atoms: C_2  and  N_3
REMARK    4  A    between atoms: C_11  and  C_13
REMARK    5  A    between atoms: C_13  and  C_15
REMARK                            x       y       z     vdW  Elec       q    Type
REMARK                         _______ _______ _______ _____ _____    ______ ____
ROOT
ATOM      1  C   UNL     1       0.882   2.165  -0.115  0.00  0.00    -0.015 C 
ENDROOT
BRANCH   1   2
ATOM      2  C   UNL     1       2.159   1.908  -0.918  0.00  0.00    -0.077 C 
BRANCH   2   3
ATOM      3  N   UNL     1       2.736   0.615  -0.551  0.00  0.00    +0.387 N 
ATOM      4  C   UNL     1       4.850  -1.163   0.430  0.00  0.00    -0.004 C 
ATOM      5  C   UNL     1       3.642  -0.771   1.287  0.00  0.00    -0.023 C 
ATOM      6  C   UNL     1       4.487  -1.058  -1.056  0.00  0.00    -0.023 C 
ATOM      7  C   UNL     1       3.087   0.594   0.875  0.00  0.00    -0.077 C 
ATOM      8  C   UNL     1       3.905   0.317  -1.390  0.00  0.00    -0.077 C 
ATOM      9  C   UNL     1       5.337  -2.567   0.777  0.00  0.00    -0.000 C 
ATOM     10  H   UNL     1       2.038  -0.112  -0.715  0.00  0.00    -0.080 HD
ENDBRANCH   2   3
ENDBRANCH   1   2
BRANCH   1  11
ATOM     11  C   UNL     1      -0.183   1.093  -0.360  0.00  0.00    +0.067 C 
BRANCH  11  13
ATOM     12  O   UNL     1      -1.649   2.343   1.094  0.00  0.00    -0.291 OA
ATOM     13  C   UNL     1      -1.493   1.365   0.367  0.00  0.00    +0.173 C 
BRANCH  13  15
ATOM     14  F   UNL     1      -5.748  -2.173  -0.373  0.00  0.00    -0.204 F 
ATOM     15  C   UNL     1      -2.629   0.420   0.169  0.00  0.00    +0.035 C 
ATOM     16  C   UNL     1      -2.350  -0.902  -0.094  0.00  0.00    +0.005 C 
ATOM     17  C   UNL     1      -3.914   0.905   0.258  0.00  0.00    +0.005 C 
ATOM     18  C   UNL     1      -3.413  -1.786  -0.279  0.00  0.00    +0.030 C 
ATOM     19  C   UNL     1      -4.978   0.021   0.073  0.00  0.00    +0.030 C 
ATOM     20  C   UNL     1      -4.727  -1.325  -0.195  0.00  0.00    +0.140 C 
ENDBRANCH  13  15
ENDBRANCH  11  13
ENDBRANCH   1  11
TORSDOF 5
