REMARK  Name = 179344
REMARK  2 active torsions:
REMARK  status: ('A' for Active; 'I' for Inactive)
REMARK    1  A    between atoms: C_4  and  O_21
REMARK    2  A    between atoms: O_21  and  C_23
REMARK                            x       y       z     vdW  Elec       q    Type
REMARK                         _______ _______ _______ _____ _____    ______ ____
ROOT
ATOM      1  O   UNL     1      -1.173  -1.783   2.409  0.00  0.00    -0.252 OA
ATOM      2  N   UNL     1      -0.391  -0.130   0.925  0.00  0.00    -0.223 N 
ATOM      3  N   UNL     1       0.973  -1.096   2.608  0.00  0.00    -0.313 N 
ATOM      4  C   UNL     1       0.788  -0.141  -1.739  0.00  0.00    +0.197 C 
ATOM      5  C   UNL     1      -0.631   0.175  -2.199  0.00  0.00    +0.076 C 
ATOM      6  C   UNL     1       1.225   0.825  -0.676  0.00  0.00    +0.032 C 
ATOM      7  C   UNL     1      -1.750   0.222  -1.176  0.00  0.00    -0.004 C 
ATOM      8  C   UNL     1       0.634   0.810   0.595  0.00  0.00    +0.059 C 
ATOM      9  C   UNL     1      -1.639   0.039   0.221  0.00  0.00    +0.056 C 
ATOM     10  C   UNL     1       2.236   1.758  -0.952  0.00  0.00    +0.000 C 
ATOM     11  C   UNL     1      -3.034   0.426  -1.736  0.00  0.00    -0.003 C 
ATOM     12  C   UNL     1       1.069   1.723   1.572  0.00  0.00    +0.015 C 
ATOM     13  C   UNL     1      -2.826   0.064   0.989  0.00  0.00    +0.015 C 
ATOM     14  C   UNL     1       2.659   2.661   0.023  0.00  0.00    -0.000 C 
ATOM     15  C   UNL     1      -0.279  -1.027   2.018  0.00  0.00    +0.308 C 
ATOM     16  C   UNL     1       2.076   2.644   1.285  0.00  0.00    +0.001 C 
ATOM     17  C   UNL     1      -4.186   0.443  -0.956  0.00  0.00    -0.000 C 
ATOM     18  C   UNL     1      -4.081   0.259   0.411  0.00  0.00    +0.001 C 
ATOM     19  H   UNL     1       1.124  -1.698   3.372  0.00  0.00    +0.147 HD
ATOM     20  H   UNL     1       1.711  -0.544   2.263  0.00  0.00    +0.147 HD
ENDROOT
BRANCH   4  21
ATOM     21  O   UNL     1       0.897  -1.486  -1.281  0.00  0.00    -0.447 OA
BRANCH  21  23
ATOM     22  O   UNL     1       3.166  -1.198  -0.956  0.00  0.00    -0.250 OA
ATOM     23  C   UNL     1       2.151  -1.881  -0.921  0.00  0.00    +0.318 C 
ATOM     24  C   UNL     1       2.115  -3.307  -0.463  0.00  0.00    +0.121 C 
ENDBRANCH  21  23
ENDBRANCH   4  21
TORSDOF 2
