REMARK  Name = 54679224
REMARK  1 active torsions:
REMARK  status: ('A' for Active; 'I' for Inactive)
REMARK    1  A    between atoms: C_4  and  O_10
REMARK                            x       y       z     vdW  Elec       q    Type
REMARK                         _______ _______ _______ _____ _____    ______ ____
ROOT
ATOM      1 CL   UNL     1       2.797  -0.866   0.000  0.00  0.00    -0.078 Cl
ATOM      2  O   UNL     1      -2.869   0.274   0.000  0.00  0.00    -0.270 OA
ATOM      3  N   UNL     1      -1.135  -1.252   0.000  0.00  0.00    -0.279 N 
ATOM      4  C   UNL     1       0.641   0.853   0.000  0.00  0.00    +0.150 C 
ATOM      5  C   UNL     1       1.108  -0.520   0.000  0.00  0.00    +0.106 C 
ATOM      6  C   UNL     1      -0.669   1.137   0.000  0.00  0.00    +0.095 C 
ATOM      7  C   UNL     1       0.212  -1.516   0.000  0.00  0.00    +0.079 C 
ATOM      8  C   UNL     1      -1.666   0.027   0.000  0.00  0.00    +0.253 C 
ATOM      9  H   UNL     1      -1.759  -2.014   0.000  0.00  0.00    +0.155 HD
ENDROOT
BRANCH   4  10
ATOM     10  O   UNL     1       1.581   1.863   0.000  0.00  0.00    -0.504 OA
ATOM     11  H   UNL     1       2.494   1.654   0.000  0.00  0.00    +0.292 HD
ENDBRANCH   4  10
TORSDOF 1
