23725625
  -OEChem-01121816213D

 55 59  0     0  0  0  0  0  0999 V2000
    1.8506   -3.9592   -1.6638 F   0  0  0  0  0  0  0  0  0  0  0  0
    5.7410    2.4450    1.3350 O   0  0  0  0  0  0  0  0  0  0  0  0
    2.2983   -3.4457    1.5996 O   0  0  0  0  0  0  0  0  0  0  0  0
   -3.4365    3.4580   -1.4327 O   0  0  0  0  0  0  0  0  0  0  0  0
    3.8864    1.1460    0.7939 N   0  0  0  0  0  0  0  0  0  0  0  0
    2.8416   -1.4637    0.4868 N   0  0  0  0  0  0  0  0  0  0  0  0
   -2.1415    0.2059   -0.8542 N   0  0  0  0  0  0  0  0  0  0  0  0
   -2.2976    1.4708   -1.3080 N   0  0  0  0  0  0  0  0  0  0  0  0
    4.3866    3.2560   -0.3887 C   0  0  0  0  0  0  0  0  0  0  0  0
    4.8456    3.0127   -1.7847 C   0  0  0  0  0  0  0  0  0  0  0  0
    5.4809    4.0913   -0.9571 C   0  0  0  0  0  0  0  0  0  0  0  0
    4.7347    2.2485    0.6588 C   0  0  0  0  0  0  0  0  0  0  0  0
    2.6326    0.9496    0.0525 C   0  0  0  0  0  0  0  0  0  0  0  0
    4.1763    0.1224    1.8019 C   0  0  0  0  0  0  0  0  0  0  0  0
    2.5728   -0.4536   -0.5457 C   0  0  0  0  0  0  0  0  0  0  0  0
    4.1068   -1.2770    1.1979 C   0  0  0  0  0  0  0  0  0  0  0  0
    2.0413   -2.5706    0.7743 C   0  0  0  0  0  0  0  0  0  0  0  0
    0.7733   -2.7146    0.0482 C   0  0  0  0  0  0  0  0  0  0  0  0
   -0.3881   -2.1496    0.5691 C   0  0  0  0  0  0  0  0  0  0  0  0
   -1.5942   -2.2846   -0.1185 C   0  0  0  0  0  0  0  0  0  0  0  0
    0.7365   -3.4138   -1.1554 C   0  0  0  0  0  0  0  0  0  0  0  0
   -2.8401   -1.6795    0.4350 C   0  0  0  0  0  0  0  0  0  0  0  0
   -1.6351   -2.9843   -1.3245 C   0  0  0  0  0  0  0  0  0  0  0  0
   -0.4696   -3.5490   -1.8429 C   0  0  0  0  0  0  0  0  0  0  0  0
   -3.0361   -0.2799   -0.0518 C   0  0  0  0  0  0  0  0  0  0  0  0
   -4.2224    0.4776    0.3957 C   0  0  0  0  0  0  0  0  0  0  0  0
   -4.3637    1.7771   -0.0837 C   0  0  0  0  0  0  0  0  0  0  0  0
   -5.1819   -0.0537    1.2613 C   0  0  0  0  0  0  0  0  0  0  0  0
   -3.3404    2.3156   -0.9939 C   0  0  0  0  0  0  0  0  0  0  0  0
   -5.4612    2.5558    0.2956 C   0  0  0  0  0  0  0  0  0  0  0  0
   -6.2787    0.7227    1.6406 C   0  0  0  0  0  0  0  0  0  0  0  0
   -6.4182    2.0240    1.1592 C   0  0  0  0  0  0  0  0  0  0  0  0
    3.4361    3.7607   -0.2462 H   0  0  0  0  0  0  0  0  0  0  0  0
    5.4329    2.1270   -1.9946 H   0  0  0  0  0  0  0  0  0  0  0  0
    4.1902    3.3153   -2.5921 H   0  0  0  0  0  0  0  0  0  0  0  0
    5.2522    5.1196   -1.2115 H   0  0  0  0  0  0  0  0  0  0  0  0
    6.5042    3.9343   -0.6396 H   0  0  0  0  0  0  0  0  0  0  0  0
    2.5078    1.6920   -0.7381 H   0  0  0  0  0  0  0  0  0  0  0  0
    1.8160    1.0911    0.7707 H   0  0  0  0  0  0  0  0  0  0  0  0
    3.4243    0.2336    2.5924 H   0  0  0  0  0  0  0  0  0  0  0  0
    5.1595    0.2867    2.2537 H   0  0  0  0  0  0  0  0  0  0  0  0
    1.6041   -0.6065   -1.0256 H   0  0  0  0  0  0  0  0  0  0  0  0
    3.3445   -0.5724   -1.3158 H   0  0  0  0  0  0  0  0  0  0  0  0
    4.9116   -1.4193    0.4668 H   0  0  0  0  0  0  0  0  0  0  0  0
    4.2310   -2.0306    1.9817 H   0  0  0  0  0  0  0  0  0  0  0  0
   -0.3526   -1.6021    1.5082 H   0  0  0  0  0  0  0  0  0  0  0  0
   -2.7964   -1.6806    1.5312 H   0  0  0  0  0  0  0  0  0  0  0  0
   -3.7060   -2.2888    0.1484 H   0  0  0  0  0  0  0  0  0  0  0  0
   -2.5678   -3.0948   -1.8711 H   0  0  0  0  0  0  0  0  0  0  0  0
   -0.5007   -4.0929   -2.7823 H   0  0  0  0  0  0  0  0  0  0  0  0
   -5.1051   -1.0622    1.6549 H   0  0  0  0  0  0  0  0  0  0  0  0
   -5.5871    3.5715   -0.0687 H   0  0  0  0  0  0  0  0  0  0  0  0
   -1.5599    1.7845   -1.9307 H   0  0  0  0  0  0  0  0  0  0  0  0
   -7.0260    0.3114    2.3133 H   0  0  0  0  0  0  0  0  0  0  0  0
   -7.2732    2.6238    1.4574 H   0  0  0  0  0  0  0  0  0  0  0  0
  1 21  1  0  0  0  0
  2 12  2  0  0  0  0
  3 17  2  0  0  0  0
  4 29  2  0  0  0  0
  5 12  1  0  0  0  0
  5 13  1  0  0  0  0
  5 14  1  0  0  0  0
  6 15  1  0  0  0  0
  6 16  1  0  0  0  0
  6 17  1  0  0  0  0
  7  8  1  0  0  0  0
  7 25  2  0  0  0  0
  8 29  1  0  0  0  0
  8 53  1  0  0  0  0
  9 10  1  0  0  0  0
  9 11  1  0  0  0  0
  9 12  1  0  0  0  0
  9 33  1  0  0  0  0
 10 11  1  0  0  0  0
 10 34  1  0  0  0  0
 10 35  1  0  0  0  0
 11 36  1  0  0  0  0
 11 37  1  0  0  0  0
 13 15  1  0  0  0  0
 13 38  1  0  0  0  0
 13 39  1  0  0  0  0
 14 16  1  0  0  0  0
 14 40  1  0  0  0  0
 14 41  1  0  0  0  0
 15 42  1  0  0  0  0
 15 43  1  0  0  0  0
 16 44  1  0  0  0  0
 16 45  1  0  0  0  0
 17 18  1  0  0  0  0
 18 19  1  0  0  0  0
 18 21  2  0  0  0  0
 19 20  2  0  0  0  0
 19 46  1  0  0  0  0
 20 22  1  0  0  0  0
 20 23  1  0  0  0  0
 21 24  1  0  0  0  0
 22 25  1  0  0  0  0
 22 47  1  0  0  0  0
 22 48  1  0  0  0  0
 23 24  2  0  0  0  0
 23 49  1  0  0  0  0
 24 50  1  0  0  0  0
 25 26  1  0  0  0  0
 26 27  1  0  0  0  0
 26 28  2  0  0  0  0
 27 29  1  0  0  0  0
 27 30  2  0  0  0  0
 28 31  1  0  0  0  0
 28 51  1  0  0  0  0
 30 32  1  0  0  0  0
 30 52  1  0  0  0  0
 31 32  2  0  0  0  0
 31 54  1  0  0  0  0
 32 55  1  0  0  0  0
M  END
> <DATABASE_ID>
DB09074

> <DATABASE_NAME>
drugbank

> <ORIGINAL_SOURCE>
PUBCHEM

> <ORIGINAL_SOURCE_URL>
https://pubchem.ncbi.nlm.nih.gov/rest/pug/compound/inchikey/FDLYAMZZIXQODN-UHFFFAOYSA-N/SDF?record_type=3d

> <SMILES>
OC1=NN=C(CC2=CC(C(=O)N3CCN(CC3)C(=O)C3CC3)=C(F)C=C2)C2=CC=CC=C12

> <INCHI_IDENTIFIER>
InChI=1S/C24H23FN4O3/c25-20-8-5-15(14-21-17-3-1-2-4-18(17)22(30)27-26-21)13-19(20)24(32)29-11-9-28(10-12-29)23(31)16-6-7-16/h1-5,8,13,16H,6-7,9-12,14H2,(H,27,30)

> <INCHI_KEY>
FDLYAMZZIXQODN-UHFFFAOYSA-N

> <FORMULA>
C24H23FN4O3

> <MOLECULAR_WEIGHT>
434.4628

> <EXACT_MASS>
434.175418827

> <JCHEM_ACCEPTOR_COUNT>
5

> <JCHEM_ATOM_COUNT>
55

> <JCHEM_AVERAGE_POLARIZABILITY>
44.032945144592986

> <JCHEM_BIOAVAILABILITY>
1

> <JCHEM_DONOR_COUNT>
1

> <JCHEM_FORMAL_CHARGE>
0

> <JCHEM_GHOSE_FILTER>
1

> <JCHEM_IUPAC>
4-{[3-(4-cyclopropanecarbonylpiperazine-1-carbonyl)-4-fluorophenyl]methyl}phthalazin-1-ol

> <ALOGPS_LOGP>
2.68

> <JCHEM_LOGP>
2.316386892333334

> <ALOGPS_LOGS>
-3.56

> <JCHEM_MDDR_LIKE_RULE>
0

> <JCHEM_NUMBER_OF_RINGS>
5

> <JCHEM_PHYSIOLOGICAL_CHARGE>
0

> <JCHEM_PKA_STRONGEST_ACIDIC>
8.75251902783027

> <JCHEM_PKA_STRONGEST_BASIC>
2.2368106999514086

> <JCHEM_POLAR_SURFACE_AREA>
86.63

> <JCHEM_REFRACTIVITY>
118.63109999999996

> <JCHEM_ROTATABLE_BOND_COUNT>
4

> <JCHEM_RULE_OF_FIVE>
1

> <ALOGPS_SOLUBILITY>
1.19e-01 g/l

> <JCHEM_TRADITIONAL_IUPAC>
olaparib

> <JCHEM_VEBER_RULE>
0

> <DRUGBANK_ID>
DB09074

> <SECONDARY_ACCESSION_NUMBERS>
DB05940

> <DRUG_GROUPS>
approved

> <GENERIC_NAME>
Olaparib

> <SYNONYMS>
4-(3-{[4-(cyclopropylcarbonyl)piperazin-1-yl]carbonyl}-4-fluorobenzyl)phthalazin-1(2H)-one; Olaparib

> <PRODUCTS>
Lynparza

$$$$
