REMARK  Name = 71467
REMARK  5 active torsions:
REMARK  status: ('A' for Active; 'I' for Inactive)
REMARK    1  A    between atoms: C_1  and  C_2
REMARK    2  A    between atoms: C_1  and  O_9
REMARK    3  A    between atoms: C_2  and  N_4
REMARK    4  A    between atoms: N_4  and  N_6
REMARK    5  A    between atoms: O_9  and  C_10
REMARK                            x       y       z     vdW  Elec       q    Type
REMARK                         _______ _______ _______ _____ _____    ______ ____
ROOT
ATOM      1  C   UNL     1      -1.123   0.402  -0.355  0.00  0.00    +0.222 C 
ENDROOT
BRANCH   1   2
ATOM      2  C   UNL     1      -2.456  -0.160   0.142  0.00  0.00    +0.112 C 
ATOM      3  C   UNL     1      -2.998  -1.243  -0.791  0.00  0.00    +0.022 C 
BRANCH   2   4
ATOM      4  N   UNL     1      -3.424   0.929   0.263  0.00  0.00    -0.246 NA
ATOM      5  H   UNL     1      -3.052   1.656   0.875  0.00  0.00    +0.141 HD
BRANCH   4   6
ATOM      6  N   UNL     1      -4.623   0.396   0.819  0.00  0.00    -0.270 NA
ATOM      7  H   UNL     1      -4.990  -0.330   0.204  0.00  0.00    +0.137 HD
ATOM      8  H   UNL     1      -5.314   1.140   0.916  0.00  0.00    +0.137 HD
ENDBRANCH   4   6
ENDBRANCH   2   4
ENDBRANCH   1   2
BRANCH   1   9
ATOM      9  O   UNL     1      -0.160  -0.643  -0.426  0.00  0.00    -0.474 OA
BRANCH   9  10
ATOM     10  C   UNL     1       1.144  -0.297  -0.185  0.00  0.00    +0.139 C 
ATOM     11  C   UNL     1       1.586   0.983  -0.502  0.00  0.00    +0.037 C 
ATOM     12  C   UNL     1       2.011  -1.229   0.373  0.00  0.00    +0.037 C 
ATOM     13  C   UNL     1       2.914   1.334  -0.258  0.00  0.00    +0.003 C 
ATOM     14  C   UNL     1       3.339  -0.877   0.617  0.00  0.00    +0.003 C 
ATOM     15  C   UNL     1       3.790   0.405   0.302  0.00  0.00    +0.000 C 
ENDBRANCH   9  10
ENDBRANCH   1   9
TORSDOF 5
