REMARK  Name = 62865
REMARK  5 active torsions:
REMARK  status: ('A' for Active; 'I' for Inactive)
REMARK    1  A    between atoms: N_2  and  C_17
REMARK    2  A    between atoms: C_11  and  C_16
REMARK    3  A    between atoms: C_17  and  C_18
REMARK    4  A    between atoms: C_18  and  C_20
REMARK    5  A    between atoms: C_20  and  N_21
REMARK                            x       y       z     vdW  Elec       q    Type
REMARK                         _______ _______ _______ _____ _____    ______ ____
ROOT
ATOM      1  S   UNL     1      -2.461   1.582   1.440  0.00  0.00    -0.084 S 
ATOM      2  N   UNL     1      -0.750  -0.209  -0.438  0.00  0.00    -0.286 N 
ATOM      3  C   UNL     1      -0.186   1.049  -0.107  0.00  0.00    +0.058 C 
ATOM      4  C   UNL     1      -2.130  -0.526  -0.377  0.00  0.00    +0.058 C 
ATOM      5  C   UNL     1      -0.876   1.959   0.718  0.00  0.00    +0.043 C 
ATOM      6  C   UNL     1      -3.013   0.228   0.421  0.00  0.00    +0.043 C 
ATOM      7  C   UNL     1       1.067   1.463  -0.611  0.00  0.00    +0.026 C 
ATOM      8  C   UNL     1      -2.691  -1.579  -1.132  0.00  0.00    +0.015 C 
ATOM      9  C   UNL     1      -0.316   3.209   1.037  0.00  0.00    +0.008 C 
ATOM     10  C   UNL     1      -4.383  -0.085   0.473  0.00  0.00    +0.008 C 
ATOM     11  C   UNL     1       1.616   2.708  -0.294  0.00  0.00    +0.070 C 
ATOM     12  C   UNL     1      -4.054  -1.883  -1.081  0.00  0.00    +0.001 C 
ATOM     13  C   UNL     1       0.926   3.581   0.533  0.00  0.00    +0.011 C 
ATOM     14  C   UNL     1      -4.900  -1.138  -0.275  0.00  0.00    +0.001 C 
ENDROOT
BRANCH  11  16
ATOM     15  N   UNL     1       3.930   3.383  -1.244  0.00  0.00    -0.191 NA
ATOM     16  C   UNL     1       2.893   3.081  -0.818  0.00  0.00    +0.100 C 
ENDBRANCH  11  16
BRANCH   2  17
ATOM     17  C   UNL     1       0.159  -1.244  -0.951  0.00  0.00    +0.093 C 
BRANCH  17  18
ATOM     18  C   UNL     1       1.180  -1.688   0.112  0.00  0.00    -0.001 C 
ATOM     19  C   UNL     1       0.479  -2.229   1.363  0.00  0.00    -0.000 C 
BRANCH  18  20
ATOM     20  C   UNL     1       2.199  -2.721  -0.406  0.00  0.00    -0.076 C 
BRANCH  20  21
ATOM     21  N   UNL     1       3.217  -3.033   0.591  0.00  0.00    +0.384 N 
ATOM     22  C   UNL     1       3.976  -1.833   0.945  0.00  0.00    -0.101 C 
ATOM     23  C   UNL     1       4.117  -4.077   0.099  0.00  0.00    -0.101 C 
ATOM     24  H   UNL     1       2.748  -3.378   1.429  0.00  0.00    -0.080 HD
ENDBRANCH  20  21
ENDBRANCH  18  20
ENDBRANCH  17  18
ENDBRANCH   2  17
TORSDOF 5
