REMARK  Name = 9375
REMARK  4 active torsions:
REMARK  status: ('A' for Active; 'I' for Inactive)
REMARK    1  A    between atoms: N_1  and  N_4
REMARK    2  A    between atoms: N_1  and  C_11
REMARK    3  A    between atoms: C_5  and  C_7
REMARK    4  A    between atoms: C_11  and  C_12
REMARK                            x       y       z     vdW  Elec       q    Type
REMARK                         _______ _______ _______ _____ _____    ______ ____
ROOT
ATOM      1  N   UNL     1       0.052   0.271  -0.488  0.00  0.00    -0.226 NA
ATOM      2  H   UNL     1       0.001  -0.704  -0.785  0.00  0.00    +0.145 HD
ENDROOT
BRANCH   1   4
ATOM      3  O   UNL     1       2.121  -1.534  -0.707  0.00  0.00    -0.274 OA
ATOM      4  N   UNL     1       1.363   0.583  -0.165  0.00  0.00    -0.249 N 
ATOM      5  C   UNL     1       2.340  -0.390  -0.307  0.00  0.00    +0.234 C 
ATOM      6  H   UNL     1       1.598   1.482   0.160  0.00  0.00    +0.169 HD
BRANCH   5   7
ATOM      7  C   UNL     1       3.755   0.086   0.083  0.00  0.00    +0.070 C 
ATOM      8  C   UNL     1       3.759   0.526   1.558  0.00  0.00    +0.009 C 
ATOM      9  C   UNL     1       4.166   1.284  -0.787  0.00  0.00    +0.009 C 
ATOM     10  C   UNL     1       4.762  -1.062  -0.089  0.00  0.00    +0.009 C 
ENDBRANCH   5   7
ENDBRANCH   1   4
BRANCH   1  11
ATOM     11  C   UNL     1      -0.811   0.468   0.668  0.00  0.00    +0.114 C 
BRANCH  11  12
ATOM     12  C   UNL     1      -2.257   0.204   0.341  0.00  0.00    -0.005 C 
ATOM     13  C   UNL     1      -3.056   1.244  -0.113  0.00  0.00    -0.003 C 
ATOM     14  C   UNL     1      -2.770  -1.076   0.496  0.00  0.00    -0.003 C 
ATOM     15  C   UNL     1      -4.395   1.000  -0.417  0.00  0.00    -0.000 C 
ATOM     16  C   UNL     1      -4.109  -1.321   0.192  0.00  0.00    -0.000 C 
ATOM     17  C   UNL     1      -4.922  -0.282  -0.265  0.00  0.00    -0.000 C 
ENDBRANCH  11  12
ENDBRANCH   1  11
TORSDOF 4
