REMARK  Name = 4886
REMARK  9 active torsions:
REMARK  status: ('A' for Active; 'I' for Inactive)
REMARK    1  A    between atoms: O_1  and  C_2
REMARK    2  A    between atoms: O_1  and  C_13
REMARK    3  A    between atoms: C_5  and  O_8
REMARK    4  A    between atoms: O_8  and  C_9
REMARK    5  A    between atoms: C_9  and  C_10
REMARK    6  A    between atoms: C_10  and  C_11
REMARK    7  A    between atoms: C_13  and  C_14
REMARK    8  A    between atoms: C_14  and  C_15
REMARK    9  A    between atoms: C_15  and  N_17
REMARK                            x       y       z     vdW  Elec       q    Type
REMARK                         _______ _______ _______ _____ _____    ______ ____
ROOT
ATOM      1  O   UNL     1      -0.541  -1.578  -0.063  0.00  0.00    -0.476 OA
ENDROOT
BRANCH   1   2
ATOM      2  C   UNL     1       0.816  -1.385  -0.025  0.00  0.00    +0.139 C 
ATOM      3  C   UNL     1       1.436  -0.605  -1.001  0.00  0.00    +0.040 C 
ATOM      4  C   UNL     1       1.576  -1.969   0.988  0.00  0.00    +0.040 C 
ATOM      5  C   UNL     1       3.577  -0.992   0.050  0.00  0.00    +0.139 C 
ATOM      6  C   UNL     1       2.817  -0.408  -0.963  0.00  0.00    +0.040 C 
ATOM      7  C   UNL     1       2.956  -1.773   1.026  0.00  0.00    +0.040 C 
BRANCH   5   8
ATOM      8  O   UNL     1       4.924  -0.801   0.087  0.00  0.00    -0.475 OA
BRANCH   8   9
ATOM      9  C   UNL     1       5.420   0.428  -0.442  0.00  0.00    +0.205 C 
BRANCH   9  10
ATOM     10  C   UNL     1       6.706   0.793   0.286  0.00  0.00    +0.047 C 
BRANCH  10  11
ATOM     11  C   UNL     1       7.285   2.111  -0.220  0.00  0.00    +0.004 C 
ATOM     12  C   UNL     1       8.546   2.493   0.539  0.00  0.00    +0.000 C 
ENDBRANCH  10  11
ENDBRANCH   9  10
ENDBRANCH   8   9
ENDBRANCH   5   8
ENDBRANCH   1   2
BRANCH   1  13
ATOM     13  C   UNL     1      -1.322  -0.532  -0.624  0.00  0.00    +0.203 C 
BRANCH  13  14
ATOM     14  C   UNL     1      -2.698  -0.541   0.028  0.00  0.00    +0.025 C 
BRANCH  14  15
ATOM     15  C   UNL     1      -3.584   0.572  -0.521  0.00  0.00    -0.073 C 
BRANCH  15  17
ATOM     16  O   UNL     1      -7.720   0.843   0.137  0.00  0.00    -0.358 OA
ATOM     17  N   UNL     1      -4.889   0.553   0.137  0.00  0.00    +0.390 N 
ATOM     18  C   UNL     1      -5.765  -0.459  -0.469  0.00  0.00    -0.045 C 
ATOM     19  C   UNL     1      -5.526   1.875   0.070  0.00  0.00    -0.045 C 
ATOM     20  C   UNL     1      -7.124  -0.452   0.226  0.00  0.00    +0.119 C 
ATOM     21  C   UNL     1      -6.890   1.828   0.753  0.00  0.00    +0.119 C 
ATOM     22  H   UNL     1      -4.741   0.312   1.117  0.00  0.00    -0.079 HD
ENDBRANCH  15  17
ENDBRANCH  14  15
ENDBRANCH  13  14
ENDBRANCH   1  13
TORSDOF 9
