REMARK  Name = 4949
REMARK  5 active torsions:
REMARK  status: ('A' for Active; 'I' for Inactive)
REMARK    1  A    between atoms: N_4  and  C_10
REMARK    2  A    between atoms: C_10  and  C_12
REMARK    3  A    between atoms: C_12  and  O_13
REMARK    4  A    between atoms: O_13  and  C_14
REMARK    5  A    between atoms: C_14  and  C_15
REMARK                            x       y       z     vdW  Elec       q    Type
REMARK                         _______ _______ _______ _____ _____    ______ ____
ROOT
ATOM      1  I   UNL     1      -3.474  -3.050  -0.377  0.00  0.00    -0.038 I 
ATOM      2  I   UNL     1      -3.390   3.092  -0.318  0.00  0.00    -0.038 I 
ATOM      3  O   UNL     1      -4.417   0.038  -0.671  0.00  0.00    -0.286 OA
ATOM      4  N   UNL     1      -0.613  -0.029   0.771  0.00  0.00    -0.274 N 
ATOM      5  C   UNL     1      -1.292  -1.204   0.488  0.00  0.00    +0.075 C 
ATOM      6  C   UNL     1      -1.259   1.171   0.510  0.00  0.00    +0.075 C 
ATOM      7  C   UNL     1      -2.543  -1.275   0.009  0.00  0.00    +0.084 C 
ATOM      8  C   UNL     1      -2.508   1.285   0.034  0.00  0.00    +0.084 C 
ATOM      9  C   UNL     1      -3.265   0.018  -0.248  0.00  0.00    +0.209 C 
ENDROOT
BRANCH   4  10
ATOM     10  C   UNL     1       0.765  -0.053   1.250  0.00  0.00    +0.206 C 
BRANCH  10  12
ATOM     11  O   UNL     1       1.381   0.037  -1.097  0.00  0.00    -0.248 OA
ATOM     12  C   UNL     1       1.712  -0.010   0.080  0.00  0.00    +0.338 C 
BRANCH  12  13
ATOM     13  O   UNL     1       2.994  -0.031   0.550  0.00  0.00    -0.447 OA
BRANCH  13  14
ATOM     14  C   UNL     1       4.018   0.006  -0.450  0.00  0.00    +0.208 C 
BRANCH  14  15
ATOM     15  C   UNL     1       5.376  -0.023   0.235  0.00  0.00    +0.047 C 
ATOM     16  C   UNL     1       6.515   0.029  -0.766  0.00  0.00    +0.004 C 
ENDBRANCH  14  15
ENDBRANCH  13  14
ENDBRANCH  12  13
ENDBRANCH  10  12
ENDBRANCH   4  10
TORSDOF 5
