REMARK  Name = 208910
REMARK  5 active torsions:
REMARK  status: ('A' for Active; 'I' for Inactive)
REMARK    1  A    between atoms: C_4  and  C_9
REMARK    2  A    between atoms: C_5  and  O_19
REMARK    3  A    between atoms: C_12  and  S_15
REMARK    4  A    between atoms: O_19  and  C_20
REMARK    5  A    between atoms: C_20  and  C_21
REMARK                            x       y       z     vdW  Elec       q    Type
REMARK                         _______ _______ _______ _____ _____    ______ ____
ROOT
ATOM      1  O   UNL     1      -3.461   1.894  -0.096  0.00  0.00    -0.446 OA
ATOM      2  O   UNL     1      -4.658   0.002   0.439  0.00  0.00    -0.241 OA
ATOM      3  C   UNL     1      -2.061   2.225  -0.254  0.00  0.00    +0.158 C 
ATOM      4  C   UNL     1      -1.379   0.931   0.045  0.00  0.00    +0.054 C 
ATOM      5  C   UNL     1      -2.271  -0.021   0.331  0.00  0.00    +0.213 C 
ATOM      6  C   UNL     1      -3.603   0.579   0.242  0.00  0.00    +0.376 C 
ATOM      7  C   UNL     1      -1.732   3.328   0.752  0.00  0.00    +0.048 C 
ATOM      8  C   UNL     1      -1.867   2.713  -1.690  0.00  0.00    +0.048 C 
ENDROOT
BRANCH   4   9
ATOM      9  C   UNL     1       0.071   0.759   0.033  0.00  0.00    +0.002 C 
ATOM     10  C   UNL     1       0.726   0.368  -1.140  0.00  0.00    +0.001 C 
ATOM     11  C   UNL     1       0.818   0.983   1.194  0.00  0.00    +0.001 C 
ATOM     12  C   UNL     1       2.850   0.429   0.010  0.00  0.00    +0.106 C 
ATOM     13  C   UNL     1       2.111   0.204  -1.152  0.00  0.00    +0.018 C 
ATOM     14  C   UNL     1       2.203   0.818   1.183  0.00  0.00    +0.018 C 
BRANCH  12  15
ATOM     15  S   UNL     1       4.583   0.221  -0.004  0.00  0.00    +0.010 S 
ATOM     16  O   UNL     1       5.045   0.400  -1.373  0.00  0.00    -0.169 OA
ATOM     17  O   UNL     1       5.163   1.022   1.065  0.00  0.00    -0.169 OA
ATOM     18  C   UNL     1       4.827  -1.485   0.436  0.00  0.00    +0.182 C 
ENDBRANCH  12  15
ENDBRANCH   4   9
BRANCH   5  19
ATOM     19  O   UNL     1      -2.083  -1.327   0.657  0.00  0.00    -0.469 OA
BRANCH  19  20
ATOM     20  C   UNL     1      -2.070  -2.158  -0.496  0.00  0.00    +0.206 C 
BRANCH  20  21
ATOM     21  C   UNL     1      -1.842  -3.592  -0.069  0.00  0.00    +0.044 C 
ATOM     22  C   UNL     1      -0.584  -3.920   0.650  0.00  0.00    +0.004 C 
ATOM     23  C   UNL     1      -0.787  -4.374  -0.765  0.00  0.00    +0.004 C 
ENDBRANCH  20  21
ENDBRANCH  19  20
ENDBRANCH   5  19
TORSDOF 5
