785
  -OEChem-10051722103D

 14 14  0     0  0  0  0  0  0999 V2000
    2.7558    0.0000   -0.0001 O   0  0  0  0  0  0  0  0  0  0  0  0
   -2.7561   -0.0001   -0.0002 O   0  0  0  0  0  0  0  0  0  0  0  0
    1.3949    0.0000    0.0000 C   0  0  0  0  0  0  0  0  0  0  0  0
   -1.3948    0.0000    0.0001 C   0  0  0  0  0  0  0  0  0  0  0  0
    0.6976   -1.2080    0.0001 C   0  0  0  0  0  0  0  0  0  0  0  0
   -0.6973   -1.2080    0.0000 C   0  0  0  0  0  0  0  0  0  0  0  0
    0.6974    1.2080    0.0000 C   0  0  0  0  0  0  0  0  0  0  0  0
   -0.6975    1.2079    0.0001 C   0  0  0  0  0  0  0  0  0  0  0  0
    1.2354   -2.1522    0.0001 H   0  0  0  0  0  0  0  0  0  0  0  0
   -1.2288   -2.1559    0.0000 H   0  0  0  0  0  0  0  0  0  0  0  0
    1.2289    2.1559   -0.0001 H   0  0  0  0  0  0  0  0  0  0  0  0
   -1.2353    2.1521    0.0000 H   0  0  0  0  0  0  0  0  0  0  0  0
    3.0709    0.9202   -0.0001 H   0  0  0  0  0  0  0  0  0  0  0  0
   -3.0710   -0.9203   -0.0002 H   0  0  0  0  0  0  0  0  0  0  0  0
  1  3  1  0  0  0  0
  1 13  1  0  0  0  0
  2  4  1  0  0  0  0
  2 14  1  0  0  0  0
  3  5  2  0  0  0  0
  3  7  1  0  0  0  0
  4  6  2  0  0  0  0
  4  8  1  0  0  0  0
  5  6  1  0  0  0  0
  5  9  1  0  0  0  0
  6 10  1  0  0  0  0
  7  8  2  0  0  0  0
  7 11  1  0  0  0  0
  8 12  1  0  0  0  0
M  END
> <DATABASE_ID>
DB09526

> <DATABASE_NAME>
drugbank

> <ORIGINAL_SOURCE>
PUBCHEM

> <ORIGINAL_SOURCE_URL>
https://pubchem.ncbi.nlm.nih.gov/rest/pug/compound/inchikey/QIGBRXMKCJKVMJ-UHFFFAOYSA-N/SDF?record_type=3d

> <SMILES>
OC1=CC=C(O)C=C1

> <INCHI_IDENTIFIER>
InChI=1S/C6H6O2/c7-5-1-2-6(8)4-3-5/h1-4,7-8H

> <INCHI_KEY>
QIGBRXMKCJKVMJ-UHFFFAOYSA-N

> <FORMULA>
C6H6O2

> <MOLECULAR_WEIGHT>
110.1106

> <EXACT_MASS>
110.036779436

> <JCHEM_ACCEPTOR_COUNT>
2

> <JCHEM_AVERAGE_POLARIZABILITY>
10.751706760439285

> <JCHEM_BIOAVAILABILITY>
1

> <JCHEM_DONOR_COUNT>
2

> <JCHEM_FORMAL_CHARGE>
0

> <JCHEM_GHOSE_FILTER>
0

> <JCHEM_IUPAC>
benzene-1,4-diol

> <ALOGPS_LOGP>
0.71

> <JCHEM_LOGP>
1.3661151726666665

> <ALOGPS_LOGS>
-0.06

> <JCHEM_MDDR_LIKE_RULE>
0

> <JCHEM_NUMBER_OF_RINGS>
1

> <JCHEM_PHYSIOLOGICAL_CHARGE>
0

> <JCHEM_PKA>
11.553013032476033

> <JCHEM_PKA_STRONGEST_ACIDIC>
9.676283592749463

> <JCHEM_PKA_STRONGEST_BASIC>
-5.887165947200477

> <JCHEM_POLAR_SURFACE_AREA>
40.46

> <JCHEM_REFRACTIVITY>
30.0198

> <JCHEM_ROTATABLE_BOND_COUNT>
0

> <JCHEM_RULE_OF_FIVE>
1

> <ALOGPS_SOLUBILITY>
9.55e+01 g/l

> <JCHEM_TRADITIONAL_IUPAC>
Î±-hydroquinone

> <JCHEM_VEBER_RULE>
0

> <DRUGBANK_ID>
DB09526

> <DRUG_GROUPS>
approved; investigational

> <GENERIC_NAME>
Hydroquinone

> <SYNONYMS>
1,4-benzenediol; 1,4-dihydroxybenzene; 4-Hydroxyphenol; benzene-1,4-diol; p-Benzenediol; p-Hydroquinone; p-hydroxyphenol; Quinol

> <PRODUCTS>
AGELESS Total Skin Bleaching Serum; AMBI Fade Normal Skin; AMBI Fade Oily Skin; AMBI Skincare Oily Skin Fade; Accelerated Dark Spot Corrector; Aclaro Hydroquinone; Aclaro PD Hydroquinone; Activator Light; Active 4; Advanced Dual Complex Fade Maximum Strength Plus; Advanced Lightning; Advanced Skin Lightening Cream; Advanced Skin Lightening Serum; African Formula Black; African Formula Carrot; African Formula Skin Lightening; African Gold Skin Discoloration Fade Crm 2%; Alphaquin HP; Alumier MD Lightening; Ambi Extra Skin Discoloration Fade Cream; Ambi Fade Normal Skin; Ambi Fade Oily Skin; Ambi Skincare Normal Skin Fade; Artra Skin Tone for Dry Skin; Artra Skin Tone for Normal Skin; Artra Skin Tone for Oily Skin; BEST Age Spot Remover; Balancer; Banishing Cream; Black Opal Advance Dual Complex Fade Gel; Black Opal Advanced Dual Phase Fade Creme; Black and White Skin Bleach; Body Fade Creme Maximum Strength; Body Merry Lightening and Whitening Cream; Borba Age Defying Skin Lightening Spot Treatment; Bright Malika and Khadija Brightening Spot Treatment; Brighten Lightening; CONDITION AND ENHANCE BLENDER Skin Lightener and Blending; CONDITION AND ENHANCE CLEAR Skin Bleaching and Corrector; Caro Light; Celazome Fade Shades Lightening Cream w/ Glycolic Acid; Cenovia; Cicatricure Skin Lightening; Clairissime Clear Complexion Lotion; Clarite 4; Clear Action; Clear Essence Advance Complex Fade Gel; Clear Essence Medicated Fade Cream; Clear Essence Skin Lightening Gel; Clear Essence Skin Lightening Milk; Clear-N-Smooth; Clear-N-Smooth PLUS; Clear-N-Smooth Super-Ultimate; Clear-N-Smooth SuperMax; Clear-N-Smooth Ultimate; Clear-N-Smooth UltraMax; Condition and Enhance System Full-size Non-surgical; Condition and Enhance System Travel-size Non-surgical; Condition and Enhance System Travel-size Surgical; Conditioning Gel; Continuum Unifying Lotion I; Continuum Unifying Lotion II; Corrector 2; Corrector 4; Corrector Light; Creme Blanchissante - Crm 2%; Crusader Skin Lightening; Crusader Ultra Skin Lightening; Daily Fade Maximum Strength SPF15; Dark Spot Lightening Cream; Dermablend Advanced Fade Cream With Sunscreen and Moisturizing Aha; Dermablend Chromatone Fade Cream With Sunscreen; Dermaclair Skin Lightening; Dermisa Skin Fade; Dermisa Skin Fade Cream; Dermisa Skin Fade Vitamin C infused; Desoximetasone 0.05% / Hydroquinone 6% / Tretinoin 0.05%; Differin Dark Spot Correcting Serum; Divine Derrier Skin Bleaching cream; Dr. Lightening Ultra-Potent Facial; Dr. Throwers Pbc No. 1; Dr. Throwers Skin Lightening Moisturizing; Drula Fade Cream Extra-medicated; Drula Fade Cream Medium-medicated; Drula Fade Cream Normal-medicated; Drula Fade Cream Superforte Medicated; Dual Action Skin Lightener; EB5 Age Spot Treatment; ELASTIDERM DECOLLETAGE SKIN LIGHTENING COMPLEX Chest and Neck; Eldopaque Crm 2%; Eldopaque Forte Crm 4%; Eldoquin; Eldoquin Forte; Enlighten Me; EpiQuin Micro; Epiquin Micro; Erfa Hydroquinone; Esoterica Daytime with Moisturizers and Sunscreen; Esoterica Daytime with Sunscreen; Esoterica Facial Cream; Esoterica Nighttime with Moisturizers; Esoterica Regular Cream; Esoterica Scented-fortified With Sunscreen; Esoterica Sunscreen Fade Cream; Esoterica Unscented; Esoterica Unscented Fortified W.sun Screen; Essential Fade Complex; Even Tone Night Treatment; Exence White; Exuviance Intense Lightening Complex; Fade Away Extra Care; Fade Dark Spots Daytime Treatment; Fade Dark Spots Nighttime Treatment; Fading Fluid; Glyquin Xm; Glytone Clarifying; Glytone Clarifying SunVanish with Sunscreen; Glytone Dark Spot Corrector; Glytone Skin Lightening; Glytone SunVanish Skin Lightening; Glytone skin bleaching fading; Gold Cosmetics Adi Clear; Gold Cosmetics Bleach Cream; Gold Cosmetics Bleach Cream Forte; Gold Cosmetics Bleach Cream Silver; HQ Plus Brightening Cream VI Derm; Hot Movate; Hqra-otc; Hyaluronic Acid Sodium Salt 0.5% / Hydroquinone 4% / Tretinoin 0.05%; Hyaluronic Acid Sodium Salt 1% / Hydroquinone 6%; Hydro-Q; Hydrocortisone 0.5% / Hydroquinone 4% / Tretinoin 0.025%; Hydrocortisone 0.5% / Hydroquinone 6%; Hydrocortisone 0.5% / Hydroquinone 6% / Tretinoin 0.025%; Hydrocortisone 0.5% / Hydroquinone 6% / Tretinoin 0.05%; Hydrocortisone 0.5% / Hydroquinone 8% / Tretinoin 0.025%; Hydrocortisone 0.5% / Hydroquinone 8% / Tretinoin 0.05%; Hydrocortisone 1% / Hydroquinone 8% / Tretinoin 0.05%; Hydrocortisone 2.5% / Hydroquinone 4% / Tretinoin 0.025%,; Hydroquinone; Hydroquinone 4%; Hydroquinone 4% / Tretinoin 0.025%; Hydroquinone 4% / Tretinoin 0.025% / Triamcinolone Acetonide 0.025%; Hydroquinone 5% / Tretinoin 0.025% / Triamcinolone Acetonide 0.025%; Hydroquinone 6%; Hydroquinone 6% / Tretinoin 0.05% / Triamcinolone 0.025%; Hydroquinone 6% /tretinoin 0.05%; Hydroquinone 8%; Hydroquinone 8% / Tretinoin 0.025%; Hydroquinone 8% / Tretinoin 0.025%.; Hydroquinone 8%.; Hydroquinone Time Release; Hydroquinone with sunscreens; Hyperpigmentation Treatment; I-max Lightening 5; I-max Lightening L; Idole Beauty; Idole Black; Idole Carrot; Idole Intense; Idole Lemon; Idole Natural Organic; Idole Natural Organic Skin Lightening; Idole Skin Lightening; Image MD Lightening Rx; Jouvence Crm 2%; Light The Way; Lightener; Lightening HQ Spot; LumaSilk Emulsion Level 02; LumaSilk Emulsion Level 03; Lumipearl Dark Mark Corrector; Lustra; Lustra AF; Lustra-AF; MD Acne Medicated Dark Spot Remover; MELAMIN Skin Bleaching and Correcting; MELAMIN Skin Bleaching and Correcting Hydroquinone; MELAMIX Skin Lightener and Blending; Meaningful Beauty Dark Spot Correcting Treatment; Medicated Fade Creme with Sunscreen; Medisilke Night; Meditowel Illuminating Skin Brightening; Melpaque HP; Melquin 3; Melquin Hp; Metasol; Metasol Skin Lightening; Miracle Fade; Movate Carrot; Movate Lemon; Movate Skin Lightening; Movate Skin Lightening Lemon; Multi Complex Fade; NU-DERM BLENDER Skin Lightener and Blending; NU-DERM CLEAR Skin Bleaching and Corrector; NU-DERM SUNFADER Skin Lightener with Sunscreen (SPF 15) PABA FREE; Nadinola Skin Disc.fade Crm for Dry Skin 2%; Nadinola Skin Disc.fade Crm for Oily Skin 2%; Nadinola Skin Discoloration Fade Cream-S.C.f; Nadinola Skin Fade for Dry Skin; Nadinola Skin Fade for Normal Skin; Nadinola Skin Fade for Oily Skin; Nadinola Skin FadeExtra; NeoCeuticals Post Acne Fade; NeoStrata HQ Skin Lightening; Neostrata Canada Hq Plus Cream; Neostrata Hq Plus Lightening Cream; Neova Complex HQ Plus; Nova Complex HQ; Nu-derm Starter Set Normal-dry Skin Transformation System; Nu-derm Starter Set Normal-oily Skin Transformation System; Nu-derm System Normal-dry Skin Transformation; Nu-derm System Normal-dry Skin Transformation Trial; Nu-derm System Normal-oily Skin Transformation; Nu-derm System Normal-oily Skin Transformation Trial; Nu-derm Travel Set Normal/dry Skin Transformation System; Nuderm Sunfader; Nuquin Hp; OBAGI C RX system C CLARIFYING SERUM; OBAGI-C RX system C-THERAPY NIGHT; OLIVIA QUIDO FIRM and FADE I; OLIVIA QUIDO FIRM and FADE II; Obagi; Obagi - C; Obagi Medical - Nu-Derm System - Normal to Dry - Skin Transformation Kit; Obagi Medical - Nu-Derm System - Normal to Dry - Skin Transformation Trial Kit; Obagi Nu-Derm; Obagi Nu-Derm Sunfader; Obagi Protocols Clear; Obagi-C Rx System Normal-dry Skin Intervention; Obagi-C Rx System Normal-oily Skin Intervention; Othine Skin Bleach; PA Plus Advanced Dark Spot Correcting Serum; Palmer's Skin Success Fade Cream-for Dry Skn; Palmer's Skin Success Fade Cream-for Oily Sk; Palmer's Skin Success Fade Cream-normal Skin; Perrigo Hydroquinone with sunscreens; Pharmaskincare Parfait Lightening Serum; Pharmaskincare Serum Skin Lightening; Phaze 13 Light N' Block Pigment Cream; Pigment; Piona; Porcelana 24 Hour Skin Lightening; Porcelana Day Skin Lightening; Porcelana Medicated Fade Cream - Orig. Fmla; Porcelana Medicated Fade Crm Sunscreen Fmla; Porcelana Night Skin Lightening; Porcelana Skin Lightening Daytime Protection; Porcelana Skin Lightening Nighttime Hydration; Precious Beauty Skin Lightening; Proactiv Advanced Dark Spot Correcting Serum; Proactiv Skin Lightening; Proactiv Solution Dark Spot Corrector; Pure Valley Miracle Age Spot; REVERS Lightening Regimen for the Appearance of Stubborn Dark Marks, Patches and Age Spots Travel Size; REVERSE Lightening Regimen for the Appearance of Stubborn Dark Marks, Patches and Age Spots; Recover Lightening Complex with 4% Hydroquinone; Rejuvaderm medispa fading; Restoration Serum Epione; Rodan & Fields Proactiv Solution: Skin Lightening Lotion; Rodan and Fields Skin Lightening Treatment; SH 18 Whitening; SH18 Caviar Beauty; SH18 Skin Lightening; SH18 Ultra Harmonie Carrot Beauty; SYMBA Skin Lightening; Scarlight MD; Seequin 2; Seequin 4; Seequin 4 Ids; Sh18; Skin Beautifying Milk; Skin Lightener; Skin Lightening Accelerator Pack; Skin Lightening Complex; Skin Lightening Cream; Skin Lightening Rodan Fields; Skin Lightening Treatment; Skinprint 3D Clear Peel; Skinprint ClearTone with 2% Hydroquinone; Skinprint ClearTone with 8% Hydroquinone; Skinprint Recover Lightening Complex with 2% Hydroquinone; Sledgehammer; Solaquin; Solaquin Forte; Sunbalance; Sunvanish; Superlightener; Teatrical Skin Lightening Skin Lightener; Top White; Top White Skin Lightening; Topiclear; Topiclear Carrot; Topiclear Cocoa Butter; Topiclear Cocoa Butter beauty; Topiclear Lemon; Topiclear Paris; Topiclear Paris Beauty; Topiclear Skin Lightening; Topiclear Xtra beauty; Topiclear Xtra lemon beauty; Total White Brightening; Tri-luma; Ultra Glow Fade; Ultra Glow Fade with Aloe Vera; Ultra Glow Skin Tone Cream Dry Skin Aloe Vera; Ultra Glow Skin Tone Cream Normal Skin Aloe Vera; Ultra Glow Skin Tone Cream Oily Skin Aloe Vera; Ultra Glow Skin Tone Cream for Normal Skin; Ultra Glow Skin Tone Cream for Oily Skin; Ultra-Potent Brightening Serum; Ultraplus Skin Lightening Cream - 2%; Ultraquin 4% Hydroquinone Cream With Sunscreens; Unblemish; Unblemish Dermatologist Developed Spot Fading Toner; Unblemish Regimen for Acne and Post Acne Marks; Vantex Skin Bleaching Crm W Sunscreen 2%; Viquin Forte With Moisturizing Aha - Crm; Vividly Brilliant Perfecting; ZO MEDICAL MELAMIN-C Skin Bleaching and Correcting with Vitamin C Hydroquinone; ZO Skin Health Multi-Therapy Hydroquinone System; ZO Skin Health Pigment Control Creme Hydroquinone; ZO Skin Health Pigment Control Plus Blending Creme Hydroquinone; ZO Skin Health Pigment Control plus Blending Creme Hydroquinone; ZO Skin Health Pigment Control plus Brightening Creme Hydroquinone plus Vitamin C; Zarina Skin Lightening Cream With Sunscreening Filter; Zo Medical Zo Multi-therapy Hydroquinone System; eB5 Age Sport Formula; eB5 Age Spot Formula; gloTriple Action Serum

$$$$
