REMARK  Name = 37264
REMARK  7 active torsions:
REMARK  status: ('A' for Active; 'I' for Inactive)
REMARK    1  A    between atoms: C_12  and  O_28
REMARK    2  A    between atoms: C_16  and  O_22
REMARK    3  A    between atoms: C_18  and  O_24
REMARK    4  A    between atoms: C_19  and  O_26
REMARK    5  A    between atoms: O_28  and  C_29
REMARK    6  A    between atoms: C_29  and  C_30
REMARK    7  A    between atoms: C_30  and  O_33
REMARK                            x       y       z     vdW  Elec       q    Type
REMARK                         _______ _______ _______ _____ _____    ______ ____
ROOT
ATOM      1  O   UNL     1       4.935   2.394  -0.574  0.00  0.00    -0.226 OA
ATOM      2  N   UNL     1       0.752   0.042   0.391  0.00  0.00    -0.231 N 
ATOM      3  N   UNL     1       3.408   0.983   0.462  0.00  0.00    -0.242 N 
ATOM      4  N   UNL     1      -1.565   0.515   0.226  0.00  0.00    -0.329 NA
ATOM      5  N   UNL     1      -0.775  -1.761   0.249  0.00  0.00    -0.317 NA
ATOM      6  N   UNL     1      -2.286  -3.558   0.109  0.00  0.00    -0.335 N 
ATOM      7  C   UNL     1       1.855  -0.927   0.457  0.00  0.00    +0.125 C 
ATOM      8  C   UNL     1       1.074   1.343  -0.219  0.00  0.00    +0.125 C 
ATOM      9  C   UNL     1       3.085  -0.291   1.103  0.00  0.00    +0.119 C 
ATOM     10  C   UNL     1       2.311   1.946   0.441  0.00  0.00    +0.119 C 
ATOM     11  C   UNL     1      -0.566  -0.416   0.286  0.00  0.00    +0.204 C 
ATOM     12  C   UNL     1       4.658   1.309  -0.066  0.00  0.00    +0.405 C 
ATOM     13  C   UNL     1      -2.834   0.082   0.126  0.00  0.00    +0.171 C 
ATOM     14  C   UNL     1      -3.139  -1.288   0.082  0.00  0.00    +0.149 C 
ATOM     15  C   UNL     1      -2.057  -2.161   0.148  0.00  0.00    +0.178 C 
ATOM     16  C   UNL     1      -3.892   0.986   0.061  0.00  0.00    +0.202 C 
ATOM     17  C   UNL     1      -4.470  -1.730  -0.024  0.00  0.00    +0.029 C 
ATOM     18  C   UNL     1      -5.218   0.554  -0.043  0.00  0.00    +0.208 C 
ATOM     19  C   UNL     1      -5.507  -0.805  -0.086  0.00  0.00    +0.172 C 
ATOM     20  H   UNL     1      -1.527  -4.184   0.155  0.00  0.00    +0.144 HD
ATOM     21  H   UNL     1      -3.205  -3.904   0.035  0.00  0.00    +0.144 HD
ENDROOT
BRANCH  16  22
ATOM     22  O   UNL     1      -3.632   2.328   0.101  0.00  0.00    -0.466 OA
ATOM     23  C   UNL     1      -3.417   2.978  -1.147  0.00  0.00    +0.253 C 
ENDBRANCH  16  22
BRANCH  18  24
ATOM     24  O   UNL     1      -6.228   1.468  -0.104  0.00  0.00    -0.465 OA
ATOM     25  C   UNL     1      -6.802   1.881   1.133  0.00  0.00    +0.253 C 
ENDBRANCH  18  24
BRANCH  19  26
ATOM     26  O   UNL     1      -6.793  -1.241  -0.186  0.00  0.00    -0.469 OA
ATOM     27  C   UNL     1      -7.314  -1.429  -1.501  0.00  0.00    +0.253 C 
ENDBRANCH  19  26
BRANCH  12  28
ATOM     28  O   UNL     1       5.559   0.282   0.041  0.00  0.00    -0.432 OA
BRANCH  28  29
ATOM     29  C   UNL     1       6.869   0.536  -0.480  0.00  0.00    +0.237 C 
BRANCH  29  30
ATOM     30  C   UNL     1       7.766  -0.694  -0.293  0.00  0.00    +0.129 C 
ATOM     31  C   UNL     1       7.182  -1.935  -0.970  0.00  0.00    +0.033 C 
ATOM     32  C   UNL     1       9.172  -0.412  -0.825  0.00  0.00    +0.033 C 
BRANCH  30  33
ATOM     33  O   UNL     1       7.868  -0.982   1.104  0.00  0.00    -0.383 OA
ATOM     34  H   UNL     1       6.986  -1.164   1.462  0.00  0.00    +0.210 HD
ENDBRANCH  30  33
ENDBRANCH  29  30
ENDBRANCH  28  29
ENDBRANCH  12  28
TORSDOF 7
