REMARK  Name = 10220503
REMARK  4 active torsions:
REMARK  status: ('A' for Active; 'I' for Inactive)
REMARK    1  A    between atoms: C_1  and  C_5
REMARK    2  A    between atoms: C_2  and  C_13
REMARK    3  A    between atoms: C_13  and  N_15
REMARK    4  A    between atoms: C_16  and  C_18
REMARK                            x       y       z     vdW  Elec       q    Type
REMARK                         _______ _______ _______ _____ _____    ______ ____
ROOT
ATOM      1  C   UNL     1      -0.046   1.152   0.358  0.00  0.00    +0.024 C 
ATOM      2  C   UNL     1       0.950   1.548  -0.689  0.00  0.00    +0.024 C 
ATOM      3  C   UNL     1      -0.226   2.434  -0.396  0.00  0.00    +0.006 C 
ENDROOT
BRANCH   1   5
ATOM      4  O   UNL     1      -4.516  -0.578  -0.002  0.00  0.00    -0.475 OA
ATOM      5  C   UNL     1      -0.967   0.014   0.089  0.00  0.00    -0.023 C 
ATOM      6  C   UNL     1      -2.340   0.164   0.165  0.00  0.00    +0.012 C 
ATOM      7  C   UNL     1      -0.459  -1.241  -0.256  0.00  0.00    -0.004 C 
ATOM      8  C   UNL     1      -3.144   1.373   0.442  0.00  0.00    +0.076 C 
ATOM      9  C   UNL     1      -3.187  -0.901  -0.105  0.00  0.00    +0.134 C 
ATOM     10  C   UNL     1      -4.507   0.712   0.655  0.00  0.00    +0.210 C 
ATOM     11  C   UNL     1      -1.323  -2.313  -0.531  0.00  0.00    +0.003 C 
ATOM     12  C   UNL     1      -2.708  -2.146  -0.461  0.00  0.00    +0.037 C 
ENDBRANCH   1   5
BRANCH   2  13
ATOM     13  C   UNL     1       2.305   1.984  -0.269  0.00  0.00    +0.090 C 
BRANCH  13  15
ATOM     14  O   UNL     1       3.224  -0.243   1.335  0.00  0.00    -0.275 OA
ATOM     15  N   UNL     1       3.303   1.009  -0.623  0.00  0.00    -0.304 N 
ATOM     16  C   UNL     1       3.683  -0.033   0.215  0.00  0.00    +0.222 C 
ATOM     17  H   UNL     1       3.738   1.083  -1.503  0.00  0.00    +0.149 HD
BRANCH  16  18
ATOM     18  C   UNL     1       4.751  -0.905  -0.420  0.00  0.00    +0.085 C 
ATOM     19  C   UNL     1       5.207  -2.029   0.492  0.00  0.00    +0.010 C 
ENDBRANCH  16  18
ENDBRANCH  13  15
ENDBRANCH   2  13
TORSDOF 4
