REMARK  Name = 2451
REMARK  1 active torsions:
REMARK  status: ('A' for Active; 'I' for Inactive)
REMARK    1  A    between atoms: C_10  and  C_17
REMARK                            x       y       z     vdW  Elec       q    Type
REMARK                         _______ _______ _______ _____ _____    ______ ____
ROOT
ATOM      1 BR   UNL     1       0.080   4.872   0.086  0.00  0.00    -0.042 Br
ATOM      2  S   UNL     1       1.942   2.317  -0.257  0.00  0.00    -0.063 S 
ATOM      3  N   UNL     1       2.266  -0.308   0.047  0.00  0.00    -0.273 N 
ATOM      4  N   UNL     1      -0.299  -1.615   1.155  0.00  0.00    -0.262 NA
ATOM      5  N   UNL     1       3.094  -2.328   0.373  0.00  0.00    -0.131 NA
ATOM      6  N   UNL     1       3.960  -1.635  -0.437  0.00  0.00    -0.133 NA
ATOM      7  C   UNL     1       1.381   0.761   0.116  0.00  0.00    +0.098 C 
ATOM      8  C   UNL     1       0.042   0.706   0.458  0.00  0.00    +0.041 C 
ATOM      9  C   UNL     1       2.104  -1.520   0.685  0.00  0.00    +0.172 A 
ATOM     10  C   UNL     1      -0.746  -0.518   0.652  0.00  0.00    +0.079 C 
ATOM     11  C   UNL     1       1.043  -1.748   1.695  0.00  0.00    +0.191 C 
ATOM     12  C   UNL     1       3.473  -0.426  -0.595  0.00  0.00    +0.148 A 
ATOM     13  C   UNL     1      -0.484   2.049   0.509  0.00  0.00    +0.017 C 
ATOM     14  C   UNL     1       0.437   3.009   0.153  0.00  0.00    +0.065 C 
ATOM     15  C   UNL     1       4.121   0.597  -1.442  0.00  0.00    +0.074 C 
ENDROOT
BRANCH  10  17
ATOM     16 CL   UNL     1      -1.371  -1.382  -2.247  0.00  0.00    -0.082 Cl
ATOM     17  C   UNL     1      -2.166  -0.501   0.211  0.00  0.00    +0.028 C 
ATOM     18  C   UNL     1      -2.538  -0.876  -1.078  0.00  0.00    +0.059 C 
ATOM     19  C   UNL     1      -3.130  -0.097   1.131  0.00  0.00    +0.002 C 
ATOM     20  C   UNL     1      -3.883  -0.847  -1.448  0.00  0.00    +0.011 C 
ATOM     21  C   UNL     1      -4.474  -0.068   0.761  0.00  0.00    +0.000 C 
ATOM     22  C   UNL     1      -4.851  -0.443  -0.528  0.00  0.00    +0.001 C 
ENDBRANCH  10  17
TORSDOF 1
