REMARK  Name = 999
REMARK  3 active torsions:
REMARK  status: ('A' for Active; 'I' for Inactive)
REMARK    1  A    between atoms: C_1  and  C_7
REMARK    2  A    between atoms: C_7  and  C_9
REMARK    3  A    between atoms: C_9  and  O_10
REMARK                            x       y       z     vdW  Elec       q    Type
REMARK                         _______ _______ _______ _____ _____    ______ ____
ROOT
ATOM      1  C   UNL     1      -0.170   0.014   0.489  0.00  0.00    -0.011 C 
ATOM      2  C   UNL     1      -0.831   1.217   0.241  0.00  0.00    -0.004 C 
ATOM      3  C   UNL     1      -0.838  -1.198   0.313  0.00  0.00    -0.004 C 
ATOM      4  C   UNL     1      -2.160   1.208  -0.182  0.00  0.00    -0.000 C 
ATOM      5  C   UNL     1      -2.167  -1.207  -0.111  0.00  0.00    -0.000 C 
ATOM      6  C   UNL     1      -2.828  -0.004  -0.358  0.00  0.00    -0.000 C 
ENDROOT
BRANCH   1   7
ATOM      7  C   UNL     1       1.251   0.024   0.942  0.00  0.00    +0.136 C 
BRANCH   7   9
ATOM      8  O   UNL     1       1.961  -0.088  -1.385  0.00  0.00    -0.250 OA
ATOM      9  C   UNL     1       2.249  -0.013  -0.198  0.00  0.00    +0.318 C 
BRANCH   9  10
ATOM     10  O   UNL     1       3.531   0.047   0.249  0.00  0.00    -0.480 OA
ATOM     11  H   UNL     1       3.705   0.104   1.168  0.00  0.00    +0.295 HD
ENDBRANCH   9  10
ENDBRANCH   7   9
ENDBRANCH   1   7
TORSDOF 3
