REMARK  Name = 6475
REMARK  6 active torsions:
REMARK  status: ('A' for Active; 'I' for Inactive)
REMARK    1  A    between atoms: C_1  and  C_4
REMARK    2  A    between atoms: C_1  and  C_10
REMARK    3  A    between atoms: C_1  and  O_16
REMARK    4  A    between atoms: O_16  and  C_17
REMARK    5  A    between atoms: C_17  and  C_18
REMARK    6  A    between atoms: C_18  and  N_19
REMARK                            x       y       z     vdW  Elec       q    Type
REMARK                         _______ _______ _______ _____ _____    ______ ____
ROOT
ATOM      1  C   UNL     1       0.153   0.323   0.593  0.00  0.00    +0.130 C 
ATOM      2  C   UNL     1       0.602   0.265   2.067  0.00  0.00    +0.039 C 
ENDROOT
BRANCH   1   4
ATOM      3 CL   UNL     1      -4.670  -3.001  -0.716  0.00  0.00    -0.082 Cl
ATOM      4  C   UNL     1      -1.077  -0.526   0.258  0.00  0.00    +0.006 C 
ATOM      5  C   UNL     1      -1.486  -0.603  -1.052  0.00  0.00    -0.001 C 
ATOM      6  C   UNL     1      -1.724  -1.177   1.283  0.00  0.00    -0.001 C 
ATOM      7  C   UNL     1      -2.607  -1.375  -1.356  0.00  0.00    +0.011 C 
ATOM      8  C   UNL     1      -2.846  -1.949   0.979  0.00  0.00    +0.011 C 
ATOM      9  C   UNL     1      -3.287  -2.048  -0.341  0.00  0.00    +0.058 C 
ENDBRANCH   1   4
BRANCH   1  10
ATOM     10  C   UNL     1      -0.057   1.788   0.192  0.00  0.00    +0.006 C 
ATOM     11  C   UNL     1      -1.095   2.481   0.765  0.00  0.00    -0.002 C 
ATOM     12  C   UNL     1       0.803   2.347  -0.723  0.00  0.00    -0.002 C 
ATOM     13  C   UNL     1      -1.286   3.814   0.402  0.00  0.00    -0.000 C 
ATOM     14  C   UNL     1       0.612   3.680  -1.086  0.00  0.00    -0.000 C 
ATOM     15  C   UNL     1      -0.433   4.414  -0.524  0.00  0.00    -0.000 C 
ENDBRANCH   1  10
BRANCH   1  16
ATOM     16  O   UNL     1       1.251  -0.227  -0.124  0.00  0.00    -0.353 OA
BRANCH  16  17
ATOM     17  C   UNL     1       1.473  -1.587   0.225  0.00  0.00    +0.120 C 
BRANCH  17  18
ATOM     18  C   UNL     1       2.655  -2.110  -0.575  0.00  0.00    -0.045 C 
BRANCH  18  19
ATOM     19  N   UNL     1       3.856  -1.324  -0.295  0.00  0.00    +0.386 N 
ATOM     20  C   UNL     1       4.980  -1.804  -1.099  0.00  0.00    -0.101 C 
ATOM     21  C   UNL     1       4.184  -1.381   1.129  0.00  0.00    -0.101 C 
ATOM     22  H   UNL     1       3.672  -0.352  -0.546  0.00  0.00    -0.080 HD
ENDBRANCH  18  19
ENDBRANCH  17  18
ENDBRANCH  16  17
ENDBRANCH   1  16
TORSDOF 6
