REMARK  Name = 131204
REMARK  9 active torsions:
REMARK  status: ('A' for Active; 'I' for Inactive)
REMARK    1  A    between atoms: C_1  and  C_4
REMARK    2  A    between atoms: C_1  and  C_11
REMARK    3  A    between atoms: C_1  and  O_17
REMARK    4  A    between atoms: N_3  and  C_6
REMARK    5  A    between atoms: C_6  and  C_7
REMARK    6  A    between atoms: C_7  and  C_8
REMARK    7  A    between atoms: C_8  and  O_9
REMARK    8  A    between atoms: C_11  and  C_14
REMARK    9  A    between atoms: C_14  and  O_15
REMARK                            x       y       z     vdW  Elec       q    Type
REMARK                         _______ _______ _______ _____ _____    ______ ____
ROOT
ATOM      1  C   UNL     1       0.924  -0.819  -0.511  0.00  0.00    +0.189 C 
ENDROOT
BRANCH   1   4
ATOM      2  O   UNL     1      -0.280  -1.119   1.566  0.00  0.00    -0.272 OA
ATOM      3  N   UNL     1      -0.994   0.535   0.104  0.00  0.00    -0.302 N 
ATOM      4  C   UNL     1      -0.174  -0.508   0.504  0.00  0.00    +0.249 C 
ATOM      5  H   UNL     1      -0.823   0.958  -0.769  0.00  0.00    +0.150 HD
BRANCH   3   6
ATOM      6  C   UNL     1      -2.088   1.029   0.908  0.00  0.00    +0.092 C 
BRANCH   6   7
ATOM      7  C   UNL     1      -3.398   0.309   0.617  0.00  0.00    +0.053 C 
BRANCH   7   8
ATOM      8  C   UNL     1      -3.831   0.437  -0.839  0.00  0.00    +0.139 C 
BRANCH   8   9
ATOM      9  O   UNL     1      -5.065  -0.248  -1.011  0.00  0.00    -0.382 OA
ATOM     10  H   UNL     1      -5.350  -0.173  -1.935  0.00  0.00    +0.210 HD
ENDBRANCH   8   9
ENDBRANCH   7   8
ENDBRANCH   6   7
ENDBRANCH   3   6
ENDBRANCH   1   4
BRANCH   1  11
ATOM     11  C   UNL     1       2.264  -0.068  -0.255  0.00  0.00    +0.060 C 
ATOM     12  C   UNL     1       3.275  -0.478  -1.353  0.00  0.00    +0.005 C 
ATOM     13  C   UNL     1       2.871  -0.465   1.105  0.00  0.00    +0.005 C 
BRANCH  11  14
ATOM     14  C   UNL     1       2.063   1.467  -0.310  0.00  0.00    +0.140 C 
BRANCH  14  15
ATOM     15  O   UNL     1       3.289   2.152  -0.077  0.00  0.00    -0.382 OA
ATOM     16  H   UNL     1       3.137   3.109  -0.117  0.00  0.00    +0.210 HD
ENDBRANCH  14  15
ENDBRANCH  11  14
ENDBRANCH   1  11
BRANCH   1  17
ATOM     17  O   UNL     1       1.144  -2.226  -0.448  0.00  0.00    -0.376 OA
ATOM     18  H   UNL     1       1.837  -2.473  -1.079  0.00  0.00    +0.211 HD
ENDBRANCH   1  17
TORSDOF 9
