REMARK  Name = 31707
REMARK  5 active torsions:
REMARK  status: ('A' for Active; 'I' for Inactive)
REMARK    1  A    between atoms: N_1  and  C_11
REMARK    2  A    between atoms: C_2  and  C_17
REMARK    3  A    between atoms: C_17  and  C_18
REMARK    4  A    between atoms: C_18  and  C_19
REMARK    5  A    between atoms: C_19  and  N_20
REMARK                            x       y       z     vdW  Elec       q    Type
REMARK                         _______ _______ _______ _____ _____    ______ ____
ROOT
ATOM      1  N   UNL     1      -1.143  -0.118  -0.005  0.00  0.00    -0.287 N 
ATOM      2  C   UNL     1       1.147   0.534  -0.565  0.00  0.00    +0.039 C 
ATOM      3  C   UNL     1       0.231  -0.645  -0.125  0.00  0.00    +0.099 C 
ATOM      4  C   UNL     1       0.306   1.708  -0.140  0.00  0.00    -0.008 C 
ATOM      5  C   UNL     1      -0.999   1.281   0.151  0.00  0.00    +0.048 C 
ATOM      6  C   UNL     1       1.344   0.541  -2.086  0.00  0.00    +0.006 C 
ATOM      7  C   UNL     1       0.673   3.045  -0.051  0.00  0.00    -0.003 C 
ATOM      8  C   UNL     1      -1.944   2.207   0.570  0.00  0.00    +0.015 C 
ATOM      9  C   UNL     1      -0.284   3.972   0.356  0.00  0.00    -0.000 C 
ATOM     10  C   UNL     1      -1.583   3.555   0.668  0.00  0.00    +0.001 C 
ENDROOT
BRANCH   1  11
ATOM     11  C   UNL     1      -2.252  -0.969   0.021  0.00  0.00    +0.052 C 
ATOM     12  C   UNL     1      -3.528  -0.521  -0.387  0.00  0.00    +0.015 C 
ATOM     13  C   UNL     1      -2.136  -2.308   0.455  0.00  0.00    +0.015 C 
ATOM     14  C   UNL     1      -4.634  -1.371  -0.360  0.00  0.00    +0.001 C 
ATOM     15  C   UNL     1      -3.243  -3.157   0.481  0.00  0.00    +0.001 C 
ATOM     16  C   UNL     1      -4.492  -2.688   0.073  0.00  0.00    +0.000 C 
ENDBRANCH   1  11
BRANCH   2  17
ATOM     17  C   UNL     1       2.499   0.475   0.149  0.00  0.00    +0.004 C 
BRANCH  17  18
ATOM     18  C   UNL     1       3.294  -0.751  -0.286  0.00  0.00    -0.023 C 
BRANCH  18  19
ATOM     19  C   UNL     1       4.655  -0.785   0.406  0.00  0.00    -0.082 C 
BRANCH  19  20
ATOM     20  N   UNL     1       5.400  -1.971  -0.001  0.00  0.00    +0.382 N 
ATOM     21  C   UNL     1       6.687  -2.034   0.677  0.00  0.00    -0.106 C 
ATOM     22  H   UNL     1       5.555  -1.939  -1.009  0.00  0.00    -0.085 HD
ATOM     23  H   UNL     1       4.859  -2.798   0.250  0.00  0.00    -0.085 HD
ENDBRANCH  19  20
ENDBRANCH  18  19
ENDBRANCH  17  18
ENDBRANCH   2  17
TORSDOF 5
