REMARK  Name = 9811834
REMARK  13 active torsions:
REMARK  status: ('A' for Active; 'I' for Inactive)
REMARK    1  A    between atoms: C_1  and  N_3
REMARK    2  A    between atoms: C_1  and  C_12
REMARK    3  A    between atoms: C_1  and  C_20
REMARK    4  A    between atoms: C_4  and  C_6
REMARK    5  A    between atoms: C_6  and  C_7
REMARK    6  A    between atoms: C_7  and  C_9
REMARK    7  A    between atoms: C_9  and  O_10
REMARK    8  A    between atoms: C_12  and  C_13
REMARK    9  A    between atoms: C_13  and  C_16
REMARK   10  A    between atoms: C_16  and  O_17
REMARK   11  A    between atoms: O_17  and  C_18
REMARK   12  A    between atoms: C_20  and  C_21
REMARK   13  A    between atoms: C_24  and  C_27
REMARK                            x       y       z     vdW  Elec       q    Type
REMARK                         _______ _______ _______ _____ _____    ______ ____
ROOT
ATOM      1  C   UNL     1      -1.516  -1.537  -1.058  0.00  0.00    +0.076 C 
ENDROOT
BRANCH   1   3
ATOM      2  O   UNL     1      -1.469   0.704   0.772  0.00  0.00    -0.275 OA
ATOM      3  N   UNL     1      -1.803  -0.153  -1.362  0.00  0.00    -0.306 N 
ATOM      4  C   UNL     1      -1.754   0.856  -0.413  0.00  0.00    +0.223 C 
ATOM      5  H   UNL     1      -2.045   0.084  -2.287  0.00  0.00    +0.149 HD
BRANCH   4   6
ATOM      6  C   UNL     1      -2.104   2.205  -1.016  0.00  0.00    +0.097 C 
BRANCH   6   7
ATOM      7  C   UNL     1      -2.057   3.332   0.011  0.00  0.00    +0.119 C 
BRANCH   7   9
ATOM      8  O   UNL     1      -2.691   4.859  -1.776  0.00  0.00    -0.250 OA
ATOM      9  C   UNL     1      -2.413   4.668  -0.600  0.00  0.00    +0.314 C 
BRANCH   9  10
ATOM     10  O   UNL     1      -2.394   5.659   0.329  0.00  0.00    -0.480 OA
ATOM     11  H   UNL     1      -2.175   5.463   1.219  0.00  0.00    +0.295 HD
ENDBRANCH   9  10
ENDBRANCH   7   9
ENDBRANCH   6   7
ENDBRANCH   4   6
ENDBRANCH   1   3
BRANCH   1  12
ATOM     12  C   UNL     1      -2.745  -2.422  -1.343  0.00  0.00    +0.031 C 
BRANCH  12  13
ATOM     13  C   UNL     1      -3.999  -2.035  -0.540  0.00  0.00    +0.101 C 
ATOM     14  C   UNL     1      -5.162  -2.975  -0.857  0.00  0.00    +0.012 C 
BRANCH  13  16
ATOM     15  O   UNL     1      -3.341  -3.098   1.543  0.00  0.00    -0.250 OA
ATOM     16  C   UNL     1      -3.715  -2.094   0.951  0.00  0.00    +0.316 C 
BRANCH  16  17
ATOM     17  O   UNL     1      -3.924  -0.866   1.509  0.00  0.00    -0.449 OA
BRANCH  17  18
ATOM     18  C   UNL     1      -3.674  -0.778   2.915  0.00  0.00    +0.209 C 
ATOM     19  C   UNL     1      -3.950   0.637   3.377  0.00  0.00    +0.051 C 
ENDBRANCH  17  18
ENDBRANCH  16  17
ENDBRANCH  13  16
ENDBRANCH  12  13
ENDBRANCH   1  12
BRANCH   1  20
ATOM     20  C   UNL     1      -0.306  -2.031  -1.872  0.00  0.00    +0.046 C 
BRANCH  20  21
ATOM     21  C   UNL     1       1.014  -1.544  -1.324  0.00  0.00    -0.021 C 
ATOM     22  C   UNL     1       1.695  -2.301  -0.370  0.00  0.00    -0.004 C 
ATOM     23  C   UNL     1       1.553  -0.338  -1.771  0.00  0.00    -0.004 C 
ATOM     24  C   UNL     1       3.453  -0.645  -0.310  0.00  0.00    -0.000 C 
ATOM     25  C   UNL     1       2.914  -1.851   0.137  0.00  0.00    -0.000 C 
ATOM     26  C   UNL     1       2.772   0.112  -1.264  0.00  0.00    -0.000 C 
BRANCH  24  27
ATOM     27  C   UNL     1       4.717  -0.178   0.216  0.00  0.00    -0.000 C 
ATOM     28  C   UNL     1       5.909  -0.539  -0.412  0.00  0.00    -0.000 C 
ATOM     29  C   UNL     1       4.744   0.634   1.350  0.00  0.00    -0.000 C 
ATOM     30  C   UNL     1       7.128  -0.089   0.094  0.00  0.00    +0.000 C 
ATOM     31  C   UNL     1       5.963   1.084   1.856  0.00  0.00    +0.000 C 
ATOM     32  C   UNL     1       7.155   0.723   1.228  0.00  0.00    +0.000 C 
ENDBRANCH  24  27
ENDBRANCH  20  21
ENDBRANCH   1  20
TORSDOF 13
