REMARK  Name = 753
REMARK  5 active torsions:
REMARK  status: ('A' for Active; 'I' for Inactive)
REMARK    1  A    between atoms: C_1  and  O_2
REMARK    2  A    between atoms: C_1  and  C_4
REMARK    3  A    between atoms: C_1  and  C_7
REMARK    4  A    between atoms: C_4  and  O_5
REMARK    5  A    between atoms: C_7  and  O_8
REMARK                            x       y       z     vdW  Elec       q    Type
REMARK                         _______ _______ _______ _____ _____    ______ ____
ROOT
ATOM      1  C   UNL     1       0.000  -0.012  -0.256  0.00  0.00    +0.169 C 
ENDROOT
BRANCH   1   2
ATOM      2  O   UNL     1       0.024  -1.349   0.250  0.00  0.00    -0.379 OA
ATOM      3  H   UNL     1       0.824  -1.799  -0.062  0.00  0.00    +0.211 HD
ENDBRANCH   1   2
BRANCH   1   4
ATOM      4  C   UNL     1       1.254   0.698   0.236  0.00  0.00    +0.169 C 
BRANCH   4   5
ATOM      5  O   UNL     1       2.399  -0.004  -0.237  0.00  0.00    -0.379 OA
ATOM      6  H   UNL     1       3.203   0.442   0.072  0.00  0.00    +0.211 HD
ENDBRANCH   4   5
ENDBRANCH   1   4
BRANCH   1   7
ATOM      7  C   UNL     1      -1.264   0.678   0.245  0.00  0.00    +0.169 C 
BRANCH   7   8
ATOM      8  O   UNL     1      -2.413  -0.010  -0.238  0.00  0.00    -0.379 OA
ATOM      9  H   UNL     1      -3.214   0.434   0.083  0.00  0.00    +0.211 HD
ENDBRANCH   7   8
ENDBRANCH   1   7
TORSDOF 5
