REMARK  Name = 117072582
REMARK  7 active torsions:
REMARK  status: ('A' for Active; 'I' for Inactive)
REMARK    1  A    between atoms: N_1  and  C_19
REMARK    2  A    between atoms: C_2  and  N_9
REMARK    3  A    between atoms: N_9  and  C_11
REMARK    4  A    between atoms: C_10  and  C_17
REMARK    5  A    between atoms: C_19  and  C_20
REMARK    6  A    between atoms: C_20  and  C_22
REMARK    7  A    between atoms: C_20  and  O_26
REMARK                            x       y       z     vdW  Elec       q    Type
REMARK                         _______ _______ _______ _____ _____    ______ ____
ROOT
ATOM      1  N   UNL     1       1.850   1.129  -0.334  0.00  0.00    +0.389 N 
ATOM      2  C   UNL     1      -1.024   0.643  -0.086  0.00  0.00    +0.076 C 
ATOM      3  C   UNL     1      -0.249   0.324  -1.365  0.00  0.00    -0.003 C 
ATOM      4  C   UNL     1      -0.086   0.618   1.119  0.00  0.00    -0.003 C 
ATOM      5  C   UNL     1       0.976   1.227  -1.512  0.00  0.00    -0.076 C 
ATOM      6  C   UNL     1       1.135   1.511   0.891  0.00  0.00    -0.076 C 
ATOM      7  H   UNL     1       2.140   0.156  -0.238  0.00  0.00    -0.080 HD
ENDROOT
BRANCH   2   9
ATOM      8  O   UNL     1      -0.950  -2.277   0.574  0.00  0.00    -0.275 OA
ATOM      9  N   UNL     1      -2.121  -0.274   0.098  0.00  0.00    -0.260 N 
ATOM     10  C   UNL     1      -1.950  -1.689   0.157  0.00  0.00    +0.229 C 
BRANCH   9  11
ATOM     11  C   UNL     1      -3.469   0.288   0.123  0.00  0.00    +0.054 C 
ATOM     12  C   UNL     1      -4.304   0.048   1.214  0.00  0.00    +0.015 C 
ATOM     13  C   UNL     1      -3.921   1.065  -0.943  0.00  0.00    +0.015 C 
ATOM     14  C   UNL     1      -5.592   0.584   1.239  0.00  0.00    +0.001 C 
ATOM     15  C   UNL     1      -5.209   1.601  -0.919  0.00  0.00    +0.001 C 
ATOM     16  C   UNL     1      -6.044   1.361   0.172  0.00  0.00    +0.000 C 
ENDBRANCH   9  11
BRANCH  10  17
ATOM     17  C   UNL     1      -3.155  -2.504  -0.306  0.00  0.00    +0.086 C 
ATOM     18  C   UNL     1      -2.763  -3.846  -0.907  0.00  0.00    +0.010 C 
ENDBRANCH  10  17
ENDBRANCH   2   9
BRANCH   1  19
ATOM     19  C   UNL     1       3.042   1.959  -0.511  0.00  0.00    -0.042 C 
BRANCH  19  20
ATOM     20  C   UNL     1       4.155   1.527   0.451  0.00  0.00    +0.118 C 
BRANCH  20  22
ATOM     21  S   UNL     1       4.452  -1.034   1.513  0.00  0.00    -0.088 S 
ATOM     22  C   UNL     1       4.558   0.087   0.222  0.00  0.00    +0.032 C 
ATOM     23  C   UNL     1       5.026  -0.499  -0.933  0.00  0.00    +0.005 C 
ATOM     24  C   UNL     1       5.301  -1.886  -0.757  0.00  0.00    +0.007 C 
ATOM     25  C   UNL     1       5.033  -2.307   0.527  0.00  0.00    +0.035 C 
ENDBRANCH  20  22
BRANCH  20  26
ATOM     26  O   UNL     1       5.309   2.346   0.273  0.00  0.00    -0.382 OA
ATOM     27  H   UNL     1       5.071   3.276   0.416  0.00  0.00    +0.211 HD
ENDBRANCH  20  26
ENDBRANCH  19  20
ENDBRANCH   1  19
TORSDOF 7
