REMARK  Name = 15950376
REMARK  3 active torsions:
REMARK  status: ('A' for Active; 'I' for Inactive)
REMARK    1  A    between atoms: C_3  and  C_11
REMARK    2  A    between atoms: C_8  and  O_20
REMARK    3  A    between atoms: C_14  and  N_17
REMARK                            x       y       z     vdW  Elec       q    Type
REMARK                         _______ _______ _______ _____ _____    ______ ____
ROOT
ATOM      1  S   UNL     1       1.096   1.425  -0.267  0.00  0.00    -0.053 S 
ATOM      2  N   UNL     1       1.032  -1.121   0.143  0.00  0.00    -0.399 NA
ATOM      3  C   UNL     1       0.280  -0.061  -0.042  0.00  0.00    +0.161 C 
ATOM      4  C   UNL     1       2.606   0.608  -0.108  0.00  0.00    +0.061 C 
ATOM      5  C   UNL     1       2.369  -0.753   0.108  0.00  0.00    +0.120 C 
ATOM      6  C   UNL     1       3.907   1.134  -0.169  0.00  0.00    +0.045 C 
ATOM      7  C   UNL     1       3.475  -1.616   0.269  0.00  0.00    +0.089 C 
ATOM      8  C   UNL     1       4.984   0.258  -0.007  0.00  0.00    +0.130 C 
ATOM      9  C   UNL     1       4.773  -1.100   0.210  0.00  0.00    +0.018 C 
ENDROOT
BRANCH   3  11
ATOM     10  F   UNL     1      -3.933   2.251   0.337  0.00  0.00    -0.203 F 
ATOM     11  C   UNL     1      -1.164  -0.068  -0.066  0.00  0.00    +0.038 C 
ATOM     12  C   UNL     1      -1.869   1.115   0.151  0.00  0.00    +0.034 C 
ATOM     13  C   UNL     1      -1.851  -1.258  -0.304  0.00  0.00    +0.004 C 
ATOM     14  C   UNL     1      -3.952  -0.081  -0.109  0.00  0.00    +0.073 C 
ATOM     15  C   UNL     1      -3.264   1.108   0.129  0.00  0.00    +0.153 C 
ATOM     16  C   UNL     1      -3.245  -1.264  -0.326  0.00  0.00    +0.017 C 
BRANCH  14  17
ATOM     17  N   UNL     1      -5.362  -0.090  -0.134  0.00  0.00    -0.330 N 
ATOM     18  C   UNL     1      -6.139  -1.230   0.244  0.00  0.00    +0.109 C 
ATOM     19  H   UNL     1      -5.833   0.725  -0.424  0.00  0.00    +0.147 HD
ENDBRANCH  14  17
ENDBRANCH   3  11
BRANCH   8  20
ATOM     20  O   UNL     1       6.256   0.744  -0.061  0.00  0.00    -0.506 OA
ATOM     21  H   UNL     1       6.403   1.657  -0.206  0.00  0.00    +0.292 HD
ENDBRANCH   8  20
TORSDOF 3
