REMARK  Name = 2318
REMARK  9 active torsions:
REMARK  status: ('A' for Active; 'I' for Inactive)
REMARK    1  A    between atoms: N_1  and  C_4
REMARK    2  A    between atoms: N_1  and  C_17
REMARK    3  A    between atoms: C_4  and  C_6
REMARK    4  A    between atoms: C_6  and  C_7
REMARK    5  A    between atoms: C_10  and  C_16
REMARK    6  A    between atoms: C_17  and  C_18
REMARK    7  A    between atoms: C_18  and  O_19
REMARK    8  A    between atoms: O_19  and  C_21
REMARK    9  A    between atoms: C_21  and  C_22
REMARK                            x       y       z     vdW  Elec       q    Type
REMARK                         _______ _______ _______ _____ _____    ______ ____
ROOT
ATOM      1  N   UNL     1      -1.639   2.247   0.273  0.00  0.00    +0.388 N 
ATOM      2  H   UNL     1      -1.169   1.392  -0.022  0.00  0.00    -0.084 HD
ATOM      3  H   UNL     1      -1.675   2.298   1.291  0.00  0.00    -0.084 HD
ENDROOT
BRANCH   1   4
ATOM      4  C   UNL     1      -3.010   2.248  -0.248  0.00  0.00    -0.057 C 
ATOM      5  C   UNL     1      -3.701   3.529   0.218  0.00  0.00    -0.023 C 
BRANCH   4   6
ATOM      6  C   UNL     1      -3.740   0.978   0.226  0.00  0.00    +0.005 C 
BRANCH   6   7
ATOM      7  C   UNL     1      -3.063  -0.303  -0.199  0.00  0.00    -0.024 C 
ATOM      8  C   UNL     1      -2.109  -0.874   0.629  0.00  0.00    -0.000 C 
ATOM      9  C   UNL     1      -3.408  -0.886  -1.408  0.00  0.00    -0.004 C 
ATOM     10  C   UNL     1      -1.484  -2.058   0.237  0.00  0.00    +0.071 C 
ATOM     11  C   UNL     1      -2.784  -2.070  -1.800  0.00  0.00    -0.000 C 
ATOM     12  C   UNL     1      -1.821  -2.656  -0.977  0.00  0.00    +0.004 C 
BRANCH  10  16
ATOM     13  F   UNL     1       0.070  -3.838   0.607  0.00  0.00    -0.166 F 
ATOM     14  F   UNL     1       0.621  -1.880   1.359  0.00  0.00    -0.166 F 
ATOM     15  F   UNL     1      -0.948  -3.018   2.345  0.00  0.00    -0.166 F 
ATOM     16  C   UNL     1      -0.455  -2.685   1.117  0.00  0.00    +0.419 C 
ENDBRANCH  10  16
ENDBRANCH   6   7
ENDBRANCH   4   6
ENDBRANCH   1   4
BRANCH   1  17
ATOM     17  C   UNL     1      -0.901   3.395  -0.228  0.00  0.00    -0.033 C 
BRANCH  17  18
ATOM     18  C   UNL     1       0.519   3.397   0.314  0.00  0.00    +0.186 C 
BRANCH  18  19
ATOM     19  O   UNL     1       1.164   2.196  -0.090  0.00  0.00    -0.448 OA
BRANCH  19  21
ATOM     20  O   UNL     1       3.093   2.838   0.990  0.00  0.00    -0.245 OA
ATOM     21  C   UNL     1       2.454   2.043   0.318  0.00  0.00    +0.341 C 
BRANCH  21  22
ATOM     22  C   UNL     1       3.010   0.755  -0.167  0.00  0.00    +0.076 C 
ATOM     23  C   UNL     1       4.313   0.429   0.151  0.00  0.00    +0.006 C 
ATOM     24  C   UNL     1       2.208  -0.077  -0.920  0.00  0.00    +0.006 C 
ATOM     25  C   UNL     1       4.836  -0.781  -0.305  0.00  0.00    +0.000 C 
ATOM     26  C   UNL     1       2.730  -1.288  -1.376  0.00  0.00    +0.000 C 
ATOM     27  C   UNL     1       4.045  -1.639  -1.068  0.00  0.00    +0.000 C 
ENDBRANCH  21  22
ENDBRANCH  19  21
ENDBRANCH  18  19
ENDBRANCH  17  18
ENDBRANCH   1  17
TORSDOF 9
