REMARK  Name = 667550
REMARK  5 active torsions:
REMARK  status: ('A' for Active; 'I' for Inactive)
REMARK    1  A    between atoms: C_1  and  C_15
REMARK    2  A    between atoms: C_3  and  C_8
REMARK    3  A    between atoms: C_8  and  C_9
REMARK    4  A    between atoms: C_15  and  C_18
REMARK    5  A    between atoms: C_18  and  O_19
REMARK                            x       y       z     vdW  Elec       q    Type
REMARK                         _______ _______ _______ _____ _____    ______ ____
ROOT
ATOM      1  C   UNL     1       2.159   0.622   0.203  0.00  0.00    -0.012 C 
ATOM      2  C   UNL     1       0.949   0.483  -0.476  0.00  0.00    -0.001 C 
ATOM      3  C   UNL     1      -0.135   1.259  -0.099  0.00  0.00    +0.039 C 
ATOM      4  C   UNL     1       2.270   1.537   1.250  0.00  0.00    -0.004 C 
ATOM      5  C   UNL     1      -0.040   2.172   0.940  0.00  0.00    +0.003 C 
ATOM      6  C   UNL     1       1.170   2.311   1.619  0.00  0.00    -0.000 C 
ENDROOT
BRANCH   3   8
ATOM      7  O   UNL     1      -1.649   1.807  -1.809  0.00  0.00    -0.287 OA
ATOM      8  C   UNL     1      -1.413   1.113  -0.815  0.00  0.00    +0.196 C 
BRANCH   8   9
ATOM      9  C   UNL     1      -2.374   0.138  -0.323  0.00  0.00    +0.039 C 
ATOM     10  C   UNL     1      -2.075  -0.629   0.803  0.00  0.00    +0.003 C 
ATOM     11  C   UNL     1      -3.595  -0.029  -0.977  0.00  0.00    +0.003 C 
ATOM     12  C   UNL     1      -2.996  -1.563   1.275  0.00  0.00    +0.000 C 
ATOM     13  C   UNL     1      -4.516  -0.964  -0.504  0.00  0.00    +0.000 C 
ATOM     14  C   UNL     1      -4.217  -1.731   0.621  0.00  0.00    +0.000 C 
ENDBRANCH   8   9
ENDBRANCH   3   8
BRANCH   1  15
ATOM     15  C   UNL     1       3.336  -0.205  -0.192  0.00  0.00    +0.121 C 
ATOM     16  C   UNL     1       3.807   0.038  -1.640  0.00  0.00    +0.016 C 
BRANCH  15  18
ATOM     17  O   UNL     1       2.049  -2.188   0.424  0.00  0.00    -0.250 OA
ATOM     18  C   UNL     1       3.095  -1.705   0.010  0.00  0.00    +0.317 C 
BRANCH  18  19
ATOM     19  O   UNL     1       4.174  -2.467  -0.311  0.00  0.00    -0.480 OA
ATOM     20  H   UNL     1       4.958  -2.060  -0.625  0.00  0.00    +0.295 HD
ENDBRANCH  18  19
ENDBRANCH  15  18
ENDBRANCH   1  15
TORSDOF 5
