REMARK  Name = 5243
REMARK  7 active torsions:
REMARK  status: ('A' for Active; 'I' for Inactive)
REMARK    1  A    between atoms: C_1  and  C_3
REMARK    2  A    between atoms: C_1  and  C_8
REMARK    3  A    between atoms: C_1  and  C_19
REMARK    4  A    between atoms: C_13  and  O_14
REMARK    5  A    between atoms: O_14  and  S_15
REMARK    6  A    between atoms: C_24  and  O_25
REMARK    7  A    between atoms: O_25  and  S_26
REMARK                            x       y       z     vdW  Elec       q    Type
REMARK                         _______ _______ _______ _____ _____    ______ ____
ROOT
ATOM      1  C   UNL     1       0.010   1.335   0.874  0.00  0.00    +0.085 C 
ENDROOT
BRANCH   1   3
ATOM      2  N   UNL     1      -0.939   2.500  -1.024  0.00  0.00    -0.248 NA
ATOM      3  C   UNL     1      -0.322   2.655   0.143  0.00  0.00    +0.067 C 
ATOM      4  C   UNL     1       0.042   3.816   0.751  0.00  0.00    +0.015 C 
ATOM      5  C   UNL     1      -0.271   4.986   0.067  0.00  0.00    +0.003 C 
ATOM      6  C   UNL     1      -1.226   3.658  -1.660  0.00  0.00    +0.098 C 
ATOM      7  C   UNL     1      -0.917   4.914  -1.162  0.00  0.00    +0.021 C 
ENDBRANCH   1   3
BRANCH   1   8
ATOM      8  C   UNL     1       1.384   0.801   0.648  0.00  0.00    -0.013 C 
ATOM      9  C   UNL     1       2.073   0.183   1.691  0.00  0.00    -0.000 C 
ATOM     10  C   UNL     1       1.980   0.921  -0.608  0.00  0.00    -0.000 C 
ATOM     11  C   UNL     1       3.358  -0.315   1.479  0.00  0.00    +0.040 C 
ATOM     12  C   UNL     1       3.266   0.422  -0.820  0.00  0.00    +0.040 C 
ATOM     13  C   UNL     1       3.955  -0.196   0.224  0.00  0.00    +0.176 C 
BRANCH  13  14
ATOM     14  O   UNL     1       5.209  -0.682   0.018  0.00  0.00    -0.322 OA
BRANCH  14  15
ATOM     15  S   UNL     1       5.388  -2.237  -0.487  0.00  0.00    +0.282 S 
ATOM     16  O   UNL     1       7.004  -2.468  -0.475  0.00  0.00    -0.105 OA
ATOM     17  O   UNL     1       4.803  -3.124   0.501  0.00  0.00    -0.012 OA
ATOM     18  O   UNL     1       4.951  -2.303  -1.870  0.00  0.00    -0.105 OA
ENDBRANCH  14  15
ENDBRANCH  13  14
ENDBRANCH   1   8
BRANCH   1  19
ATOM     19  C   UNL     1      -1.133   0.299   0.769  0.00  0.00    -0.013 C 
ATOM     20  C   UNL     1      -2.208   0.442   1.604  0.00  0.00    -0.000 C 
ATOM     21  C   UNL     1      -1.008  -0.705  -0.152  0.00  0.00    -0.000 C 
ATOM     22  C   UNL     1      -3.239  -0.493   1.510  0.00  0.00    +0.040 C 
ATOM     23  C   UNL     1      -2.039  -1.640  -0.246  0.00  0.00    +0.040 C 
ATOM     24  C   UNL     1      -3.155  -1.534   0.585  0.00  0.00    +0.176 C 
BRANCH  24  25
ATOM     25  O   UNL     1      -4.161  -2.446   0.494  0.00  0.00    -0.322 OA
BRANCH  25  26
ATOM     26  S   UNL     1      -5.405  -2.159  -0.543  0.00  0.00    +0.282 S 
ATOM     27  O   UNL     1      -6.444  -3.384  -0.254  0.00  0.00    -0.105 OA
ATOM     28  O   UNL     1      -6.059  -0.920  -0.164  0.00  0.00    -0.012 OA
ATOM     29  O   UNL     1      -4.900  -2.327  -1.893  0.00  0.00    -0.105 OA
ENDBRANCH  25  26
ENDBRANCH  24  25
ENDBRANCH   1  19
TORSDOF 7
