REMARK  Name = 3086401
REMARK  8 active torsions:
REMARK  status: ('A' for Active; 'I' for Inactive)
REMARK    1  A    between atoms: N_1  and  C_28
REMARK    2  A    between atoms: C_5  and  N_18
REMARK    3  A    between atoms: C_11  and  O_16
REMARK    4  A    between atoms: N_18  and  S_20
REMARK    5  A    between atoms: S_20  and  N_23
REMARK    6  A    between atoms: N_23  and  C_24
REMARK    7  A    between atoms: N_23  and  C_26
REMARK    8  A    between atoms: C_28  and  C_29
REMARK                            x       y       z     vdW  Elec       q    Type
REMARK                         _______ _______ _______ _____ _____    ______ ____
ROOT
ATOM      1  N   UNL     1       0.150  -1.826  -0.273  0.00  0.00    +0.389 N 
ATOM      2  C   UNL     1       1.048   0.461  -0.734  0.00  0.00    -0.013 C 
ATOM      3  C   UNL     1       1.381  -1.037  -0.525  0.00  0.00    -0.053 C 
ATOM      4  C   UNL     1      -0.022   0.669  -1.814  0.00  0.00    +0.014 C 
ATOM      5  C   UNL     1      -1.237  -0.222  -1.590  0.00  0.00    +0.056 C 
ATOM      6  C   UNL     1      -0.824  -1.676  -1.369  0.00  0.00    -0.059 C 
ATOM      7  C   UNL     1       2.317   1.245  -1.110  0.00  0.00    +0.027 C 
ATOM      8  C   UNL     1       2.379  -1.155   0.652  0.00  0.00    +0.005 C 
ATOM      9  C   UNL     1       3.479   0.977  -0.193  0.00  0.00    +0.007 C 
ATOM     10  C   UNL     1       3.524  -0.173   0.610  0.00  0.00    -0.025 C 
ATOM     11  C   UNL     1       4.563   1.868  -0.185  0.00  0.00    +0.129 C 
ATOM     12  C   UNL     1       4.638  -0.391   1.436  0.00  0.00    -0.004 C 
ATOM     13  C   UNL     1       5.668   1.635   0.632  0.00  0.00    +0.036 C 
ATOM     14  C   UNL     1       5.705   0.507   1.445  0.00  0.00    +0.003 C 
ATOM     15  H   UNL     1      -0.246  -1.449   0.589  0.00  0.00    -0.080 HD
ENDROOT
BRANCH  11  16
ATOM     16  O   UNL     1       4.565   2.979  -0.978  0.00  0.00    -0.506 OA
ATOM     17  H   UNL     1       3.833   3.157  -1.535  0.00  0.00    +0.292 HD
ENDBRANCH  11  16
BRANCH   5  18
ATOM     18  N   UNL     1      -2.022   0.262  -0.424  0.00  0.00    -0.173 NA
ATOM     19  H   UNL     1      -1.658  -0.210   0.404  0.00  0.00    +0.150 HD
BRANCH  18  20
ATOM     20  S   UNL     1      -3.717   0.022  -0.444  0.00  0.00    +0.099 S 
ATOM     21  O   UNL     1      -4.206   0.411  -1.754  0.00  0.00    -0.141 OA
ATOM     22  O   UNL     1      -4.003  -1.305   0.070  0.00  0.00    -0.141 OA
BRANCH  20  23
ATOM     23  N   UNL     1      -4.253   1.197   0.714  0.00  0.00    -0.146 NA
BRANCH  23  24
ATOM     24  C   UNL     1      -3.726   1.052   2.099  0.00  0.00    +0.097 C 
ATOM     25  C   UNL     1      -4.732   1.603   3.090  0.00  0.00    +0.021 C 
ENDBRANCH  23  24
BRANCH  23  26
ATOM     26  C   UNL     1      -4.186   2.613   0.260  0.00  0.00    +0.097 C 
ATOM     27  C   UNL     1      -5.480   2.990  -0.431  0.00  0.00    +0.021 C 
ENDBRANCH  23  26
ENDBRANCH  20  23
ENDBRANCH  18  20
ENDBRANCH   5  18
BRANCH   1  28
ATOM     28  C   UNL     1       0.426  -3.252  -0.071  0.00  0.00    -0.077 C 
BRANCH  28  29
ATOM     29  C   UNL     1      -0.851  -3.988   0.324  0.00  0.00    -0.023 C 
ATOM     30  C   UNL     1      -0.587  -5.467   0.560  0.00  0.00    -0.002 C 
ENDBRANCH  28  29
ENDBRANCH   1  28
TORSDOF 8
