REMARK  Name = 21109
REMARK  5 active torsions:
REMARK  status: ('A' for Active; 'I' for Inactive)
REMARK    1  A    between atoms: C_1  and  C_13
REMARK    2  A    between atoms: C_2  and  O_7
REMARK    3  A    between atoms: C_4  and  O_9
REMARK    4  A    between atoms: C_6  and  O_11
REMARK    5  A    between atoms: C_13  and  N_14
REMARK                            x       y       z     vdW  Elec       q    Type
REMARK                         _______ _______ _______ _____ _____    ______ ____
ROOT
ATOM      1  C   UNL     1       0.181   0.900   0.683  0.00  0.00    -0.006 C 
ATOM      2  C   UNL     1       0.605  -0.407   0.487  0.00  0.00    +0.169 C 
ATOM      3  C   UNL     1       1.042   1.969   0.465  0.00  0.00    -0.000 C 
ATOM      4  C   UNL     1       1.911  -0.651   0.064  0.00  0.00    +0.206 C 
ATOM      5  C   UNL     1       2.348   1.725   0.043  0.00  0.00    +0.040 C 
ATOM      6  C   UNL     1       2.783   0.415  -0.158  0.00  0.00    +0.175 C 
ENDROOT
BRANCH   2   7
ATOM      7  O   UNL     1      -0.244  -1.452   0.706  0.00  0.00    -0.469 OA
ATOM      8  C   UNL     1      -0.263  -2.005   2.019  0.00  0.00    +0.253 C 
ENDBRANCH   2   7
BRANCH   4   9
ATOM      9  O   UNL     1       2.339  -1.932  -0.130  0.00  0.00    -0.465 OA
ATOM     10  C   UNL     1       1.641  -2.706  -1.102  0.00  0.00    +0.253 C 
ENDBRANCH   4   9
BRANCH   6  11
ATOM     11  O   UNL     1       4.062   0.190  -0.569  0.00  0.00    -0.468 OA
ATOM     12  C   UNL     1       4.888   1.335  -0.773  0.00  0.00    +0.253 C 
ENDBRANCH   6  11
BRANCH   1  13
ATOM     13  C   UNL     1      -1.226   1.184   1.138  0.00  0.00    -0.047 C 
BRANCH  13  14
ATOM     14  N   UNL     1      -2.206   0.389   0.401  0.00  0.00    +0.387 N 
ATOM     15  N   UNL     1      -4.487   0.083  -1.361  0.00  0.00    +0.381 N 
ATOM     16  C   UNL     1      -3.569   0.684   0.862  0.00  0.00    -0.101 C 
ATOM     17  C   UNL     1      -2.088   0.624  -1.044  0.00  0.00    -0.101 C 
ATOM     18  C   UNL     1      -4.595  -0.142   0.082  0.00  0.00    -0.105 C 
ATOM     19  C   UNL     1      -3.123  -0.201  -1.813  0.00  0.00    -0.105 C 
ATOM     20  H   UNL     1      -2.014  -0.596   0.582  0.00  0.00    -0.079 HD
ATOM     21  H   UNL     1      -4.715   1.055  -1.569  0.00  0.00    -0.085 HD
ATOM     22  H   UNL     1      -5.136  -0.537  -1.846  0.00  0.00    -0.085 HD
ENDBRANCH  13  14
ENDBRANCH   1  13
TORSDOF 5
