REMARK  Name = 28425
REMARK  2 active torsions:
REMARK  status: ('A' for Active; 'I' for Inactive)
REMARK    1  A    between atoms: C_1  and  C_17
REMARK    2  A    between atoms: C_17  and  N_18
REMARK                            x       y       z     vdW  Elec       q    Type
REMARK                         _______ _______ _______ _____ _____    ______ ____
ROOT
ATOM      1  C   UNL     1      -0.255   0.879  -0.268  0.00  0.00    +0.018 C 
ATOM      2  C   UNL     1       0.747  -1.415  -1.138  0.00  0.00    +0.044 C 
ATOM      3  C   UNL     1      -0.238   0.826  -1.834  0.00  0.00    +0.007 C 
ATOM      4  C   UNL     1       0.351  -0.525  -2.340  0.00  0.00    +0.009 C 
ATOM      5  C   UNL     1      -1.064  -0.359   0.168  0.00  0.00    -0.025 C 
ATOM      6  C   UNL     1       1.207   0.636   0.158  0.00  0.00    -0.025 C 
ATOM      7  C   UNL     1      -0.518  -1.583  -0.307  0.00  0.00    -0.022 C 
ATOM      8  C   UNL     1       1.733  -0.596  -0.317  0.00  0.00    -0.022 C 
ATOM      9  C   UNL     1      -2.212  -0.378   0.952  0.00  0.00    -0.004 C 
ATOM     10  C   UNL     1       2.005   1.470   0.934  0.00  0.00    -0.004 C 
ATOM     11  C   UNL     1      -1.113  -2.801  -0.004  0.00  0.00    -0.004 C 
ATOM     12  C   UNL     1       3.035  -0.983  -0.022  0.00  0.00    -0.004 C 
ATOM     13  C   UNL     1      -2.811  -1.605   1.254  0.00  0.00    -0.000 C 
ATOM     14  C   UNL     1       3.314   1.080   1.228  0.00  0.00    -0.000 C 
ATOM     15  C   UNL     1      -2.267  -2.805   0.780  0.00  0.00    -0.000 C 
ATOM     16  C   UNL     1       3.825  -0.136   0.754  0.00  0.00    -0.000 C 
ENDROOT
BRANCH   1  17
ATOM     17  C   UNL     1      -0.838   2.215   0.200  0.00  0.00    -0.073 C 
BRANCH  17  18
ATOM     18  N   UNL     1      -2.157   2.405  -0.319  0.00  0.00    +0.383 N 
ATOM     19  C   UNL     1      -2.743   3.674   0.123  0.00  0.00    -0.106 C 
ATOM     20  H   UNL     1      -2.751   1.639   0.001  0.00  0.00    -0.085 HD
ATOM     21  H   UNL     1      -2.097   2.422  -1.337  0.00  0.00    -0.085 HD
ENDBRANCH  17  18
ENDBRANCH   1  17
TORSDOF 2
