REMARK  Name = 6179
REMARK  3 active torsions:
REMARK  status: ('A' for Active; 'I' for Inactive)
REMARK    1  A    between atoms: C_1  and  C_3
REMARK    2  A    between atoms: C_1  and  N_9
REMARK    3  A    between atoms: N_9  and  N_11
REMARK                            x       y       z     vdW  Elec       q    Type
REMARK                         _______ _______ _______ _____ _____    ______ ____
ROOT
ATOM      1  C   UNL     1       1.514  -0.579   0.121  0.00  0.00    +0.090 C 
ATOM      2  C   UNL     1       1.947  -1.647  -0.901  0.00  0.00    +0.023 C 
ENDROOT
BRANCH   1   3
ATOM      3  C   UNL     1       0.056  -0.274   0.047  0.00  0.00    -0.007 C 
ATOM      4  C   UNL     1      -0.403   0.736  -0.799  0.00  0.00    -0.003 C 
ATOM      5  C   UNL     1      -0.848  -0.998   0.824  0.00  0.00    -0.003 C 
ATOM      6  C   UNL     1      -1.766   1.022  -0.868  0.00  0.00    -0.000 C 
ATOM      7  C   UNL     1      -2.212  -0.712   0.755  0.00  0.00    -0.000 C 
ATOM      8  C   UNL     1      -2.671   0.298  -0.091  0.00  0.00    -0.000 C 
ENDBRANCH   1   3
BRANCH   1   9
ATOM      9  N   UNL     1       2.349   0.622  -0.066  0.00  0.00    -0.246 NA
ATOM     10  H   UNL     1       3.336   0.370  -0.021  0.00  0.00    +0.141 HD
BRANCH   9  11
ATOM     11  N   UNL     1       2.033   1.532   0.980  0.00  0.00    -0.270 NA
ATOM     12  H   UNL     1       1.045   1.780   0.928  0.00  0.00    +0.137 HD
ATOM     13  H   UNL     1       2.600   2.374   0.880  0.00  0.00    +0.137 HD
ENDBRANCH   9  11
ENDBRANCH   1   9
TORSDOF 3
