REMARK  Name = 68713
REMARK  1 active torsions:
REMARK  status: ('A' for Active; 'I' for Inactive)
REMARK    1  A    between atoms: C_16  and  O_18
REMARK                            x       y       z     vdW  Elec       q    Type
REMARK                         _______ _______ _______ _____ _____    ______ ____
ROOT
ATOM      1  N   UNL     1      -0.622   1.075  -0.132  0.00  0.00    -0.323 N 
ATOM      2  N   UNL     1      -3.415   0.609   0.086  0.00  0.00    -0.289 N 
ATOM      3  N   UNL     1      -2.894  -1.725  -0.137  0.00  0.00    -0.255 NA
ATOM      4  C   UNL     1      -1.137  -0.178  -0.057  0.00  0.00    +0.088 A 
ATOM      5  C   UNL     1      -0.124  -1.084   0.058  0.00  0.00    -0.000 A 
ATOM      6  C   UNL     1      -1.513   2.215  -0.246  0.00  0.00    +0.127 C 
ATOM      7  C   UNL     1       0.750   1.014  -0.108  0.00  0.00    +0.060 A 
ATOM      8  C   UNL     1       1.093  -0.348   0.018  0.00  0.00    +0.016 A 
ATOM      9  C   UNL     1      -2.541  -0.478  -0.042  0.00  0.00    +0.143 C 
ATOM     10  C   UNL     1      -2.875   1.944   0.429  0.00  0.00    +0.117 C 
ATOM     11  C   UNL     1      -0.475  -2.509   0.224  0.00  0.00    +0.054 C 
ATOM     12  C   UNL     1      -1.865  -2.771  -0.395  0.00  0.00    +0.132 C 
ATOM     13  C   UNL     1       2.455  -0.701   0.084  0.00  0.00    +0.038 C 
ATOM     14  C   UNL     1       1.721   2.022  -0.180  0.00  0.00    +0.020 C 
ATOM     15  C   UNL     1      -4.852   0.427   0.218  0.00  0.00    +0.114 C 
ATOM     16  C   UNL     1       3.428   0.303   0.013  0.00  0.00    +0.139 C 
ATOM     17  C   UNL     1       3.064   1.641  -0.118  0.00  0.00    +0.038 C 
ENDROOT
BRANCH  16  18
ATOM     18  O   UNL     1       4.747  -0.035   0.076  0.00  0.00    -0.471 OA
ATOM     19  C   UNL     1       5.054  -1.421   0.210  0.00  0.00    +0.252 C 
ENDBRANCH  16  18
TORSDOF 1
