REMARK  Name = 46861612
REMARK  7 active torsions:
REMARK  status: ('A' for Active; 'I' for Inactive)
REMARK    1  A    between atoms: C_1  and  N_2
REMARK    2  A    between atoms: C_1  and  C_17
REMARK    3  A    between atoms: N_3  and  C_11
REMARK    4  A    between atoms: C_17  and  C_18
REMARK    5  A    between atoms: C_18  and  C_19
REMARK    6  A    between atoms: C_19  and  O_20
REMARK    7  A    between atoms: O_20  and  C_24
REMARK                            x       y       z     vdW  Elec       q    Type
REMARK                         _______ _______ _______ _____ _____    ______ ____
ROOT
ATOM      1  C   UNL     1       1.236   1.433  -1.119  0.00  0.00    -0.077 C 
ENDROOT
BRANCH   1   2
ATOM      2  N   UNL     1       2.507   1.291  -0.410  0.00  0.00    +0.389 N 
ATOM      3  N   UNL     1       5.176   0.360  -0.003  0.00  0.00    -0.311 N 
ATOM      4  C   UNL     1       2.760  -0.117  -0.082  0.00  0.00    -0.055 C 
ATOM      5  C   UNL     1       3.610   1.821  -1.220  0.00  0.00    -0.055 C 
ATOM      6  C   UNL     1       4.939   1.731  -0.466  0.00  0.00    +0.068 C 
ATOM      7  C   UNL     1       4.059  -0.272   0.711  0.00  0.00    +0.068 C 
ATOM      8  H   UNL     1       2.448   1.826   0.457  0.00  0.00    -0.080 HD
BRANCH   3  11
ATOM      9 CL   UNL     1       6.229  -1.939  -1.611  0.00  0.00    -0.080 Cl
ATOM     10 CL   UNL     1       9.214  -2.792  -0.793  0.00  0.00    -0.081 Cl
ATOM     11  C   UNL     1       6.476  -0.050   0.315  0.00  0.00    +0.059 C 
ATOM     12  C   UNL     1       7.092  -1.109  -0.353  0.00  0.00    +0.081 C 
ATOM     13  C   UNL     1       7.156   0.627   1.327  0.00  0.00    +0.015 C 
ATOM     14  C   UNL     1       8.389  -1.490  -0.008  0.00  0.00    +0.069 C 
ATOM     15  C   UNL     1       8.453   0.246   1.671  0.00  0.00    +0.002 C 
ATOM     16  C   UNL     1       9.069  -0.813   1.004  0.00  0.00    +0.012 C 
ENDBRANCH   3  11
ENDBRANCH   1   2
BRANCH   1  17
ATOM     17  C   UNL     1       0.067   1.332  -0.141  0.00  0.00    -0.019 C 
BRANCH  17  18
ATOM     18  C   UNL     1      -1.272   1.468  -0.863  0.00  0.00    +0.045 C 
BRANCH  18  19
ATOM     19  C   UNL     1      -2.443   1.411   0.109  0.00  0.00    +0.205 C 
BRANCH  19  20
ATOM     20  O   UNL     1      -3.667   1.522  -0.605  0.00  0.00    -0.475 OA
BRANCH  20  24
ATOM     21  O   UNL     1      -8.075  -0.900   1.682  0.00  0.00    -0.464 OA
ATOM     22  O   UNL     1      -9.961  -1.715  -1.291  0.00  0.00    -0.271 OA
ATOM     23  N   UNL     1      -7.925  -0.659  -1.132  0.00  0.00    -0.278 N 
ATOM     24  C   UNL     1      -4.762   0.908  -0.054  0.00  0.00    +0.140 C 
ATOM     25  C   UNL     1      -5.778   0.424  -0.878  0.00  0.00    +0.055 C 
ATOM     26  C   UNL     1      -6.887  -0.206  -0.311  0.00  0.00    +0.088 C 
ATOM     27  C   UNL     1      -4.861   0.773   1.331  0.00  0.00    +0.040 C 
ATOM     28  C   UNL     1      -6.986  -0.345   1.072  0.00  0.00    +0.153 C 
ATOM     29  C   UNL     1      -5.976   0.153   1.896  0.00  0.00    +0.041 C 
ATOM     30  C   UNL     1      -8.846  -1.738   0.842  0.00  0.00    +0.290 C 
ATOM     31  C   UNL     1      -8.995  -1.356  -0.621  0.00  0.00    +0.271 C 
ATOM     32  H   UNL     1      -7.888  -0.476  -2.098  0.00  0.00    +0.155 HD
ENDBRANCH  20  24
ENDBRANCH  19  20
ENDBRANCH  18  19
ENDBRANCH  17  18
ENDBRANCH   1  17
TORSDOF 7
