REMARK  Name = 34042
REMARK  5 active torsions:
REMARK  status: ('A' for Active; 'I' for Inactive)
REMARK    1  A    between atoms: C_1  and  C_4
REMARK    2  A    between atoms: C_1  and  C_11
REMARK    3  A    between atoms: C_11  and  C_12
REMARK    4  A    between atoms: C_12  and  N_14
REMARK    5  A    between atoms: N_14  and  N_16
REMARK                            x       y       z     vdW  Elec       q    Type
REMARK                         _______ _______ _______ _____ _____    ______ ____
ROOT
ATOM      1  C   UNL     1      -1.267   0.144  -0.716  0.00  0.00    +0.028 C 
ENDROOT
BRANCH   1   4
ATOM      2  O   UNL     1       3.362  -1.540  -0.381  0.00  0.00    -0.435 OA
ATOM      3  O   UNL     1       4.185   0.554   0.480  0.00  0.00    -0.435 OA
ATOM      4  C   UNL     1       0.196   0.290  -0.383  0.00  0.00    -0.019 C 
ATOM      5  C   UNL     1       1.048  -0.790  -0.580  0.00  0.00    +0.036 C 
ATOM      6  C   UNL     1       0.661   1.511   0.116  0.00  0.00    -0.001 C 
ATOM      7  C   UNL     1       2.378  -0.608  -0.261  0.00  0.00    +0.176 C 
ATOM      8  C   UNL     1       2.848   0.588   0.231  0.00  0.00    +0.176 C 
ATOM      9  C   UNL     1       2.013   1.668   0.431  0.00  0.00    +0.040 C 
ATOM     10  C   UNL     1       4.504  -0.796   0.090  0.00  0.00    +0.429 C 
ENDBRANCH   1   4
BRANCH   1  11
ATOM     11  C   UNL     1      -2.124  -0.356   0.457  0.00  0.00    +0.022 C 
BRANCH  11  12
ATOM     12  C   UNL     1      -3.612  -0.578   0.126  0.00  0.00    +0.069 C 
ATOM     13  C   UNL     1      -4.350  -1.143   1.340  0.00  0.00    +0.018 C 
BRANCH  12  14
ATOM     14  N   UNL     1      -4.246   0.672  -0.294  0.00  0.00    -0.250 NA
ATOM     15  H   UNL     1      -4.229   1.343   0.474  0.00  0.00    +0.141 HD
BRANCH  14  16
ATOM     16  N   UNL     1      -5.595   0.384  -0.655  0.00  0.00    -0.270 NA
ATOM     17  H   UNL     1      -5.606  -0.287  -1.423  0.00  0.00    +0.137 HD
ATOM     18  H   UNL     1      -6.059   1.244  -0.949  0.00  0.00    +0.137 HD
ENDBRANCH  14  16
ENDBRANCH  12  14
ENDBRANCH  11  12
ENDBRANCH   1  11
TORSDOF 5
