REMARK  Name = 12555
REMARK  7 active torsions:
REMARK  status: ('A' for Active; 'I' for Inactive)
REMARK    1  A    between atoms: N_1  and  C_18
REMARK    2  A    between atoms: C_5  and  O_10
REMARK    3  A    between atoms: O_10  and  C_11
REMARK    4  A    between atoms: C_11  and  C_12
REMARK    5  A    between atoms: C_12  and  C_13
REMARK    6  A    between atoms: C_13  and  N_14
REMARK    7  A    between atoms: C_18  and  C_19
REMARK                            x       y       z     vdW  Elec       q    Type
REMARK                         _______ _______ _______ _____ _____    ______ ____
ROOT
ATOM      1  N   UNL     1       1.151  -0.556   1.039  0.00  0.00    -0.244 N 
ATOM      2  N   UNL     1      -0.116  -0.163   1.248  0.00  0.00    -0.131 NA
ATOM      3  C   UNL     1       1.269  -1.693   0.287  0.00  0.00    +0.083 A 
ATOM      4  C   UNL     1      -0.035  -2.069  -0.016  0.00  0.00    +0.072 A 
ATOM      5  C   UNL     1      -0.835  -1.085   0.606  0.00  0.00    +0.243 A 
ATOM      6  C   UNL     1       2.387  -2.410  -0.145  0.00  0.00    +0.019 C 
ATOM      7  C   UNL     1      -0.258  -3.219  -0.790  0.00  0.00    +0.006 C 
ATOM      8  C   UNL     1       2.149  -3.553  -0.915  0.00  0.00    +0.002 C 
ATOM      9  C   UNL     1       0.850  -3.953  -1.233  0.00  0.00    +0.000 C 
ENDROOT
BRANCH   5  10
ATOM     10  O   UNL     1      -2.171  -0.983   0.621  0.00  0.00    -0.459 OA
BRANCH  10  11
ATOM     11  C   UNL     1      -2.735   0.124   1.334  0.00  0.00    +0.205 C 
BRANCH  11  12
ATOM     12  C   UNL     1      -4.251   0.069   1.211  0.00  0.00    +0.025 C 
BRANCH  12  13
ATOM     13  C   UNL     1      -4.699   0.161  -0.244  0.00  0.00    -0.074 C 
BRANCH  13  14
ATOM     14  N   UNL     1      -4.227   1.405  -0.841  0.00  0.00    +0.384 N 
ATOM     15  C   UNL     1      -4.573   1.459  -2.262  0.00  0.00    -0.101 C 
ATOM     16  C   UNL     1      -4.789   2.560  -0.138  0.00  0.00    -0.101 C 
ATOM     17  H   UNL     1      -3.211   1.435  -0.752  0.00  0.00    -0.080 HD
ENDBRANCH  13  14
ENDBRANCH  12  13
ENDBRANCH  11  12
ENDBRANCH  10  11
ENDBRANCH   5  10
BRANCH   1  18
ATOM     18  C   UNL     1       2.231   0.223   1.601  0.00  0.00    +0.154 C 
BRANCH  18  19
ATOM     19  C   UNL     1       2.688   1.295   0.648  0.00  0.00    +0.002 C 
ATOM     20  C   UNL     1       2.094   2.549   0.694  0.00  0.00    -0.002 C 
ATOM     21  C   UNL     1       3.698   1.016  -0.262  0.00  0.00    -0.002 C 
ATOM     22  C   UNL     1       2.518   3.542  -0.189  0.00  0.00    -0.000 C 
ATOM     23  C   UNL     1       4.122   2.009  -1.145  0.00  0.00    -0.000 C 
ATOM     24  C   UNL     1       3.532   3.273  -1.108  0.00  0.00    -0.000 C 
ENDBRANCH  18  19
ENDBRANCH   1  18
TORSDOF 7
