REMARK  Name = 68802
REMARK  0 active torsions:
REMARK  status: ('A' for Active; 'I' for Inactive)
REMARK                            x       y       z     vdW  Elec       q    Type
REMARK                         _______ _______ _______ _____ _____    ______ ____
ROOT
ATOM      1  N   UNL     1      -0.460  -1.117   0.112  0.00  0.00    -0.335 N 
ATOM      2  N   UNL     1      -3.223  -1.077  -0.421  0.00  0.00    +0.390 N 
ATOM      3  C   UNL     1      -2.640   0.097   0.242  0.00  0.00    -0.022 C 
ATOM      4  C   UNL     1      -1.159   0.048   0.170  0.00  0.00    +0.013 A 
ATOM      5  C   UNL     1      -0.291   1.107   0.084  0.00  0.00    -0.011 A 
ATOM      6  C   UNL     1      -3.100   1.432  -0.383  0.00  0.00    -0.015 C 
ATOM      7  C   UNL     1      -0.775   2.512  -0.026  0.00  0.00    +0.027 C 
ATOM      8  C   UNL     1      -2.301   2.616   0.215  0.00  0.00    +0.003 C 
ATOM      9  C   UNL     1      -1.125  -2.398  -0.052  0.00  0.00    +0.082 C 
ATOM     10  C   UNL     1       1.023   0.553   0.054  0.00  0.00    +0.013 A 
ATOM     11  C   UNL     1       0.888  -0.847   0.072  0.00  0.00    +0.059 A 
ATOM     12  C   UNL     1      -2.650  -2.308   0.152  0.00  0.00    -0.056 C 
ATOM     13  C   UNL     1       2.317   1.108  -0.019  0.00  0.00    -0.003 C 
ATOM     14  C   UNL     1       1.998  -1.703   0.024  0.00  0.00    +0.017 C 
ATOM     15  C   UNL     1       3.428   0.259  -0.058  0.00  0.00    -0.022 C 
ATOM     16  C   UNL     1       3.269  -1.125  -0.037  0.00  0.00    -0.003 C 
ATOM     17  C   UNL     1       4.799   0.844  -0.129  0.00  0.00    +0.031 C 
ATOM     18  H   UNL     1      -3.015  -1.039  -1.419  0.00  0.00    -0.084 HD
ATOM     19  H   UNL     1      -4.233  -1.077  -0.280  0.00  0.00    -0.084 HD
ENDROOT
TORSDOF 0
