9330
  -OEChem-10051722003D

 49 50  0     0  0  0  0  0  0999 V2000
   -1.0361    0.2866    0.4310 O   0  0  0  0  0  0  0  0  0  0  0  0
    1.1294    0.2094    1.9920 O   0  0  0  0  0  0  0  0  0  0  0  0
    0.1598    2.0292   -0.4752 O   0  0  0  0  0  0  0  0  0  0  0  0
   -4.6871    0.6470    0.0746 N   0  0  0  0  0  0  0  0  0  0  0  0
    1.3494    0.1616    0.5675 C   0  0  0  0  0  0  0  0  0  0  0  0
   -3.4146    0.0344    0.4552 C   0  0  0  0  0  0  0  0  0  0  0  0
   -2.2480    0.9104    0.0271 C   0  0  0  0  0  0  0  0  0  0  0  0
    1.3190   -1.2923    0.0909 C   0  0  0  0  0  0  0  0  0  0  0  0
    2.6837    0.8237    0.2153 C   0  0  0  0  0  0  0  0  0  0  0  0
   -4.7472    0.8432   -1.3733 C   0  0  0  0  0  0  0  0  0  0  0  0
   -5.8068   -0.1787    0.5256 C   0  0  0  0  0  0  0  0  0  0  0  0
    0.1216    0.9568    0.1164 C   0  0  0  0  0  0  0  0  0  0  0  0
    1.7629   -2.2749    0.9456 C   0  0  0  0  0  0  0  0  0  0  0  0
    3.0500    0.9031   -1.1084 C   0  0  0  0  0  0  0  0  0  0  0  0
    0.8487   -1.5613   -1.1739 C   0  0  0  0  0  0  0  0  0  0  0  0
    3.4650    1.3143    1.2359 C   0  0  0  0  0  0  0  0  0  0  0  0
   -6.0373    1.5347   -1.7804 C   0  0  0  0  0  0  0  0  0  0  0  0
   -5.7602   -0.3932    2.0289 C   0  0  0  0  0  0  0  0  0  0  0  0
    1.7351   -3.6002    0.5113 C   0  0  0  0  0  0  0  0  0  0  0  0
    4.2658    1.5067   -1.4296 C   0  0  0  0  0  0  0  0  0  0  0  0
    0.8208   -2.8866   -1.6080 C   0  0  0  0  0  0  0  0  0  0  0  0
    4.6808    1.9180    0.9147 C   0  0  0  0  0  0  0  0  0  0  0  0
    1.2641   -3.9060   -0.7653 C   0  0  0  0  0  0  0  0  0  0  0  0
    5.0812    2.0141   -0.4181 C   0  0  0  0  0  0  0  0  0  0  0  0
   -3.3223   -0.0772    1.5410 H   0  0  0  0  0  0  0  0  0  0  0  0
   -3.3004   -0.9720    0.0301 H   0  0  0  0  0  0  0  0  0  0  0  0
   -2.1854    1.0159   -1.0589 H   0  0  0  0  0  0  0  0  0  0  0  0
   -2.3206    1.9024    0.4891 H   0  0  0  0  0  0  0  0  0  0  0  0
   -3.9617    1.5214   -1.7164 H   0  0  0  0  0  0  0  0  0  0  0  0
   -4.6388   -0.1000   -1.9233 H   0  0  0  0  0  0  0  0  0  0  0  0
   -6.7596    0.3231    0.3280 H   0  0  0  0  0  0  0  0  0  0  0  0
   -5.8317   -1.1502    0.0161 H   0  0  0  0  0  0  0  0  0  0  0  0
    2.1472   -2.0578    1.9371 H   0  0  0  0  0  0  0  0  0  0  0  0
    2.4271    0.5403   -1.9171 H   0  0  0  0  0  0  0  0  0  0  0  0
    0.4950   -0.7875   -1.8475 H   0  0  0  0  0  0  0  0  0  0  0  0
    3.1883    1.2565    2.2829 H   0  0  0  0  0  0  0  0  0  0  0  0
   -6.9022    0.8657   -1.7374 H   0  0  0  0  0  0  0  0  0  0  0  0
   -6.2382    2.4171   -1.1631 H   0  0  0  0  0  0  0  0  0  0  0  0
   -5.9597    1.8751   -2.8193 H   0  0  0  0  0  0  0  0  0  0  0  0
   -4.9989   -1.1213    2.3256 H   0  0  0  0  0  0  0  0  0  0  0  0
   -5.5905    0.5441    2.5700 H   0  0  0  0  0  0  0  0  0  0  0  0
   -6.7212   -0.7950    2.3702 H   0  0  0  0  0  0  0  0  0  0  0  0
    0.3868   -0.3792    2.2134 H   0  0  0  0  0  0  0  0  0  0  0  0
    2.0835   -4.3938    1.1660 H   0  0  0  0  0  0  0  0  0  0  0  0
    4.5752    1.5868   -2.4676 H   0  0  0  0  0  0  0  0  0  0  0  0
    0.4533   -3.1251   -2.6019 H   0  0  0  0  0  0  0  0  0  0  0  0
    5.3162    2.3132    1.7019 H   0  0  0  0  0  0  0  0  0  0  0  0
    1.2429   -4.9379   -1.1037 H   0  0  0  0  0  0  0  0  0  0  0  0
    6.0272    2.4852   -0.6682 H   0  0  0  0  0  0  0  0  0  0  0  0
  1  7  1  0  0  0  0
  1 12  1  0  0  0  0
  2  5  1  0  0  0  0
  2 43  1  0  0  0  0
  3 12  2  0  0  0  0
  4  6  1  0  0  0  0
  4 10  1  0  0  0  0
  4 11  1  0  0  0  0
  5  8  1  0  0  0  0
  5  9  1  0  0  0  0
  5 12  1  0  0  0  0
  6  7  1  0  0  0  0
  6 25  1  0  0  0  0
  6 26  1  0  0  0  0
  7 27  1  0  0  0  0
  7 28  1  0  0  0  0
  8 13  2  0  0  0  0
  8 15  1  0  0  0  0
  9 14  2  0  0  0  0
  9 16  1  0  0  0  0
 10 17  1  0  0  0  0
 10 29  1  0  0  0  0
 10 30  1  0  0  0  0
 11 18  1  0  0  0  0
 11 31  1  0  0  0  0
 11 32  1  0  0  0  0
 13 19  1  0  0  0  0
 13 33  1  0  0  0  0
 14 20  1  0  0  0  0
 14 34  1  0  0  0  0
 15 21  2  0  0  0  0
 15 35  1  0  0  0  0
 16 22  2  0  0  0  0
 16 36  1  0  0  0  0
 17 37  1  0  0  0  0
 17 38  1  0  0  0  0
 17 39  1  0  0  0  0
 18 40  1  0  0  0  0
 18 41  1  0  0  0  0
 18 42  1  0  0  0  0
 19 23  2  0  0  0  0
 19 44  1  0  0  0  0
 20 24  2  0  0  0  0
 20 45  1  0  0  0  0
 21 23  1  0  0  0  0
 21 46  1  0  0  0  0
 22 24  1  0  0  0  0
 22 47  1  0  0  0  0
 23 48  1  0  0  0  0
 24 49  1  0  0  0  0
M  END
> <DATABASE_ID>
DB09023

> <DATABASE_NAME>
drugbank

> <ORIGINAL_SOURCE>
PUBCHEM

> <ORIGINAL_SOURCE_URL>
https://pubchem.ncbi.nlm.nih.gov/rest/pug/compound/inchikey/IVQOFBKHQCTVQV-UHFFFAOYSA-N/SDF?record_type=3d

> <SMILES>
CCN(CC)CCOC(=O)C(O)(C1=CC=CC=C1)C1=CC=CC=C1

> <INCHI_IDENTIFIER>
InChI=1S/C20H25NO3/c1-3-21(4-2)15-16-24-19(22)20(23,17-11-7-5-8-12-17)18-13-9-6-10-14-18/h5-14,23H,3-4,15-16H2,1-2H3

> <INCHI_KEY>
IVQOFBKHQCTVQV-UHFFFAOYSA-N

> <FORMULA>
C20H25NO3

> <MOLECULAR_WEIGHT>
327.4174

> <EXACT_MASS>
327.183443671

> <JCHEM_ACCEPTOR_COUNT>
3

> <JCHEM_AVERAGE_POLARIZABILITY>
36.65348549215912

> <JCHEM_BIOAVAILABILITY>
1

> <JCHEM_DONOR_COUNT>
1

> <JCHEM_FORMAL_CHARGE>
0

> <JCHEM_GHOSE_FILTER>
1

> <JCHEM_IUPAC>
2-(diethylamino)ethyl 2-hydroxy-2,2-diphenylacetate

> <ALOGPS_LOGP>
3.45

> <JCHEM_LOGP>
3.4357015756666662

> <ALOGPS_LOGS>
-3.24

> <JCHEM_MDDR_LIKE_RULE>
0

> <JCHEM_NUMBER_OF_RINGS>
2

> <JCHEM_PHYSIOLOGICAL_CHARGE>
1

> <JCHEM_PKA_STRONGEST_ACIDIC>
11.053893137562184

> <JCHEM_PKA_STRONGEST_BASIC>
8.958430015210082

> <JCHEM_POLAR_SURFACE_AREA>
49.77000000000001

> <JCHEM_REFRACTIVITY>
95.7675

> <JCHEM_ROTATABLE_BOND_COUNT>
9

> <JCHEM_RULE_OF_FIVE>
1

> <ALOGPS_SOLUBILITY>
1.88e-01 g/l

> <JCHEM_TRADITIONAL_IUPAC>
benactyzine

> <JCHEM_VEBER_RULE>
0

> <DRUGBANK_ID>
DB09023

> <DRUG_GROUPS>
withdrawn

> <GENERIC_NAME>
Benactyzine

> <INTERNATIONAL_BRANDS>
Cedad; Cevanol; Deprol; Lucidil; Morcain; Nutinal; Parasan; Phebex; Phobex; Suavitil

$$$$
