REMARK  Name = 9835049
REMARK  3 active torsions:
REMARK  status: ('A' for Active; 'I' for Inactive)
REMARK    1  A    between atoms: N_3  and  O_15
REMARK    2  A    between atoms: C_7  and  C_12
REMARK    3  A    between atoms: O_15  and  S_16
REMARK                            x       y       z     vdW  Elec       q    Type
REMARK                         _______ _______ _______ _____ _____    ______ ____
ROOT
ATOM      1  O   UNL     1       0.473   1.932  -0.810  0.00  0.00    -0.250 OA
ATOM      2  N   UNL     1      -1.181   0.698   0.442  0.00  0.00    -0.254 N 
ATOM      3  N   UNL     1       0.875  -0.182   0.174  0.00  0.00    -0.126 N 
ATOM      4  C   UNL     1      -0.004  -1.222   0.687  0.00  0.00    +0.127 C 
ATOM      5  C   UNL     1      -0.971  -0.338   1.453  0.00  0.00    +0.118 C 
ATOM      6  C   UNL     1      -0.819  -1.915  -0.436  0.00  0.00    +0.026 C 
ATOM      7  C   UNL     1      -2.131   0.348  -0.607  0.00  0.00    +0.153 C 
ATOM      8  C   UNL     1      -1.655  -0.942  -1.322  0.00  0.00    +0.031 C 
ATOM      9  C   UNL     1       0.149   0.987  -0.106  0.00  0.00    +0.332 C 
ENDROOT
BRANCH   7  12
ATOM     10  O   UNL     1      -4.155  -0.829  -0.132  0.00  0.00    -0.274 OA
ATOM     11  N   UNL     1      -3.950   1.334   0.624  0.00  0.00    -0.327 N 
ATOM     12  C   UNL     1      -3.502   0.205  -0.021  0.00  0.00    +0.238 C 
ATOM     13  H   UNL     1      -4.841   1.341   1.043  0.00  0.00    +0.145 HD
ATOM     14  H   UNL     1      -3.380   2.136   0.665  0.00  0.00    +0.145 HD
ENDBRANCH   7  12
BRANCH   3  15
ATOM     15  O   UNL     1       2.003  -0.549  -0.546  0.00  0.00    -0.094 OA
BRANCH  15  16
ATOM     16  S   UNL     1       3.384   0.060   0.101  0.00  0.00    +0.258 S 
ATOM     17  O   UNL     1       4.559  -0.629  -0.795  0.00  0.00    -0.114 OA
ATOM     18  O   UNL     1       3.512  -0.447   1.455  0.00  0.00    -0.020 OA
ATOM     19  O   UNL     1       3.413   1.487  -0.160  0.00  0.00    -0.114 OA
ENDBRANCH  15  16
ENDBRANCH   3  15
TORSDOF 3
