REMARK  Name = 3053755
REMARK  0 active torsions:
REMARK  status: ('A' for Active; 'I' for Inactive)
REMARK                            x       y       z     vdW  Elec       q    Type
REMARK                         _______ _______ _______ _____ _____    ______ ____
ROOT
ATOM      1 CL   UNL     1       4.954  -1.389  -0.693  0.00  0.00    -0.082 Cl
ATOM      2  O   UNL     1      -0.397  -0.120   1.385  0.00  0.00    -0.466 OA
ATOM      3  O   UNL     1       0.233   3.889   0.140  0.00  0.00    -0.275 OA
ATOM      4  N   UNL     1      -1.009   2.047   0.701  0.00  0.00    -0.277 N 
ATOM      5  N   UNL     1      -3.063  -1.468  -0.569  0.00  0.00    +0.386 N 
ATOM      6  C   UNL     1      -1.281   0.202  -0.912  0.00  0.00    +0.039 C 
ATOM      7  C   UNL     1      -1.322   0.624   0.563  0.00  0.00    +0.189 C 
ATOM      8  C   UNL     1       0.136   0.519  -1.401  0.00  0.00    +0.037 C 
ATOM      9  C   UNL     1      -1.707  -1.265  -1.103  0.00  0.00    -0.072 C 
ATOM     10  C   UNL     1      -2.727   0.331   1.111  0.00  0.00    +0.037 C 
ATOM     11  C   UNL     1       0.311   2.045  -1.393  0.00  0.00    +0.090 C 
ATOM     12  C   UNL     1      -3.138  -1.126   0.859  0.00  0.00    -0.072 C 
ATOM     13  C   UNL     1       1.158  -0.117  -0.489  0.00  0.00    +0.013 C 
ATOM     14  C   UNL     1      -0.131   2.739  -0.109  0.00  0.00    +0.225 C 
ATOM     15  C   UNL     1       0.836  -0.383   0.847  0.00  0.00    +0.136 C 
ATOM     16  C   UNL     1      -3.499  -2.847  -0.790  0.00  0.00    -0.101 C 
ATOM     17  C   UNL     1       2.441  -0.428  -0.958  0.00  0.00    +0.010 C 
ATOM     18  C   UNL     1       1.775  -0.968   1.697  0.00  0.00    +0.038 C 
ATOM     19  C   UNL     1       3.381  -1.007  -0.106  0.00  0.00    +0.058 C 
ATOM     20  C   UNL     1       3.048  -1.278   1.220  0.00  0.00    +0.014 C 
ATOM     21  H   UNL     1      -1.456   2.547   1.423  0.00  0.00    +0.152 HD
ATOM     22  H   UNL     1      -3.692  -0.841  -1.071  0.00  0.00    -0.080 HD
ENDROOT
TORSDOF 0
