REMARK  Name = 5311217
REMARK  11 active torsions:
REMARK  status: ('A' for Active; 'I' for Inactive)
REMARK    1  A    between atoms: C_2  and  C_10
REMARK    2  A    between atoms: C_3  and  C_26
REMARK    3  A    between atoms: C_4  and  C_31
REMARK    4  A    between atoms: C_11  and  C_16
REMARK    5  A    between atoms: C_17  and  C_19
REMARK    6  A    between atoms: C_19  and  O_20
REMARK    7  A    between atoms: O_20  and  C_21
REMARK    8  A    between atoms: C_26  and  O_27
REMARK    9  A    between atoms: O_27  and  C_28
REMARK   10  A    between atoms: C_31  and  O_32
REMARK   11  A    between atoms: O_32  and  C_33
REMARK                            x       y       z     vdW  Elec       q    Type
REMARK                         _______ _______ _______ _____ _____    ______ ____
ROOT
ATOM      1  N   UNL     1      -3.679   1.151  -1.847  0.00  0.00    -0.334 N 
ATOM      2  C   UNL     1      -1.516   0.190  -0.294  0.00  0.00    +0.011 C 
ATOM      3  C   UNL     1      -2.631  -0.711  -0.832  0.00  0.00    +0.071 C 
ATOM      4  C   UNL     1      -1.780   1.681  -0.536  0.00  0.00    +0.085 C 
ATOM      5  C   UNL     1      -3.630  -0.210  -1.593  0.00  0.00    +0.098 C 
ATOM      6  C   UNL     1      -2.819   2.091  -1.300  0.00  0.00    +0.028 C 
ATOM      7  C   UNL     1      -4.742  -1.012  -2.213  0.00  0.00    +0.026 C 
ATOM      8  C   UNL     1      -3.146   3.521  -1.636  0.00  0.00    +0.047 C 
ATOM      9  H   UNL     1      -4.377   1.475  -2.461  0.00  0.00    +0.147 HD
ENDROOT
BRANCH   2  10
ATOM     10  C   UNL     1      -1.316  -0.063   1.173  0.00  0.00    +0.000 C 
ATOM     11  C   UNL     1      -0.108  -0.553   1.670  0.00  0.00    +0.000 C 
ATOM     12  C   UNL     1      -2.371   0.205   2.045  0.00  0.00    -0.000 C 
ATOM     13  C   UNL     1       0.044  -0.776   3.039  0.00  0.00    +0.000 C 
ATOM     14  C   UNL     1      -2.219  -0.018   3.414  0.00  0.00    -0.000 C 
ATOM     15  C   UNL     1      -1.012  -0.509   3.910  0.00  0.00    +0.000 C 
BRANCH  11  16
ATOM     16  C   UNL     1       1.013  -0.843   0.785  0.00  0.00    +0.007 C 
ATOM     17  C   UNL     1       2.237  -0.281   0.872  0.00  0.00    +0.082 C 
BRANCH  17  19
ATOM     18  O   UNL     1       3.181  -1.480  -0.985  0.00  0.00    -0.245 OA
ATOM     19  C   UNL     1       3.301  -0.667  -0.083  0.00  0.00    +0.341 C 
BRANCH  19  20
ATOM     20  O   UNL     1       4.415   0.047   0.232  0.00  0.00    -0.453 OA
BRANCH  20  21
ATOM     21  C   UNL     1       5.557  -0.199  -0.596  0.00  0.00    +0.137 C 
ATOM     22  C   UNL     1       6.690   0.693  -0.093  0.00  0.00    +0.044 C 
ATOM     23  C   UNL     1       5.196   0.153  -2.038  0.00  0.00    +0.044 C 
ATOM     24  C   UNL     1       5.939  -1.673  -0.474  0.00  0.00    +0.044 C 
ENDBRANCH  20  21
ENDBRANCH  19  20
ENDBRANCH  17  19
ENDBRANCH  11  16
ENDBRANCH   2  10
BRANCH   3  26
ATOM     25  O   UNL     1      -3.453  -2.672   0.215  0.00  0.00    -0.245 OA
ATOM     26  C   UNL     1      -2.582  -2.129  -0.438  0.00  0.00    +0.339 C 
BRANCH  26  27
ATOM     27  O   UNL     1      -1.438  -2.668  -0.924  0.00  0.00    -0.446 OA
BRANCH  27  28
ATOM     28  C   UNL     1      -1.243  -4.053  -0.622  0.00  0.00    +0.209 C 
ATOM     29  C   UNL     1       0.067  -4.511  -1.226  0.00  0.00    +0.051 C 
ENDBRANCH  27  28
ENDBRANCH  26  27
ENDBRANCH   3  26
BRANCH   4  31
ATOM     30  O   UNL     1      -1.275   3.431   0.980  0.00  0.00    -0.245 OA
ATOM     31  C   UNL     1      -0.888   2.628   0.151  0.00  0.00    +0.342 C 
BRANCH  31  32
ATOM     32  O   UNL     1       0.374   2.432  -0.302  0.00  0.00    -0.445 OA
BRANCH  32  33
ATOM     33  C   UNL     1       1.366   3.286   0.278  0.00  0.00    +0.209 C 
ATOM     34  C   UNL     1       2.469   3.517  -0.732  0.00  0.00    +0.051 C 
ENDBRANCH  32  33
ENDBRANCH  31  32
ENDBRANCH   4  31
TORSDOF 11
