REMARK  Name = 3651
REMARK  4 active torsions:
REMARK  status: ('A' for Active; 'I' for Inactive)
REMARK    1  A    between atoms: C_1  and  C_9
REMARK    2  A    between atoms: C_6  and  O_7
REMARK    3  A    between atoms: C_9  and  C_10
REMARK    4  A    between atoms: C_10  and  N_12
REMARK                            x       y       z     vdW  Elec       q    Type
REMARK                         _______ _______ _______ _____ _____    ______ ____
ROOT
ATOM      1  C   UNL     1      -0.194   0.279  -0.446  0.00  0.00    -0.024 C 
ATOM      2  C   UNL     1       0.536   1.332   0.090  0.00  0.00    -0.001 C 
ATOM      3  C   UNL     1       0.404  -0.950  -0.692  0.00  0.00    -0.001 C 
ATOM      4  C   UNL     1       1.887   1.153   0.386  0.00  0.00    +0.036 C 
ATOM      5  C   UNL     1       1.756  -1.129  -0.396  0.00  0.00    +0.036 C 
ATOM      6  C   UNL     1       2.497  -0.078   0.142  0.00  0.00    +0.134 C 
ENDROOT
BRANCH   6   7
ATOM      7  O   UNL     1       3.816  -0.252   0.432  0.00  0.00    -0.506 OA
ATOM      8  H   UNL     1       4.313   0.455   0.794  0.00  0.00    +0.292 HD
ENDBRANCH   6   7
BRANCH   1   9
ATOM      9  C   UNL     1      -1.650   0.472  -0.765  0.00  0.00    +0.005 C 
BRANCH   9  10
ATOM     10  C   UNL     1      -2.592   0.125   0.404  0.00  0.00    -0.061 C 
ATOM     11  C   UNL     1      -2.480  -1.337   0.836  0.00  0.00    -0.024 C 
BRANCH  10  12
ATOM     12  N   UNL     1      -3.979   0.384   0.008  0.00  0.00    +0.382 N 
ATOM     13  H   UNL     1      -4.074   1.356  -0.284  0.00  0.00    -0.089 HD
ATOM     14  H   UNL     1      -4.597   0.205   0.800  0.00  0.00    -0.089 HD
ATOM     15  H   UNL     1      -4.233  -0.230  -0.766  0.00  0.00    -0.089 HD
ENDBRANCH  10  12
ENDBRANCH   9  10
ENDBRANCH   1   9
TORSDOF 4
