REMARK  Name = 40466858
REMARK  6 active torsions:
REMARK  status: ('A' for Active; 'I' for Inactive)
REMARK    1  A    between atoms: C_1  and  C_21
REMARK    2  A    between atoms: C_2  and  C_3
REMARK    3  A    between atoms: C_2  and  C_11
REMARK    4  A    between atoms: C_14  and  C_16
REMARK    5  A    between atoms: C_17  and  C_20
REMARK    6  A    between atoms: C_21  and  N_22
REMARK                            x       y       z     vdW  Elec       q    Type
REMARK                         _______ _______ _______ _____ _____    ______ ____
ROOT
ATOM      1  C   UNL     1      -1.500  -1.086  -0.826  0.00  0.00    -0.047 C 
ATOM      2  C   UNL     1      -0.583  -0.439  -0.073  0.00  0.00    +0.023 C 
ENDROOT
BRANCH   2   3
ATOM      3  C   UNL     1      -0.738   1.005   0.215  0.00  0.00    +0.002 C 
ATOM      4  C   UNL     1      -0.170   1.952  -0.638  0.00  0.00    -0.000 C 
ATOM      5  C   UNL     1      -1.453   1.419   1.339  0.00  0.00    -0.000 C 
ATOM      6  C   UNL     1      -0.317   3.312  -0.367  0.00  0.00    -0.004 C 
ATOM      7  C   UNL     1      -1.599   2.780   1.610  0.00  0.00    -0.004 C 
ATOM      8  C   UNL     1      -1.031   3.726   0.757  0.00  0.00    -0.022 C 
ATOM      9  C   UNL     1      -1.188   5.180   1.048  0.00  0.00    +0.031 C 
ENDBRANCH   2   3
BRANCH   2  11
ATOM     10  N   UNL     1       1.790  -0.818   0.077  0.00  0.00    -0.406 NA
ATOM     11  C   UNL     1       0.559  -1.231   0.453  0.00  0.00    +0.130 C 
ATOM     12  C   UNL     1       0.324  -2.319   1.278  0.00  0.00    +0.028 C 
ATOM     13  C   UNL     1       1.423  -3.030   1.747  0.00  0.00    -0.016 C 
ATOM     14  C   UNL     1       2.834  -1.533   0.552  0.00  0.00    +0.114 C 
ATOM     15  C   UNL     1       2.706  -2.635   1.382  0.00  0.00    +0.085 C 
BRANCH  14  16
ATOM     16  C   UNL     1       4.154  -1.082   0.142  0.00  0.00    +0.035 C 
ATOM     17  C   UNL     1       4.403  -0.039  -0.682  0.00  0.00    +0.088 C 
BRANCH  17  20
ATOM     18  O   UNL     1       6.733  -0.356  -0.566  0.00  0.00    -0.241 OA
ATOM     19  O   UNL     1       5.950   1.357  -1.855  0.00  0.00    -0.241 OA
ATOM     20  C   UNL     1       5.830   0.369  -1.078  0.00  0.00    +0.388 C 
ENDBRANCH  17  20
ENDBRANCH  14  16
ENDBRANCH   2  11
BRANCH   1  21
ATOM     21  C   UNL     1      -2.738  -0.523  -1.458  0.00  0.00    -0.050 C 
BRANCH  21  22
ATOM     22  N   UNL     1      -3.942  -0.650  -0.581  0.00  0.00    +0.390 N 
ATOM     23  C   UNL     1      -4.257  -2.074  -0.181  0.00  0.00    -0.077 C 
ATOM     24  C   UNL     1      -5.208  -0.050  -1.166  0.00  0.00    -0.077 C 
ATOM     25  C   UNL     1      -5.759  -2.061   0.006  0.00  0.00    -0.025 C 
ATOM     26  C   UNL     1      -6.225  -1.176  -1.133  0.00  0.00    -0.025 C 
ATOM     27  H   UNL     1      -3.666  -0.113   0.241  0.00  0.00    -0.079 HD
ENDBRANCH  21  22
ENDBRANCH   1  21
TORSDOF 6
