REMARK  Name = 11476460
REMARK  8 active torsions:
REMARK  status: ('A' for Active; 'I' for Inactive)
REMARK    1  A    between atoms: C_2  and  N_10
REMARK    2  A    between atoms: C_5  and  C_23
REMARK    3  A    between atoms: C_11  and  C_14
REMARK    4  A    between atoms: C_14  and  O_15
REMARK    5  A    between atoms: O_15  and  P_16
REMARK    6  A    between atoms: P_16  and  O_18
REMARK    7  A    between atoms: P_16  and  O_20
REMARK    8  A    between atoms: C_27  and  C_32
REMARK                            x       y       z     vdW  Elec       q    Type
REMARK                         _______ _______ _______ _____ _____    ______ ____
ROOT
ATOM      1  F   UNL     1      -1.114   1.472   1.928  0.00  0.00    -0.204 F 
ATOM      2  C   UNL     1       1.688   0.858  -0.312  0.00  0.00    +0.059 C 
ATOM      3  C   UNL     1       0.954   1.258   0.809  0.00  0.00    +0.045 C 
ATOM      4  C   UNL     1       1.025   0.277  -1.398  0.00  0.00    +0.015 C 
ATOM      5  C   UNL     1      -1.085   0.500  -0.242  0.00  0.00    +0.029 C 
ATOM      6  C   UNL     1      -0.429   1.080   0.844  0.00  0.00    +0.141 C 
ATOM      7  C   UNL     1      -0.358   0.099  -1.363  0.00  0.00    +0.004 C 
ENDROOT
BRANCH   2  10
ATOM      8  O   UNL     1       5.215   1.595   0.211  0.00  0.00    -0.434 OA
ATOM      9  O   UNL     1       3.595   2.063   1.728  0.00  0.00    -0.226 OA
ATOM     10  N   UNL     1       3.099   1.040  -0.348  0.00  0.00    -0.221 N 
ATOM     11  C   UNL     1       5.312   0.814  -0.988  0.00  0.00    +0.221 C 
ATOM     12  C   UNL     1       3.893   0.754  -1.512  0.00  0.00    +0.148 C 
ATOM     13  C   UNL     1       3.907   1.597   0.641  0.00  0.00    +0.409 C 
BRANCH  11  14
ATOM     14  C   UNL     1       5.880  -0.555  -0.638  0.00  0.00    +0.199 C 
BRANCH  14  15
ATOM     15  O   UNL     1       7.207  -0.389  -0.171  0.00  0.00    -0.269 OA
BRANCH  15  16
ATOM     16  P   UNL     1       8.041  -1.705   0.270  0.00  0.00    +0.473 P 
ATOM     17  O   UNL     1       9.437  -1.439   0.753  0.00  0.00    -0.227 OA
BRANCH  16  18
ATOM     18  O   UNL     1       7.928  -2.680  -1.015  0.00  0.00    -0.303 OA
ATOM     19  H   UNL     1       6.994  -2.793  -1.254  0.00  0.00    +0.222 HD
ENDBRANCH  16  18
BRANCH  16  20
ATOM     20  O   UNL     1       7.065  -2.405   1.354  0.00  0.00    -0.303 OA
ATOM     21  H   UNL     1       6.189  -2.539   0.960  0.00  0.00    +0.222 HD
ENDBRANCH  16  20
ENDBRANCH  15  16
ENDBRANCH  14  15
ENDBRANCH  11  14
ENDBRANCH   2  10
BRANCH   5  23
ATOM     22  N   UNL     1      -4.405  -1.091   0.340  0.00  0.00    -0.234 NA
ATOM     23  C   UNL     1      -2.520   0.314  -0.211  0.00  0.00    +0.021 C 
ATOM     24  C   UNL     1      -3.378   1.300  -0.680  0.00  0.00    +0.004 C 
ATOM     25  C   UNL     1      -3.076  -0.852   0.284  0.00  0.00    +0.100 C 
ATOM     26  C   UNL     1      -4.752   1.092  -0.639  0.00  0.00    +0.029 C 
ATOM     27  C   UNL     1      -5.211  -0.110  -0.124  0.00  0.00    +0.146 C 
BRANCH  27  32
ATOM     28  N   UNL     1      -7.128  -1.514   0.424  0.00  0.00    -0.105 NA
ATOM     29  N   UNL     1      -8.432  -1.252   0.257  0.00  0.00    -0.113 N 
ATOM     30  N   UNL     1      -7.553   0.513  -0.491  0.00  0.00    -0.085 NA
ATOM     31  N   UNL     1      -8.731  -0.062  -0.282  0.00  0.00    -0.018 NA
ATOM     32  C   UNL     1      -6.619  -0.379  -0.059  0.00  0.00    +0.092 C 
ATOM     33  C   UNL     1      -9.454  -2.194   0.634  0.00  0.00    +0.163 C 
ENDBRANCH  27  32
ENDBRANCH   5  23
TORSDOF 8
