REMARK  Name = 2763
REMARK  5 active torsions:
REMARK  status: ('A' for Active; 'I' for Inactive)
REMARK    1  A    between atoms: C_1  and  C_9
REMARK    2  A    between atoms: C_6  and  O_12
REMARK    3  A    between atoms: O_12  and  C_13
REMARK    4  A    between atoms: C_13  and  C_17
REMARK    5  A    between atoms: C_17  and  O_18
REMARK                            x       y       z     vdW  Elec       q    Type
REMARK                         _______ _______ _______ _____ _____    ______ ____
ROOT
ATOM      1  C   UNL     1       1.952  -0.686  -0.254  0.00  0.00    -0.020 C 
ATOM      2  C   UNL     1       1.171  -1.511   0.556  0.00  0.00    -0.001 C 
ATOM      3  C   UNL     1       1.342   0.169  -1.173  0.00  0.00    -0.001 C 
ATOM      4  C   UNL     1      -0.219  -1.481   0.447  0.00  0.00    +0.037 C 
ATOM      5  C   UNL     1      -0.048   0.198  -1.282  0.00  0.00    +0.037 C 
ATOM      6  C   UNL     1      -0.822  -0.627  -0.471  0.00  0.00    +0.139 C 
ENDROOT
BRANCH   1   9
ATOM      7 CL   UNL     1       3.416   2.053   0.478  0.00  0.00    -0.099 Cl
ATOM      8 CL   UNL     1       5.807   0.702  -0.569  0.00  0.00    -0.099 Cl
ATOM      9  C   UNL     1       3.437  -0.717  -0.138  0.00  0.00    +0.053 C 
ATOM     10  C   UNL     1       4.223   0.515   0.186  0.00  0.00    +0.137 C 
ATOM     11  C   UNL     1       4.061  -0.565   1.215  0.00  0.00    +0.038 C 
ENDBRANCH   1   9
BRANCH   6  12
ATOM     12  O   UNL     1      -2.185  -0.598  -0.578  0.00  0.00    -0.472 OA
BRANCH  12  13
ATOM     13  C   UNL     1      -2.872   0.334   0.259  0.00  0.00    +0.221 C 
ATOM     14  C   UNL     1      -2.392   1.736  -0.103  0.00  0.00    +0.055 C 
ATOM     15  C   UNL     1      -2.571  -0.025   1.711  0.00  0.00    +0.055 C 
BRANCH  13  17
ATOM     16  O   UNL     1      -4.797  -0.677  -0.838  0.00  0.00    -0.246 OA
ATOM     17  C   UNL     1      -4.351   0.157  -0.059  0.00  0.00    +0.350 C 
BRANCH  17  18
ATOM     18  O   UNL     1      -5.152   1.024   0.611  0.00  0.00    -0.478 OA
ATOM     19  H   UNL     1      -4.778   1.649   1.200  0.00  0.00    +0.295 HD
ENDBRANCH  17  18
ENDBRANCH  13  17
ENDBRANCH  12  13
ENDBRANCH   6  12
TORSDOF 5
