REMARK  Name = 108000
REMARK  2 active torsions:
REMARK  status: ('A' for Active; 'I' for Inactive)
REMARK    1  A    between atoms: C_2  and  C_5
REMARK    2  A    between atoms: C_2  and  C_15
REMARK                            x       y       z     vdW  Elec       q    Type
REMARK                         _______ _______ _______ _____ _____    ______ ____
ROOT
ATOM      1  O   UNL     1       0.668   1.121  -0.393  0.00  0.00    -0.291 OA
ATOM      2  C   UNL     1       0.272  -0.046  -0.376  0.00  0.00    +0.174 C 
ENDROOT
BRANCH   2   5
ATOM      3  N   UNL     1       4.556   0.666  -1.104  0.00  0.00    -0.319 N 
ATOM      4  N   UNL     1       4.677   0.738   1.125  0.00  0.00    -0.319 N 
ATOM      5  C   UNL     1       1.273  -1.157  -0.518  0.00  0.00    +0.068 C 
ATOM      6  C   UNL     1       1.727  -1.627   0.886  0.00  0.00    +0.014 C 
ATOM      7  C   UNL     1       2.442  -0.725  -1.435  0.00  0.00    +0.049 C 
ATOM      8  C   UNL     1       2.595  -0.597   1.645  0.00  0.00    +0.042 C 
ATOM      9  C   UNL     1       3.482  -0.032  -0.639  0.00  0.00    +0.032 C 
ATOM     10  C   UNL     1       3.580   0.022   0.731  0.00  0.00    +0.032 C 
ATOM     11  C   UNL     1       5.245   1.110  -0.004  0.00  0.00    +0.181 C 
ATOM     12  H   UNL     1       4.792   0.822  -2.047  0.00  0.00    +0.148 HD
ATOM     13  H   UNL     1       4.974   0.931   2.043  0.00  0.00    +0.148 HD
ENDBRANCH   2   5
BRANCH   2  15
ATOM     14  N   UNL     1      -2.982  -1.557  -0.040  0.00  0.00    -0.284 N 
ATOM     15  C   UNL     1      -1.155  -0.369  -0.220  0.00  0.00    +0.051 C 
ATOM     16  C   UNL     1      -2.214   0.538  -0.076  0.00  0.00    +0.018 C 
ATOM     17  C   UNL     1      -3.369  -0.238   0.037  0.00  0.00    +0.052 C 
ATOM     18  C   UNL     1      -1.624  -1.641  -0.198  0.00  0.00    +0.068 C 
ATOM     19  C   UNL     1      -2.331   1.941  -0.028  0.00  0.00    +0.001 C 
ATOM     20  C   UNL     1      -4.642   0.322   0.197  0.00  0.00    +0.015 C 
ATOM     21  C   UNL     1      -3.866  -2.699   0.035  0.00  0.00    +0.117 C 
ATOM     22  C   UNL     1      -3.598   2.515   0.132  0.00  0.00    +0.000 C 
ATOM     23  C   UNL     1      -4.734   1.716   0.243  0.00  0.00    +0.001 C 
ENDBRANCH   2  15
TORSDOF 2
