REMARK  Name = 157919
REMARK  3 active torsions:
REMARK  status: ('A' for Active; 'I' for Inactive)
REMARK    1  A    between atoms: O_1  and  C_8
REMARK    2  A    between atoms: O_1  and  C_12
REMARK    3  A    between atoms: C_12  and  C_15
REMARK                            x       y       z     vdW  Elec       q    Type
REMARK                         _______ _______ _______ _____ _____    ______ ____
ROOT
ATOM      1  O   UNL     1       0.607  -0.514  -0.586  0.00  0.00    -0.473 OA
ENDROOT
BRANCH   1   8
ATOM      2  F   UNL     1      -4.793  -0.865   0.528  0.00  0.00    -0.205 F 
ATOM      3  C   UNL     1      -1.075   1.971  -0.309  0.00  0.00    +0.030 C 
ATOM      4  C   UNL     1      -1.506   0.541  -0.214  0.00  0.00    +0.010 C 
ATOM      5  C   UNL     1      -2.425   2.676  -0.512  0.00  0.00    +0.010 C 
ATOM      6  C   UNL     1      -3.484   1.812   0.188  0.00  0.00    +0.029 C 
ATOM      7  C   UNL     1      -2.874   0.451   0.069  0.00  0.00    +0.004 C 
ATOM      8  C   UNL     1      -0.724  -0.595  -0.327  0.00  0.00    +0.134 C 
ATOM      9  C   UNL     1      -3.487  -0.777   0.244  0.00  0.00    +0.136 C 
ATOM     10  C   UNL     1      -1.336  -1.839  -0.164  0.00  0.00    +0.039 C 
ATOM     11  C   UNL     1      -2.708  -1.930   0.120  0.00  0.00    +0.032 C 
ENDBRANCH   1   8
BRANCH   1  12
ATOM     12  C   UNL     1       1.438  -1.549  -0.061  0.00  0.00    +0.232 C 
BRANCH  12  15
ATOM     13  O   UNL     1       3.357  -0.516  -1.038  0.00  0.00    -0.357 OA
ATOM     14  N   UNL     1       4.098   0.750   1.399  0.00  0.00    +0.387 N 
ATOM     15  C   UNL     1       2.826  -0.983   0.208  0.00  0.00    +0.138 C 
ATOM     16  C   UNL     1       2.765   0.173   1.210  0.00  0.00    -0.048 C 
ATOM     17  C   UNL     1       4.649   1.181   0.113  0.00  0.00    -0.049 C 
ATOM     18  C   UNL     1       4.672   0.015  -0.868  0.00  0.00    +0.119 C 
ATOM     19  H   UNL     1       4.714   0.048   1.811  0.00  0.00    -0.084 HD
ATOM     20  H   UNL     1       4.027   1.557   2.018  0.00  0.00    -0.084 HD
ENDBRANCH  12  15
ENDBRANCH   1  12
TORSDOF 3
