REMARK  Name = 12597
REMARK  2 active torsions:
REMARK  status: ('A' for Active; 'I' for Inactive)
REMARK    1  A    between atoms: C_5  and  O_9
REMARK    2  A    between atoms: C_6  and  O_11
REMARK                            x       y       z     vdW  Elec       q    Type
REMARK                         _______ _______ _______ _____ _____    ______ ____
ROOT
ATOM      1  O   UNL     1       0.120  -1.367  -0.376  0.00  0.00    -0.348 OA
ATOM      2  O   UNL     1      -0.255   1.668  -0.320  0.00  0.00    -0.348 OA
ATOM      3  C   UNL     1      -0.274  -0.483   0.686  0.00  0.00    +0.174 C 
ATOM      4  C   UNL     1       0.528   0.792   0.515  0.00  0.00    +0.174 C 
ATOM      5  C   UNL     1      -1.694   0.001   0.512  0.00  0.00    +0.170 C 
ATOM      6  C   UNL     1       1.764   0.332  -0.216  0.00  0.00    +0.170 C 
ATOM      7  C   UNL     1       1.237  -0.797  -1.079  0.00  0.00    +0.174 C 
ATOM      8  C   UNL     1      -1.538   1.068  -0.548  0.00  0.00    +0.174 C 
ENDROOT
BRANCH   5   9
ATOM      9  O   UNL     1      -2.589  -1.014   0.116  0.00  0.00    -0.379 OA
ATOM     10  H   UNL     1      -2.660  -1.676   0.821  0.00  0.00    +0.211 HD
ENDBRANCH   5   9
BRANCH   6  11
ATOM     11  O   UNL     1       2.702  -0.201   0.710  0.00  0.00    -0.379 OA
ATOM     12  H   UNL     1       3.047   0.513   1.269  0.00  0.00    +0.211 HD
ENDBRANCH   6  11
TORSDOF 2
