REMARK  Name = 5319
REMARK  4 active torsions:
REMARK  status: ('A' for Active; 'I' for Inactive)
REMARK    1  A    between atoms: S_1  and  C_4
REMARK    2  A    between atoms: S_1  and  N_14
REMARK    3  A    between atoms: C_7  and  N_10
REMARK    4  A    between atoms: C_15  and  C_17
REMARK                            x       y       z     vdW  Elec       q    Type
REMARK                         _______ _______ _______ _____ _____    ______ ____
ROOT
ATOM      1  S   UNL     1       0.949   1.933   0.384  0.00  0.00    +0.076 S 
ATOM      2  O   UNL     1       0.933   2.710  -0.841  0.00  0.00    -0.150 OA
ATOM      3  O   UNL     1       1.284   2.558   1.648  0.00  0.00    -0.150 OA
ENDROOT
BRANCH   1   4
ATOM      4  C   UNL     1       2.071   0.585   0.167  0.00  0.00    +0.125 C 
ATOM      5  C   UNL     1       2.340   0.128  -1.112  0.00  0.00    +0.021 C 
ATOM      6  C   UNL     1       2.660   0.010   1.279  0.00  0.00    +0.021 C 
ATOM      7  C   UNL     1       3.827  -1.528  -0.173  0.00  0.00    +0.042 C 
ATOM      8  C   UNL     1       3.224  -0.936  -1.283  0.00  0.00    +0.015 C 
ATOM      9  C   UNL     1       3.545  -1.054   1.108  0.00  0.00    +0.015 C 
BRANCH   7  10
ATOM     10  N   UNL     1       4.723  -2.603  -0.345  0.00  0.00    -0.357 N 
ATOM     11  H   UNL     1       4.922  -2.938  -1.250  0.00  0.00    +0.142 HD
ATOM     12  H   UNL     1       5.149  -3.019   0.438  0.00  0.00    +0.142 HD
ENDBRANCH   7  10
ENDBRANCH   1   4
BRANCH   1  14
ATOM     13  O   UNL     1      -1.019   0.789  -1.729  0.00  0.00    -0.269 OA
ATOM     14  N   UNL     1      -0.541   1.100   0.543  0.00  0.00    -0.181 N 
ATOM     15  C   UNL     1      -1.359   0.623  -0.548  0.00  0.00    +0.264 C 
ATOM     16  H   UNL     1      -0.867   0.932   1.457  0.00  0.00    +0.177 HD
BRANCH  15  17
ATOM     17  C   UNL     1      -2.591  -0.062  -0.192  0.00  0.00    +0.055 C 
ATOM     18  C   UNL     1      -3.673  -0.055  -1.072  0.00  0.00    +0.005 C 
ATOM     19  C   UNL     1      -2.691  -0.726   1.031  0.00  0.00    +0.005 C 
ATOM     20  C   UNL     1      -4.855  -0.712  -0.730  0.00  0.00    +0.000 C 
ATOM     21  C   UNL     1      -3.873  -1.384   1.373  0.00  0.00    +0.000 C 
ATOM     22  C   UNL     1      -4.955  -1.377   0.492  0.00  0.00    +0.000 C 
ENDBRANCH  15  17
ENDBRANCH   1  14
TORSDOF 4
