REMARK  Name = 9822750
REMARK  11 active torsions:
REMARK  status: ('A' for Active; 'I' for Inactive)
REMARK    1  A    between atoms: C_2  and  C_10
REMARK    2  A    between atoms: C_3  and  C_17
REMARK    3  A    between atoms: C_4  and  C_22
REMARK    4  A    between atoms: C_5  and  C_25
REMARK    5  A    between atoms: C_17  and  O_18
REMARK    6  A    between atoms: O_18  and  C_19
REMARK    7  A    between atoms: C_22  and  O_23
REMARK    8  A    between atoms: C_25  and  O_26
REMARK    9  A    between atoms: O_26  and  C_27
REMARK   10  A    between atoms: C_27  and  C_28
REMARK   11  A    between atoms: C_28  and  N_29
REMARK                            x       y       z     vdW  Elec       q    Type
REMARK                         _______ _______ _______ _____ _____    ______ ____
ROOT
ATOM      1  N   UNL     1      -0.338   2.426  -0.004  0.00  0.00    -0.332 N 
ATOM      2  C   UNL     1       1.188   0.102   0.549  0.00  0.00    +0.012 C 
ATOM      3  C   UNL     1      -0.298   0.238   0.898  0.00  0.00    +0.074 C 
ATOM      4  C   UNL     1       1.798   1.408   0.029  0.00  0.00    +0.085 C 
ATOM      5  C   UNL     1      -0.990   1.359   0.591  0.00  0.00    +0.128 C 
ATOM      6  C   UNL     1       1.026   2.483  -0.244  0.00  0.00    +0.028 C 
ATOM      7  C   UNL     1       1.517   3.791  -0.803  0.00  0.00    +0.047 C 
ATOM      8  H   UNL     1      -0.882   3.201  -0.275  0.00  0.00    +0.147 HD
ENDROOT
BRANCH   2  10
ATOM      9 CL   UNL     1       2.889  -2.340   1.365  0.00  0.00    -0.082 Cl
ATOM     10  C   UNL     1       1.380  -0.992  -0.461  0.00  0.00    +0.011 C 
ATOM     11  C   UNL     1       2.134  -2.130  -0.173  0.00  0.00    +0.058 C 
ATOM     12  C   UNL     1       0.782  -0.850  -1.713  0.00  0.00    +0.001 C 
ATOM     13  C   UNL     1       2.289  -3.125  -1.138  0.00  0.00    +0.011 C 
ATOM     14  C   UNL     1       0.937  -1.846  -2.677  0.00  0.00    +0.000 C 
ATOM     15  C   UNL     1       1.691  -2.983  -2.390  0.00  0.00    +0.001 C 
ENDBRANCH   2  10
BRANCH   3  17
ATOM     16  O   UNL     1      -0.502  -1.292   2.696  0.00  0.00    -0.245 OA
ATOM     17  C   UNL     1      -0.909  -0.887   1.623  0.00  0.00    +0.339 C 
BRANCH  17  18
ATOM     18  O   UNL     1      -1.953  -1.350   0.893  0.00  0.00    -0.446 OA
BRANCH  18  19
ATOM     19  C   UNL     1      -2.656  -2.454   1.472  0.00  0.00    +0.209 C 
ATOM     20  C   UNL     1      -3.787  -2.857   0.550  0.00  0.00    +0.051 C 
ENDBRANCH  18  19
ENDBRANCH  17  18
ENDBRANCH   3  17
BRANCH   4  22
ATOM     21  O   UNL     1       3.834   1.679  -1.155  0.00  0.00    -0.245 OA
ATOM     22  C   UNL     1       3.264   1.442  -0.106  0.00  0.00    +0.342 C 
BRANCH  22  23
ATOM     23  O   UNL     1       3.811   1.173   1.104  0.00  0.00    -0.441 OA
ATOM     24  C   UNL     1       5.242   1.170   1.136  0.00  0.00    +0.256 C 
ENDBRANCH  22  23
ENDBRANCH   4  22
BRANCH   5  25
ATOM     25  C   UNL     1      -2.458   1.572   0.844  0.00  0.00    +0.166 C 
BRANCH  25  26
ATOM     26  O   UNL     1      -3.200   1.130  -0.276  0.00  0.00    -0.354 OA
BRANCH  26  27
ATOM     27  C   UNL     1      -4.600   1.310  -0.089  0.00  0.00    +0.119 C 
BRANCH  27  28
ATOM     28  C   UNL     1      -5.325   0.836  -1.338  0.00  0.00    -0.054 C 
BRANCH  28  29
ATOM     29  N   UNL     1      -6.764   0.985  -1.184  0.00  0.00    +0.382 N 
ATOM     30  H   UNL     1      -7.232   0.662  -2.031  0.00  0.00    -0.089 HD
ATOM     31  H   UNL     1      -6.989   1.967  -1.025  0.00  0.00    -0.089 HD
ATOM     32  H   UNL     1      -7.081   0.431  -0.389  0.00  0.00    -0.089 HD
ENDBRANCH  28  29
ENDBRANCH  27  28
ENDBRANCH  26  27
ENDBRANCH  25  26
ENDBRANCH   5  25
TORSDOF 11
