REMARK  Name = 24529
REMARK  1 active torsions:
REMARK  status: ('A' for Active; 'I' for Inactive)
REMARK    1  A    between atoms: O_1  and  N_4
REMARK                            x       y       z     vdW  Elec       q    Type
REMARK                         _______ _______ _______ _____ _____    ______ ____
ROOT
ATOM      1  O   UNL     1      -1.153   0.246   0.000  0.00  0.00    -0.269 OA
ATOM      2  H   UNL     1      -1.986  -0.184   0.000  0.00  0.00    +0.241 HD
ENDROOT
BRANCH   1   4
ATOM      3  O   UNL     1       1.115   0.272   0.000  0.00  0.00    -0.070 OA
ATOM      4  N   UNL     1       0.038  -0.518   0.000  0.00  0.00    +0.098 NA
ENDBRANCH   1   4
TORSDOF 1
