REMARK  Name = 3307
REMARK  2 active torsions:
REMARK  status: ('A' for Active; 'I' for Inactive)
REMARK    1  A    between atoms: C_8  and  C_16
REMARK    2  A    between atoms: C_10  and  C_22
REMARK                            x       y       z     vdW  Elec       q    Type
REMARK                         _______ _______ _______ _____ _____    ______ ____
ROOT
ATOM      1  S   UNL     1       1.933   2.138   0.006  0.00  0.00    -0.074 S 
ATOM      2  N   UNL     1       2.269  -0.502   0.050  0.00  0.00    -0.274 N 
ATOM      3  N   UNL     1      -0.287  -1.925   1.030  0.00  0.00    -0.262 NA
ATOM      4  N   UNL     1       3.108  -2.541   0.175  0.00  0.00    -0.131 NA
ATOM      5  N   UNL     1       3.969  -1.768  -0.565  0.00  0.00    -0.133 NA
ATOM      6  C   UNL     1       1.380   0.551   0.225  0.00  0.00    +0.097 C 
ATOM      7  C   UNL     1       0.042   0.456   0.563  0.00  0.00    +0.040 C 
ATOM      8  C   UNL     1      -0.740  -0.785   0.638  0.00  0.00    +0.079 C 
ATOM      9  C   UNL     1       2.115  -1.772   0.567  0.00  0.00    +0.172 A 
ATOM     10  C   UNL     1       0.426   2.779   0.485  0.00  0.00    +0.009 C 
ATOM     11  C   UNL     1      -0.490   1.784   0.747  0.00  0.00    +0.006 C 
ATOM     12  C   UNL     1       1.058  -2.103   1.551  0.00  0.00    +0.191 C 
ATOM     13  C   UNL     1       3.476  -0.551  -0.603  0.00  0.00    +0.148 A 
ATOM     14  C   UNL     1       4.117   0.553  -1.347  0.00  0.00    +0.074 C 
ENDROOT
BRANCH   8  16
ATOM     15 CL   UNL     1      -1.367  -1.362  -2.330  0.00  0.00    -0.082 Cl
ATOM     16  C   UNL     1      -2.161  -0.733   0.203  0.00  0.00    +0.028 C 
ATOM     17  C   UNL     1      -2.534  -0.980  -1.116  0.00  0.00    +0.059 C 
ATOM     18  C   UNL     1      -3.124  -0.425   1.161  0.00  0.00    +0.002 C 
ATOM     19  C   UNL     1      -3.879  -0.919  -1.479  0.00  0.00    +0.011 C 
ATOM     20  C   UNL     1      -4.470  -0.365   0.797  0.00  0.00    +0.000 C 
ATOM     21  C   UNL     1      -4.847  -0.612  -0.523  0.00  0.00    +0.001 C 
ENDBRANCH   8  16
BRANCH  10  22
ATOM     22  C   UNL     1       0.240   4.244   0.549  0.00  0.00    +0.033 C 
ATOM     23  C   UNL     1      -0.233   4.839  -0.782  0.00  0.00    +0.006 C 
ENDBRANCH  10  22
TORSDOF 2
