REMARK  Name = 2225
REMARK  8 active torsions:
REMARK  status: ('A' for Active; 'I' for Inactive)
REMARK    1  A    between atoms: C_2  and  C_10
REMARK    2  A    between atoms: C_3  and  C_20
REMARK    3  A    between atoms: C_4  and  C_27
REMARK    4  A    between atoms: C_11  and  N_18
REMARK    5  A    between atoms: C_20  and  O_21
REMARK    6  A    between atoms: O_21  and  C_22
REMARK    7  A    between atoms: C_22  and  C_24
REMARK    8  A    between atoms: C_27  and  O_28
REMARK                            x       y       z     vdW  Elec       q    Type
REMARK                         _______ _______ _______ _____ _____    ______ ____
ROOT
ATOM      1  N   UNL     1      -1.790   2.596  -0.857  0.00  0.00    -0.334 N 
ATOM      2  C   UNL     1      -0.938   0.192   0.376  0.00  0.00    +0.013 C 
ATOM      3  C   UNL     1      -0.070   1.452   0.298  0.00  0.00    +0.071 C 
ATOM      4  C   UNL     1      -2.365   0.418  -0.133  0.00  0.00    +0.085 C 
ATOM      5  C   UNL     1      -0.515   2.573  -0.314  0.00  0.00    +0.098 C 
ATOM      6  C   UNL     1      -2.717   1.573  -0.740  0.00  0.00    +0.028 C 
ATOM      7  C   UNL     1       0.269   3.848  -0.478  0.00  0.00    +0.026 C 
ATOM      8  C   UNL     1      -4.073   1.877  -1.319  0.00  0.00    +0.047 C 
ATOM      9  H   UNL     1      -2.056   3.398  -1.363  0.00  0.00    +0.147 HD
ENDROOT
BRANCH   2  10
ATOM     10  C   UNL     1      -0.291  -0.924  -0.393  0.00  0.00    +0.023 C 
ATOM     11  C   UNL     1       0.639  -1.766   0.208  0.00  0.00    +0.143 C 
ATOM     12  C   UNL     1      -0.643  -1.099  -1.728  0.00  0.00    +0.002 C 
ATOM     13  C   UNL     1       1.224  -2.793  -0.533  0.00  0.00    +0.024 C 
ATOM     14  C   UNL     1      -0.058  -2.126  -2.469  0.00  0.00    +0.000 C 
ATOM     15  C   UNL     1       0.875  -2.973  -1.871  0.00  0.00    +0.002 C 
BRANCH  11  18
ATOM     16  O   UNL     1       1.855  -2.383   2.068  0.00  0.00    -0.126 OA
ATOM     17  O   UNL     1       0.485  -0.675   2.234  0.00  0.00    -0.126 OA
ATOM     18  N   UNL     1       1.011  -1.600   1.571  0.00  0.00    +0.058 N 
ENDBRANCH  11  18
ENDBRANCH   2  10
BRANCH   3  20
ATOM     19  O   UNL     1       1.391   1.670   2.152  0.00  0.00    -0.245 OA
ATOM     20  C   UNL     1       1.236   1.396   0.977  0.00  0.00    +0.339 C 
BRANCH  20  21
ATOM     21  O   UNL     1       2.169   1.001   0.077  0.00  0.00    -0.437 OA
BRANCH  21  22
ATOM     22  C   UNL     1       3.501   0.897   0.591  0.00  0.00    +0.272 C 
BRANCH  22  24
ATOM     23  O   UNL     1       4.092   0.231  -1.647  0.00  0.00    -0.292 OA
ATOM     24  C   UNL     1       4.458   0.450  -0.493  0.00  0.00    +0.195 C 
ATOM     25  C   UNL     1       5.898   0.287  -0.085  0.00  0.00    +0.076 C 
ENDBRANCH  22  24
ENDBRANCH  21  22
ENDBRANCH  20  21
ENDBRANCH   3  20
BRANCH   4  27
ATOM     26  O   UNL     1      -3.552  -1.561  -0.672  0.00  0.00    -0.245 OA
ATOM     27  C   UNL     1      -3.333  -0.662   0.118  0.00  0.00    +0.342 C 
BRANCH  27  28
ATOM     28  O   UNL     1      -3.893  -0.461   1.336  0.00  0.00    -0.441 OA
ATOM     29  C   UNL     1      -4.863  -1.438   1.727  0.00  0.00    +0.256 C 
ENDBRANCH  27  28
ENDBRANCH   4  27
TORSDOF 8
