REMARK  Name = 11567473
REMARK  5 active torsions:
REMARK  status: ('A' for Active; 'I' for Inactive)
REMARK    1  A    between atoms: N_3  and  C_24
REMARK    2  A    between atoms: C_4  and  N_14
REMARK    3  A    between atoms: C_6  and  C_32
REMARK    4  A    between atoms: C_11  and  C_28
REMARK    5  A    between atoms: C_28  and  O_29
REMARK                            x       y       z     vdW  Elec       q    Type
REMARK                         _______ _______ _______ _____ _____    ______ ____
ROOT
ATOM      1  F   UNL     1       1.305  -3.032  -0.326  0.00  0.00    -0.203 F 
ATOM      2  O   UNL     1      -3.712  -2.647  -0.226  0.00  0.00    -0.286 OA
ATOM      3  N   UNL     1      -2.340   1.167   0.215  0.00  0.00    -0.287 N 
ATOM      4  C   UNL     1       0.904  -0.709  -0.042  0.00  0.00    +0.087 C 
ATOM      5  C   UNL     1      -1.387   0.118   0.080  0.00  0.00    +0.066 C 
ATOM      6  C   UNL     1      -0.001   0.347   0.094  0.00  0.00    +0.098 C 
ATOM      7  C   UNL     1      -1.833  -1.212  -0.075  0.00  0.00    +0.056 C 
ATOM      8  C   UNL     1      -3.689   0.870   0.193  0.00  0.00    +0.075 C 
ATOM      9  C   UNL     1       0.443  -2.014  -0.194  0.00  0.00    +0.154 C 
ATOM     10  C   UNL     1      -0.926  -2.270  -0.211  0.00  0.00    +0.035 C 
ATOM     11  C   UNL     1      -4.217  -0.352   0.052  0.00  0.00    +0.129 C 
ATOM     12  C   UNL     1      -3.291  -1.504  -0.095  0.00  0.00    +0.204 C 
ENDROOT
BRANCH   4  14
ATOM     13  O   UNL     1       5.523  -0.068   1.446  0.00  0.00    -0.359 OA
ATOM     14  N   UNL     1       2.265  -0.500  -0.031  0.00  0.00    -0.305 N 
ATOM     15  N   UNL     1       5.592   0.160  -1.423  0.00  0.00    +0.390 N 
ATOM     16  C   UNL     1       4.380   0.275  -0.628  0.00  0.00    -0.012 C 
ATOM     17  C   UNL     1       4.512  -0.603   0.609  0.00  0.00    +0.117 C 
ATOM     18  C   UNL     1       3.072  -0.230  -1.231  0.00  0.00    +0.072 C 
ATOM     19  C   UNL     1       3.098  -0.545   1.179  0.00  0.00    +0.118 C 
ATOM     20  C   UNL     1       6.724   0.612  -0.597  0.00  0.00    -0.049 C 
ATOM     21  C   UNL     1       6.782  -0.121   0.752  0.00  0.00    +0.119 C 
ATOM     22  H   UNL     1       5.516   0.744  -2.256  0.00  0.00    -0.084 HD
ATOM     23  H   UNL     1       5.732  -0.807  -1.717  0.00  0.00    -0.084 HD
ENDBRANCH   4  14
BRANCH   3  24
ATOM     24  C   UNL     1      -2.010   2.604   0.384  0.00  0.00    +0.077 C 
ATOM     25  C   UNL     1      -1.728   3.462  -0.801  0.00  0.00    +0.022 C 
ATOM     26  C   UNL     1      -2.986   3.659  -0.009  0.00  0.00    +0.022 C 
ENDBRANCH   3  24
BRANCH  11  28
ATOM     27  O   UNL     1      -6.448   0.371  -0.337  0.00  0.00    -0.245 OA
ATOM     28  C   UNL     1      -5.675  -0.485   0.055  0.00  0.00    +0.342 C 
BRANCH  28  29
ATOM     29  O   UNL     1      -6.019  -1.691   0.554  0.00  0.00    -0.477 OA
ATOM     30  H   UNL     1      -5.355  -2.290   0.832  0.00  0.00    +0.295 HD
ENDBRANCH  28  29
ENDBRANCH  11  28
BRANCH   6  32
ATOM     31  N   UNL     1       1.068   2.691   0.368  0.00  0.00    -0.191 NA
ATOM     32  C   UNL     1       0.591   1.646   0.246  0.00  0.00    +0.103 C 
ENDBRANCH   6  32
TORSDOF 5
