REMARK  Name = 130313
REMARK  2 active torsions:
REMARK  status: ('A' for Active; 'I' for Inactive)
REMARK    1  A    between atoms: C_8  and  C_14
REMARK    2  A    between atoms: C_14  and  O_15
REMARK                            x       y       z     vdW  Elec       q    Type
REMARK                         _______ _______ _______ _____ _____    ______ ____
ROOT
ATOM      1  S   UNL     1      -1.733  -0.684  -0.012  0.00  0.00    +0.005 S 
ATOM      2  O   UNL     1      -2.523  -1.567   0.823  0.00  0.00    -0.171 OA
ATOM      3  O   UNL     1      -2.220  -0.274  -1.316  0.00  0.00    -0.171 OA
ATOM      4  O   UNL     1       0.442   2.958  -0.866  0.00  0.00    -0.275 OA
ATOM      5  N   UNL     1       0.096   0.952   0.327  0.00  0.00    -0.252 N 
ATOM      6  C   UNL     1      -0.030  -1.381  -0.205  0.00  0.00    +0.139 C 
ATOM      7  C   UNL     1      -1.228   0.746   0.932  0.00  0.00    +0.215 C 
ATOM      8  C   UNL     1       0.810  -0.100  -0.372  0.00  0.00    +0.196 C 
ATOM      9  C   UNL     1      -1.580   2.167   0.476  0.00  0.00    +0.130 C 
ATOM     10  C   UNL     1      -0.170   2.203  -0.144  0.00  0.00    +0.231 C 
ATOM     11  C   UNL     1       0.034  -2.273  -1.445  0.00  0.00    +0.026 C 
ATOM     12  C   UNL     1       0.324  -2.199   1.046  0.00  0.00    +0.026 C 
ENDROOT
BRANCH   8  14
ATOM     13  O   UNL     1       2.493   0.080   1.349  0.00  0.00    -0.248 OA
ATOM     14  C   UNL     1       2.196  -0.148   0.185  0.00  0.00    +0.334 C 
BRANCH  14  15
ATOM     15  O   UNL     1       3.089  -0.479  -0.779  0.00  0.00    -0.479 OA
ATOM     16  H   UNL     1       2.795  -0.641  -1.654  0.00  0.00    +0.295 HD
ENDBRANCH  14  15
ENDBRANCH   8  14
TORSDOF 2
