REMARK  Name = 93184
REMARK  8 active torsions:
REMARK  status: ('A' for Active; 'I' for Inactive)
REMARK    1  A    between atoms: C_1  and  C_2
REMARK    2  A    between atoms: C_1  and  C_10
REMARK    3  A    between atoms: C_1  and  C_27
REMARK    4  A    between atoms: N_9  and  CA_18
REMARK    5  A    between atoms: CA_17  and  C_23
REMARK    6  A    between atoms: C_23  and  O_24
REMARK    7  A    between atoms: C_27  and  O_28
REMARK    8  A    between atoms: O_28  and  C_35
REMARK                            x       y       z     vdW  Elec       q    Type
REMARK                         _______ _______ _______ _____ _____    ______ ____
ROOT
ATOM      1  C   UNL     1       0.697  -0.319  -0.503  0.00  0.00    +0.198 C 
ENDROOT
BRANCH   1   2
ATOM      2  C   UNL     1       0.458   1.180  -0.561  0.00  0.00    -0.003 C 
ATOM      3  C   UNL     1      -0.348   1.691  -1.560  0.00  0.00    -0.003 C 
ATOM      4  C   UNL     1       1.053   1.991   0.386  0.00  0.00    -0.003 C 
ATOM      5  C   UNL     1      -0.567   3.068  -1.614  0.00  0.00    -0.000 C 
ATOM      6  C   UNL     1       0.834   3.367   0.332  0.00  0.00    -0.000 C 
ATOM      7  C   UNL     1       0.024   3.906  -0.668  0.00  0.00    -0.000 C 
ENDBRANCH   1   2
BRANCH   1  10
ATOM      8  O   UNL     1      -0.231  -1.145   1.579  0.00  0.00    -0.274 OA
ATOM      9  N   UNL     1      -1.526  -1.329  -0.336  0.00  0.00    -0.296 N 
ATOM     10  C   UNL     1      -0.376  -0.972   0.370  0.00  0.00    +0.237 C 
ATOM     11  H   UNL     1      -1.557  -1.154  -1.304  0.00  0.00    +0.150 HD
BRANCH   9  18
ATOM     12  S   UNL     1      -3.293   0.740   1.087  0.00  0.00    -0.118 S 
ATOM     13  O   UNL     1      -4.141  -2.554  -1.715  0.00  0.00    -0.273 OA
ATOM     14  N   UNL     1      -4.657  -1.283   0.206  0.00  0.00    -0.260 N 
ATOM     15  C   UNL     1      -3.583  -1.065   1.180  0.00  0.00    +0.151 C 
ATOM     16  C   UNL     1      -5.084   1.046   0.676  0.00  0.00    +0.068 C 
ATOM     17  CA  UNL     1      -5.464  -0.156  -0.216  0.00  0.00    +0.184 C 
ATOM     18  CA  UNL     1      -2.693  -1.954   0.301  0.00  0.00    +0.178 C 
ATOM     19  C   UNL     1      -3.921  -2.078  -0.624  0.00  0.00    +0.247 C 
ATOM     20  C   UNL     1      -5.863   1.131   1.996  0.00  0.00    +0.013 C 
ATOM     21  C   UNL     1      -5.200   2.366  -0.088  0.00  0.00    +0.013 C 
BRANCH  17  23
ATOM     22  OXT UNL     1      -7.283  -1.662   0.285  0.00  0.00    -0.248 OA
ATOM     23  C   UNL     1      -6.895  -0.583  -0.137  0.00  0.00    +0.333 C 
BRANCH  23  24
ATOM     24  O   UNL     1      -7.712   0.393  -0.603  0.00  0.00    -0.479 OA
ATOM     25  H   UNL     1      -7.349   1.199  -0.914  0.00  0.00    +0.295 HD
ENDBRANCH  23  24
ENDBRANCH  17  23
ENDBRANCH   9  18
ENDBRANCH   1  10
BRANCH   1  27
ATOM     26  O   UNL     1       2.407  -1.344   0.903  0.00  0.00    -0.249 OA
ATOM     27  C   UNL     1       2.117  -0.662  -0.072  0.00  0.00    +0.334 C 
BRANCH  27  28
ATOM     28  O   UNL     1       3.016  -0.117  -0.989  0.00  0.00    -0.424 OA
BRANCH  28  35
ATOM     29  C   UNL     1       8.650   0.387   0.879  0.00  0.00    +0.009 C 
ATOM     30  C   UNL     1       7.299   0.980   1.306  0.00  0.00    +0.026 C 
ATOM     31  C   UNL     1       8.377  -1.055   0.425  0.00  0.00    +0.026 C 
ATOM     32  C   UNL     1       6.357   0.214   0.431  0.00  0.00    -0.023 C 
ATOM     33  C   UNL     1       6.970  -0.941  -0.069  0.00  0.00    -0.026 C 
ATOM     34  C   UNL     1       5.035   0.505   0.140  0.00  0.00    +0.033 C 
ATOM     35  C   UNL     1       4.328  -0.379  -0.678  0.00  0.00    +0.148 C 
ATOM     36  C   UNL     1       6.272  -1.829  -0.870  0.00  0.00    -0.001 C 
ATOM     37  C   UNL     1       4.942  -1.538  -1.179  0.00  0.00    +0.037 C 
ENDBRANCH  28  35
ENDBRANCH  27  28
ENDBRANCH   1  27
TORSDOF 8
