REMARK  Name = 2446
REMARK  8 active torsions:
REMARK  status: ('A' for Active; 'I' for Inactive)
REMARK    1  A    between atoms: N_2  and  C_17
REMARK    2  A    between atoms: C_3  and  C_6
REMARK    3  A    between atoms: C_7  and  O_15
REMARK    4  A    between atoms: C_10  and  N_12
REMARK    5  A    between atoms: C_17  and  C_18
REMARK    6  A    between atoms: C_18  and  N_19
REMARK    7  A    between atoms: N_19  and  C_21
REMARK    8  A    between atoms: N_19  and  C_23
REMARK                            x       y       z     vdW  Elec       q    Type
REMARK                         _______ _______ _______ _____ _____    ______ ____
ROOT
ATOM      1  O   UNL     1      -0.152  -1.652  -0.670  0.00  0.00    -0.270 OA
ATOM      2  N   UNL     1      -0.704   0.104   0.742  0.00  0.00    -0.303 N 
ATOM      3  C   UNL     1       0.167  -0.650  -0.035  0.00  0.00    +0.249 C 
ATOM      4  H   UNL     1      -0.353   0.892   1.215  0.00  0.00    +0.150 HD
ENDROOT
BRANCH   3   6
ATOM      5 BR   UNL     1       3.487   3.450   0.309  0.00  0.00    -0.048 Br
ATOM      6  C   UNL     1       1.582  -0.198  -0.056  0.00  0.00    +0.088 C 
ATOM      7  C   UNL     1       2.594  -1.120  -0.233  0.00  0.00    +0.144 C 
ATOM      8  C   UNL     1       1.837   1.149   0.104  0.00  0.00    +0.015 C 
ATOM      9  C   UNL     1       3.916  -0.676  -0.251  0.00  0.00    +0.052 C 
ATOM     10  C   UNL     1       4.199   0.681  -0.091  0.00  0.00    +0.051 C 
ATOM     11  C   UNL     1       3.159   1.593   0.087  0.00  0.00    +0.048 C 
BRANCH  10  12
ATOM     12  N   UNL     1       5.549   1.096  -0.113  0.00  0.00    -0.357 N 
ATOM     13  H   UNL     1       6.266   0.433  -0.240  0.00  0.00    +0.142 HD
ATOM     14  H   UNL     1       5.774   2.048  -0.002  0.00  0.00    +0.142 HD
ENDBRANCH  10  12
BRANCH   7  15
ATOM     15  O   UNL     1       2.339  -2.449  -0.392  0.00  0.00    -0.471 OA
ATOM     16  C   UNL     1       2.288  -3.244   0.790  0.00  0.00    +0.252 C 
ENDBRANCH   7  15
ENDBRANCH   3   6
BRANCH   2  17
ATOM     17  C   UNL     1      -2.098  -0.221   0.883  0.00  0.00    +0.067 C 
BRANCH  17  18
ATOM     18  C   UNL     1      -2.934   0.464  -0.188  0.00  0.00    -0.056 C 
BRANCH  18  19
ATOM     19  N   UNL     1      -4.343   0.098  -0.044  0.00  0.00    +0.388 N 
ATOM     20  H   UNL     1      -4.424  -0.915  -0.137  0.00  0.00    -0.080 HD
BRANCH  19  21
ATOM     21  C   UNL     1      -4.839   0.484   1.276  0.00  0.00    -0.077 C 
ATOM     22  C   UNL     1      -6.282   0.047   1.440  0.00  0.00    -0.025 C 
ENDBRANCH  19  21
BRANCH  19  23
ATOM     23  C   UNL     1      -5.143   0.725  -1.095  0.00  0.00    -0.077 C 
ATOM     24  C   UNL     1      -4.622   0.320  -2.461  0.00  0.00    -0.025 C 
ENDBRANCH  19  23
ENDBRANCH  18  19
ENDBRANCH  17  18
ENDBRANCH   2  17
TORSDOF 8
