60698
  -OEChem-10051722043D

 52 55  0     0  0  0  0  0  0999 V2000
   -4.9058   -0.4176   -0.8136 O   0  0  0  0  0  0  0  0  0  0  0  0
   -2.5902   -2.3522    0.8616 O   0  0  0  0  0  0  0  0  0  0  0  0
    1.5374    0.3862   -0.5467 N   0  0  0  0  0  0  0  0  0  0  0  0
   -2.6840    0.1643   -0.3008 N   0  0  0  0  0  0  0  0  0  0  0  0
   -2.1178    2.4664   -0.3926 N   0  0  0  0  0  0  0  0  0  0  0  0
   -4.3798    3.0274    1.1678 N   0  0  0  0  0  0  0  0  0  0  0  0
   -1.3175   -0.2523   -0.4948 C   0  0  0  0  0  0  0  0  0  0  0  0
   -0.6735    0.5137   -1.6500 C   0  0  0  0  0  0  0  0  0  0  0  0
   -0.4987   -0.0668    0.7831 C   0  0  0  0  0  0  0  0  0  0  0  0
    0.8056    0.1534   -1.7995 C   0  0  0  0  0  0  0  0  0  0  0  0
    0.9743   -0.4093    0.5531 C   0  0  0  0  0  0  0  0  0  0  0  0
    2.9582    0.0848   -0.7208 C   0  0  0  0  0  0  0  0  0  0  0  0
    3.7529    0.4478    0.5342 C   0  0  0  0  0  0  0  0  0  0  0  0
   -2.9608    1.5564    0.0504 C   0  0  0  0  0  0  0  0  0  0  0  0
   -3.7785   -0.7505   -0.4433 C   0  0  0  0  0  0  0  0  0  0  0  0
    5.2233    0.1628    0.3599 C   0  0  0  0  0  0  0  0  0  0  0  0
   -3.5114   -2.1486   -0.0881 C   0  0  0  0  0  0  0  0  0  0  0  0
   -4.0596    1.7705    0.8014 C   0  0  0  0  0  0  0  0  0  0  0  0
    5.7221   -1.0831    0.7094 C   0  0  0  0  0  0  0  0  0  0  0  0
    6.0530    1.1517   -0.1472 C   0  0  0  0  0  0  0  0  0  0  0  0
   -4.0511   -3.2849   -0.5692 C   0  0  0  0  0  0  0  0  0  0  0  0
   -2.4381    3.7233   -0.0264 C   0  0  0  0  0  0  0  0  0  0  0  0
    7.0824   -1.3466    0.5477 C   0  0  0  0  0  0  0  0  0  0  0  0
    7.4132    0.8882   -0.3086 C   0  0  0  0  0  0  0  0  0  0  0  0
    7.9282   -0.3609    0.0385 C   0  0  0  0  0  0  0  0  0  0  0  0
   -3.5491    3.9989    0.7401 C   0  0  0  0  0  0  0  0  0  0  0  0
   -3.4070   -4.3210    0.1483 C   0  0  0  0  0  0  0  0  0  0  0  0
   -2.5279   -3.7021    1.0061 C   0  0  0  0  0  0  0  0  0  0  0  0
   -1.2753   -1.3058   -0.7908 H   0  0  0  0  0  0  0  0  0  0  0  0
   -1.1990    0.2735   -2.5835 H   0  0  0  0  0  0  0  0  0  0  0  0
   -0.6715    1.5972   -1.5841 H   0  0  0  0  0  0  0  0  0  0  0  0
   -0.8925   -0.6896    1.5937 H   0  0  0  0  0  0  0  0  0  0  0  0
   -0.5555    0.9662    1.1486 H   0  0  0  0  0  0  0  0  0  0  0  0
    0.8979   -0.8943   -2.1159 H   0  0  0  0  0  0  0  0  0  0  0  0
    1.2307    0.7699   -2.6015 H   0  0  0  0  0  0  0  0  0  0  0  0
    1.4653   -0.1985    1.5063 H   0  0  0  0  0  0  0  0  0  0  0  0
    1.0783   -1.4845    0.3567 H   0  0  0  0  0  0  0  0  0  0  0  0
    3.3528    0.6679   -1.5634 H   0  0  0  0  0  0  0  0  0  0  0  0
    3.1078   -0.9738   -0.9734 H   0  0  0  0  0  0  0  0  0  0  0  0
    3.4326   -0.1139    1.4173 H   0  0  0  0  0  0  0  0  0  0  0  0
    3.6108    1.5079    0.7833 H   0  0  0  0  0  0  0  0  0  0  0  0
   -4.7202    1.0110    1.1958 H   0  0  0  0  0  0  0  0  0  0  0  0
    5.0718   -1.8586    1.1042 H   0  0  0  0  0  0  0  0  0  0  0  0
    5.6614    2.1268   -0.4224 H   0  0  0  0  0  0  0  0  0  0  0  0
   -4.8075   -3.3874   -1.3338 H   0  0  0  0  0  0  0  0  0  0  0  0
   -1.7706    4.5042   -0.3694 H   0  0  0  0  0  0  0  0  0  0  0  0
    7.4830   -2.3194    0.8175 H   0  0  0  0  0  0  0  0  0  0  0  0
    8.0716    1.6555   -0.7055 H   0  0  0  0  0  0  0  0  0  0  0  0
    8.9871   -0.5660   -0.0877 H   0  0  0  0  0  0  0  0  0  0  0  0
   -3.8055    5.0091    1.0343 H   0  0  0  0  0  0  0  0  0  0  0  0
   -3.5636   -5.3856    0.0521 H   0  0  0  0  0  0  0  0  0  0  0  0
   -1.8240   -4.0608    1.7429 H   0  0  0  0  0  0  0  0  0  0  0  0
  1 15  2  0  0  0  0
  2 17  1  0  0  0  0
  2 28  1  0  0  0  0
  3 10  1  0  0  0  0
  3 11  1  0  0  0  0
  3 12  1  0  0  0  0
  4  7  1  0  0  0  0
  4 14  1  0  0  0  0
  4 15  1  0  0  0  0
  5 14  2  0  0  0  0
  5 22  1  0  0  0  0
  6 18  2  0  0  0  0
  6 26  1  0  0  0  0
  7  8  1  0  0  0  0
  7  9  1  0  0  0  0
  7 29  1  0  0  0  0
  8 10  1  0  0  0  0
  8 30  1  0  0  0  0
  8 31  1  0  0  0  0
  9 11  1  0  0  0  0
  9 32  1  0  0  0  0
  9 33  1  0  0  0  0
 10 34  1  0  0  0  0
 10 35  1  0  0  0  0
 11 36  1  0  0  0  0
 11 37  1  0  0  0  0
 12 13  1  0  0  0  0
 12 38  1  0  0  0  0
 12 39  1  0  0  0  0
 13 16  1  0  0  0  0
 13 40  1  0  0  0  0
 13 41  1  0  0  0  0
 14 18  1  0  0  0  0
 15 17  1  0  0  0  0
 16 19  2  0  0  0  0
 16 20  1  0  0  0  0
 17 21  2  0  0  0  0
 18 42  1  0  0  0  0
 19 23  1  0  0  0  0
 19 43  1  0  0  0  0
 20 24  2  0  0  0  0
 20 44  1  0  0  0  0
 21 27  1  0  0  0  0
 21 45  1  0  0  0  0
 22 26  2  0  0  0  0
 22 46  1  0  0  0  0
 23 25  2  0  0  0  0
 23 47  1  0  0  0  0
 24 25  1  0  0  0  0
 24 48  1  0  0  0  0
 25 49  1  0  0  0  0
 26 50  1  0  0  0  0
 27 28  2  0  0  0  0
 27 51  1  0  0  0  0
 28 52  1  0  0  0  0
M  END
> <DATABASE_ID>
DB09175

> <DATABASE_NAME>
drugbank

> <ORIGINAL_SOURCE>
PUBCHEM

> <ORIGINAL_SOURCE_URL>
https://pubchem.ncbi.nlm.nih.gov/rest/pug/compound/inchikey/BJZZDOLVVLWFHN-UHFFFAOYSA-N/SDF?record_type=3d

> <SMILES>
O=C(N(C1CCN(CCC2=CC=CC=C2)CC1)C1=NC=CN=C1)C1=CC=CO1

> <INCHI_IDENTIFIER>
InChI=1S/C22H24N4O2/c27-22(20-7-4-16-28-20)26(21-17-23-11-12-24-21)19-9-14-25(15-10-19)13-8-18-5-2-1-3-6-18/h1-7,11-12,16-17,19H,8-10,13-15H2

> <INCHI_KEY>
BJZZDOLVVLWFHN-UHFFFAOYSA-N

> <FORMULA>
C22H24N4O2

> <MOLECULAR_WEIGHT>
376.46

> <EXACT_MASS>
376.189926029

> <JCHEM_ACCEPTOR_COUNT>
4

> <JCHEM_ATOM_COUNT>
52

> <JCHEM_AVERAGE_POLARIZABILITY>
40.364882987509986

> <JCHEM_BIOAVAILABILITY>
1

> <JCHEM_DONOR_COUNT>
0

> <JCHEM_FORMAL_CHARGE>
0

> <JCHEM_GHOSE_FILTER>
1

> <JCHEM_IUPAC>
N-[1-(2-phenylethyl)piperidin-4-yl]-N-(pyrazin-2-yl)furan-2-carboxamide

> <ALOGPS_LOGP>
2.49

> <JCHEM_LOGP>
2.1884964596666663

> <ALOGPS_LOGS>
-3.55

> <JCHEM_MDDR_LIKE_RULE>
1

> <JCHEM_NUMBER_OF_RINGS>
4

> <JCHEM_PHYSIOLOGICAL_CHARGE>
1

> <JCHEM_PKA_STRONGEST_BASIC>
8.40872109188861

> <JCHEM_POLAR_SURFACE_AREA>
62.470000000000006

> <JCHEM_REFRACTIVITY>
107.91670000000002

> <JCHEM_ROTATABLE_BOND_COUNT>
6

> <JCHEM_RULE_OF_FIVE>
1

> <ALOGPS_SOLUBILITY>
1.05e-01 g/l

> <JCHEM_TRADITIONAL_IUPAC>
mirfentanil

> <JCHEM_VEBER_RULE>
0

> <DRUGBANK_ID>
DB09175

> <DRUG_GROUPS>
experimental

> <GENERIC_NAME>
Mirfentanil

$$$$
