REMARK  Name = 5736
REMARK  4 active torsions:
REMARK  status: ('A' for Active; 'I' for Inactive)
REMARK    1  A    between atoms: C_3  and  O_17
REMARK    2  A    between atoms: O_17  and  C_18
REMARK    3  A    between atoms: C_18  and  C_19
REMARK    4  A    between atoms: C_19  and  N_20
REMARK                            x       y       z     vdW  Elec       q    Type
REMARK                         _______ _______ _______ _____ _____    ______ ____
ROOT
ATOM      1 CL   UNL     1      -0.621  -4.816   1.291  0.00  0.00    -0.082 Cl
ATOM      2  S   UNL     1       1.448   0.165  -1.985  0.00  0.00    -0.087 S 
ATOM      3  C   UNL     1      -0.297   0.313   0.701  0.00  0.00    +0.139 C 
ATOM      4  C   UNL     1       0.080  -1.016   0.174  0.00  0.00    +0.041 C 
ATOM      5  C   UNL     1       1.950   1.444   0.465  0.00  0.00    +0.009 C 
ATOM      6  C   UNL     1       0.831  -1.200  -1.004  0.00  0.00    +0.032 C 
ATOM      7  C   UNL     1       0.525   1.370   0.830  0.00  0.00    +0.037 C 
ATOM      8  C   UNL     1       2.469   0.965  -0.753  0.00  0.00    +0.030 C 
ATOM      9  C   UNL     1      -0.363  -2.157   0.871  0.00  0.00    +0.015 C 
ATOM     10  C   UNL     1       1.114  -2.498  -1.460  0.00  0.00    +0.007 C 
ATOM     11  C   UNL     1       2.814   2.092   1.363  0.00  0.00    +0.001 C 
ATOM     12  C   UNL     1       3.833   1.127  -1.040  0.00  0.00    +0.006 C 
ATOM     13  C   UNL     1      -0.069  -3.442   0.413  0.00  0.00    +0.058 C 
ATOM     14  C   UNL     1       0.668  -3.613  -0.752  0.00  0.00    +0.012 C 
ATOM     15  C   UNL     1       4.170   2.242   1.070  0.00  0.00    +0.000 C 
ATOM     16  C   UNL     1       4.679   1.759  -0.130  0.00  0.00    +0.001 C 
ENDROOT
BRANCH   3  17
ATOM     17  O   UNL     1      -1.621   0.391   1.107  0.00  0.00    -0.478 OA
BRANCH  17  18
ATOM     18  C   UNL     1      -2.441   0.802   0.035  0.00  0.00    +0.183 C 
BRANCH  18  19
ATOM     19  C   UNL     1      -3.883   0.853   0.514  0.00  0.00    -0.029 C 
BRANCH  19  20
ATOM     20  N   UNL     1      -4.765   1.290  -0.557  0.00  0.00    +0.387 N 
ATOM     21  C   UNL     1      -4.365   2.609  -1.052  0.00  0.00    -0.101 C 
ATOM     22  C   UNL     1      -6.157   1.323  -0.101  0.00  0.00    -0.101 C 
ATOM     23  H   UNL     1      -4.690   0.619  -1.321  0.00  0.00    -0.080 HD
ENDBRANCH  19  20
ENDBRANCH  18  19
ENDBRANCH  17  18
ENDBRANCH   3  17
TORSDOF 4
