REMARK  Name = 39912
REMARK  5 active torsions:
REMARK  status: ('A' for Active; 'I' for Inactive)
REMARK    1  A    between atoms: C_1  and  C_13
REMARK    2  A    between atoms: C_2  and  C_7
REMARK    3  A    between atoms: C_7  and  C_10
REMARK    4  A    between atoms: C_10  and  O_11
REMARK    5  A    between atoms: C_13  and  C_14
REMARK                            x       y       z     vdW  Elec       q    Type
REMARK                         _______ _______ _______ _____ _____    ______ ____
ROOT
ATOM      1  C   UNL     1       1.551   0.682   0.158  0.00  0.00    -0.022 C 
ATOM      2  C   UNL     1      -1.209   0.589  -0.061  0.00  0.00    -0.012 C 
ATOM      3  C   UNL     1       0.938   1.259  -0.943  0.00  0.00    -0.005 C 
ATOM      4  C   UNL     1       0.812   0.059   1.151  0.00  0.00    -0.005 C 
ATOM      5  C   UNL     1      -0.452   1.212  -1.053  0.00  0.00    -0.004 C 
ATOM      6  C   UNL     1      -0.577   0.013   1.040  0.00  0.00    -0.004 C 
ENDROOT
BRANCH   2   7
ATOM      7  C   UNL     1      -2.695   0.539  -0.179  0.00  0.00    +0.121 C 
ATOM      8  C   UNL     1      -3.433   1.262   0.966  0.00  0.00    +0.016 C 
BRANCH   7  10
ATOM      9  O   UNL     1      -2.528  -1.897  -0.262  0.00  0.00    -0.250 OA
ATOM     10  C   UNL     1      -3.229  -0.893  -0.290  0.00  0.00    +0.317 C 
BRANCH  10  11
ATOM     11  O   UNL     1      -4.580  -0.950  -0.436  0.00  0.00    -0.480 OA
ATOM     12  H   UNL     1      -5.082  -0.159  -0.453  0.00  0.00    +0.295 HD
ENDBRANCH  10  11
ENDBRANCH   7  10
ENDBRANCH   2   7
BRANCH   1  13
ATOM     13  C   UNL     1       3.056   0.732   0.277  0.00  0.00    +0.026 C 
BRANCH  13  14
ATOM     14  C   UNL     1       3.757  -0.476  -0.374  0.00  0.00    +0.004 C 
ATOM     15  C   UNL     1       3.314  -1.804   0.245  0.00  0.00    +0.000 C 
ATOM     16  C   UNL     1       5.275  -0.328  -0.239  0.00  0.00    +0.000 C 
ENDBRANCH  13  14
ENDBRANCH   1  13
TORSDOF 5
