REMARK  Name = 50942
REMARK  2 active torsions:
REMARK  status: ('A' for Active; 'I' for Inactive)
REMARK    1  A    between atoms: N_3  and  C_14
REMARK    2  A    between atoms: C_14  and  C_17
REMARK                            x       y       z     vdW  Elec       q    Type
REMARK                         _______ _______ _______ _____ _____    ______ ____
ROOT
ATOM      1  O   UNL     1      -0.237   2.268   0.477  0.00  0.00    -0.272 OA
ATOM      2  O   UNL     1      -4.402   0.414  -0.634  0.00  0.00    -0.252 OA
ATOM      3  N   UNL     1       0.717  -0.559   0.696  0.00  0.00    -0.235 NA
ATOM      4  N   UNL     1      -2.639  -1.037  -0.189  0.00  0.00    -0.228 N 
ATOM      5  N   UNL     1      -2.332   1.363  -0.082  0.00  0.00    -0.211 N 
ATOM      6  N   UNL     1      -0.603  -2.318   0.330  0.00  0.00    -0.240 NA
ATOM      7  C   UNL     1      -0.512  -0.055   0.379  0.00  0.00    +0.192 C 
ATOM      8  C   UNL     1      -1.300  -1.153   0.160  0.00  0.00    +0.136 C 
ATOM      9  C   UNL     1      -0.960   1.296   0.277  0.00  0.00    +0.254 C 
ATOM     10  C   UNL     1       0.612  -1.925   0.653  0.00  0.00    +0.203 C 
ATOM     11  C   UNL     1      -3.216   0.250  -0.326  0.00  0.00    +0.318 C 
ATOM     12  C   UNL     1      -3.438  -2.236  -0.411  0.00  0.00    +0.123 C 
ATOM     13  C   UNL     1      -2.908   2.697  -0.217  0.00  0.00    +0.124 C 
ENDROOT
BRANCH   3  14
ATOM     14  C   UNL     1       1.913   0.182   1.018  0.00  0.00    +0.136 C 
BRANCH  14  17
ATOM     15  O   UNL     1       3.133  -0.729  -0.859  0.00  0.00    -0.327 OA
ATOM     16  O   UNL     1       3.911   1.229   0.176  0.00  0.00    -0.327 OA
ATOM     17  C   UNL     1       2.746   0.491  -0.212  0.00  0.00    +0.252 C 
ATOM     18  C   UNL     1       4.545  -0.810  -0.666  0.00  0.00    +0.177 C 
ATOM     19  C   UNL     1       4.969   0.630  -0.570  0.00  0.00    +0.177 C 
ENDBRANCH  14  17
ENDBRANCH   3  14
TORSDOF 2
