REMARK  Name = 489181
REMARK  6 active torsions:
REMARK  status: ('A' for Active; 'I' for Inactive)
REMARK    1  A    between atoms: C_1  and  C_4
REMARK    2  A    between atoms: C_1  and  O_10
REMARK    3  A    between atoms: C_1  and  C_12
REMARK    4  A    between atoms: C_1  and  C_22
REMARK    5  A    between atoms: C_12  and  N_14
REMARK    6  A    between atoms: C_22  and  N_23
REMARK                            x       y       z     vdW  Elec       q    Type
REMARK                         _______ _______ _______ _____ _____    ______ ____
ROOT
ATOM      1  C   UNL     1      -0.040  -0.114  -0.222  0.00  0.00    +0.112 C 
ENDROOT
BRANCH   1   4
ATOM      2  F   UNL     1      -1.295  -1.067   2.123  0.00  0.00    -0.204 F 
ATOM      3  F   UNL     1      -5.271  -2.168  -0.194  0.00  0.00    -0.204 F 
ATOM      4  C   UNL     1      -1.469  -0.676  -0.211  0.00  0.00    +0.029 C 
ATOM      5  C   UNL     1      -1.992  -1.115   0.980  0.00  0.00    +0.141 C 
ATOM      6  C   UNL     1      -2.161  -0.713  -1.397  0.00  0.00    +0.002 C 
ATOM      7  C   UNL     1      -3.291  -1.625   0.986  0.00  0.00    +0.059 C 
ATOM      8  C   UNL     1      -3.460  -1.223  -1.391  0.00  0.00    +0.030 C 
ATOM      9  C   UNL     1      -4.024  -1.679  -0.200  0.00  0.00    +0.142 C 
ENDBRANCH   1   4
BRANCH   1  10
ATOM     10  O   UNL     1       0.303   0.310  -1.550  0.00  0.00    -0.383 OA
ATOM     11  H   UNL     1       1.206   0.665  -1.553  0.00  0.00    +0.211 HD
ENDBRANCH   1  10
BRANCH   1  12
ATOM     12  C   UNL     1       0.995  -1.222   0.189  0.00  0.00    -0.027 C 
ATOM     13  C   UNL     1       0.998  -2.429  -0.760  0.00  0.00    -0.020 C 
BRANCH  12  14
ATOM     14  N   UNL     1       2.353  -0.690   0.241  0.00  0.00    +0.390 N 
ATOM     15  C   UNL     1       2.769  -0.172  -1.074  0.00  0.00    -0.073 C 
ATOM     16  C   UNL     1       3.301  -1.673   0.768  0.00  0.00    -0.073 C 
ATOM     17  C   UNL     1       4.292  -0.104  -1.281  0.00  0.00    -0.001 C 
ATOM     18  C   UNL     1       4.655  -1.006   1.063  0.00  0.00    -0.001 C 
ATOM     19  C   UNL     1       5.023   0.022   0.024  0.00  0.00    -0.048 C 
ATOM     20  C   UNL     1       5.901   1.005   0.272  0.00  0.00    -0.009 C 
ATOM     21  H   UNL     1       2.353   0.095   0.892  0.00  0.00    -0.079 HD
ENDBRANCH  12  14
ENDBRANCH   1  12
BRANCH   1  22
ATOM     22  C   UNL     1       0.069   1.124   0.722  0.00  0.00    +0.147 C 
BRANCH  22  23
ATOM     23  N   UNL     1      -0.840   2.229   0.404  0.00  0.00    -0.188 N 
ATOM     24  N   UNL     1      -2.049   2.273   0.954  0.00  0.00    -0.154 NA
ATOM     25  N   UNL     1      -1.657   4.045  -0.439  0.00  0.00    -0.203 NA
ATOM     26  C   UNL     1      -0.599   3.267  -0.417  0.00  0.00    +0.186 C 
ATOM     27  C   UNL     1      -2.511   3.400   0.409  0.00  0.00    +0.218 C 
ENDBRANCH  22  23
ENDBRANCH   1  22
TORSDOF 6
