REMARK  Name = 24822371
REMARK  12 active torsions:
REMARK  status: ('A' for Active; 'I' for Inactive)
REMARK    1  A    between atoms: C_2  and  C_8
REMARK    2  A    between atoms: C_3  and  O_18
REMARK    3  A    between atoms: C_7  and  C_9
REMARK    4  A    between atoms: C_10  and  N_15
REMARK    5  A    between atoms: O_18  and  C_19
REMARK    6  A    between atoms: C_19  and  C_20
REMARK    7  A    between atoms: C_20  and  O_21
REMARK    8  A    between atoms: O_21  and  C_22
REMARK    9  A    between atoms: C_22  and  C_23
REMARK   10  A    between atoms: C_23  and  O_24
REMARK   11  A    between atoms: O_24  and  C_25
REMARK   12  A    between atoms: C_25  and  C_27
REMARK                            x       y       z     vdW  Elec       q    Type
REMARK                         _______ _______ _______ _____ _____    ______ ____
ROOT
ATOM      1  N   UNL     1       0.375  -1.135  -0.265  0.00  0.00    -0.210 NA
ATOM      2  C   UNL     1      -1.558   0.027   0.605  0.00  0.00    +0.019 C 
ATOM      3  C   UNL     1       1.110  -0.534   0.698  0.00  0.00    +0.225 C 
ATOM      4  C   UNL     1      -0.769   0.625   1.581  0.00  0.00    +0.006 C 
ATOM      5  C   UNL     1       0.592   0.344   1.635  0.00  0.00    +0.058 C 
ATOM      6  C   UNL     1      -0.944  -0.837  -0.287  0.00  0.00    +0.102 C 
ENDROOT
BRANCH   2   8
ATOM      7  C   UNL     1      -3.913  -0.479  -0.107  0.00  0.00    +0.000 C 
ATOM      8  C   UNL     1      -3.003   0.304   0.521  0.00  0.00    +0.002 C 
BRANCH   7   9
ATOM      9  C   UNL     1      -5.342  -0.216  -0.173  0.00  0.00    +0.000 C 
ATOM     10  C   UNL     1      -8.083   0.287  -0.304  0.00  0.00    +0.045 C 
ATOM     11  C   UNL     1      -6.228  -1.253  -0.465  0.00  0.00    +0.001 C 
ATOM     12  C   UNL     1      -5.826   1.072   0.053  0.00  0.00    +0.001 C 
ATOM     13  C   UNL     1      -7.599  -1.001  -0.530  0.00  0.00    +0.014 C 
ATOM     14  C   UNL     1      -7.196   1.324  -0.012  0.00  0.00    +0.014 C 
BRANCH  10  15
ATOM     15  N   UNL     1      -9.468   0.541  -0.370  0.00  0.00    -0.331 N 
ATOM     16  C   UNL     1     -10.008   1.805  -0.769  0.00  0.00    +0.109 C 
ATOM     17  H   UNL     1     -10.092  -0.183  -0.132  0.00  0.00    +0.147 HD
ENDBRANCH  10  15
ENDBRANCH   7   9
ENDBRANCH   2   8
BRANCH   3  18
ATOM     18  O   UNL     1       2.448  -0.829   0.731  0.00  0.00    -0.457 OA
BRANCH  18  19
ATOM     19  C   UNL     1       2.929  -1.736  -0.253  0.00  0.00    +0.239 C 
BRANCH  19  20
ATOM     20  C   UNL     1       4.423  -1.917  -0.072  0.00  0.00    +0.189 C 
BRANCH  20  21
ATOM     21  O   UNL     1       5.067  -0.660  -0.242  0.00  0.00    -0.347 OA
BRANCH  21  22
ATOM     22  C   UNL     1       6.475  -0.770  -0.082  0.00  0.00    +0.174 C 
BRANCH  22  23
ATOM     23  C   UNL     1       7.105   0.592  -0.297  0.00  0.00    +0.174 C 
BRANCH  23  24
ATOM     24  O   UNL     1       8.512   0.486  -0.117  0.00  0.00    -0.348 OA
BRANCH  24  25
ATOM     25  C   UNL     1       9.157   1.737  -0.308  0.00  0.00    +0.180 C 
BRANCH  25  27
ATOM     26  F   UNL     1      11.097   0.672  -1.052  0.00  0.00    -0.232 F 
ATOM     27  C   UNL     1      10.646   1.552  -0.117  0.00  0.00    +0.225 C 
ENDBRANCH  25  27
ENDBRANCH  24  25
ENDBRANCH  23  24
ENDBRANCH  22  23
ENDBRANCH  21  22
ENDBRANCH  20  21
ENDBRANCH  19  20
ENDBRANCH  18  19
ENDBRANCH   3  18
TORSDOF 12
