REMARK  Name = 132999
REMARK  10 active torsions:
REMARK  status: ('A' for Active; 'I' for Inactive)
REMARK    1  A    between atoms: C_1  and  C_2
REMARK    2  A    between atoms: C_1  and  C_19
REMARK    3  A    between atoms: C_2  and  N_3
REMARK    4  A    between atoms: N_3  and  C_6
REMARK    5  A    between atoms: C_6  and  C_7
REMARK    6  A    between atoms: C_13  and  O_15
REMARK    7  A    between atoms: C_14  and  O_17
REMARK    8  A    between atoms: C_19  and  N_21
REMARK    9  A    between atoms: C_30  and  O_32
REMARK   10  A    between atoms: C_31  and  O_34
REMARK                            x       y       z     vdW  Elec       q    Type
REMARK                         _______ _______ _______ _____ _____    ______ ____
ROOT
ATOM      1  C   UNL     1       3.357  -2.876  -0.544  0.00  0.00    -0.001 C 
ENDROOT
BRANCH   1   2
ATOM      2  C   UNL     1       2.227  -2.657   0.465  0.00  0.00    -0.076 C 
BRANCH   2   3
ATOM      3  N   UNL     1       1.015  -3.375   0.090  0.00  0.00    +0.386 N 
ATOM      4  C   UNL     1       1.120  -4.790   0.452  0.00  0.00    -0.101 C 
ATOM      5  H   UNL     1       0.905  -3.307  -0.922  0.00  0.00    -0.080 HD
BRANCH   3   6
ATOM      6  C   UNL     1      -0.159  -2.775   0.727  0.00  0.00    -0.073 C 
BRANCH   6   7
ATOM      7  C   UNL     1      -0.572  -1.498   0.011  0.00  0.00    +0.006 C 
ATOM      8  C   UNL     1      -1.044  -1.693  -1.469  0.00  0.00    +0.028 C 
ATOM      9  C   UNL     1      -1.985  -1.092   0.307  0.00  0.00    -0.025 C 
ATOM     10  C   UNL     1      -2.400  -1.264  -0.991  0.00  0.00    -0.023 C 
ATOM     11  C   UNL     1      -2.842  -0.677   1.299  0.00  0.00    +0.035 C 
ATOM     12  C   UNL     1      -3.698  -1.031  -1.380  0.00  0.00    +0.035 C 
ATOM     13  C   UNL     1      -4.169  -0.432   0.936  0.00  0.00    +0.172 C 
ATOM     14  C   UNL     1      -4.594  -0.608  -0.396  0.00  0.00    +0.172 C 
BRANCH  13  15
ATOM     15  O   UNL     1      -5.053  -0.018   1.887  0.00  0.00    -0.468 OA
ATOM     16  C   UNL     1      -4.551   0.139   3.213  0.00  0.00    +0.253 C 
ENDBRANCH  13  15
BRANCH  14  17
ATOM     17  O   UNL     1      -5.892  -0.365  -0.737  0.00  0.00    -0.468 OA
ATOM     18  C   UNL     1      -6.249  -0.565  -2.103  0.00  0.00    +0.253 C 
ENDBRANCH  14  17
ENDBRANCH   6   7
ENDBRANCH   3   6
ENDBRANCH   2   3
ENDBRANCH   1   2
BRANCH   1  19
ATOM     19  C   UNL     1       4.660  -2.159  -0.197  0.00  0.00    +0.091 C 
BRANCH  19  21
ATOM     20  O   UNL     1       4.133  -0.640   2.147  0.00  0.00    -0.275 OA
ATOM     21  N   UNL     1       4.505  -0.712  -0.147  0.00  0.00    -0.279 N 
ATOM     22  C   UNL     1       4.530   0.007  -1.418  0.00  0.00    +0.098 C 
ATOM     23  C   UNL     1       3.128   0.425  -1.852  0.00  0.00    +0.048 C 
ATOM     24  C   UNL     1       4.231  -0.071   1.058  0.00  0.00    +0.230 C 
ATOM     25  C   UNL     1       2.367   1.402  -0.978  0.00  0.00    -0.021 C 
ATOM     26  C   UNL     1       4.054   1.429   0.966  0.00  0.00    +0.111 C 
ATOM     27  C   UNL     1       2.763   1.841   0.302  0.00  0.00    -0.014 C 
ATOM     28  C   UNL     1       1.145   1.871  -1.506  0.00  0.00    +0.036 C 
ATOM     29  C   UNL     1       1.938   2.748   0.997  0.00  0.00    +0.036 C 
ATOM     30  C   UNL     1       0.339   2.762  -0.799  0.00  0.00    +0.172 C 
ATOM     31  C   UNL     1       0.737   3.203   0.454  0.00  0.00    +0.172 C 
BRANCH  30  32
ATOM     32  O   UNL     1      -0.832   3.189  -1.349  0.00  0.00    -0.468 OA
ATOM     33  C   UNL     1      -1.164   2.685  -2.641  0.00  0.00    +0.253 C 
ENDBRANCH  30  32
BRANCH  31  34
ATOM     34  O   UNL     1      -0.032   4.077   1.161  0.00  0.00    -0.468 OA
ATOM     35  C   UNL     1      -1.012   3.519   2.035  0.00  0.00    +0.253 C 
ENDBRANCH  31  34
ENDBRANCH  19  21
ENDBRANCH   1  19
TORSDOF 10
