REMARK  Name = 6323266
REMARK  2 active torsions:
REMARK  status: ('A' for Active; 'I' for Inactive)
REMARK    1  A    between atoms: C_6  and  C_12
REMARK    2  A    between atoms: C_12  and  N_13
REMARK                            x       y       z     vdW  Elec       q    Type
REMARK                         _______ _______ _______ _____ _____    ______ ____
ROOT
ATOM      1 CL   UNL     1       0.863   2.764  -0.498  0.00  0.00    -0.076 Cl
ATOM      2  O   UNL     1       3.305   1.745   0.802  0.00  0.00    -0.266 OA
ATOM      3  O   UNL     1       2.461  -2.751   0.275  0.00  0.00    -0.247 OA
ATOM      4  N   UNL     1       0.941  -1.221  -0.519  0.00  0.00    -0.308 N 
ATOM      5  N   UNL     1       2.893  -0.504   0.546  0.00  0.00    -0.274 N 
ATOM      6  C   UNL     1       0.530   0.080  -0.720  0.00  0.00    +0.073 A 
ATOM      7  C   UNL     1       1.288   1.105  -0.295  0.00  0.00    +0.127 A 
ATOM      8  C   UNL     1       2.581   0.839   0.398  0.00  0.00    +0.273 A 
ATOM      9  C   UNL     1       2.120  -1.578   0.111  0.00  0.00    +0.327 A 
ATOM     10  H   UNL     1       0.357  -1.944  -0.846  0.00  0.00    +0.170 HD
ATOM     11  H   UNL     1       3.739  -0.719   1.000  0.00  0.00    +0.173 HD
ENDROOT
BRANCH   6  12
ATOM     12  C   UNL     1      -0.775   0.200  -1.421  0.00  0.00    +0.137 C 
BRANCH  12  13
ATOM     13  N   UNL     1      -1.840   0.220  -0.449  0.00  0.00    -0.292 N 
ATOM     14  N   UNL     1      -2.316  -2.138  -0.145  0.00  0.00    -0.289 NA
ATOM     15  C   UNL     1      -2.485   1.470  -0.085  0.00  0.00    +0.093 C 
ATOM     16  C   UNL     1      -3.340   1.055   1.114  0.00  0.00    +0.029 C 
ATOM     17  C   UNL     1      -3.700  -0.409   0.856  0.00  0.00    +0.062 C 
ATOM     18  C   UNL     1      -2.524  -0.877   0.031  0.00  0.00    +0.100 C 
ATOM     19  H   UNL     1      -1.549  -2.440  -0.683  0.00  0.00    +0.188 HD
ENDBRANCH  12  13
ENDBRANCH   6  12
TORSDOF 2
