REMARK  Name = 11519070
REMARK  9 active torsions:
REMARK  status: ('A' for Active; 'I' for Inactive)
REMARK    1  A    between atoms: N_1  and  C_24
REMARK    2  A    between atoms: C_2  and  C_9
REMARK    3  A    between atoms: C_9  and  C_10
REMARK    4  A    between atoms: C_9  and  C_16
REMARK    5  A    between atoms: C_9  and  O_22
REMARK    6  A    between atoms: C_24  and  C_25
REMARK    7  A    between atoms: C_25  and  O_26
REMARK    8  A    between atoms: O_26  and  C_27
REMARK    9  A    between atoms: C_27  and  C_28
REMARK                            x       y       z     vdW  Elec       q    Type
REMARK                         _______ _______ _______ _____ _____    ______ ____
ROOT
ATOM      1  N   UNL     1      -0.766  -0.769  -0.780  0.00  0.00    +0.392 N 
ATOM      2  C   UNL     1       1.774  -0.255  -0.714  0.00  0.00    +0.024 C 
ATOM      3  C   UNL     1       1.014   0.826  -1.505  0.00  0.00    -0.020 C 
ATOM      4  C   UNL     1       1.185  -0.303   0.709  0.00  0.00    -0.020 C 
ATOM      5  C   UNL     1       1.505  -1.614  -1.386  0.00  0.00    -0.020 C 
ATOM      6  C   UNL     1      -0.484   0.525  -1.550  0.00  0.00    -0.073 C 
ATOM      7  C   UNL     1      -0.313  -0.604   0.675  0.00  0.00    -0.073 C 
ATOM      8  C   UNL     1       0.009  -1.923  -1.425  0.00  0.00    -0.073 C 
ENDROOT
BRANCH   2   9
ATOM      9  C   UNL     1       3.272   0.049  -0.675  0.00  0.00    +0.125 C 
BRANCH   9  10
ATOM     10  C   UNL     1       3.996  -1.049   0.123  0.00  0.00    +0.006 C 
ATOM     11  C   UNL     1       4.304  -2.223  -0.517  0.00  0.00    -0.002 C 
ATOM     12  C   UNL     1       4.300  -0.805   1.438  0.00  0.00    -0.002 C 
ATOM     13  C   UNL     1       4.960  -3.219   0.206  0.00  0.00    -0.000 C 
ATOM     14  C   UNL     1       4.957  -1.800   2.162  0.00  0.00    -0.000 C 
ATOM     15  C   UNL     1       5.286  -3.007   1.546  0.00  0.00    -0.000 C 
ENDBRANCH   9  10
BRANCH   9  16
ATOM     16  C   UNL     1       3.648   1.443  -0.146  0.00  0.00    +0.006 C 
ATOM     17  C   UNL     1       2.647   2.249   0.337  0.00  0.00    -0.002 C 
ATOM     18  C   UNL     1       4.968   1.819  -0.182  0.00  0.00    -0.002 C 
ATOM     19  C   UNL     1       2.989   3.513   0.816  0.00  0.00    -0.000 C 
ATOM     20  C   UNL     1       5.309   3.083   0.297  0.00  0.00    -0.000 C 
ATOM     21  C   UNL     1       4.320   3.930   0.796  0.00  0.00    -0.000 C 
ENDBRANCH   9  16
BRANCH   9  22
ATOM     22  O   UNL     1       3.688   0.001  -2.056  0.00  0.00    -0.379 OA
ATOM     23  H   UNL     1       3.468  -0.866  -2.430  0.00  0.00    +0.211 HD
ENDBRANCH   9  22
ENDBRANCH   2   9
BRANCH   1  24
ATOM     24  C   UNL     1      -2.257  -1.071  -0.819  0.00  0.00    -0.040 C 
BRANCH  24  25
ATOM     25  C   UNL     1      -3.014   0.060  -0.151  0.00  0.00    +0.121 C 
BRANCH  25  26
ATOM     26  O   UNL     1      -4.405  -0.233  -0.152  0.00  0.00    -0.351 OA
BRANCH  26  27
ATOM     27  C   UNL     1      -5.155   0.799   0.474  0.00  0.00    +0.168 C 
BRANCH  27  28
ATOM     28  C   UNL     1      -6.611   0.434   0.443  0.00  0.00    +0.007 C 
ATOM     29  C   UNL     1      -7.395   0.826  -0.636  0.00  0.00    -0.002 C 
ATOM     30  C   UNL     1      -7.161  -0.293   1.492  0.00  0.00    -0.002 C 
ATOM     31  C   UNL     1      -8.748   0.487  -0.666  0.00  0.00    -0.000 C 
ATOM     32  C   UNL     1      -8.514  -0.632   1.462  0.00  0.00    -0.000 C 
ATOM     33  C   UNL     1      -9.307  -0.242   0.383  0.00  0.00    -0.000 C 
ENDBRANCH  27  28
ENDBRANCH  26  27
ENDBRANCH  25  26
ENDBRANCH  24  25
ENDBRANCH   1  24
TORSDOF 9
