REMARK  Name = 2391
REMARK  7 active torsions:
REMARK  status: ('A' for Active; 'I' for Inactive)
REMARK    1  A    between atoms: C_1  and  C_3
REMARK    2  A    between atoms: C_1  and  C_8
REMARK    3  A    between atoms: C_1  and  C_18
REMARK    4  A    between atoms: C_13  and  O_14
REMARK    5  A    between atoms: O_14  and  C_16
REMARK    6  A    between atoms: C_23  and  O_24
REMARK    7  A    between atoms: O_24  and  C_26
REMARK                            x       y       z     vdW  Elec       q    Type
REMARK                         _______ _______ _______ _____ _____    ______ ____
ROOT
ATOM      1  C   UNL     1       0.019   1.104   0.857  0.00  0.00    +0.085 C 
ENDROOT
BRANCH   1   3
ATOM      2  N   UNL     1      -0.909   2.357  -0.996  0.00  0.00    -0.248 NA
ATOM      3  C   UNL     1      -0.291   2.457   0.176  0.00  0.00    +0.067 C 
ATOM      4  C   UNL     1       0.092   3.587   0.829  0.00  0.00    +0.015 C 
ATOM      5  C   UNL     1      -0.201   4.787   0.190  0.00  0.00    +0.003 C 
ATOM      6  C   UNL     1      -1.177   3.543  -1.587  0.00  0.00    +0.098 C 
ATOM      7  C   UNL     1      -0.848   4.773  -1.041  0.00  0.00    +0.021 C 
ENDBRANCH   1   3
BRANCH   1   8
ATOM      8  C   UNL     1       1.384   0.557   0.611  0.00  0.00    -0.013 C 
ATOM      9  C   UNL     1       2.062  -0.111   1.631  0.00  0.00    -0.000 C 
ATOM     10  C   UNL     1       1.983   0.715  -0.638  0.00  0.00    -0.000 C 
ATOM     11  C   UNL     1       3.340  -0.622   1.400  0.00  0.00    +0.037 C 
ATOM     12  C   UNL     1       3.261   0.204  -0.869  0.00  0.00    +0.037 C 
ATOM     13  C   UNL     1       3.939  -0.464   0.151  0.00  0.00    +0.148 C 
BRANCH  13  14
ATOM     14  O   UNL     1       5.185  -0.963  -0.073  0.00  0.00    -0.424 OA
BRANCH  14  16
ATOM     15  O   UNL     1       4.210  -2.974  -0.770  0.00  0.00    -0.250 OA
ATOM     16  C   UNL     1       5.197  -2.283  -0.554  0.00  0.00    +0.322 C 
ATOM     17  C   UNL     1       6.609  -2.740  -0.768  0.00  0.00    +0.122 C 
ENDBRANCH  14  16
ENDBRANCH  13  14
ENDBRANCH   1   8
BRANCH   1  18
ATOM     18  C   UNL     1      -1.141   0.092   0.714  0.00  0.00    -0.013 C 
ATOM     19  C   UNL     1      -2.214   0.220   1.553  0.00  0.00    -0.000 C 
ATOM     20  C   UNL     1      -1.031  -0.879  -0.244  0.00  0.00    -0.000 C 
ATOM     21  C   UNL     1      -3.260  -0.694   1.423  0.00  0.00    +0.037 C 
ATOM     22  C   UNL     1      -2.077  -1.793  -0.374  0.00  0.00    +0.037 C 
ATOM     23  C   UNL     1      -3.191  -1.700   0.460  0.00  0.00    +0.148 C 
BRANCH  23  24
ATOM     24  O   UNL     1      -4.213  -2.591   0.334  0.00  0.00    -0.424 OA
BRANCH  24  26
ATOM     25  O   UNL     1      -5.224  -1.152  -1.211  0.00  0.00    -0.250 OA
ATOM     26  C   UNL     1      -5.213  -2.193  -0.568  0.00  0.00    +0.322 C 
ATOM     27  C   UNL     1      -6.288  -3.237  -0.636  0.00  0.00    +0.122 C 
ENDBRANCH  24  26
ENDBRANCH  23  24
ENDBRANCH   1  18
TORSDOF 7
