REMARK  Name = 4830
REMARK  7 active torsions:
REMARK  status: ('A' for Active; 'I' for Inactive)
REMARK    1  A    between atoms: N_1  and  C_20
REMARK    2  A    between atoms: C_2  and  N_8
REMARK    3  A    between atoms: C_2  and  C_17
REMARK    4  A    between atoms: C_20  and  C_21
REMARK    5  A    between atoms: C_21  and  C_22
REMARK    6  A    between atoms: C_22  and  C_24
REMARK    7  A    between atoms: C_24  and  C_26
REMARK                            x       y       z     vdW  Elec       q    Type
REMARK                         _______ _______ _______ _____ _____    ______ ____
ROOT
ATOM      1  N   UNL     1       0.638  -0.756   0.591  0.00  0.00    +0.387 N 
ATOM      2  C   UNL     1       3.314   0.417   0.274  0.00  0.00    +0.024 C 
ATOM      3  C   UNL     1       2.687   0.151   1.648  0.00  0.00    -0.033 C 
ATOM      4  C   UNL     1       2.678  -0.486  -0.789  0.00  0.00    -0.033 C 
ATOM      5  C   UNL     1       1.154   0.182   1.596  0.00  0.00    -0.079 C 
ATOM      6  C   UNL     1       1.146  -0.431  -0.749  0.00  0.00    -0.079 C 
ATOM      7  H   UNL     1       0.968  -1.691   0.834  0.00  0.00    -0.080 HD
ENDROOT
BRANCH   2   8
ATOM      8  N   UNL     1       4.756   0.176   0.332  0.00  0.00    +0.395 N 
ATOM      9  C   UNL     1       5.030  -1.198   0.776  0.00  0.00    -0.077 C 
ATOM     10  C   UNL     1       5.375   0.446  -0.974  0.00  0.00    -0.077 C 
ATOM     11  C   UNL     1       6.534  -1.451   0.889  0.00  0.00    -0.023 C 
ATOM     12  C   UNL     1       6.891   0.246  -0.918  0.00  0.00    -0.023 C 
ATOM     13  C   UNL     1       7.248  -1.151  -0.424  0.00  0.00    -0.004 C 
ATOM     14  H   UNL     1       5.167   0.815   1.013  0.00  0.00    -0.079 HD
ENDBRANCH   2   8
BRANCH   2  17
ATOM     15  O   UNL     1       2.615   2.218  -1.146  0.00  0.00    -0.277 OA
ATOM     16  N   UNL     1       3.716   2.739   0.806  0.00  0.00    -0.330 N 
ATOM     17  C   UNL     1       3.166   1.869  -0.105  0.00  0.00    +0.201 C 
ATOM     18  H   UNL     1       3.670   3.710   0.649  0.00  0.00    +0.145 HD
ATOM     19  H   UNL     1       4.155   2.392   1.616  0.00  0.00    +0.145 HD
ENDBRANCH   2  17
BRANCH   1  20
ATOM     20  C   UNL     1      -0.825  -0.758   0.596  0.00  0.00    -0.077 C 
BRANCH  20  21
ATOM     21  C   UNL     1      -1.356  -1.784  -0.407  0.00  0.00    -0.015 C 
BRANCH  21  22
ATOM     22  C   UNL     1      -2.886  -1.824  -0.442  0.00  0.00    +0.067 C 
BRANCH  22  24
ATOM     23  O   UNL     1      -2.941   0.249  -1.677  0.00  0.00    -0.291 OA
ATOM     24  C   UNL     1      -3.514  -0.517  -0.906  0.00  0.00    +0.173 C 
BRANCH  24  26
ATOM     25  F   UNL     1      -8.633   0.781   0.906  0.00  0.00    -0.204 F 
ATOM     26  C   UNL     1      -4.881  -0.170  -0.423  0.00  0.00    +0.035 C 
ATOM     27  C   UNL     1      -5.759  -1.191  -0.136  0.00  0.00    +0.005 C 
ATOM     28  C   UNL     1      -5.215   1.158  -0.281  0.00  0.00    +0.005 C 
ATOM     29  C   UNL     1      -7.038  -0.867   0.317  0.00  0.00    +0.030 C 
ATOM     30  C   UNL     1      -6.494   1.482   0.173  0.00  0.00    +0.030 C 
ATOM     31  C   UNL     1      -7.405   0.470   0.472  0.00  0.00    +0.140 C 
ENDBRANCH  24  26
ENDBRANCH  22  24
ENDBRANCH  21  22
ENDBRANCH  20  21
ENDBRANCH   1  20
TORSDOF 7
