REMARK  Name = 60698
REMARK  5 active torsions:
REMARK  status: ('A' for Active; 'I' for Inactive)
REMARK    1  A    between atoms: N_1  and  C_22
REMARK    2  A    between atoms: C_2  and  N_9
REMARK    3  A    between atoms: C_13  and  C_18
REMARK    4  A    between atoms: C_22  and  C_23
REMARK    5  A    between atoms: C_23  and  C_24
REMARK                            x       y       z     vdW  Elec       q    Type
REMARK                         _______ _______ _______ _____ _____    ______ ____
ROOT
ATOM      1  N   UNL     1       1.537   0.386  -0.547  0.00  0.00    +0.387 N 
ATOM      2  C   UNL     1      -1.317  -0.252  -0.495  0.00  0.00    +0.077 C 
ATOM      3  C   UNL     1      -0.673   0.514  -1.650  0.00  0.00    -0.003 C 
ATOM      4  C   UNL     1      -0.499  -0.067   0.783  0.00  0.00    -0.003 C 
ATOM      5  C   UNL     1       0.806   0.153  -1.800  0.00  0.00    -0.076 C 
ATOM      6  C   UNL     1       0.974  -0.409   0.553  0.00  0.00    -0.076 C 
ATOM      7  H   UNL     1       1.439   1.372  -0.304  0.00  0.00    -0.080 HD
ENDROOT
BRANCH   2   9
ATOM      8  O   UNL     1      -4.906  -0.418  -0.814  0.00  0.00    -0.266 OA
ATOM      9  N   UNL     1      -2.684   0.164  -0.301  0.00  0.00    -0.238 N 
ATOM     10  N   UNL     1      -2.118   2.466  -0.393  0.00  0.00    -0.226 NA
ATOM     11  N   UNL     1      -4.380   3.027   1.168  0.00  0.00    -0.238 NA
ATOM     12  C   UNL     1      -2.961   1.556   0.050  0.00  0.00    +0.157 C 
ATOM     13  C   UNL     1      -3.779  -0.750  -0.443  0.00  0.00    +0.288 C 
ATOM     14  C   UNL     1      -4.060   1.770   0.801  0.00  0.00    +0.133 C 
ATOM     15  C   UNL     1      -2.438   3.723  -0.026  0.00  0.00    +0.121 C 
ATOM     16  C   UNL     1      -3.549   3.999   0.740  0.00  0.00    +0.120 C 
BRANCH  13  18
ATOM     17  O   UNL     1      -2.590  -2.352   0.862  0.00  0.00    -0.446 OA
ATOM     18  C   UNL     1      -3.511  -2.149  -0.088  0.00  0.00    +0.199 C 
ATOM     19  C   UNL     1      -4.051  -3.285  -0.569  0.00  0.00    +0.045 C 
ATOM     20  C   UNL     1      -3.407  -4.321   0.148  0.00  0.00    +0.044 C 
ATOM     21  C   UNL     1      -2.528  -3.702   1.006  0.00  0.00    +0.180 C 
ENDBRANCH  13  18
ENDBRANCH   2   9
BRANCH   1  22
ATOM     22  C   UNL     1       2.958   0.085  -0.721  0.00  0.00    -0.073 C 
BRANCH  22  23
ATOM     23  C   UNL     1       3.753   0.448   0.534  0.00  0.00    +0.004 C 
BRANCH  23  24
ATOM     24  C   UNL     1       5.223   0.163   0.360  0.00  0.00    -0.024 C 
ATOM     25  C   UNL     1       5.722  -1.083   0.709  0.00  0.00    -0.004 C 
ATOM     26  C   UNL     1       6.053   1.152  -0.147  0.00  0.00    -0.004 C 
ATOM     27  C   UNL     1       7.082  -1.347   0.548  0.00  0.00    -0.000 C 
ATOM     28  C   UNL     1       7.413   0.888  -0.309  0.00  0.00    -0.000 C 
ATOM     29  C   UNL     1       7.928  -0.361   0.038  0.00  0.00    -0.000 C 
ENDBRANCH  23  24
ENDBRANCH  22  23
ENDBRANCH   1  22
TORSDOF 5
