REMARK  Name = 20055414
REMARK  5 active torsions:
REMARK  status: ('A' for Active; 'I' for Inactive)
REMARK    1  A    between atoms: N_1  and  C_18
REMARK    2  A    between atoms: N_2  and  C_8
REMARK    3  A    between atoms: C_11  and  C_17
REMARK    4  A    between atoms: C_18  and  C_19
REMARK    5  A    between atoms: C_19  and  C_30
REMARK                            x       y       z     vdW  Elec       q    Type
REMARK                         _______ _______ _______ _____ _____    ______ ____
ROOT
ATOM      1  N   UNL     1      -0.273   1.600  -0.043  0.00  0.00    +0.390 N 
ATOM      2  N   UNL     1       2.529   1.062  -0.189  0.00  0.00    -0.312 N 
ATOM      3  C   UNL     1       0.482   1.912  -1.263  0.00  0.00    -0.055 C 
ATOM      4  C   UNL     1       0.288   0.405   0.599  0.00  0.00    -0.055 C 
ATOM      5  C   UNL     1       1.955   2.178  -0.947  0.00  0.00    +0.068 C 
ATOM      6  C   UNL     1       1.754   0.622   0.979  0.00  0.00    +0.068 C 
ATOM      7  H   UNL     1      -0.195   2.387   0.601  0.00  0.00    -0.080 HD
ENDROOT
BRANCH   2   8
ATOM      8  C   UNL     1       3.916   0.880  -0.164  0.00  0.00    +0.048 C 
ATOM      9  C   UNL     1       4.450  -0.402  -0.029  0.00  0.00    +0.018 C 
ATOM     10  C   UNL     1       4.766   1.981  -0.274  0.00  0.00    +0.015 C 
ATOM     11  C   UNL     1       5.832  -0.582  -0.004  0.00  0.00    +0.073 C 
ATOM     12  C   UNL     1       6.149   1.800  -0.249  0.00  0.00    +0.001 C 
ATOM     13  C   UNL     1       6.682   0.519  -0.114  0.00  0.00    +0.004 C 
BRANCH  11  17
ATOM     14  F   UNL     1       7.769  -1.978   0.151  0.00  0.00    -0.166 F 
ATOM     15  F   UNL     1       6.027  -2.582   1.294  0.00  0.00    -0.166 F 
ATOM     16  F   UNL     1       6.028  -2.787  -0.871  0.00  0.00    -0.166 F 
ATOM     17  C   UNL     1       6.403  -1.952   0.141  0.00  0.00    +0.419 C 
ENDBRANCH  11  17
ENDBRANCH   2   8
BRANCH   1  18
ATOM     18  C   UNL     1      -1.688   1.401  -0.352  0.00  0.00    -0.069 C 
BRANCH  18  19
ATOM     19  C   UNL     1      -2.584   1.514   0.901  0.00  0.00    +0.043 C 
BRANCH  19  30
ATOM     20  N   UNL     1      -4.591   0.081   0.653  0.00  0.00    -0.302 N 
ATOM     21  N   UNL     1      -6.136   1.500   0.077  0.00  0.00    -0.134 NA
ATOM     22  N   UNL     1      -4.922   2.171   0.256  0.00  0.00    -0.134 NA
ATOM     23  C   UNL     1      -5.496  -2.081   0.635  0.00  0.00    +0.030 C 
ATOM     24  C   UNL     1      -6.633  -1.038   0.334  0.00  0.00    +0.061 C 
ATOM     25  C   UNL     1      -5.383  -2.937  -0.634  0.00  0.00    +0.002 C 
ATOM     26  C   UNL     1      -7.187  -1.421  -1.034  0.00  0.00    +0.008 C 
ATOM     27  C   UNL     1      -4.210  -1.276   0.958  0.00  0.00    +0.109 C 
ATOM     28  C   UNL     1      -6.027  -2.112  -1.739  0.00  0.00    +0.001 C 
ATOM     29  C   UNL     1      -5.894   0.239   0.323  0.00  0.00    +0.143 A 
ATOM     30  C   UNL     1      -4.006   1.283   0.604  0.00  0.00    +0.141 A 
ENDBRANCH  19  30
ENDBRANCH  18  19
ENDBRANCH   1  18
TORSDOF 5
