REMARK  Name = 4810
REMARK  2 active torsions:
REMARK  status: ('A' for Active; 'I' for Inactive)
REMARK    1  A    between atoms: C_4  and  N_10
REMARK    2  A    between atoms: C_5  and  O_17
REMARK                            x       y       z     vdW  Elec       q    Type
REMARK                         _______ _______ _______ _____ _____    ______ ____
ROOT
ATOM      1 CL   UNL     1      -1.436  -3.156  -0.054  0.00  0.00    -0.049 Cl
ATOM      2  N   UNL     1      -1.972   1.258   0.051  0.00  0.00    -0.309 NA
ATOM      3  N   UNL     1      -2.824  -0.987  -0.159  0.00  0.00    -0.334 NA
ATOM      4  C   UNL     1      -0.469  -0.619   0.184  0.00  0.00    +0.227 C 
ATOM      5  C   UNL     1      -0.738   0.735   0.202  0.00  0.00    +0.289 C 
ATOM      6  C   UNL     1      -1.563  -1.440  -0.002  0.00  0.00    +0.206 C 
ATOM      7  C   UNL     1      -2.955   0.353  -0.122  0.00  0.00    +0.118 C 
ATOM      8  C   UNL     1      -4.334   0.892  -0.293  0.00  0.00    +0.143 C 
ENDROOT
BRANCH   4  10
ATOM      9  N   UNL     1       3.104  -0.830   0.749  0.00  0.00    -0.284 N 
ATOM     10  N   UNL     1       0.832  -1.114   0.345  0.00  0.00    -0.293 N 
ATOM     11  N   UNL     1       2.208   0.304  -1.001  0.00  0.00    -0.215 NA
ATOM     12  C   UNL     1       4.258  -0.139   0.260  0.00  0.00    +0.085 C 
ATOM     13  C   UNL     1       3.665   0.630  -0.928  0.00  0.00    +0.117 C 
ATOM     14  C   UNL     1       2.011  -0.528  -0.006  0.00  0.00    +0.186 C 
ATOM     15  H   UNL     1       3.101  -1.439   1.522  0.00  0.00    +0.155 HD
ATOM     16  H   UNL     1       0.903  -2.001   0.767  0.00  0.00    +0.150 HD
ENDBRANCH   4  10
BRANCH   5  17
ATOM     17  O   UNL     1       0.283   1.632   0.384  0.00  0.00    -0.449 OA
ATOM     18  C   UNL     1      -0.071   3.010   0.391  0.00  0.00    +0.255 C 
ENDBRANCH   5  17
TORSDOF 2
