REMARK  Name = 3055168
REMARK  6 active torsions:
REMARK  status: ('A' for Active; 'I' for Inactive)
REMARK    1  A    between atoms: C_1  and  C_21
REMARK    2  A    between atoms: C_4  and  O_7
REMARK    3  A    between atoms: O_7  and  C_8
REMARK    4  A    between atoms: C_8  and  C_12
REMARK    5  A    between atoms: C_17  and  O_19
REMARK    6  A    between atoms: C_21  and  C_26
REMARK                            x       y       z     vdW  Elec       q    Type
REMARK                         _______ _______ _______ _____ _____    ______ ____
ROOT
ATOM      1  C   UNL     1       3.439  -0.775   0.365  0.00  0.00    -0.021 C 
ATOM      2  C   UNL     1       2.858   0.043   1.334  0.00  0.00    -0.001 C 
ATOM      3  C   UNL     1       2.651  -1.330  -0.643  0.00  0.00    -0.001 C 
ATOM      4  C   UNL     1       0.707  -0.251   0.287  0.00  0.00    +0.139 C 
ATOM      5  C   UNL     1       1.488   0.305   1.295  0.00  0.00    +0.037 C 
ATOM      6  C   UNL     1       1.282  -1.067  -0.683  0.00  0.00    +0.037 C 
ENDROOT
BRANCH   4   7
ATOM      7  O   UNL     1      -0.636   0.008   0.248  0.00  0.00    -0.466 OA
BRANCH   7   8
ATOM      8  C   UNL     1      -1.373  -0.596  -0.813  0.00  0.00    +0.279 C 
BRANCH   8  12
ATOM      9  N   UNL     1      -3.701  -0.840   0.037  0.00  0.00    -0.274 N 
ATOM     10  N   UNL     1      -3.295   0.917  -1.262  0.00  0.00    -0.390 NA
ATOM     11  C   UNL     1      -4.895  -0.172  -0.060  0.00  0.00    +0.153 C 
ATOM     12  C   UNL     1      -2.777  -0.151  -0.698  0.00  0.00    +0.205 C 
ATOM     13  C   UNL     1      -4.615   0.921  -0.876  0.00  0.00    +0.133 C 
ATOM     14  C   UNL     1      -6.157  -0.423   0.479  0.00  0.00    +0.037 C 
ATOM     15  C   UNL     1      -3.466  -2.054   0.784  0.00  0.00    +0.115 C 
ATOM     16  C   UNL     1      -5.644   1.828  -1.183  0.00  0.00    +0.033 C 
ATOM     17  C   UNL     1      -7.169   0.490   0.164  0.00  0.00    +0.137 C 
ATOM     18  C   UNL     1      -6.919   1.596  -0.652  0.00  0.00    +0.039 C 
BRANCH  17  19
ATOM     19  O   UNL     1      -8.423   0.295   0.662  0.00  0.00    -0.472 OA
ATOM     20  C   UNL     1      -8.620  -0.850   1.489  0.00  0.00    +0.252 C 
ENDBRANCH  17  19
ENDBRANCH   8  12
ENDBRANCH   7   8
ENDBRANCH   4   7
BRANCH   1  21
ATOM     21  C   UNL     1       4.903  -1.056   0.407  0.00  0.00    +0.047 C 
BRANCH  21  26
ATOM     22  S   UNL     1       5.984   1.476   0.587  0.00  0.00    -0.048 S 
ATOM     23  O   UNL     1       7.288  -1.603  -1.340  0.00  0.00    -0.274 OA
ATOM     24  O   UNL     1       8.478   2.223   0.957  0.00  0.00    -0.263 OA
ATOM     25  N   UNL     1       8.079   0.271  -0.240  0.00  0.00    -0.246 N 
ATOM     26  C   UNL     1       5.714  -0.036  -0.388  0.00  0.00    +0.137 C 
ATOM     27  C   UNL     1       7.091  -0.564  -0.720  0.00  0.00    +0.239 C 
ATOM     28  C   UNL     1       7.729   1.391   0.467  0.00  0.00    +0.279 C 
ATOM     29  H   UNL     1       9.028   0.064  -0.404  0.00  0.00    +0.158 HD
ENDBRANCH  21  26
ENDBRANCH   1  21
TORSDOF 6
