REMARK  Name = 2365
REMARK  0 active torsions:
REMARK  status: ('A' for Active; 'I' for Inactive)
REMARK                            x       y       z     vdW  Elec       q    Type
REMARK                         _______ _______ _______ _____ _____    ______ ____
ROOT
ATOM      1  O   UNL     1      -0.293   1.015   0.000  0.00  0.00    -0.448 OA
ATOM      2  O   UNL     1       1.771  -0.042   0.000  0.00  0.00    -0.250 OA
ATOM      3  C   UNL     1      -0.574  -1.084   0.000  0.00  0.00    +0.157 C 
ATOM      4  C   UNL     1      -1.465   0.154   0.000  0.00  0.00    +0.220 C 
ATOM      5  C   UNL     1       0.561  -0.044   0.000  0.00  0.00    +0.321 C 
ENDROOT
TORSDOF 0
