REMARK  Name = 638678
REMARK  6 active torsions:
REMARK  status: ('A' for Active; 'I' for Inactive)
REMARK    1  A    between atoms: C_1  and  C_8
REMARK    2  A    between atoms: C_1  and  N_15
REMARK    3  A    between atoms: C_1  and  C_25
REMARK    4  A    between atoms: C_4  and  C_11
REMARK    5  A    between atoms: C_16  and  C_20
REMARK    6  A    between atoms: C_25  and  C_28
REMARK                            x       y       z     vdW  Elec       q    Type
REMARK                         _______ _______ _______ _____ _____    ______ ____
ROOT
ATOM      1  C   UNL     1       0.328  -0.745  -0.217  0.00  0.00    +0.155 C 
ENDROOT
BRANCH   1   8
ATOM      2  O   UNL     1       0.324   1.283  -1.464  0.00  0.00    -0.273 OA
ATOM      3  N   UNL     1       1.748   1.166   0.357  0.00  0.00    -0.272 N 
ATOM      4  C   UNL     1       2.182   2.556   0.318  0.00  0.00    +0.152 C 
ATOM      5  C   UNL     1       2.849   2.791   1.668  0.00  0.00    +0.031 C 
ATOM      6  C   UNL     1       2.324   0.465   1.501  0.00  0.00    +0.094 C 
ATOM      7  C   UNL     1       3.385   1.411   2.044  0.00  0.00    +0.024 C 
ATOM      8  C   UNL     1       0.788   0.661  -0.507  0.00  0.00    +0.244 C 
BRANCH   4  11
ATOM      9  O   UNL     1       3.475   1.724  -1.512  0.00  0.00    -0.274 OA
ATOM     10  N   UNL     1       3.658   3.954  -0.973  0.00  0.00    -0.327 N 
ATOM     11  C   UNL     1       3.156   2.684  -0.814  0.00  0.00    +0.237 C 
ATOM     12  H   UNL     1       4.306   4.140  -1.690  0.00  0.00    +0.145 HD
ATOM     13  H   UNL     1       3.370   4.676  -0.369  0.00  0.00    +0.145 HD
ENDBRANCH   4  11
ENDBRANCH   1   8
BRANCH   1  15
ATOM     14  O   UNL     1      -1.908   0.114   1.424  0.00  0.00    -0.273 OA
ATOM     15  N   UNL     1      -1.060  -0.724  -0.578  0.00  0.00    -0.297 N 
ATOM     16  C   UNL     1      -2.069  -0.294   0.277  0.00  0.00    +0.241 C 
ATOM     17  H   UNL     1      -1.312  -1.031  -1.479  0.00  0.00    +0.150 HD
BRANCH  16  20
ATOM     18  O   UNL     1      -5.507   2.108   1.093  0.00  0.00    -0.275 OA
ATOM     19  N   UNL     1      -4.358   0.123   0.623  0.00  0.00    -0.298 N 
ATOM     20  C   UNL     1      -3.422  -0.351  -0.357  0.00  0.00    +0.149 C 
ATOM     21  C   UNL     1      -3.575   0.628  -1.506  0.00  0.00    +0.039 C 
ATOM     22  C   UNL     1      -4.048   1.920  -0.840  0.00  0.00    +0.087 C 
ATOM     23  C   UNL     1      -4.756   1.437   0.402  0.00  0.00    +0.223 C 
ATOM     24  H   UNL     1      -4.684  -0.425   1.373  0.00  0.00    +0.150 HD
ENDBRANCH  16  20
ENDBRANCH   1  15
BRANCH   1  25
ATOM     25  C   UNL     1       1.147  -1.745  -1.023  0.00  0.00    +0.071 C 
BRANCH  25  28
ATOM     26  N   UNL     1       2.156  -3.840  -0.035  0.00  0.00    -0.319 N 
ATOM     27  N   UNL     1       0.413  -5.163   0.341  0.00  0.00    -0.315 N 
ATOM     28  C   UNL     1       1.058  -3.138  -0.446  0.00  0.00    +0.040 C 
ATOM     29  C   UNL     1      -0.006  -3.975  -0.204  0.00  0.00    +0.069 C 
ATOM     30  C   UNL     1       1.720  -5.049   0.429  0.00  0.00    +0.182 C 
ATOM     31  H   UNL     1       3.090  -3.531  -0.068  0.00  0.00    +0.148 HD
ATOM     32  H   UNL     1      -0.143  -5.931   0.608  0.00  0.00    +0.148 HD
ENDBRANCH  25  28
ENDBRANCH   1  25
TORSDOF 6
