REMARK  Name = 31264
REMARK  0 active torsions:
REMARK  status: ('A' for Active; 'I' for Inactive)
REMARK                            x       y       z     vdW  Elec       q    Type
REMARK                         _______ _______ _______ _____ _____    ______ ____
ROOT
ATOM      1  O   UNL     1       0.793   1.114  -0.103  0.00  0.00    -0.306 OA
ATOM      2  O   UNL     1       0.568  -1.244  -0.103  0.00  0.00    -0.306 OA
ATOM      3  O   UNL     1      -1.361   0.130  -0.103  0.00  0.00    -0.306 OA
ATOM      4  C   UNL     1       1.345  -0.129   0.343  0.00  0.00    +0.239 C 
ATOM      5  C   UNL     1      -0.561   1.229   0.343  0.00  0.00    +0.239 C 
ATOM      6  C   UNL     1      -0.784  -1.100   0.343  0.00  0.00    +0.239 C 
ATOM      7  C   UNL     1       2.741  -0.262  -0.239  0.00  0.00    +0.067 C 
ATOM      8  C   UNL     1      -1.143   2.504  -0.239  0.00  0.00    +0.067 C 
ATOM      9  C   UNL     1      -1.597  -2.242  -0.240  0.00  0.00    +0.067 C 
ENDROOT
TORSDOF 0
