REMARK  Name = 5411
REMARK  9 active torsions:
REMARK  status: ('A' for Active; 'I' for Inactive)
REMARK    1  A    between atoms: C_1  and  N_16
REMARK    2  A    between atoms: C_2  and  C_8
REMARK    3  A    between atoms: C_8  and  O_9
REMARK    4  A    between atoms: O_9  and  C_10
REMARK    5  A    between atoms: C_10  and  C_11
REMARK    6  A    between atoms: C_11  and  N_12
REMARK    7  A    between atoms: N_16  and  C_18
REMARK    8  A    between atoms: C_18  and  C_19
REMARK    9  A    between atoms: C_19  and  C_20
REMARK                            x       y       z     vdW  Elec       q    Type
REMARK                         _______ _______ _______ _____ _____    ______ ____
ROOT
ATOM      1  C   UNL     1      -2.254   0.306  -0.037  0.00  0.00    +0.045 C 
ATOM      2  C   UNL     1       0.401  -0.621   0.065  0.00  0.00    +0.076 C 
ATOM      3  C   UNL     1      -1.174   1.208  -0.038  0.00  0.00    +0.015 C 
ATOM      4  C   UNL     1      -1.972  -1.071   0.016  0.00  0.00    +0.015 C 
ATOM      5  C   UNL     1       0.142   0.749   0.013  0.00  0.00    +0.008 C 
ATOM      6  C   UNL     1      -0.656  -1.531   0.067  0.00  0.00    +0.008 C 
ENDROOT
BRANCH   2   8
ATOM      7  O   UNL     1       2.096  -2.294   0.168  0.00  0.00    -0.245 OA
ATOM      8  C   UNL     1       1.773  -1.100   0.119  0.00  0.00    +0.341 C 
BRANCH   8   9
ATOM      9  O   UNL     1       2.668  -0.065   0.107  0.00  0.00    -0.448 OA
BRANCH   9  10
ATOM     10  C   UNL     1       4.057  -0.410   0.156  0.00  0.00    +0.186 C 
BRANCH  10  11
ATOM     11  C   UNL     1       4.879   0.868   0.134  0.00  0.00    -0.029 C 
BRANCH  11  12
ATOM     12  N   UNL     1       6.301   0.566   0.199  0.00  0.00    +0.387 N 
ATOM     13  C   UNL     1       7.093   1.798   0.221  0.00  0.00    -0.101 C 
ATOM     14  C   UNL     1       6.705  -0.274  -0.931  0.00  0.00    -0.101 C 
ATOM     15  H   UNL     1       6.475   0.053   1.064  0.00  0.00    -0.080 HD
ENDBRANCH  11  12
ENDBRANCH  10  11
ENDBRANCH   9  10
ENDBRANCH   8   9
ENDBRANCH   2   8
BRANCH   1  16
ATOM     16  N   UNL     1      -3.562   0.763  -0.086  0.00  0.00    -0.333 N 
ATOM     17  H   UNL     1      -3.712   1.736  -0.122  0.00  0.00    +0.147 HD
BRANCH  16  18
ATOM     18  C   UNL     1      -4.714  -0.104  -0.086  0.00  0.00    +0.087 C 
BRANCH  18  19
ATOM     19  C   UNL     1      -6.005   0.710  -0.083  0.00  0.00    +0.021 C 
BRANCH  19  20
ATOM     20  C   UNL     1      -7.257  -0.169  -0.037  0.00  0.00    +0.002 C 
ATOM     21  C   UNL     1      -8.523   0.671   0.032  0.00  0.00    +0.000 C 
ENDBRANCH  19  20
ENDBRANCH  18  19
ENDBRANCH  16  18
ENDBRANCH   1  16
TORSDOF 9
