12881464
  -OEChem-10051722023D

 60 60  0     0  0  0  0  0  0999 V2000
   12.8215   -0.3848    0.2051 O   0  0  0  0  0  0  0  0  0  0  0  0
   -5.8940   -2.4055   -0.1786 O   0  0  0  0  0  0  0  0  0  0  0  0
   -3.5026   -1.7327   -1.3536 O   0  0  0  0  0  0  0  0  0  0  0  0
   -7.2651   -0.3988    1.1797 O   0  0  0  0  0  0  0  0  0  0  0  0
   -6.1421    2.0740    1.2620 O   0  0  0  0  0  0  0  0  0  0  0  0
    2.8412    0.5822   -0.7630 C   0  0  0  0  0  0  0  0  0  0  0  0
    3.9905    0.1947    0.1702 C   0  0  0  0  0  0  0  0  0  0  0  0
    1.4833    0.3038   -0.1138 C   0  0  0  0  0  0  0  0  0  0  0  0
    5.3765    0.3818   -0.4559 C   0  0  0  0  0  0  0  0  0  0  0  0
    0.3320    0.6540   -1.0593 C   0  0  0  0  0  0  0  0  0  0  0  0
    6.5198   -0.0775    0.4521 C   0  0  0  0  0  0  0  0  0  0  0  0
   -1.0260    0.4060   -0.3949 C   0  0  0  0  0  0  0  0  0  0  0  0
    7.9071    0.1118   -0.1717 C   0  0  0  0  0  0  0  0  0  0  0  0
   -2.2087    0.7157   -1.3157 C   0  0  0  0  0  0  0  0  0  0  0  0
    9.0926   -0.3833    0.6624 C   0  0  0  0  0  0  0  0  0  0  0  0
   -3.5369    0.5427   -0.6583 C   0  0  0  0  0  0  0  0  0  0  0  0
   10.4471   -0.1461   -0.0026 C   0  0  0  0  0  0  0  0  0  0  0  0
   -4.2138    1.5102   -0.0120 C   0  0  0  0  0  0  0  0  0  0  0  0
   -4.0935   -0.8412   -0.7493 C   0  0  0  0  0  0  0  0  0  0  0  0
   11.5939   -0.6172    0.8819 C   0  0  0  0  0  0  0  0  0  0  0  0
   -5.5197    1.2095    0.6497 C   0  0  0  0  0  0  0  0  0  0  0  0
   -5.3902   -1.1225   -0.0946 C   0  0  0  0  0  0  0  0  0  0  0  0
   -3.7755    2.9452    0.1055 C   0  0  0  0  0  0  0  0  0  0  0  0
   -6.0547   -0.1669    0.5576 C   0  0  0  0  0  0  0  0  0  0  0  0
   -5.4439   -3.1922    0.9065 C   0  0  0  0  0  0  0  0  0  0  0  0
   -8.3389   -0.1630    0.2905 C   0  0  0  0  0  0  0  0  0  0  0  0
    2.9234    0.0149   -1.6979 H   0  0  0  0  0  0  0  0  0  0  0  0
    2.9201    1.6450   -1.0209 H   0  0  0  0  0  0  0  0  0  0  0  0
    3.8749   -0.8561    0.4641 H   0  0  0  0  0  0  0  0  0  0  0  0
    3.9282    0.7888    1.0903 H   0  0  0  0  0  0  0  0  0  0  0  0
    1.3931    0.8882    0.8100 H   0  0  0  0  0  0  0  0  0  0  0  0
    1.4176   -0.7549    0.1651 H   0  0  0  0  0  0  0  0  0  0  0  0
    5.4229   -0.1772   -1.3987 H   0  0  0  0  0  0  0  0  0  0  0  0
    5.5162    1.4401   -0.7082 H   0  0  0  0  0  0  0  0  0  0  0  0
    0.4054    1.7067   -1.3577 H   0  0  0  0  0  0  0  0  0  0  0  0
    0.4090    0.0516   -1.9725 H   0  0  0  0  0  0  0  0  0  0  0  0
    6.4758    0.4741    1.3991 H   0  0  0  0  0  0  0  0  0  0  0  0
    6.3811   -1.1377    0.6967 H   0  0  0  0  0  0  0  0  0  0  0  0
   -1.0965    1.0214    0.5113 H   0  0  0  0  0  0  0  0  0  0  0  0
   -1.0821   -0.6404   -0.0689 H   0  0  0  0  0  0  0  0  0  0  0  0
    8.0493    1.1788   -0.3860 H   0  0  0  0  0  0  0  0  0  0  0  0
    7.9275   -0.4020   -1.1413 H   0  0  0  0  0  0  0  0  0  0  0  0
   -2.1410    0.0898   -2.2152 H   0  0  0  0  0  0  0  0  0  0  0  0
   -2.1039    1.7346   -1.7068 H   0  0  0  0  0  0  0  0  0  0  0  0
    8.9667   -1.4550    0.8597 H   0  0  0  0  0  0  0  0  0  0  0  0
    9.0736    0.1216    1.6362 H   0  0  0  0  0  0  0  0  0  0  0  0
   10.5769    0.9194   -0.2292 H   0  0  0  0  0  0  0  0  0  0  0  0
   10.4908   -0.6658   -0.9677 H   0  0  0  0  0  0  0  0  0  0  0  0
   11.6084   -0.0678    1.8286 H   0  0  0  0  0  0  0  0  0  0  0  0
   11.5103   -1.6882    1.0923 H   0  0  0  0  0  0  0  0  0  0  0  0
   -3.7849    3.2609    1.1547 H   0  0  0  0  0  0  0  0  0  0  0  0
   -2.7623    3.1252   -0.2601 H   0  0  0  0  0  0  0  0  0  0  0  0
   -4.4546    3.5944   -0.4570 H   0  0  0  0  0  0  0  0  0  0  0  0
   13.5332   -0.6941    0.7911 H   0  0  0  0  0  0  0  0  0  0  0  0
   -5.8481   -4.2017    0.7856 H   0  0  0  0  0  0  0  0  0  0  0  0
   -5.8045   -2.7991    1.8634 H   0  0  0  0  0  0  0  0  0  0  0  0
   -4.3508   -3.2676    0.9206 H   0  0  0  0  0  0  0  0  0  0  0  0
   -8.3474    0.8739   -0.0634 H   0  0  0  0  0  0  0  0  0  0  0  0
   -8.3098   -0.8496   -0.5628 H   0  0  0  0  0  0  0  0  0  0  0  0
   -9.2735   -0.3403    0.8312 H   0  0  0  0  0  0  0  0  0  0  0  0
  1 20  1  0  0  0  0
  1 54  1  0  0  0  0
  2 22  1  0  0  0  0
  2 25  1  0  0  0  0
  3 19  2  0  0  0  0
  4 24  1  0  0  0  0
  4 26  1  0  0  0  0
  5 21  2  0  0  0  0
  6  7  1  0  0  0  0
  6  8  1  0  0  0  0
  6 27  1  0  0  0  0
  6 28  1  0  0  0  0
  7  9  1  0  0  0  0
  7 29  1  0  0  0  0
  7 30  1  0  0  0  0
  8 10  1  0  0  0  0
  8 31  1  0  0  0  0
  8 32  1  0  0  0  0
  9 11  1  0  0  0  0
  9 33  1  0  0  0  0
  9 34  1  0  0  0  0
 10 12  1  0  0  0  0
 10 35  1  0  0  0  0
 10 36  1  0  0  0  0
 11 13  1  0  0  0  0
 11 37  1  0  0  0  0
 11 38  1  0  0  0  0
 12 14  1  0  0  0  0
 12 39  1  0  0  0  0
 12 40  1  0  0  0  0
 13 15  1  0  0  0  0
 13 41  1  0  0  0  0
 13 42  1  0  0  0  0
 14 16  1  0  0  0  0
 14 43  1  0  0  0  0
 14 44  1  0  0  0  0
 15 17  1  0  0  0  0
 15 45  1  0  0  0  0
 15 46  1  0  0  0  0
 16 18  2  0  0  0  0
 16 19  1  0  0  0  0
 17 20  1  0  0  0  0
 17 47  1  0  0  0  0
 17 48  1  0  0  0  0
 18 21  1  0  0  0  0
 18 23  1  0  0  0  0
 19 22  1  0  0  0  0
 20 49  1  0  0  0  0
 20 50  1  0  0  0  0
 21 24  1  0  0  0  0
 22 24  2  0  0  0  0
 23 51  1  0  0  0  0
 23 52  1  0  0  0  0
 23 53  1  0  0  0  0
 25 55  1  0  0  0  0
 25 56  1  0  0  0  0
 25 57  1  0  0  0  0
 26 58  1  0  0  0  0
 26 59  1  0  0  0  0
 26 60  1  0  0  0  0
M  END
> <DATABASE_ID>
DB09081

> <DATABASE_NAME>
drugbank

> <ORIGINAL_SOURCE>
PUBCHEM

> <ORIGINAL_SOURCE_URL>
https://pubchem.ncbi.nlm.nih.gov/rest/pug/compound/inchikey/VMHWZDULLBLUMS-UHFFFAOYSA-N/SDF?record_type=3d

> <SMILES>
COC1=C(OC)C(=O)C(CCCCCCCCCCCCO)=C(C)C1=O

> <INCHI_IDENTIFIER>
InChI=1S/C21H34O5/c1-16-17(19(24)21(26-3)20(25-2)18(16)23)14-12-10-8-6-4-5-7-9-11-13-15-22/h22H,4-15H2,1-3H3

> <INCHI_KEY>
VMHWZDULLBLUMS-UHFFFAOYSA-N

> <FORMULA>
C21H34O5

> <MOLECULAR_WEIGHT>
366.498

> <EXACT_MASS>
366.240624195

> <JCHEM_ACCEPTOR_COUNT>
5

> <JCHEM_ATOM_COUNT>
60

> <JCHEM_AVERAGE_POLARIZABILITY>
43.870871925653496

> <JCHEM_BIOAVAILABILITY>
1

> <JCHEM_DONOR_COUNT>
1

> <JCHEM_FORMAL_CHARGE>
0

> <JCHEM_GHOSE_FILTER>
1

> <JCHEM_IUPAC>
2-(12-hydroxydodecyl)-5,6-dimethoxy-3-methylcyclohexa-2,5-diene-1,4-dione

> <ALOGPS_LOGP>
4.50

> <JCHEM_LOGP>
4.457130904333333

> <ALOGPS_LOGS>
-4.69

> <JCHEM_MDDR_LIKE_RULE>
0

> <JCHEM_NUMBER_OF_RINGS>
1

> <JCHEM_PHYSIOLOGICAL_CHARGE>
0

> <JCHEM_PKA_STRONGEST_ACIDIC>
16.84394282199214

> <JCHEM_PKA_STRONGEST_BASIC>
-1.9914450153462844

> <JCHEM_POLAR_SURFACE_AREA>
72.83000000000001

> <JCHEM_REFRACTIVITY>
105.71989999999995

> <JCHEM_ROTATABLE_BOND_COUNT>
14

> <JCHEM_RULE_OF_FIVE>
1

> <ALOGPS_SOLUBILITY>
7.47e-03 g/l

> <JCHEM_TRADITIONAL_IUPAC>
2-(12-hydroxydodecyl)-5,6-dimethoxy-3-methylcyclohexa-2,5-diene-1,4-dione

> <JCHEM_VEBER_RULE>
0

> <DRUGBANK_ID>
DB09081

> <DRUG_GROUPS>
approved; investigational

> <GENERIC_NAME>
Idebenone

> <SYNONYMS>
2-(10-hydroxydecyl)-5,6-dimethoxy-3-methyl-1,4-benzoquinone; 2-(10-hydroxydecyl)-5,6-dimethoxy-3-methyl-p-benzoquinone; 2-(10-hydroxydecyl)-5,6-dimethoxy-3-methylcyclohexa-2,5-diene-1,4-dione; 2,3-dimethoxy-5-methyl-6-(10'-hydroxydecyl)-1,4-benzoquinone; 6-(10-hydroxydecyl)-2,3-dimethoxy-5-methyl-1,4-benzoquinone; 6-(10-hydroxydecyl)-2,3-dimethoxy-5-methyl-p-benzoquinone; idebenona; idébénone; Idebenone

> <PRODUCTS>
Catena; Raxone

$$$$
