REMARK  Name = 24821094
REMARK  5 active torsions:
REMARK  status: ('A' for Active; 'I' for Inactive)
REMARK    1  A    between atoms: N_1  and  C_12
REMARK    2  A    between atoms: C_7  and  C_20
REMARK    3  A    between atoms: C_17  and  C_18
REMARK    4  A    between atoms: C_25  and  O_26
REMARK    5  A    between atoms: O_26  and  C_27
REMARK                            x       y       z     vdW  Elec       q    Type
REMARK                         _______ _______ _______ _____ _____    ______ ____
ROOT
ATOM      1  N   UNL     1      -2.093   0.460   0.516  0.00  0.00    -0.198 N 
ATOM      2  N   UNL     1      -1.074  -0.399   0.329  0.00  0.00    -0.181 NA
ATOM      3  N   UNL     1      -2.542   2.838   0.475  0.00  0.00    -0.231 NA
ATOM      4  N   UNL     1      -0.544   4.124  -0.076  0.00  0.00    -0.234 NA
ATOM      5  C   UNL     1      -1.743   1.767   0.353  0.00  0.00    +0.137 C 
ATOM      6  C   UNL     1      -0.396   1.764   0.035  0.00  0.00    +0.150 C 
ATOM      7  C   UNL     1      -0.043   0.402   0.036  0.00  0.00    +0.090 C 
ATOM      8  C   UNL     1       0.204   3.000  -0.183  0.00  0.00    +0.112 C 
ATOM      9  C   UNL     1      -1.852   3.976   0.242  0.00  0.00    +0.252 C 
ATOM     10  N   UNL     1       1.568   3.101  -0.513  0.00  0.00    -0.346 N 
ATOM     11  H   UNL     1       1.973   3.986  -0.664  0.00  0.00    +0.143 HD
ATOM     12  H   UNL     1       2.117   2.288  -0.594  0.00  0.00    +0.143 HD
ENDROOT
BRANCH   1  15
ATOM     13  O   UNL     1      -7.660  -1.706  -0.189  0.00  0.00    -0.270 OA
ATOM     14  N   UNL     1      -5.373  -1.467   0.158  0.00  0.00    -0.274 N 
ATOM     15  C   UNL     1      -3.466  -0.077   0.874  0.00  0.00    +0.117 C 
ATOM     16  C   UNL     1      -3.457  -0.819   2.225  0.00  0.00    +0.025 C 
ATOM     17  C   UNL     1      -4.040  -0.982  -0.230  0.00  0.00    +0.115 C 
ATOM     18  C   UNL     1      -4.843  -1.379   2.555  0.00  0.00    +0.023 C 
ATOM     19  C   UNL     1      -5.389  -2.228   1.409  0.00  0.00    +0.094 C 
ATOM     20  C   UNL     1      -6.561  -1.276  -0.542  0.00  0.00    +0.249 C 
BRANCH  20  21
ATOM     21  C   UNL     1      -6.503  -0.497  -1.795  0.00  0.00    +0.058 C 
ATOM     22  C   UNL     1      -7.376  -0.772  -2.766  0.00  0.00    +0.005 C 
ENDBRANCH  20  21
ENDBRANCH   1  15
BRANCH   7  23
ATOM     23  C   UNL     1       1.253  -0.168  -0.235  0.00  0.00    +0.016 C 
ATOM     24  C   UNL     1       2.156  -0.372   0.808  0.00  0.00    +0.004 C 
ATOM     25  C   UNL     1       1.603  -0.517  -1.539  0.00  0.00    +0.004 C 
ATOM     26  C   UNL     1       3.410  -0.924   0.546  0.00  0.00    +0.038 C 
ATOM     27  C   UNL     1       2.857  -1.070  -1.801  0.00  0.00    +0.038 C 
ATOM     28  C   UNL     1       3.760  -1.273  -0.758  0.00  0.00    +0.145 C 
BRANCH  28  29
ATOM     29  O   UNL     1       4.985  -1.809  -1.014  0.00  0.00    -0.453 OA
BRANCH  29  30
ATOM     30  C   UNL     1       6.085  -1.215  -0.419  0.00  0.00    +0.145 C 
ATOM     31  C   UNL     1       6.213   0.174  -0.420  0.00  0.00    +0.037 C 
ATOM     32  C   UNL     1       7.066  -2.005   0.181  0.00  0.00    +0.037 C 
ATOM     33  C   UNL     1       7.322   0.773   0.179  0.00  0.00    +0.003 C 
ATOM     34  C   UNL     1       8.174  -1.407   0.780  0.00  0.00    +0.003 C 
ATOM     35  C   UNL     1       8.302  -0.018   0.778  0.00  0.00    +0.000 C 
ENDBRANCH  29  30
ENDBRANCH  28  29
ENDBRANCH   7  23
TORSDOF 5
