REMARK  Name = 71653
REMARK  2 active torsions:
REMARK  status: ('A' for Active; 'I' for Inactive)
REMARK    1  A    between atoms: N_1  and  N_14
REMARK    2  A    between atoms: C_5  and  C_11
REMARK                            x       y       z     vdW  Elec       q    Type
REMARK                         _______ _______ _______ _____ _____    ______ ____
ROOT
ATOM      1  N   UNL     1      -3.033  -0.436   0.078  0.00  0.00    -0.266 N 
ATOM      2  N   UNL     1      -0.834  -1.357   0.018  0.00  0.00    -0.132 NA
ATOM      3  N   UNL     1       0.516  -1.194  -0.006  0.00  0.00    -0.142 NA
ATOM      4  C   UNL     1      -1.629  -0.267   0.053  0.00  0.00    +0.163 C 
ATOM      5  C   UNL     1       1.027   0.056   0.004  0.00  0.00    +0.156 C 
ATOM      6  C   UNL     1      -1.134   1.022   0.064  0.00  0.00    +0.039 C 
ATOM      7  C   UNL     1       0.239   1.189   0.040  0.00  0.00    +0.029 C 
ATOM      8  H   UNL     1      -3.405  -1.326   0.277  0.00  0.00    +0.168 HD
ENDROOT
BRANCH   5  11
ATOM      9  O   UNL     1       3.054   1.256  -0.001  0.00  0.00    -0.269 OA
ATOM     10  N   UNL     1       3.207  -1.031  -0.059  0.00  0.00    -0.324 N 
ATOM     11  C   UNL     1       2.475   0.154  -0.024  0.00  0.00    +0.262 C 
ATOM     12  H   UNL     1       4.191  -1.001  -0.079  0.00  0.00    +0.145 HD
ATOM     13  H   UNL     1       2.740  -1.898  -0.063  0.00  0.00    +0.145 HD
ENDBRANCH   5  11
BRANCH   1  14
ATOM     14  N   UNL     1      -3.889   0.609  -0.168  0.00  0.00    -0.255 NA
ATOM     15  H   UNL     1      -3.349   1.454  -0.355  0.00  0.00    +0.140 HD
ATOM     16  H   UNL     1      -4.484   0.759   0.647  0.00  0.00    +0.140 HD
ENDBRANCH   1  14
TORSDOF 2
