REMARK  Name = 9330
REMARK  10 active torsions:
REMARK  status: ('A' for Active; 'I' for Inactive)
REMARK    1  A    between atoms: C_1  and  C_2
REMARK    2  A    between atoms: C_1  and  C_8
REMARK    3  A    between atoms: C_1  and  O_14
REMARK    4  A    between atoms: C_1  and  C_17
REMARK    5  A    between atoms: C_17  and  O_18
REMARK    6  A    between atoms: O_18  and  C_19
REMARK    7  A    between atoms: C_19  and  C_20
REMARK    8  A    between atoms: C_20  and  N_21
REMARK    9  A    between atoms: N_21  and  C_23
REMARK   10  A    between atoms: N_21  and  C_25
REMARK                            x       y       z     vdW  Elec       q    Type
REMARK                         _______ _______ _______ _____ _____    ______ ____
ROOT
ATOM      1  C   UNL     1       1.349   0.162   0.568  0.00  0.00    +0.216 C 
ENDROOT
BRANCH   1   2
ATOM      2  C   UNL     1       1.319  -1.292   0.091  0.00  0.00    +0.016 C 
ATOM      3  C   UNL     1       1.763  -2.275   0.946  0.00  0.00    -0.001 C 
ATOM      4  C   UNL     1       0.849  -1.561  -1.174  0.00  0.00    -0.001 C 
ATOM      5  C   UNL     1       1.735  -3.600   0.511  0.00  0.00    -0.000 C 
ATOM      6  C   UNL     1       0.821  -2.887  -1.608  0.00  0.00    -0.000 C 
ATOM      7  C   UNL     1       1.264  -3.906  -0.765  0.00  0.00    -0.000 C 
ENDBRANCH   1   2
BRANCH   1   8
ATOM      8  C   UNL     1       2.684   0.824   0.215  0.00  0.00    +0.016 C 
ATOM      9  C   UNL     1       3.050   0.903  -1.108  0.00  0.00    -0.001 C 
ATOM     10  C   UNL     1       3.465   1.314   1.236  0.00  0.00    -0.001 C 
ATOM     11  C   UNL     1       4.266   1.507  -1.430  0.00  0.00    -0.000 C 
ATOM     12  C   UNL     1       4.681   1.918   0.915  0.00  0.00    -0.000 C 
ATOM     13  C   UNL     1       5.081   2.014  -0.418  0.00  0.00    -0.000 C 
ENDBRANCH   1   8
BRANCH   1  14
ATOM     14  O   UNL     1       1.129   0.209   1.992  0.00  0.00    -0.370 OA
ATOM     15  H   UNL     1       1.844  -0.265   2.446  0.00  0.00    +0.212 HD
ENDBRANCH   1  14
BRANCH   1  17
ATOM     16  O   UNL     1       0.160   2.029  -0.475  0.00  0.00    -0.247 OA
ATOM     17  C   UNL     1       0.122   0.957   0.116  0.00  0.00    +0.349 C 
BRANCH  17  18
ATOM     18  O   UNL     1      -1.036   0.287   0.431  0.00  0.00    -0.449 OA
BRANCH  18  19
ATOM     19  C   UNL     1      -2.248   0.910   0.027  0.00  0.00    +0.186 C 
BRANCH  19  20
ATOM     20  C   UNL     1      -3.415   0.034   0.455  0.00  0.00    -0.029 C 
BRANCH  20  21
ATOM     21  N   UNL     1      -4.687   0.647   0.075  0.00  0.00    +0.389 N 
ATOM     22  H   UNL     1      -4.755   1.559   0.527  0.00  0.00    -0.080 HD
BRANCH  21  23
ATOM     23  C   UNL     1      -4.747   0.843  -1.373  0.00  0.00    -0.077 C 
ATOM     24  C   UNL     1      -6.037   1.535  -1.780  0.00  0.00    -0.025 C 
ENDBRANCH  21  23
BRANCH  21  25
ATOM     25  C   UNL     1      -5.807  -0.179   0.526  0.00  0.00    -0.077 C 
ATOM     26  C   UNL     1      -5.760  -0.393   2.029  0.00  0.00    -0.025 C 
ENDBRANCH  21  25
ENDBRANCH  20  21
ENDBRANCH  19  20
ENDBRANCH  18  19
ENDBRANCH  17  18
ENDBRANCH   1  17
TORSDOF 10
