REMARK  Name = 29083
REMARK  2 active torsions:
REMARK  status: ('A' for Active; 'I' for Inactive)
REMARK    1  A    between atoms: N_3  and  C_12
REMARK    2  A    between atoms: C_12  and  C_15
REMARK                            x       y       z     vdW  Elec       q    Type
REMARK                         _______ _______ _______ _____ _____    ______ ____
ROOT
ATOM      1  O   UNL     1       0.644  -1.620   0.132  0.00  0.00    -0.410 OA
ATOM      2  O   UNL     1      -1.468  -2.331  -0.307  0.00  0.00    -0.226 OA
ATOM      3  N   UNL     1      -1.037  -0.055  -0.523  0.00  0.00    -0.233 N 
ATOM      4  C   UNL     1      -0.164   1.080  -0.245  0.00  0.00    +0.127 C 
ATOM      5  C   UNL     1       1.272   0.710  -0.110  0.00  0.00    +0.033 C 
ATOM      6  C   UNL     1       1.625  -0.616   0.096  0.00  0.00    +0.148 C 
ATOM      7  C   UNL     1      -0.691  -1.379  -0.240  0.00  0.00    +0.410 C 
ATOM      8  C   UNL     1       2.280   1.678  -0.127  0.00  0.00    +0.000 C 
ATOM      9  C   UNL     1       2.952  -1.003   0.277  0.00  0.00    +0.037 C 
ATOM     10  C   UNL     1       3.616   1.307   0.047  0.00  0.00    -0.000 C 
ATOM     11  C   UNL     1       3.951  -0.033   0.248  0.00  0.00    +0.003 C 
ENDROOT
BRANCH   3  12
ATOM     12  C   UNL     1      -2.397   0.266  -0.933  0.00  0.00    +0.182 C 
BRANCH  12  15
ATOM     13  O   UNL     1      -3.055   0.037   1.386  0.00  0.00    -0.273 OA
ATOM     14  N   UNL     1      -4.286   1.409   0.012  0.00  0.00    -0.327 N 
ATOM     15  C   UNL     1      -3.244   0.550   0.286  0.00  0.00    +0.240 C 
ATOM     16  H   UNL     1      -4.910   1.671   0.728  0.00  0.00    +0.145 HD
ATOM     17  H   UNL     1      -4.407   1.762  -0.899  0.00  0.00    +0.145 HD
ENDBRANCH  12  15
ENDBRANCH   3  12
TORSDOF 2
