REMARK  Name = 6433090
REMARK  6 active torsions:
REMARK  status: ('A' for Active; 'I' for Inactive)
REMARK    1  A    between atoms: C_1  and  C_2
REMARK    2  A    between atoms: C_1  and  C_8
REMARK    3  A    between atoms: C_1  and  C_16
REMARK    4  A    between atoms: C_1  and  C_19
REMARK    5  A    between atoms: C_19  and  C_20
REMARK    6  A    between atoms: C_20  and  N_21
REMARK                            x       y       z     vdW  Elec       q    Type
REMARK                         _______ _______ _______ _____ _____    ______ ____
ROOT
ATOM      1  C   UNL     1       0.680  -0.132  -0.383  0.00  0.00    +0.108 C 
ENDROOT
BRANCH   1   2
ATOM      2  C   UNL     1       1.200   1.287  -0.019  0.00  0.00    -0.011 C 
ATOM      3  C   UNL     1       2.038   1.901  -0.903  0.00  0.00    -0.004 C 
ATOM      4  C   UNL     1       0.787   1.830   1.162  0.00  0.00    -0.004 C 
ATOM      5  C   UNL     1       2.505   3.174  -0.577  0.00  0.00    -0.000 C 
ATOM      6  C   UNL     1       1.254   3.104   1.489  0.00  0.00    -0.000 C 
ATOM      7  C   UNL     1       2.113   3.776   0.619  0.00  0.00    -0.000 C 
ENDBRANCH   1   2
BRANCH   1   8
ATOM      8  C   UNL     1       1.702  -1.151   0.201  0.00  0.00    -0.011 C 
ATOM      9  C   UNL     1       2.990  -1.077  -0.241  0.00  0.00    -0.004 C 
ATOM     10  C   UNL     1       1.244  -2.052   1.116  0.00  0.00    -0.004 C 
ATOM     11  C   UNL     1       3.906  -1.990   0.282  0.00  0.00    -0.000 C 
ATOM     12  C   UNL     1       2.160  -2.964   1.639  0.00  0.00    -0.000 C 
ATOM     13  C   UNL     1       3.491  -2.933   1.222  0.00  0.00    -0.000 C 
ENDBRANCH   1   8
BRANCH   1  16
ATOM     14  O   UNL     1       0.203   0.606  -2.690  0.00  0.00    -0.275 OA
ATOM     15  N   UNL     1       0.716  -1.596  -2.390  0.00  0.00    -0.328 N 
ATOM     16  C   UNL     1       0.531  -0.306  -1.931  0.00  0.00    +0.226 C 
ATOM     17  H   UNL     1       0.640  -1.791  -3.352  0.00  0.00    +0.145 HD
ATOM     18  H   UNL     1       0.924  -2.319  -1.756  0.00  0.00    +0.145 HD
ENDBRANCH   1  16
BRANCH   1  19
ATOM     19  C   UNL     1      -0.774  -0.421   0.166  0.00  0.00    +0.039 C 
BRANCH  19  20
ATOM     20  C   UNL     1      -1.861   0.558  -0.315  0.00  0.00    +0.098 C 
BRANCH  20  21
ATOM     21  N   UNL     1      -3.175   0.216   0.229  0.00  0.00    -0.273 N 
ATOM     22  N   UNL     1      -5.168  -0.706   0.405  0.00  0.00    -0.232 NA
ATOM     23  C   UNL     1      -4.088  -0.610  -0.339  0.00  0.00    +0.113 C 
ATOM     24  C   UNL     1      -3.678   0.683   1.398  0.00  0.00    +0.087 C 
ATOM     25  C   UNL     1      -4.919   0.098   1.489  0.00  0.00    +0.116 C 
ATOM     26  C   UNL     1      -3.858  -1.294  -1.628  0.00  0.00    +0.069 C 
ENDBRANCH  20  21
ENDBRANCH  19  20
ENDBRANCH   1  19
TORSDOF 6
