636363
  -OEChem-10051722293D

  8  7  0     0  0  0  0  0  0999 V2000
   -1.3042   -0.0008    0.0001 O   0  0  0  0  0  0  0  0  0  0  0  0
    0.6903   -1.1479    0.0001 N   0  0  0  0  0  0  0  0  0  0  0  0
    0.6888    1.1489    0.0001 N   0  0  0  0  0  0  0  0  0  0  0  0
   -0.0749   -0.0001   -0.0003 C   1  0  0  0  0  0  0  0  0  0  0  0
    1.7041   -1.1111   -0.0002 H   0  0  0  0  0  0  0  0  0  0  0  0
    0.2605   -2.0669    0.0001 H   0  0  0  0  0  0  0  0  0  0  0  0
    0.2578    2.0672    0.0002 H   0  0  0  0  0  0  0  0  0  0  0  0
    1.7026    1.1134    0.0000 H   0  0  0  0  0  0  0  0  0  0  0  0
  1  4  2  0  0  0  0
  2  4  1  0  0  0  0
  2  5  1  0  0  0  0
  2  6  1  0  0  0  0
  3  4  1  0  0  0  0
  3  7  1  0  0  0  0
  3  8  1  0  0  0  0
M  ISO  1   4  13
M  END
> <DATABASE_ID>
DB09510

> <DATABASE_NAME>
drugbank

> <ORIGINAL_SOURCE>
PUBCHEM

> <ORIGINAL_SOURCE_URL>
https://pubchem.ncbi.nlm.nih.gov/rest/pug/compound/inchikey/XSQUKJJJFZCRTK-OUBTZVSYSA-N/SDF?record_type=3d

> <SMILES>
N[13C](O)=N

> <INCHI_IDENTIFIER>
InChI=1S/CH4N2O/c2-1(3)4/h(H4,2,3,4)/i1+1

> <INCHI_KEY>
XSQUKJJJFZCRTK-OUBTZVSYSA-N

> <FORMULA>
CH4N2O

> <MOLECULAR_WEIGHT>
61.048

> <EXACT_MASS>
61.035717592

> <JCHEM_ACCEPTOR_COUNT>
3

> <JCHEM_ATOM_COUNT>
8

> <JCHEM_AVERAGE_POLARIZABILITY>
5.128127305537371

> <JCHEM_BIOAVAILABILITY>
1

> <JCHEM_DONOR_COUNT>
3

> <JCHEM_FORMAL_CHARGE>
0

> <JCHEM_GHOSE_FILTER>
0

> <JCHEM_IUPAC>
(13C)carbamimidic acid

> <ALOGPS_LOGP>
-1.50

> <JCHEM_LOGP>
-2.1319894966808257

> <ALOGPS_LOGS>
-0.71

> <JCHEM_MDDR_LIKE_RULE>
0

> <JCHEM_NUMBER_OF_RINGS>
0

> <JCHEM_PHYSIOLOGICAL_CHARGE>
0

> <JCHEM_PKA_STRONGEST_ACIDIC>
0.5521526267772052

> <JCHEM_PKA_STRONGEST_BASIC>
15.000000000727663

> <JCHEM_POLAR_SURFACE_AREA>
70.10000000000001

> <JCHEM_REFRACTIVITY>
24.2013

> <JCHEM_ROTATABLE_BOND_COUNT>
0

> <JCHEM_RULE_OF_FIVE>
1

> <ALOGPS_SOLUBILITY>
1.18e+01 g/l

> <JCHEM_TRADITIONAL_IUPAC>
(13C)carbamimidic acid

> <JCHEM_VEBER_RULE>
0

> <DRUGBANK_ID>
DB09510

> <DRUG_GROUPS>
approved

> <GENERIC_NAME>
Urea C-13

> <SYNONYMS>
(13C)urea; 13C-urea; Carbon 13 urea; Carbon-13 urea; Urea (13C); Urea 13 C; Urea C 13; Urea-13C; Urea, C-13

> <PRODUCTS>
Helicobacter Test Infai; Helicobacter Test Infai for Children Of The Age 3-11; IDkit HP ONE; Pranactin-Citric; Pylobactell

$$$$
