REMARK  Name = 68861
REMARK  3 active torsions:
REMARK  status: ('A' for Active; 'I' for Inactive)
REMARK    1  A    between atoms: C_4  and  O_20
REMARK    2  A    between atoms: C_4  and  C_22
REMARK    3  A    between atoms: C_22  and  C_24
REMARK                            x       y       z     vdW  Elec       q    Type
REMARK                         _______ _______ _______ _____ _____    ______ ____
ROOT
ATOM      1  O   UNL     1       5.859  -1.416  -1.102  0.00  0.00    -0.291 OA
ATOM      2  C   UNL     1      -1.927   0.299   0.889  0.00  0.00    +0.024 C 
ATOM      3  C   UNL     1      -1.083   0.781  -0.310  0.00  0.00    +0.006 C 
ATOM      4  C   UNL     1      -3.254  -0.094   0.169  0.00  0.00    +0.102 C 
ATOM      5  C   UNL     1       0.286   1.351   0.090  0.00  0.00    +0.018 C 
ATOM      6  C   UNL     1      -2.044   1.681  -1.082  0.00  0.00    +0.003 C 
ATOM      7  C   UNL     1      -1.142  -0.833   1.574  0.00  0.00    +0.007 C 
ATOM      8  C   UNL     1      -3.426   1.026  -0.892  0.00  0.00    +0.028 C 
ATOM      9  C   UNL     1       1.066   0.282   0.881  0.00  0.00    -0.049 C 
ATOM     10  C   UNL     1       0.267  -0.377   2.001  0.00  0.00    +0.022 C 
ATOM     11  C   UNL     1      -2.216   1.417   1.933  0.00  0.00    +0.002 C 
ATOM     12  C   UNL     1       1.032   1.863  -1.155  0.00  0.00    +0.009 C 
ATOM     13  C   UNL     1       2.363  -0.005   0.603  0.00  0.00    -0.033 C 
ATOM     14  C   UNL     1       2.511   2.052  -0.860  0.00  0.00    +0.026 C 
ATOM     15  C   UNL     1       3.103   0.737  -0.427  0.00  0.00    -0.024 C 
ATOM     16  C   UNL     1       3.213  -1.028   1.326  0.00  0.00    +0.034 C 
ATOM     17  C   UNL     1       4.249   0.295  -0.970  0.00  0.00    +0.033 C 
ATOM     18  C   UNL     1       4.012  -1.887   0.353  0.00  0.00    +0.074 C 
ATOM     19  C   UNL     1       4.809  -1.027  -0.596  0.00  0.00    +0.173 C 
ENDROOT
BRANCH   4  20
ATOM     20  O   UNL     1      -4.368  -0.066   1.059  0.00  0.00    -0.386 OA
ATOM     21  H   UNL     1      -4.401   0.793   1.508  0.00  0.00    +0.210 HD
ENDBRANCH   4  20
BRANCH   4  22
ATOM     22  C   UNL     1      -3.264  -1.473  -0.503  0.00  0.00    +0.132 C 
BRANCH  22  24
ATOM     23  N   UNL     1      -5.522  -1.884  -1.772  0.00  0.00    -0.196 NA
ATOM     24  C   UNL     1      -4.525  -1.696  -1.208  0.00  0.00    +0.076 C 
ENDBRANCH  22  24
ENDBRANCH   4  22
TORSDOF 3
