REMARK  Name = 56640146
REMARK  6 active torsions:
REMARK  status: ('A' for Active; 'I' for Inactive)
REMARK    1  A    between atoms: C_1  and  C_32
REMARK    2  A    between atoms: C_2  and  O_36
REMARK    3  A    between atoms: C_3  and  C_7
REMARK    4  A    between atoms: C_5  and  N_25
REMARK    5  A    between atoms: C_15  and  N_17
REMARK    6  A    between atoms: N_17  and  S_19
REMARK                            x       y       z     vdW  Elec       q    Type
REMARK                         _______ _______ _______ _____ _____    ______ ____
ROOT
ATOM      1  C   UNL     1      -2.821  -2.116   0.070  0.00  0.00    +0.012 C 
ATOM      2  C   UNL     1      -1.450  -1.923  -0.096  0.00  0.00    +0.135 C 
ATOM      3  C   UNL     1      -0.932  -0.630  -0.180  0.00  0.00    +0.035 C 
ATOM      4  C   UNL     1      -3.676  -1.017   0.150  0.00  0.00    +0.014 C 
ATOM      5  C   UNL     1      -3.159   0.276   0.065  0.00  0.00    +0.059 C 
ATOM      6  C   UNL     1      -1.787   0.469  -0.100  0.00  0.00    +0.018 C 
ENDROOT
BRANCH   3   7
ATOM      7  C   UNL     1       0.487  -0.407  -0.351  0.00  0.00    +0.003 C 
ATOM      8  C   UNL     1       1.387  -0.876   0.605  0.00  0.00    +0.000 C 
ATOM      9  C   UNL     1       2.768  -0.666   0.453  0.00  0.00    +0.000 C 
ATOM     10  C   UNL     1       0.952   0.277  -1.471  0.00  0.00    +0.000 C 
ATOM     11  C   UNL     1       3.241   0.029  -0.685  0.00  0.00    +0.001 C 
ATOM     12  C   UNL     1       2.320   0.494  -1.638  0.00  0.00    +0.000 C 
ATOM     13  C   UNL     1       3.689  -1.132   1.406  0.00  0.00    +0.001 C 
ATOM     14  C   UNL     1       4.622   0.238  -0.837  0.00  0.00    +0.016 C 
ATOM     15  C   UNL     1       5.522  -0.231   0.120  0.00  0.00    +0.064 C 
ATOM     16  C   UNL     1       5.057  -0.915   1.239  0.00  0.00    +0.016 C 
BRANCH  15  17
ATOM     17  N   UNL     1       6.922  -0.009  -0.049  0.00  0.00    -0.219 N 
ATOM     18  H   UNL     1       7.530  -0.753  -0.264  0.00  0.00    +0.173 HD
BRANCH  17  19
ATOM     19  S   UNL     1       7.519   1.597   0.133  0.00  0.00    +0.056 S 
ATOM     20  O   UNL     1       8.893   1.631  -0.331  0.00  0.00    -0.154 OA
ATOM     21  O   UNL     1       6.555   2.566  -0.348  0.00  0.00    -0.154 OA
ATOM     22  C   UNL     1       7.571   1.713   1.907  0.00  0.00    +0.200 C 
ENDBRANCH  17  19
ENDBRANCH  15  17
ENDBRANCH   3   7
BRANCH   5  25
ATOM     23  O   UNL     1      -2.777   2.776  -1.317  0.00  0.00    -0.251 OA
ATOM     24  O   UNL     1      -6.595   4.583   0.469  0.00  0.00    -0.270 OA
ATOM     25  N   UNL     1      -4.047   1.419   0.149  0.00  0.00    -0.220 N 
ATOM     26  N   UNL     1      -4.640   3.666  -0.359  0.00  0.00    -0.235 N 
ATOM     27  C   UNL     1      -3.730   2.616  -0.549  0.00  0.00    +0.318 C 
ATOM     28  C   UNL     1      -5.222   1.350   0.891  0.00  0.00    +0.078 C 
ATOM     29  C   UNL     1      -6.089   2.354   1.026  0.00  0.00    +0.075 C 
ATOM     30  C   UNL     1      -5.817   3.639   0.365  0.00  0.00    +0.254 C 
ATOM     31  H   UNL     1      -4.415   4.522  -0.791  0.00  0.00    +0.159 HD
ENDBRANCH   5  25
BRANCH   1  32
ATOM     32  C   UNL     1      -3.394  -3.492   0.163  0.00  0.00    +0.022 C 
ATOM     33  C   UNL     1      -4.942  -3.447   0.345  0.00  0.00    +0.004 C 
ATOM     34  C   UNL     1      -3.146  -4.407  -1.081  0.00  0.00    +0.004 C 
ATOM     35  C   UNL     1      -2.799  -4.270   1.377  0.00  0.00    +0.004 C 
ENDBRANCH   1  32
BRANCH   2  36
ATOM     36  O   UNL     1      -0.622  -3.006  -0.173  0.00  0.00    -0.472 OA
ATOM     37  C   UNL     1       0.140  -3.150  -1.369  0.00  0.00    +0.252 C 
ENDBRANCH   2  36
TORSDOF 6
