598
  -OEChem-10051722023D

 13 12  0     0  0  0  0  0  0999 V2000
   -1.0534    0.1021    0.0185 S   0  0  0  0  0  0  0  0  0  0  0  0
    3.2874   -0.2487    0.0009 S   0  0  0  0  0  0  0  0  0  0  0  0
   -1.8861   -1.2779   -0.2301 O   0  0  0  0  0  0  0  0  0  0  0  0
   -1.2231    0.9647   -1.1359 O   0  0  0  0  0  0  0  0  0  0  0  0
   -1.3213    0.5727    1.3650 O   0  0  0  0  0  0  0  0  0  0  0  0
    0.5677   -0.5985   -0.0252 C   0  0  0  0  0  0  0  0  0  0  0  0
    1.6289    0.4856    0.0069 C   0  0  0  0  0  0  0  0  0  0  0  0
    0.6512   -1.2731    0.8335 H   0  0  0  0  0  0  0  0  0  0  0  0
    0.6399   -1.1826   -0.9494 H   0  0  0  0  0  0  0  0  0  0  0  0
    1.5267    1.1023    0.9057 H   0  0  0  0  0  0  0  0  0  0  0  0
    1.5393    1.1485   -0.8597 H   0  0  0  0  0  0  0  0  0  0  0  0
   -1.8315   -1.6483   -1.1425 H   0  0  0  0  0  0  0  0  0  0  0  0
    3.1858   -0.8527   -1.1923 H   0  0  0  0  0  0  0  0  0  0  0  0
  1  3  1  0  0  0  0
  1  4  2  0  0  0  0
  1  5  2  0  0  0  0
  1  6  1  0  0  0  0
  2  7  1  0  0  0  0
  2 13  1  0  0  0  0
  3 12  1  0  0  0  0
  6  7  1  0  0  0  0
  6  8  1  0  0  0  0
  6  9  1  0  0  0  0
  7 10  1  0  0  0  0
  7 11  1  0  0  0  0
M  END
> <DATABASE_ID>
DB09110

> <DATABASE_NAME>
drugbank

> <ORIGINAL_SOURCE>
PUBCHEM

> <ORIGINAL_SOURCE_URL>
https://pubchem.ncbi.nlm.nih.gov/rest/pug/compound/inchikey/ZNEWHQLOPFWXOF-UHFFFAOYSA-N/SDF?record_type=3d

> <SMILES>
OS(=O)(=O)CCS

> <INCHI_IDENTIFIER>
InChI=1S/C2H6O3S2/c3-7(4,5)2-1-6/h6H,1-2H2,(H,3,4,5)

> <INCHI_KEY>
ZNEWHQLOPFWXOF-UHFFFAOYSA-N

> <FORMULA>
C2H6O3S2

> <MOLECULAR_WEIGHT>
142.197

> <EXACT_MASS>
141.975835438

> <JCHEM_ACCEPTOR_COUNT>
3

> <JCHEM_AVERAGE_POLARIZABILITY>
12.536652175043326

> <JCHEM_BIOAVAILABILITY>
1

> <JCHEM_DONOR_COUNT>
2

> <JCHEM_FORMAL_CHARGE>
0

> <JCHEM_GHOSE_FILTER>
0

> <JCHEM_IUPAC>
2-sulfanylethane-1-sulfonic acid

> <ALOGPS_LOGP>
-1.53

> <JCHEM_LOGP>
-0.40282442733333357

> <ALOGPS_LOGS>
-1.05

> <JCHEM_MDDR_LIKE_RULE>
0

> <JCHEM_NUMBER_OF_RINGS>
0

> <JCHEM_PHYSIOLOGICAL_CHARGE>
-1

> <JCHEM_PKA>
10.11818943963675

> <JCHEM_PKA_STRONGEST_ACIDIC>
-1.1570374648504043

> <JCHEM_PKA_STRONGEST_BASIC>
-9.606739922099255

> <JCHEM_POLAR_SURFACE_AREA>
54.37

> <JCHEM_REFRACTIVITY>
29.130200000000002

> <JCHEM_ROTATABLE_BOND_COUNT>
2

> <JCHEM_RULE_OF_FIVE>
1

> <ALOGPS_SOLUBILITY>
1.27e+01 g/l

> <JCHEM_TRADITIONAL_IUPAC>
HS-CoM

> <JCHEM_VEBER_RULE>
0

> <DRUGBANK_ID>
DB09110

> <DRUG_GROUPS>
approved; investigational

> <GENERIC_NAME>
Coenzyme M

> <SYNONYMS>
2-Mercaptoethane; 2-Mercaptoethanesulfonate; 2-mercaptoethanesulfonic acid; 2-mercaptoethanesulphonic acid; 2-mercaptoethylsulfonate; 2-sulfanylethylsulfonate; Coenzima M; Coenzym M; CoM; HS-CoM; reduced coenzyme M; reduced CoM; Î²-mercaptoethanesulfonic acid

> <PRODUCTS>
IFEX and MESNEX; Ifosfamide and Mesna; Mesna; Mesna for Injection; Mesnex; Uromitexan; Uromitexan Inj 100mg/ml

> <SALTS>
Mesna

$$$$
