REMARK  Name = 6425761
REMARK  6 active torsions:
REMARK  status: ('A' for Active; 'I' for Inactive)
REMARK    1  A    between atoms: N_1  and  C_19
REMARK    2  A    between atoms: C_2  and  N_9
REMARK    3  A    between atoms: N_9  and  C_11
REMARK    4  A    between atoms: C_10  and  C_17
REMARK    5  A    between atoms: C_19  and  C_20
REMARK    6  A    between atoms: C_20  and  C_22
REMARK                            x       y       z     vdW  Elec       q    Type
REMARK                         _______ _______ _______ _____ _____    ______ ____
ROOT
ATOM      1  N   UNL     1       1.161  -0.114  -0.523  0.00  0.00    +0.387 N 
ATOM      2  C   UNL     1      -1.592  -1.046  -0.187  0.00  0.00    +0.076 C 
ATOM      3  C   UNL     1      -1.074  -0.493  -1.515  0.00  0.00    -0.003 C 
ATOM      4  C   UNL     1      -0.772  -0.484   0.975  0.00  0.00    -0.003 C 
ATOM      5  C   UNL     1       0.434  -0.706  -1.655  0.00  0.00    -0.076 C 
ATOM      6  C   UNL     1       0.726  -0.699   0.752  0.00  0.00    -0.076 C 
ATOM      7  H   UNL     1       0.949   0.884  -0.500  0.00  0.00    -0.080 HD
ENDROOT
BRANCH   2   9
ATOM      8  O   UNL     1      -3.788  -2.987   0.079  0.00  0.00    -0.275 OA
ATOM      9  N   UNL     1      -2.994  -0.756  -0.022  0.00  0.00    -0.260 N 
ATOM     10  C   UNL     1      -3.990  -1.770   0.099  0.00  0.00    +0.229 C 
BRANCH   9  11
ATOM     11  C   UNL     1      -3.415   0.643   0.023  0.00  0.00    +0.054 C 
ATOM     12  C   UNL     1      -3.455   1.251   1.242  0.00  0.00    +0.015 C 
ATOM     13  C   UNL     1      -3.740   1.243  -1.157  0.00  0.00    +0.015 C 
ATOM     14  C   UNL     1      -3.857   2.586   1.286  0.00  0.00    +0.001 C 
ATOM     15  C   UNL     1      -4.142   2.578  -1.113  0.00  0.00    +0.001 C 
ATOM     16  C   UNL     1      -4.201   3.249   0.108  0.00  0.00    +0.000 C 
ENDBRANCH   9  11
BRANCH  10  17
ATOM     17  C   UNL     1      -5.422  -1.256   0.219  0.00  0.00    +0.086 C 
ATOM     18  C   UNL     1      -6.441  -2.376   0.360  0.00  0.00    +0.010 C 
ENDBRANCH  10  17
ENDBRANCH   2   9
BRANCH   1  19
ATOM     19  C   UNL     1       2.604  -0.282  -0.697  0.00  0.00    -0.073 C 
BRANCH  19  20
ATOM     20  C   UNL     1       3.407   0.332   0.467  0.00  0.00    +0.002 C 
ATOM     21  C   UNL     1       3.119   1.826   0.666  0.00  0.00    +0.003 C 
BRANCH  20  22
ATOM     22  C   UNL     1       4.897   0.093   0.273  0.00  0.00    -0.025 C 
ATOM     23  C   UNL     1       5.440  -1.105   0.690  0.00  0.00    -0.004 C 
ATOM     24  C   UNL     1       5.661   1.081  -0.314  0.00  0.00    -0.004 C 
ATOM     25  C   UNL     1       6.806  -1.325   0.512  0.00  0.00    -0.000 C 
ATOM     26  C   UNL     1       7.027   0.861  -0.492  0.00  0.00    -0.000 C 
ATOM     27  C   UNL     1       7.600  -0.342  -0.079  0.00  0.00    -0.000 C 
ENDBRANCH  20  22
ENDBRANCH  19  20
ENDBRANCH   1  19
TORSDOF 6
