REMARK  Name = 5666
REMARK  5 active torsions:
REMARK  status: ('A' for Active; 'I' for Inactive)
REMARK    1  A    between atoms: O_1  and  C_2
REMARK    2  A    between atoms: O_1  and  C_11
REMARK    3  A    between atoms: C_3  and  O_8
REMARK    4  A    between atoms: O_8  and  C_9
REMARK    5  A    between atoms: C_11  and  C_14
REMARK                            x       y       z     vdW  Elec       q    Type
REMARK                         _______ _______ _______ _____ _____    ______ ____
ROOT
ATOM      1  O   UNL     1       0.232  -0.880   0.903  0.00  0.00    -0.470 OA
ENDROOT
BRANCH   1   2
ATOM      2  C   UNL     1       1.511  -0.786   0.415  0.00  0.00    +0.172 C 
ATOM      3  C   UNL     1       2.099   0.460   0.233  0.00  0.00    +0.172 C 
ATOM      4  C   UNL     1       2.204  -1.951   0.107  0.00  0.00    +0.040 C 
ATOM      5  C   UNL     1       3.400   0.542  -0.266  0.00  0.00    +0.040 C 
ATOM      6  C   UNL     1       3.504  -1.869  -0.391  0.00  0.00    +0.003 C 
ATOM      7  C   UNL     1       4.102  -0.623  -0.577  0.00  0.00    +0.003 C 
BRANCH   3   8
ATOM      8  O   UNL     1       1.424   1.604   0.533  0.00  0.00    -0.472 OA
BRANCH   8   9
ATOM      9  C   UNL     1       1.210   2.529  -0.531  0.00  0.00    +0.206 C 
ATOM     10  C   UNL     1       0.436   3.718  -0.002  0.00  0.00    +0.051 C 
ENDBRANCH   8   9
ENDBRANCH   3   8
ENDBRANCH   1   2
BRANCH   1  11
ATOM     11  C   UNL     1      -0.727  -1.516   0.077  0.00  0.00    +0.233 C 
BRANCH  11  14
ATOM     12  O   UNL     1      -2.020   0.491   0.087  0.00  0.00    -0.357 OA
ATOM     13  N   UNL     1      -4.469  -0.911  -0.275  0.00  0.00    +0.387 N 
ATOM     14  C   UNL     1      -2.095  -0.913   0.362  0.00  0.00    +0.138 C 
ATOM     15  C   UNL     1      -3.175  -1.555  -0.513  0.00  0.00    -0.048 C 
ATOM     16  C   UNL     1      -4.368   0.529  -0.514  0.00  0.00    -0.049 C 
ATOM     17  C   UNL     1      -3.269   1.132   0.351  0.00  0.00    +0.119 C 
ATOM     18  H   UNL     1      -4.753  -1.073   0.692  0.00  0.00    -0.084 HD
ATOM     19  H   UNL     1      -5.160  -1.308  -0.911  0.00  0.00    -0.084 HD
ENDBRANCH  11  14
ENDBRANCH   1  11
TORSDOF 5
