131204
  -OEChem-10051722313D

 33 32  0     1  0  0  0  0  0999 V2000
    1.1437   -2.2261   -0.4480 O   0  0  0  0  0  0  0  0  0  0  0  0
    3.2891    2.1521   -0.0770 O   0  0  0  0  0  0  0  0  0  0  0  0
   -0.2801   -1.1191    1.5659 O   0  0  0  0  0  0  0  0  0  0  0  0
   -5.0648   -0.2478   -1.0108 O   0  0  0  0  0  0  0  0  0  0  0  0
   -0.9940    0.5350    0.1038 N   0  0  0  0  0  0  0  0  0  0  0  0
    2.2639   -0.0675   -0.2554 C   0  0  0  0  0  0  0  0  0  0  0  0
    0.9239   -0.8193   -0.5106 C   0  0  2  0  0  0  0  0  0  0  0  0
    2.0633    1.4669   -0.3104 C   0  0  0  0  0  0  0  0  0  0  0  0
    3.2753   -0.4776   -1.3525 C   0  0  0  0  0  0  0  0  0  0  0  0
    2.8706   -0.4650    1.1051 C   0  0  0  0  0  0  0  0  0  0  0  0
   -0.1740   -0.5078    0.5043 C   0  0  0  0  0  0  0  0  0  0  0  0
   -2.0878    1.0294    0.9079 C   0  0  0  0  0  0  0  0  0  0  0  0
   -3.3980    0.3094    0.6165 C   0  0  0  0  0  0  0  0  0  0  0  0
   -3.8311    0.4371   -0.8390 C   0  0  0  0  0  0  0  0  0  0  0  0
    0.5553   -0.5996   -1.5196 H   0  0  0  0  0  0  0  0  0  0  0  0
    1.3495    1.8143    0.4427 H   0  0  0  0  0  0  0  0  0  0  0  0
    1.6907    1.7733   -1.2937 H   0  0  0  0  0  0  0  0  0  0  0  0
    3.4692   -1.5559   -1.3403 H   0  0  0  0  0  0  0  0  0  0  0  0
    4.2404    0.0242   -1.2201 H   0  0  0  0  0  0  0  0  0  0  0  0
    2.8993   -0.2170   -2.3483 H   0  0  0  0  0  0  0  0  0  0  0  0
    3.8520   -0.0019    1.2586 H   0  0  0  0  0  0  0  0  0  0  0  0
    3.0313   -1.5446    1.1881 H   0  0  0  0  0  0  0  0  0  0  0  0
    2.2311   -0.1516    1.9367 H   0  0  0  0  0  0  0  0  0  0  0  0
   -0.8291    0.9825   -0.7929 H   0  0  0  0  0  0  0  0  0  0  0  0
   -2.1856    2.0996    0.6973 H   0  0  0  0  0  0  0  0  0  0  0  0
   -1.8320    0.9170    1.9671 H   0  0  0  0  0  0  0  0  0  0  0  0
    1.3154   -2.4755    0.4750 H   0  0  0  0  0  0  0  0  0  0  0  0
   -3.3087   -0.7545    0.8701 H   0  0  0  0  0  0  0  0  0  0  0  0
   -4.1847    0.7070    1.2693 H   0  0  0  0  0  0  0  0  0  0  0  0
    3.4692    2.1206    0.8775 H   0  0  0  0  0  0  0  0  0  0  0  0
   -3.9689    1.4842   -1.1267 H   0  0  0  0  0  0  0  0  0  0  0  0
   -3.1024   -0.0164   -1.5170 H   0  0  0  0  0  0  0  0  0  0  0  0
   -5.7211    0.1799   -0.4345 H   0  0  0  0  0  0  0  0  0  0  0  0
  1  7  1  0  0  0  0
  1 27  1  0  0  0  0
  2  8  1  0  0  0  0
  2 30  1  0  0  0  0
  3 11  2  0  0  0  0
  4 14  1  0  0  0  0
  4 33  1  0  0  0  0
  5 11  1  0  0  0  0
  5 12  1  0  0  0  0
  5 24  1  0  0  0  0
  6  7  1  0  0  0  0
  6  8  1  0  0  0  0
  6  9  1  0  0  0  0
  6 10  1  0  0  0  0
  7 11  1  0  0  0  0
  7 15  1  0  0  0  0
  8 16  1  0  0  0  0
  8 17  1  0  0  0  0
  9 18  1  0  0  0  0
  9 19  1  0  0  0  0
  9 20  1  0  0  0  0
 10 21  1  0  0  0  0
 10 22  1  0  0  0  0
 10 23  1  0  0  0  0
 12 13  1  0  0  0  0
 12 25  1  0  0  0  0
 12 26  1  0  0  0  0
 13 14  1  0  0  0  0
 13 28  1  0  0  0  0
 13 29  1  0  0  0  0
 14 31  1  0  0  0  0
 14 32  1  0  0  0  0
M  END
> <DATABASE_ID>
DB09357

> <DATABASE_NAME>
drugbank

> <ORIGINAL_SOURCE>
PUBCHEM

> <ORIGINAL_SOURCE_URL>
https://pubchem.ncbi.nlm.nih.gov/rest/pug/compound/inchikey/SNPLKNRPJHDVJA-ZETCQYMHSA-N/SDF?record_type=3d

> <SMILES>
CC(C)(CO)[C@@H](O)C(=O)NCCCO

> <INCHI_IDENTIFIER>
InChI=1S/C9H19NO4/c1-9(2,6-12)7(13)8(14)10-4-3-5-11/h7,11-13H,3-6H2,1-2H3,(H,10,14)/t7-/m0/s1

> <INCHI_KEY>
SNPLKNRPJHDVJA-ZETCQYMHSA-N

> <FORMULA>
C9H19NO4

> <MOLECULAR_WEIGHT>
205.2515

> <EXACT_MASS>
205.131408101

> <JCHEM_ACCEPTOR_COUNT>
4

> <JCHEM_AVERAGE_POLARIZABILITY>
21.873264095639975

> <JCHEM_BIOAVAILABILITY>
1

> <JCHEM_DONOR_COUNT>
4

> <JCHEM_FORMAL_CHARGE>
0

> <JCHEM_GHOSE_FILTER>
0

> <JCHEM_IUPAC>
(2R)-2,4-dihydroxy-N-(3-hydroxypropyl)-3,3-dimethylbutanamide

> <ALOGPS_LOGP>
-1.00

> <JCHEM_LOGP>
-1.7005134243333335

> <ALOGPS_LOGS>
-0.23

> <JCHEM_MDDR_LIKE_RULE>
0

> <JCHEM_NUMBER_OF_RINGS>
0

> <JCHEM_PHYSIOLOGICAL_CHARGE>
0

> <JCHEM_PKA>
15.016110435805928

> <JCHEM_PKA_STRONGEST_ACIDIC>
12.685869948391623

> <JCHEM_PKA_STRONGEST_BASIC>
-2.390706370314997

> <JCHEM_POLAR_SURFACE_AREA>
89.79

> <JCHEM_REFRACTIVITY>
51.8848

> <JCHEM_ROTATABLE_BOND_COUNT>
6

> <JCHEM_RULE_OF_FIVE>
1

> <ALOGPS_SOLUBILITY>
1.21e+02 g/l

> <JCHEM_TRADITIONAL_IUPAC>
dexpanthenol

> <JCHEM_VEBER_RULE>
0

> <DRUGBANK_ID>
DB09357

> <DRUG_GROUPS>
approved

> <GENERIC_NAME>
Dexpanthenol

> <SYNONYMS>
(+)-Panthenol; (2R)-2,4-dihydroxy-N-(3-hydroxypropyl)-3,3-dimethylbutanamide; Bepanthen; Bepanthene; Bepantol; D-panthenol; D-panthenol 50; D-Pantothenol; D-Pantothenyl alcohol; D(+)-Panthenol; Dexpantenol; Dexpanthenol; Dexpanthenolum; Pantol; Pantothenyl alcohol; Provitamin B

> <PRODUCTS>
Adult Infuvite Multiple Vitamins; Alsimine W Vitamins A D; Aquasol A Cream; Atomy Herbal Hair Tonic; B Complex W C and B12 Inj; B Vitamin Compound With B12 Thunas; B-Combo; B-plex 100; Beminal Fortis Elx; Beminal W C Fortis Inj; Beminal With C Fortis Pws; Deriton; Dexpanthenol; Dynam Ampoule Et Tablet; Ellis Tonic; Eros Aqua Sensations and Care Woman; Fortaplex Inj; Geritol Liquid; HASOL Anagen Hair Tonic; HASOL Anagen Scalp; HASOL Anti Hair Loss; HASOL Vital For Hair-Loss Tonic; Infuvite Adult Multiple Vitamins; Lipovite; M.V.I. Adult; M.V.I. Pediatric; M.V.I.-12; Multi 12 Injection; Multi-12 Pediatric; Multi-12/k1 Pediatric; Multivit Et Fer Ampoules Et Comprimes; Mvc 9 Plus 3 Inj; Mvc 9+4 Inj; Ndm Scalp; Neo Bex Elixir; Neo-bex Injectable; Notamo Hair Tonic; Nrg Plus Liq; Pediatric Infuvite Multiple Vitamins; Pediatric Infuvite Multiple Vitamins for Infusion; Pelo Scalp Tonic Sheet; Perfect Pore Clean I; Phytoplex B Liq; Revitex Ampoules Et Comprimes; Somarexin and C 1000; Super Vitalex Ampoule Buvable; Supravite 10ml Ampoule; Supravite C 1000; Therapytion Hair Tonic; Tini-cal Ampoules; Tonicol Et A-D-C Ampoules/comprimes; Vitafer - Liq; Vitalizer White; Vitamin B Complex; Vitamin B Complex 100; Vitamin B-Complex; Vitamine Du Groupe B Plus Fer - Liq; Yozum Well Being Hair Color

> <INTERNATIONAL_BRANDS>
Cozyme; Ilopan; Motilyn; Panadon; Panthoderm; Synapan; Thenalton; Zentinic

$$$$
