REMARK  Name = 9823820
REMARK  6 active torsions:
REMARK  status: ('A' for Active; 'I' for Inactive)
REMARK    1  A    between atoms: O_1  and  C_4
REMARK    2  A    between atoms: O_1  and  C_23
REMARK    3  A    between atoms: C_7  and  C_14
REMARK    4  A    between atoms: C_8  and  O_17
REMARK    5  A    between atoms: C_20  and  N_28
REMARK    6  A    between atoms: N_27  and  C_32
REMARK                            x       y       z     vdW  Elec       q    Type
REMARK                         _______ _______ _______ _____ _____    ______ ____
ROOT
ATOM      1  O   UNL     1       0.705  -0.612   1.542  0.00  0.00    -0.454 OA
ENDROOT
BRANCH   1   4
ATOM      2  N   UNL     1       3.224  -2.914  -0.814  0.00  0.00    -0.248 NA
ATOM      3  C   UNL     1       2.793  -0.850   0.352  0.00  0.00    +0.031 C 
ATOM      4  C   UNL     1       1.551  -1.351   0.766  0.00  0.00    +0.144 C 
ATOM      5  C   UNL     1       3.608  -1.677  -0.448  0.00  0.00    +0.066 C 
ATOM      6  C   UNL     1       3.226   0.436   0.715  0.00  0.00    +0.064 C 
ATOM      7  C   UNL     1       4.464   0.909   0.290  0.00  0.00    +0.065 C 
ATOM      8  C   UNL     1       5.273   0.100  -0.498  0.00  0.00    +0.123 C 
ATOM      9  C   UNL     1       4.842  -1.179  -0.859  0.00  0.00    +0.109 C 
ATOM     10  C   UNL     1       1.152  -2.625   0.391  0.00  0.00    +0.058 C 
ATOM     11  C   UNL     1       2.018  -3.360  -0.393  0.00  0.00    +0.102 C 
BRANCH   7  14
ATOM     12  O   UNL     1       4.614   3.240  -0.012  0.00  0.00    -0.271 OA
ATOM     13  N   UNL     1       5.605   2.375   1.866  0.00  0.00    -0.325 N 
ATOM     14  C   UNL     1       4.891   2.245   0.680  0.00  0.00    +0.242 C 
ATOM     15  H   UNL     1       5.910   3.263   2.163  0.00  0.00    +0.145 HD
ATOM     16  H   UNL     1       5.805   1.579   2.410  0.00  0.00    +0.145 HD
ENDBRANCH   7  14
BRANCH   8  17
ATOM     17  O   UNL     1       6.491   0.534  -0.929  0.00  0.00    -0.475 OA
ATOM     18  C   UNL     1       6.529   1.219  -2.180  0.00  0.00    +0.252 C 
ENDBRANCH   8  17
ENDBRANCH   1   4
BRANCH   1  23
ATOM     19 CL   UNL     1      -2.047   0.921  -2.434  0.00  0.00    -0.081 Cl
ATOM     20  C   UNL     1      -3.056   0.246   0.010  0.00  0.00    +0.062 C 
ATOM     21  C   UNL     1      -1.926   0.390  -0.795  0.00  0.00    +0.074 C 
ATOM     22  C   UNL     1      -2.922  -0.187   1.329  0.00  0.00    +0.019 C 
ATOM     23  C   UNL     1      -0.548  -0.327   1.031  0.00  0.00    +0.146 C 
ATOM     24  C   UNL     1      -0.662   0.101  -0.280  0.00  0.00    +0.050 C 
ATOM     25  C   UNL     1      -1.658  -0.476   1.844  0.00  0.00    +0.039 C 
BRANCH  20  28
ATOM     26  O   UNL     1      -5.730   0.077   1.368  0.00  0.00    -0.252 OA
ATOM     27  N   UNL     1      -6.626   0.801  -0.634  0.00  0.00    -0.290 N 
ATOM     28  N   UNL     1      -4.337   0.526  -0.474  0.00  0.00    -0.268 N 
ATOM     29  C   UNL     1      -5.567   0.431   0.202  0.00  0.00    +0.304 C 
ATOM     30  H   UNL     1      -6.424   1.075  -1.558  0.00  0.00    +0.151 HD
ATOM     31  H   UNL     1      -4.385   0.828  -1.410  0.00  0.00    +0.156 HD
BRANCH  27  32
ATOM     32  C   UNL     1      -7.994   0.797  -0.202  0.00  0.00    +0.073 C 
ATOM     33  C   UNL     1      -8.806  -0.457  -0.242  0.00  0.00    +0.021 C 
ATOM     34  C   UNL     1      -9.107   0.666  -1.190  0.00  0.00    +0.021 C 
ENDBRANCH  27  32
ENDBRANCH  20  28
ENDBRANCH   1  23
TORSDOF 6
