REMARK  Name = 5311356
REMARK  5 active torsions:
REMARK  status: ('A' for Active; 'I' for Inactive)
REMARK    1  A    between atoms: C_12  and  O_21
REMARK    2  A    between atoms: C_18  and  O_23
REMARK    3  A    between atoms: O_23  and  C_24
REMARK    4  A    between atoms: C_24  and  C_25
REMARK    5  A    between atoms: C_25  and  N_27
REMARK                            x       y       z     vdW  Elec       q    Type
REMARK                         _______ _______ _______ _____ _____    ______ ____
ROOT
ATOM      1  O   UNL     1      -0.697   1.574   0.939  0.00  0.00    -0.473 OA
ATOM      2  N   UNL     1      -4.699  -1.815   0.805  0.00  0.00    +0.387 N 
ATOM      3  C   UNL     1      -2.824   0.400   0.759  0.00  0.00    +0.061 C 
ATOM      4  C   UNL     1      -4.109   0.386  -0.081  0.00  0.00    +0.010 C 
ATOM      5  C   UNL     1      -4.387  -1.105  -0.459  0.00  0.00    -0.049 C 
ATOM      6  C   UNL     1      -2.152   1.768   1.026  0.00  0.00    +0.200 C 
ATOM      7  C   UNL     1      -3.047  -0.416   2.048  0.00  0.00    -0.015 C 
ATOM      8  C   UNL     1      -1.725  -0.207  -0.050  0.00  0.00    +0.014 C 
ATOM      9  C   UNL     1      -3.231  -1.741  -1.305  0.00  0.00    +0.006 C 
ATOM     10  C   UNL     1      -3.595  -1.826   1.770  0.00  0.00    -0.077 C 
ATOM     11  C   UNL     1      -1.854  -1.236  -0.966  0.00  0.00    -0.025 C 
ATOM     12  C   UNL     1      -2.618   2.906   0.080  0.00  0.00    +0.172 C 
ATOM     13  C   UNL     1      -4.014   1.325  -1.257  0.00  0.00    -0.030 C 
ATOM     14  C   UNL     1      -0.542   0.469   0.146  0.00  0.00    +0.168 C 
ATOM     15  C   UNL     1      -3.313   2.466  -1.181  0.00  0.00    +0.002 C 
ATOM     16  C   UNL     1      -0.692  -1.663  -1.611  0.00  0.00    -0.001 C 
ATOM     17  C   UNL     1      -5.240  -3.155   0.600  0.00  0.00    -0.101 C 
ATOM     18  C   UNL     1       0.619   0.060  -0.472  0.00  0.00    +0.172 C 
ATOM     19  C   UNL     1       0.539  -1.030  -1.347  0.00  0.00    +0.040 C 
ATOM     20  H   UNL     1      -5.441  -1.256   1.225  0.00  0.00    -0.080 HD
ENDROOT
BRANCH  12  21
ATOM     21  O   UNL     1      -1.520   3.759  -0.231  0.00  0.00    -0.377 OA
ATOM     22  H   UNL     1      -1.082   4.034   0.590  0.00  0.00    +0.211 HD
ENDBRANCH  12  21
BRANCH  18  23
ATOM     23  O   UNL     1       1.794   0.706  -0.273  0.00  0.00    -0.475 OA
BRANCH  23  24
ATOM     24  C   UNL     1       2.993  -0.062  -0.402  0.00  0.00    +0.183 C 
BRANCH  24  25
ATOM     25  C   UNL     1       4.058   0.539   0.501  0.00  0.00    -0.029 C 
BRANCH  25  27
ATOM     26  O   UNL     1       8.091  -0.460  -0.093  0.00  0.00    -0.358 OA
ATOM     27  N   UNL     1       5.300  -0.227   0.415  0.00  0.00    +0.393 N 
ATOM     28  C   UNL     1       5.838  -0.197  -0.952  0.00  0.00    -0.044 C 
ATOM     29  C   UNL     1       6.299   0.291   1.360  0.00  0.00    -0.044 C 
ATOM     30  C   UNL     1       7.138  -0.992  -1.015  0.00  0.00    +0.119 C 
ATOM     31  C   UNL     1       7.590  -0.515   1.243  0.00  0.00    +0.119 C 
ATOM     32  H   UNL     1       5.089  -1.194   0.661  0.00  0.00    -0.079 HD
ENDBRANCH  25  27
ENDBRANCH  24  25
ENDBRANCH  23  24
ENDBRANCH  18  23
TORSDOF 5
