REMARK  Name = 24478
REMARK  2 active torsions:
REMARK  status: ('A' for Active; 'I' for Inactive)
REMARK    1  A    between atoms: S_1  and  O_4
REMARK    2  A    between atoms: S_1  and  O_6
REMARK                            x       y       z     vdW  Elec       q    Type
REMARK                         _______ _______ _______ _____ _____    ______ ____
ROOT
ATOM      1  S   UNL     1       0.054   0.000   0.069  0.00  0.00    +0.065 S 
ATOM      2  S   UNL     1      -1.736   0.000  -0.362  0.00  0.00    +0.105 S 
ATOM      3  O   UNL     1       0.184   0.002   1.507  0.00  0.00    -0.149 OA
ENDROOT
BRANCH   1   4
ATOM      4  O   UNL     1       0.749  -1.303  -0.606  0.00  0.00    -0.255 OA
ATOM      5  H   UNL     1       0.639  -1.266  -1.569  0.00  0.00    +0.244 HD
ENDBRANCH   1   4
BRANCH   1   6
ATOM      6  O   UNL     1       0.749   1.302  -0.609  0.00  0.00    -0.255 OA
ATOM      7  H   UNL     1       0.639   1.262  -1.572  0.00  0.00    +0.244 HD
ENDBRANCH   1   6
TORSDOF 2
