REMARK  Name = 10070040
REMARK  8 active torsions:
REMARK  status: ('A' for Active; 'I' for Inactive)
REMARK    1  A    between atoms: N_1  and  C_24
REMARK    2  A    between atoms: C_2  and  N_10
REMARK    3  A    between atoms: C_2  and  C_21
REMARK    4  A    between atoms: N_10  and  C_12
REMARK    5  A    between atoms: C_11  and  C_18
REMARK    6  A    between atoms: C_21  and  O_22
REMARK    7  A    between atoms: C_24  and  C_25
REMARK    8  A    between atoms: C_25  and  C_26
REMARK                            x       y       z     vdW  Elec       q    Type
REMARK                         _______ _______ _______ _____ _____    ______ ____
ROOT
ATOM      1  N   UNL     1      -1.641  -0.264  -0.047  0.00  0.00    +0.387 N 
ATOM      2  C   UNL     1       1.198   0.493  -0.128  0.00  0.00    +0.149 C 
ATOM      3  C   UNL     1       0.275   0.912   1.041  0.00  0.00    +0.007 C 
ATOM      4  C   UNL     1       0.657  -0.744  -0.856  0.00  0.00    +0.007 C 
ATOM      5  C   UNL     1      -1.190   0.996   0.561  0.00  0.00    -0.075 C 
ATOM      6  C   UNL     1      -0.825  -0.603  -1.220  0.00  0.00    -0.075 C 
ATOM      7  C   UNL     1       0.384  -0.031   2.252  0.00  0.00    +0.000 C 
ATOM      8  H   UNL     1      -1.528  -1.006   0.644  0.00  0.00    -0.080 HD
ENDROOT
BRANCH   2  10
ATOM      9  O   UNL     1       2.952   2.441   1.205  0.00  0.00    -0.275 OA
ATOM     10  N   UNL     1       2.564   0.288   0.296  0.00  0.00    -0.252 N 
ATOM     11  C   UNL     1       3.337   1.299   0.938  0.00  0.00    +0.230 C 
BRANCH  10  12
ATOM     12  C   UNL     1       3.180  -1.014   0.057  0.00  0.00    +0.054 C 
ATOM     13  C   UNL     1       3.082  -2.019   1.019  0.00  0.00    +0.015 C 
ATOM     14  C   UNL     1       3.865  -1.253  -1.134  0.00  0.00    +0.015 C 
ATOM     15  C   UNL     1       3.670  -3.263   0.791  0.00  0.00    +0.001 C 
ATOM     16  C   UNL     1       4.453  -2.497  -1.363  0.00  0.00    +0.001 C 
ATOM     17  C   UNL     1       4.356  -3.502  -0.400  0.00  0.00    +0.000 C 
ENDBRANCH  10  12
BRANCH  11  18
ATOM     18  C   UNL     1       4.774   0.902   1.266  0.00  0.00    +0.086 C 
ATOM     19  C   UNL     1       5.548   2.012   1.962  0.00  0.00    +0.010 C 
ENDBRANCH  11  18
ENDBRANCH   2  10
BRANCH   2  21
ATOM     20  O   UNL     1       0.800   2.710  -0.998  0.00  0.00    -0.248 OA
ATOM     21  C   UNL     1       1.373   1.634  -1.097  0.00  0.00    +0.333 C 
BRANCH  21  22
ATOM     22  O   UNL     1       2.253   1.271  -2.073  0.00  0.00    -0.443 OA
ATOM     23  C   UNL     1       2.514   2.268  -3.067  0.00  0.00    +0.256 C 
ENDBRANCH  21  22
ENDBRANCH   2  21
BRANCH   1  24
ATOM     24  C   UNL     1      -3.054  -0.180  -0.414  0.00  0.00    -0.073 C 
BRANCH  24  25
ATOM     25  C   UNL     1      -3.951  -0.369   0.810  0.00  0.00    +0.004 C 
BRANCH  25  26
ATOM     26  C   UNL     1      -5.412  -0.306   0.441  0.00  0.00    -0.024 C 
ATOM     27  C   UNL     1      -6.083   0.917   0.457  0.00  0.00    -0.004 C 
ATOM     28  C   UNL     1      -6.091  -1.470   0.083  0.00  0.00    -0.004 C 
ATOM     29  C   UNL     1      -7.434   0.975   0.116  0.00  0.00    -0.000 C 
ATOM     30  C   UNL     1      -7.442  -1.412  -0.258  0.00  0.00    -0.000 C 
ATOM     31  C   UNL     1      -8.114  -0.189  -0.242  0.00  0.00    -0.000 C 
ENDBRANCH  25  26
ENDBRANCH  24  25
ENDBRANCH   1  24
TORSDOF 8
