3086401
  -OEChem-10051722023D

 60 62  0     1  0  0  0  0  0999 V2000
   -3.7167    0.0223   -0.4440 S   0  0  0  0  0  0  0  0  0  0  0  0
    4.5647    2.9789   -0.9775 O   0  0  0  0  0  0  0  0  0  0  0  0
   -4.2062    0.4106   -1.7544 O   0  0  0  0  0  0  0  0  0  0  0  0
   -4.0032   -1.3048    0.0705 O   0  0  0  0  0  0  0  0  0  0  0  0
    0.1501   -1.8256   -0.2726 N   0  0  1  0  0  0  0  0  0  0  0  0
   -2.0215    0.2620   -0.4237 N   0  0  0  0  0  0  0  0  0  0  0  0
   -4.2527    1.1970    0.7142 N   0  0  0  0  0  0  0  0  0  0  0  0
    1.0485    0.4607   -0.7335 C   0  0  2  0  0  0  0  0  0  0  0  0
    1.3810   -1.0370   -0.5249 C   0  0  1  0  0  0  0  0  0  0  0  0
   -0.0218    0.6689   -1.8140 C   0  0  0  0  0  0  0  0  0  0  0  0
   -1.2367   -0.2217   -1.5897 C   0  0  1  0  0  0  0  0  0  0  0  0
   -0.8237   -1.6757   -1.3686 C   0  0  0  0  0  0  0  0  0  0  0  0
    2.3166    1.2449   -1.1104 C   0  0  0  0  0  0  0  0  0  0  0  0
    2.3793   -1.1552    0.6519 C   0  0  0  0  0  0  0  0  0  0  0  0
    3.4790    0.9770   -0.1934 C   0  0  0  0  0  0  0  0  0  0  0  0
    3.5238   -0.1726    0.6095 C   0  0  0  0  0  0  0  0  0  0  0  0
    0.4265   -3.2517   -0.0709 C   0  0  0  0  0  0  0  0  0  0  0  0
   -0.8509   -3.9883    0.3243 C   0  0  0  0  0  0  0  0  0  0  0  0
    4.5631    1.8683   -0.1846 C   0  0  0  0  0  0  0  0  0  0  0  0
    4.6377   -0.3907    1.4359 C   0  0  0  0  0  0  0  0  0  0  0  0
    5.6685    1.6355    0.6325 C   0  0  0  0  0  0  0  0  0  0  0  0
    5.7047    0.5069    1.4450 C   0  0  0  0  0  0  0  0  0  0  0  0
   -0.5868   -5.4673    0.5605 C   0  0  0  0  0  0  0  0  0  0  0  0
   -3.7259    1.0516    2.0995 C   0  0  0  0  0  0  0  0  0  0  0  0
   -4.1855    2.6128    0.2599 C   0  0  0  0  0  0  0  0  0  0  0  0
   -4.7316    1.6029    3.0898 C   0  0  0  0  0  0  0  0  0  0  0  0
   -5.4801    2.9902   -0.4313 C   0  0  0  0  0  0  0  0  0  0  0  0
    0.6642    0.8657    0.2145 H   0  0  0  0  0  0  0  0  0  0  0  0
    1.8710   -1.4144   -1.4351 H   0  0  0  0  0  0  0  0  0  0  0  0
   -0.3220    1.7239   -1.8423 H   0  0  0  0  0  0  0  0  0  0  0  0
    0.4049    0.4341   -2.7982 H   0  0  0  0  0  0  0  0  0  0  0  0
   -1.8574   -0.1555   -2.4905 H   0  0  0  0  0  0  0  0  0  0  0  0
   -1.7540   -2.2130   -1.1825 H   0  0  0  0  0  0  0  0  0  0  0  0
   -0.4034   -2.0748   -2.3019 H   0  0  0  0  0  0  0  0  0  0  0  0
    2.0540    2.3099   -1.0856 H   0  0  0  0  0  0  0  0  0  0  0  0
    2.6247    0.9935   -2.1334 H   0  0  0  0  0  0  0  0  0  0  0  0
    2.8158   -2.1610    0.6595 H   0  0  0  0  0  0  0  0  0  0  0  0
    1.8516   -1.0083    1.6039 H   0  0  0  0  0  0  0  0  0  0  0  0
    0.8679   -3.7014   -0.9695 H   0  0  0  0  0  0  0  0  0  0  0  0
    1.1341   -3.4003    0.7504 H   0  0  0  0  0  0  0  0  0  0  0  0
   -1.5557    0.0626    0.4719 H   0  0  0  0  0  0  0  0  0  0  0  0
   -1.2818   -3.5473    1.2312 H   0  0  0  0  0  0  0  0  0  0  0  0
   -1.6176   -3.9641   -0.4532 H   0  0  0  0  0  0  0  0  0  0  0  0
    4.6785   -1.2670    2.0787 H   0  0  0  0  0  0  0  0  0  0  0  0
    6.5043    2.3297    0.6384 H   0  0  0  0  0  0  0  0  0  0  0  0
    6.5626    0.3244    2.0854 H   0  0  0  0  0  0  0  0  0  0  0  0
   -1.5126   -5.9788    0.8427 H   0  0  0  0  0  0  0  0  0  0  0  0
    0.1384   -5.6123    1.3677 H   0  0  0  0  0  0  0  0  0  0  0  0
   -0.1959   -5.9465   -0.3429 H   0  0  0  0  0  0  0  0  0  0  0  0
    3.9102    2.8947   -1.6882 H   0  0  0  0  0  0  0  0  0  0  0  0
   -2.7616    1.5619    2.2000 H   0  0  0  0  0  0  0  0  0  0  0  0
   -3.5674   -0.0079    2.3269 H   0  0  0  0  0  0  0  0  0  0  0  0
   -3.3400    2.7522   -0.4234 H   0  0  0  0  0  0  0  0  0  0  0  0
   -4.0079    3.3031    1.0900 H   0  0  0  0  0  0  0  0  0  0  0  0
   -4.8818    2.6807    2.9824 H   0  0  0  0  0  0  0  0  0  0  0  0
   -5.7063    1.1182    2.9678 H   0  0  0  0  0  0  0  0  0  0  0  0
   -4.3891    1.4197    4.1134 H   0  0  0  0  0  0  0  0  0  0  0  0
   -5.6720    2.3874   -1.3221 H   0  0  0  0  0  0  0  0  0  0  0  0
   -6.3323    2.8619    0.2449 H   0  0  0  0  0  0  0  0  0  0  0  0
   -5.4497    4.0398   -0.7408 H   0  0  0  0  0  0  0  0  0  0  0  0
  1  3  2  0  0  0  0
  1  4  2  0  0  0  0
  1  6  1  0  0  0  0
  1  7  1  0  0  0  0
  2 19  1  0  0  0  0
  2 50  1  0  0  0  0
  5  9  1  0  0  0  0
  5 12  1  0  0  0  0
  5 17  1  0  0  0  0
  6 11  1  0  0  0  0
  6 41  1  0  0  0  0
  7 24  1  0  0  0  0
  7 25  1  0  0  0  0
  8  9  1  0  0  0  0
  8 10  1  0  0  0  0
  8 13  1  0  0  0  0
  8 28  1  0  0  0  0
  9 14  1  0  0  0  0
  9 29  1  0  0  0  0
 10 11  1  0  0  0  0
 10 30  1  0  0  0  0
 10 31  1  0  0  0  0
 11 12  1  0  0  0  0
 11 32  1  0  0  0  0
 12 33  1  0  0  0  0
 12 34  1  0  0  0  0
 13 15  1  0  0  0  0
 13 35  1  0  0  0  0
 13 36  1  0  0  0  0
 14 16  1  0  0  0  0
 14 37  1  0  0  0  0
 14 38  1  0  0  0  0
 15 16  2  0  0  0  0
 15 19  1  0  0  0  0
 16 20  1  0  0  0  0
 17 18  1  0  0  0  0
 17 39  1  0  0  0  0
 17 40  1  0  0  0  0
 18 23  1  0  0  0  0
 18 42  1  0  0  0  0
 18 43  1  0  0  0  0
 19 21  2  0  0  0  0
 20 22  2  0  0  0  0
 20 44  1  0  0  0  0
 21 22  1  0  0  0  0
 21 45  1  0  0  0  0
 22 46  1  0  0  0  0
 23 47  1  0  0  0  0
 23 48  1  0  0  0  0
 23 49  1  0  0  0  0
 24 26  1  0  0  0  0
 24 51  1  0  0  0  0
 24 52  1  0  0  0  0
 25 27  1  0  0  0  0
 25 53  1  0  0  0  0
 25 54  1  0  0  0  0
 26 55  1  0  0  0  0
 26 56  1  0  0  0  0
 26 57  1  0  0  0  0
 27 58  1  0  0  0  0
 27 59  1  0  0  0  0
 27 60  1  0  0  0  0
M  END
> <DATABASE_ID>
DB09097

> <DATABASE_NAME>
drugbank

> <ORIGINAL_SOURCE>
PUBCHEM

> <ORIGINAL_SOURCE_URL>
https://pubchem.ncbi.nlm.nih.gov/rest/pug/compound/inchikey/GDFGTRDCCWFXTG-ZIFCJYIRSA-N/SDF?record_type=3d

> <SMILES>
[H][C@]12C[C@@H](CN(CCC)[C@]1([H])CC1=CC=CC(O)=C1C2)NS(=O)(=O)N(CC)CC

> <INCHI_IDENTIFIER>
InChI=1S/C20H33N3O3S/c1-4-10-22-14-17(21-27(25,26)23(5-2)6-3)11-16-12-18-15(13-19(16)22)8-7-9-20(18)24/h7-9,16-17,19,21,24H,4-6,10-14H2,1-3H3/t16-,17+,19-/m1/s1

> <INCHI_KEY>
GDFGTRDCCWFXTG-ZIFCJYIRSA-N

> <FORMULA>
C20H33N3O3S

> <MOLECULAR_WEIGHT>
395.56

> <EXACT_MASS>
395.224263109

> <JCHEM_ACCEPTOR_COUNT>
5

> <JCHEM_ATOM_COUNT>
60

> <JCHEM_AVERAGE_POLARIZABILITY>
44.113058529600224

> <JCHEM_BIOAVAILABILITY>
1

> <JCHEM_DONOR_COUNT>
2

> <JCHEM_FORMAL_CHARGE>
0

> <JCHEM_GHOSE_FILTER>
1

> <JCHEM_IUPAC>
(3S,4aS,10aR)-3-[(diethylsulfamoyl)amino]-1-propyl-1H,2H,3H,4H,4aH,5H,10H,10aH-benzo[g]quinolin-6-ol

> <ALOGPS_LOGP>
2.56

> <JCHEM_LOGP>
2.496315316333333

> <ALOGPS_LOGS>
-3.41

> <JCHEM_MDDR_LIKE_RULE>
0

> <JCHEM_NUMBER_OF_RINGS>
3

> <JCHEM_PHYSIOLOGICAL_CHARGE>
1

> <JCHEM_PKA>
10.920046447381837

> <JCHEM_PKA_STRONGEST_ACIDIC>
10.20321513981101

> <JCHEM_PKA_STRONGEST_BASIC>
8.2202498242168

> <JCHEM_POLAR_SURFACE_AREA>
72.88

> <JCHEM_REFRACTIVITY>
109.66009999999997

> <JCHEM_ROTATABLE_BOND_COUNT>
5

> <JCHEM_RULE_OF_FIVE>
1

> <ALOGPS_SOLUBILITY>
1.54e-01 g/l

> <JCHEM_TRADITIONAL_IUPAC>
quinagolide

> <JCHEM_VEBER_RULE>
0

> <DRUGBANK_ID>
DB09097

> <DRUG_GROUPS>
approved; investigational

> <GENERIC_NAME>
Quinagolide

> <SYNONYMS>
(+-)-N,N-Diethyl-N'-((3R*,4aR*,10aS*)-1,2,3,4,4a,5,10,10a-octahydro-6-hydroxy-1-propylbenzo(g)quinolin-3-yl)sulfamide; Quinagolida; Quinagolide; Quinagolidum

> <PRODUCTS>
Norprolac

> <SALTS>
Quinagolide hydrochloride

$$$$
