REMARK  Name = 40854
REMARK  4 active torsions:
REMARK  status: ('A' for Active; 'I' for Inactive)
REMARK    1  A    between atoms: N_4  and  C_11
REMARK    2  A    between atoms: C_7  and  S_16
REMARK    3  A    between atoms: C_12  and  O_24
REMARK    4  A    between atoms: S_16  and  C_18
REMARK                            x       y       z     vdW  Elec       q    Type
REMARK                         _______ _______ _______ _____ _____    ______ ____
ROOT
ATOM      1  N   UNL     1       1.689  -0.240  -1.214  0.00  0.00    -0.302 N 
ATOM      2  N   UNL     1       2.351  -0.381   0.903  0.00  0.00    -0.302 N 
ATOM      3  C   UNL     1       0.585  -0.650  -0.512  0.00  0.00    +0.061 C 
ATOM      4  C   UNL     1       1.023  -0.731   0.807  0.00  0.00    +0.060 C 
ATOM      5  C   UNL     1      -1.606  -1.345   0.102  0.00  0.00    +0.062 C 
ATOM      6  C   UNL     1      -0.721  -0.948  -0.905  0.00  0.00    +0.025 C 
ATOM      7  C   UNL     1       0.120  -1.131   1.806  0.00  0.00    +0.016 C 
ATOM      8  C   UNL     1      -1.196  -1.436   1.434  0.00  0.00    +0.010 C 
ATOM      9  C   UNL     1       2.717  -0.093  -0.325  0.00  0.00    +0.229 C 
ATOM     10  H   UNL     1       1.733  -0.080  -2.184  0.00  0.00    +0.150 HD
ATOM     11  H   UNL     1       2.905  -0.353   1.716  0.00  0.00    +0.150 HD
ENDROOT
BRANCH   9  13
ATOM     12  O   UNL     1       5.213   0.355   1.228  0.00  0.00    -0.226 OA
ATOM     13  N   UNL     1       3.954   0.312  -0.756  0.00  0.00    -0.240 N 
ATOM     14  C   UNL     1       5.098   0.508   0.018  0.00  0.00    +0.404 C 
ATOM     15  H   UNL     1       4.044   0.485  -1.721  0.00  0.00    +0.156 HD
BRANCH  14  16
ATOM     16  O   UNL     1       6.128   0.915  -0.789  0.00  0.00    -0.431 OA
ATOM     17  C   UNL     1       7.380   1.159  -0.139  0.00  0.00    +0.257 C 
ENDBRANCH  14  16
ENDBRANCH   9  13
BRANCH   5  18
ATOM     18  S   UNL     1      -3.303  -1.746  -0.329  0.00  0.00    +0.088 S 
ATOM     19  O   UNL     1      -3.316  -1.980  -1.814  0.00  0.00    -0.247 OA
BRANCH  18  20
ATOM     20  C   UNL     1      -3.898  -0.054  -0.097  0.00  0.00    +0.060 C 
ATOM     21  C   UNL     1      -3.885   0.827  -1.169  0.00  0.00    +0.009 C 
ATOM     22  C   UNL     1      -4.360   0.341   1.150  0.00  0.00    +0.009 C 
ATOM     23  C   UNL     1      -4.344   2.131  -0.990  0.00  0.00    +0.001 C 
ATOM     24  C   UNL     1      -4.819   1.646   1.329  0.00  0.00    +0.001 C 
ATOM     25  C   UNL     1      -4.810   2.541   0.259  0.00  0.00    +0.000 C 
ENDBRANCH  18  20
ENDBRANCH   5  18
TORSDOF 4
