REMARK  Name = 86418
REMARK  3 active torsions:
REMARK  status: ('A' for Active; 'I' for Inactive)
REMARK    1  A    between atoms: N_1  and  C_11
REMARK    2  A    between atoms: N_3  and  N_10
REMARK    3  A    between atoms: C_11  and  C_14
REMARK                            x       y       z     vdW  Elec       q    Type
REMARK                         _______ _______ _______ _____ _____    ______ ____
ROOT
ATOM      1  N   UNL     1       0.865   1.230   0.590  0.00  0.00    -0.253 N 
ATOM      2  N   UNL     1       2.587   1.060  -0.891  0.00  0.00    -0.213 NA
ATOM      3  N   UNL     1       2.040  -0.815   0.465  0.00  0.00    -0.158 N 
ATOM      4  C   UNL     1       0.777   2.490  -0.102  0.00  0.00    +0.089 C 
ATOM      5  C   UNL     1       2.030   2.440  -0.980  0.00  0.00    +0.118 C 
ATOM      6  C   UNL     1       1.867   0.471   0.039  0.00  0.00    +0.212 C 
ATOM      7  H   UNL     1       1.453  -1.174   1.169  0.00  0.00    +0.182 HD
ENDROOT
BRANCH   3  10
ATOM      8  O   UNL     1       3.044  -2.742   0.419  0.00  0.00    -0.109 OA
ATOM      9  O   UNL     1       3.746  -1.161  -0.947  0.00  0.00    -0.109 OA
ATOM     10  N   UNL     1       3.006  -1.605  -0.063  0.00  0.00    +0.125 N 
ENDBRANCH   3  10
BRANCH   1  11
ATOM     11  C   UNL     1      -0.140   0.835   1.544  0.00  0.00    +0.126 C 
BRANCH  11  14
ATOM     12 CL   UNL     1      -4.998  -1.115  -1.239  0.00  0.00    -0.061 Cl
ATOM     13  N   UNL     1      -3.497   0.704  -0.164  0.00  0.00    -0.233 NA
ATOM     14  C   UNL     1      -1.351   0.291   0.840  0.00  0.00    +0.017 C 
ATOM     15  C   UNL     1      -1.447  -1.058   0.552  0.00  0.00    +0.001 C 
ATOM     16  C   UNL     1      -2.381   1.128   0.471  0.00  0.00    +0.097 C 
ATOM     17  C   UNL     1      -2.580  -1.532  -0.101  0.00  0.00    +0.031 C 
ATOM     18  C   UNL     1      -3.567  -0.619  -0.434  0.00  0.00    +0.138 C 
ENDBRANCH  11  14
ENDBRANCH   1  11
TORSDOF 3
