784
  -OEChem-10061700103D

  4  3  0     0  0  0  0  0  0999 V2000
    0.7247    0.0000    0.0000 O   0  0  0  0  0  0  0  0  0  0  0  0
   -0.7247    0.0000    0.0000 O   0  0  0  0  0  0  0  0  0  0  0  0
    0.8233   -0.7000   -0.6676 H   0  0  0  0  0  0  0  0  0  0  0  0
   -0.8233   -0.6175    0.7446 H   0  0  0  0  0  0  0  0  0  0  0  0
  1  2  1  0  0  0  0
  1  3  1  0  0  0  0
  2  4  1  0  0  0  0
M  END
> <DATABASE_ID>
DB11091

> <DATABASE_NAME>
drugbank

> <ORIGINAL_SOURCE>
PUBCHEM

> <ORIGINAL_SOURCE_URL>
https://pubchem.ncbi.nlm.nih.gov/rest/pug/compound/inchikey/MHAJPDPJQMAIIY-UHFFFAOYSA-N/SDF?record_type=3d

> <SMILES>
OO

> <INCHI_IDENTIFIER>
InChI=1S/H2O2/c1-2/h1-2H

> <INCHI_KEY>
MHAJPDPJQMAIIY-UHFFFAOYSA-N

> <FORMULA>
H2O2

> <MOLECULAR_WEIGHT>
34.0147

> <EXACT_MASS>
34.005479308

> <JCHEM_ACCEPTOR_COUNT>
2

> <JCHEM_AVERAGE_POLARIZABILITY>
2.2910556974533414

> <JCHEM_BIOAVAILABILITY>
1

> <JCHEM_DONOR_COUNT>
2

> <JCHEM_FORMAL_CHARGE>
0

> <JCHEM_GHOSE_FILTER>
0

> <JCHEM_IUPAC>
peroxol

> <JCHEM_LOGP>
-0.447202414

> <JCHEM_MDDR_LIKE_RULE>
0

> <JCHEM_NUMBER_OF_RINGS>
0

> <JCHEM_PHYSIOLOGICAL_CHARGE>
0

> <JCHEM_PKA>
14.397218846455527

> <JCHEM_PKA_STRONGEST_ACIDIC>
11.520607090216412

> <JCHEM_PKA_STRONGEST_BASIC>
-4.189015938635916

> <JCHEM_POLAR_SURFACE_AREA>
40.46

> <JCHEM_REFRACTIVITY>
5.1292

> <JCHEM_ROTATABLE_BOND_COUNT>
0

> <JCHEM_RULE_OF_FIVE>
1

> <JCHEM_TRADITIONAL_IUPAC>
hydrogen peroxide

> <JCHEM_VEBER_RULE>
0

> <DRUGBANK_ID>
DB11091

> <DRUG_GROUPS>
approved; vet_approved

> <GENERIC_NAME>
Hydrogen peroxide

> <PRODUCTS>
16oz Hydorgen Peroxide; 3% Hydrogen Peroxide Well at Walgreens; 4234 First Aid Kit; Antiseptic Oral Cleanser; Aplicare Hydrogen Peroxide; Blossom HP 3; CURAD Hydrogen Peroxide; Comfort; DOP Hydrogen Peroxide 3%; Dio Whitening; Divas; Dr.EL TOOTH WHITE TOOTH; Dynarex HP 3; ECOLAB Hydrogen Peroxide; Eco Whitening; Eskata; First Aid Only Hydrogen Peroxide; GNP Hydrogen Peroxide 3 Percent; GOOD NEIGHBOR PHARMACY Hydrogen Peroxide Wipes; Green Guard Hydrogen Peroxide First Aid; Health Mart Hydrogen Peroxide 3 Percent; Hioxyl Cream; Humco Hydrogen Peroxide; Hydrogen Peroxide; Hydrogen Peroxide (topical Solution B.P. 20 Volume); Hydrogen Peroxide (topical Solution U.S.P. 10 Volume); Hydrogen Peroxide 20vol; Hydrogen Peroxide 3 Percent; Hydrogen Peroxide 3 Percent ReadyInCase; Hydrogen Peroxide 3 Topical; Hydrogen Peroxide 3%; Hydrogen Peroxide 6%; Hydrogen Peroxide Antiseptic; Hydrogen Peroxide First Aid Antiseptic; Hydrogen Peroxide Lil Drug Store Products; Hydrogen Peroxide Liq 10vol; Hydrogen Peroxide Liq 6%; Hydrogen Peroxide Solution 3%; Hydrogen Peroxide Top Sol 3% 10vol Anti; Hydrogen Peroxide Topical Sol USP 3%; Hydrogen Peroxide Topical Solution 3%; Hydrogen Peroxide Topical Solution USP; Hydrogen peroxide; Iris; KIMVENT ORAL CARE Q4 Kit WITH CHG; Kimvent Oral Care Q2 Kit with CHG; Kimvent Oral Care Q4 Kit; Kimvent Oral Care Suction Swab pack; Kimvent Q2 oral care kit; LEADER Hydrogen Peroxide Wipes; MedPak Peroxide Oral Rinse; MediChoice of Hydrogen Peroxide 3 10 Volume; MediFirst Hydrogen Peroxide; Medline Peroxi Fresh Mouthwash; Medline Rinse; Orajel Alcohol Free Antiseptic Rinse For All Mouth Sores; Orajel Antiseptic Alcohol-Free Mouth Sore Rinse; Orajel Antiseptic Rinse For All Mouth Sores; Orajel Antiseptic Rinse for Mouth Sores; Orajel Perioseptic Rinse - 1.5%; Oral Care Q4 Kit; Oral Cleansing and Suctioning System, Q2; Oral Cleansing and Suctioning System, q2; Oral Cleansing and Suctioning System, q4; PSP Hydrogen Peroxide; Perio Daily Defense; PerioRestore; Periogel; Perioselect Hydrogen Peroxide Solution 1.7%; Perox-A-Mint Solution; Peroxyde D'hydrogene 10 Vol Soln; Peroxyl Mouth Sore Mild Mint; Pharma-C-Wipes 3 Hydrogen Peroxide Wipes; Pharmacys Prescription; Pharmacys Prescription Hydrogen Peroxide; Preferred Plus Pharmacy 3 percent Hydrogen Peroxide Wipes; Premium Whitening; Prevention Mouth Rinse; Prevention Wound and Burn; Pro Brighten Tooth whitening Gel; Psp Go; PureOxyWash; Q2 Oral Care Kit; Q2 Oral Care Kit with CHG; QCare Oral Cleansing and Suctioning System; QCare Oral Cleansing and Suctioning System, Q2; QCare Oral Cleansing and Suctioning System, Q4; QCare Oral Cleansing and Suctioning System, Q8; QCare Oral Cleansing and Suctioning System, q2; QCare Rx Oral Cleansing and Suctioning System; QCare Rx Oral Cleansing and Suctioning System, Q2; QCare Rx Oral Cleansing and Suctioning System, Q4; SALON CODE Glam Hair Color Glam Brown; SALON CODE Glam Hair Color Glam Cacao; SALON CODE Glam Hair Color Glam Rose Gold; SALON CODE Glam Hair Color Oxidant; SMART SENSE Hydrogen Peroxide; Short Term Oral Care System; Short Term Oral Swab System; Single Use System with Perox-A-Mint solution; Smart Sense Hydrogen Peroxide Solution; Sore Mouth Cleanser; Suction Swab System with Perox-A-Mint Solution - Suction Swab; Suction Swab System with Perox-A-Mint Solution - Suction Swab and Suction Toothbrush; Suction Swabs with Perox-A-Mint Solution; Suction Toothbrush with Perox-A-Mint Solution; Suction Toothbrushes with Perox-A-Mint Solution; Sunmark Hydrogen Peroxide 3 Percent; The Natural Dentist Rinse; Tooth Whole White; Toothette Oral Care Short Term Oral Swab System; Unpa Cha Cha Premium Whitening Tooth; Unpa Cha Cha Premium Whitening Toothpaste; Usana Peroxide Antiseptic Mouthwash; Water Jel Hydrogen Peroxide; White Labs; Your Label Here Hydrogen Peroxide First Aid; maxim Hydrogen Peroxide

$$$$
