REMARK  Name = 10253143
REMARK  5 active torsions:
REMARK  status: ('A' for Active; 'I' for Inactive)
REMARK    1  A    between atoms: N_3  and  C_11
REMARK    2  A    between atoms: C_4  and  C_23
REMARK    3  A    between atoms: C_5  and  C_20
REMARK    4  A    between atoms: N_22  and  C_25
REMARK    5  A    between atoms: C_25  and  C_27
REMARK                            x       y       z     vdW  Elec       q    Type
REMARK                         _______ _______ _______ _____ _____    ______ ____
ROOT
ATOM      1  N   UNL     1       1.313   0.289   0.321  0.00  0.00    -0.333 NA
ATOM      2  N   UNL     1       1.304   2.668  -0.061  0.00  0.00    -0.170 NA
ATOM      3  N   UNL     1       3.301   1.441  -0.153  0.00  0.00    -0.246 N 
ATOM      4  C   UNL     1      -0.722   1.516   0.419  0.00  0.00    +0.108 C 
ATOM      5  C   UNL     1      -0.022   0.350   0.505  0.00  0.00    +0.221 C 
ATOM      6  C   UNL     1      -0.031   2.657   0.135  0.00  0.00    +0.119 C 
ATOM      7  C   UNL     1       1.904   1.467   0.045  0.00  0.00    +0.149 C 
ATOM      8  H   UNL     1       3.690   2.323  -0.351  0.00  0.00    +0.165 HD
ENDROOT
BRANCH   3  11
ATOM      9 CL   UNL     1       5.729   1.774  -1.957  0.00  0.00    -0.081 Cl
ATOM     10 CL   UNL     1       7.225  -2.993   0.040  0.00  0.00    -0.082 Cl
ATOM     11  C   UNL     1       4.248   0.400  -0.124  0.00  0.00    +0.068 C 
ATOM     12  C   UNL     1       5.404   0.440  -0.909  0.00  0.00    +0.072 C 
ATOM     13  C   UNL     1       4.019  -0.697   0.712  0.00  0.00    +0.017 C 
ATOM     14  C   UNL     1       6.323  -0.608  -0.858  0.00  0.00    +0.024 C 
ATOM     15  C   UNL     1       4.939  -1.745   0.762  0.00  0.00    +0.013 C 
ATOM     16  C   UNL     1       6.091  -1.700  -0.023  0.00  0.00    +0.059 C 
ENDBRANCH   3  11
BRANCH   5  20
ATOM     17  F   UNL     1      -2.045  -0.831   0.991  0.00  0.00    -0.164 F 
ATOM     18  F   UNL     1      -0.543  -1.885  -0.166  0.00  0.00    -0.164 F 
ATOM     19  F   UNL     1      -0.223  -1.524   1.954  0.00  0.00    -0.164 F 
ATOM     20  C   UNL     1      -0.696  -0.946   0.813  0.00  0.00    +0.447 C 
ENDBRANCH   5  20
BRANCH   4  23
ATOM     21  O   UNL     1      -2.633   1.786   1.751  0.00  0.00    -0.270 OA
ATOM     22  N   UNL     1      -2.981   1.402  -0.510  0.00  0.00    -0.301 N 
ATOM     23  C   UNL     1      -2.192   1.574   0.625  0.00  0.00    +0.250 C 
ATOM     24  H   UNL     1      -2.536   1.236  -1.373  0.00  0.00    +0.150 HD
BRANCH  22  25
ATOM     25  C   UNL     1      -4.412   1.456  -0.478  0.00  0.00    +0.090 C 
BRANCH  25  27
ATOM     26  O   UNL     1      -6.720  -2.082  -1.075  0.00  0.00    -0.354 OA
ATOM     27  C   UNL     1      -5.007   0.075  -0.220  0.00  0.00    +0.025 C 
ATOM     28  C   UNL     1      -6.535   0.142  -0.115  0.00  0.00    +0.034 C 
ATOM     29  C   UNL     1      -4.604  -0.915  -1.319  0.00  0.00    +0.034 C 
ATOM     30  C   UNL     1      -7.127  -1.256   0.015  0.00  0.00    +0.142 C 
ATOM     31  C   UNL     1      -5.304  -2.254  -1.121  0.00  0.00    +0.142 C 
ENDBRANCH  25  27
ENDBRANCH  22  25
ENDBRANCH   4  23
TORSDOF 5
