REMARK  Name = 5152822
REMARK  0 active torsions:
REMARK  status: ('A' for Active; 'I' for Inactive)
REMARK                            x       y       z     vdW  Elec       q    Type
REMARK                         _______ _______ _______ _____ _____    ______ ____
ROOT
ATOM      1  S   UNL     1       0.000   0.000  -0.168  0.00  0.00    +0.320 S 
ATOM      2  O   UNL     1      -1.424  -0.145  -0.440  0.00  0.00    -0.107 OA
ATOM      3  O   UNL     1       0.837  -1.161  -0.440  0.00  0.00    -0.107 OA
ATOM      4  O   UNL     1       0.587   1.305  -0.442  0.00  0.00    -0.107 OA
ENDROOT
TORSDOF 0
REMARK  Name = 5152822
REMARK  0 active torsions:
REMARK  status: ('A' for Active; 'I' for Inactive)
REMARK                            x       y       z     vdW  Elec       q    Type
REMARK                         _______ _______ _______ _____ _____    ______ ____
ROOT
ATOM      1  O   UNL     1       0.001   0.001   1.490  0.00  0.00    -0.410 OA
ATOM      2  H   UNL     1      -0.374  -0.833   1.814  0.00  0.00    +0.205 HD
ATOM      3  H   UNL     1      -0.534   0.743   1.813  0.00  0.00    +0.205 HD
ENDROOT
TORSDOF 0
