REMARK  Name = 19988
REMARK  5 active torsions:
REMARK  status: ('A' for Active; 'I' for Inactive)
REMARK    1  A    between atoms: C_1  and  S_7
REMARK    2  A    between atoms: C_2  and  C_16
REMARK    3  A    between atoms: C_4  and  O_11
REMARK    4  A    between atoms: C_5  and  O_13
REMARK    5  A    between atoms: C_16  and  C_17
REMARK                            x       y       z     vdW  Elec       q    Type
REMARK                         _______ _______ _______ _____ _____    ______ ____
ROOT
ATOM      1  C   UNL     1      -1.935  -0.245   0.302  0.00  0.00    +0.146 C 
ATOM      2  C   UNL     1       0.262   0.611   0.653  0.00  0.00    +0.074 C 
ATOM      3  C   UNL     1      -0.627  -0.437   0.746  0.00  0.00    +0.028 C 
ATOM      4  C   UNL     1      -2.320   0.990  -0.223  0.00  0.00    +0.159 C 
ATOM      5  C   UNL     1      -0.087   1.839   0.141  0.00  0.00    +0.140 C 
ATOM      6  C   UNL     1      -1.396   2.031  -0.303  0.00  0.00    +0.075 C 
ENDROOT
BRANCH   1   7
ATOM      7  S   UNL     1      -3.075  -1.567   0.413  0.00  0.00    +0.045 S 
ATOM      8  O   UNL     1      -3.343  -2.030  -1.131  0.00  0.00    -0.065 OA
ATOM      9  O   UNL     1      -2.410  -2.675   1.081  0.00  0.00    -0.065 OA
ATOM     10  O   UNL     1      -4.311  -1.013   0.941  0.00  0.00    -0.065 OA
ENDBRANCH   1   7
BRANCH   4  11
ATOM     11  O   UNL     1      -3.592   1.200  -0.662  0.00  0.00    -0.470 OA
ATOM     12  C   UNL     1      -3.860   0.911  -2.033  0.00  0.00    +0.253 C 
ENDBRANCH   4  11
BRANCH   5  13
ATOM     13  O   UNL     1       0.800   2.870   0.055  0.00  0.00    -0.505 OA
ATOM     14  H   UNL     1       1.682   2.754   0.349  0.00  0.00    +0.292 HD
ENDBRANCH   5  13
BRANCH   2  16
ATOM     15  O   UNL     1       1.897   0.634   2.325  0.00  0.00    -0.286 OA
ATOM     16  C   UNL     1       1.658   0.384   1.134  0.00  0.00    +0.199 C 
BRANCH  16  17
ATOM     17  C   UNL     1       2.712  -0.110   0.263  0.00  0.00    +0.039 C 
ATOM     18  C   UNL     1       2.437  -0.390  -1.076  0.00  0.00    +0.003 C 
ATOM     19  C   UNL     1       3.999  -0.304   0.766  0.00  0.00    +0.003 C 
ATOM     20  C   UNL     1       3.448  -0.863  -1.911  0.00  0.00    +0.000 C 
ATOM     21  C   UNL     1       5.010  -0.778  -0.070  0.00  0.00    +0.000 C 
ATOM     22  C   UNL     1       4.735  -1.057  -1.409  0.00  0.00    +0.000 C 
ENDBRANCH  16  17
ENDBRANCH   2  16
TORSDOF 5
