REMARK  Name = 439224
REMARK  8 active torsions:
REMARK  status: ('A' for Active; 'I' for Inactive)
REMARK    1  A    between atoms: CA_1  and  N_3
REMARK    2  A    between atoms: CA_1  and  C_13
REMARK    3  A    between atoms: CA_1  and  CB_16
REMARK    4  A    between atoms: C_4  and  C_6
REMARK    5  A    between atoms: C_6  and  C_7
REMARK    6  A    between atoms: C_7  and  N_8
REMARK    7  A    between atoms: C_13  and  O_14
REMARK    8  A    between atoms: CB_16  and  CG_19
REMARK                            x       y       z     vdW  Elec       q    Type
REMARK                         _______ _______ _______ _____ _____    ______ ____
ROOT
ATOM      1  CA  HIS A   1       0.373   1.147   0.047  0.00  0.00    +0.177 C 
ENDROOT
BRANCH   1   3
ATOM      2  O   UNK A   0      -1.890   0.154   1.498  0.00  0.00    -0.275 OA
ATOM      3  N   HIS A   1      -0.695   0.333  -0.483  0.00  0.00    -0.297 N 
ATOM      4  C   UNK A   0      -1.752  -0.099   0.305  0.00  0.00    +0.221 C 
ATOM      5  H   HIS A   1      -0.672   0.077  -1.433  0.00  0.00    +0.150 HD
BRANCH   4   6
ATOM      6  C   UNK A   0      -2.738  -0.937  -0.490  0.00  0.00    +0.061 C 
BRANCH   6   7
ATOM      7  C   UNK A   0      -3.906  -1.420   0.362  0.00  0.00    -0.077 C 
BRANCH   7   8
ATOM      8  N   UNK A   0      -4.817  -2.229  -0.438  0.00  0.00    +0.381 N 
ATOM      9  H   UNK A   0      -5.592  -2.545   0.145  0.00  0.00    -0.089 HD
ATOM     10  H   UNK A   0      -4.318  -3.039  -0.807  0.00  0.00    -0.089 HD
ATOM     11  H   UNK A   0      -5.179  -1.671  -1.211  0.00  0.00    -0.089 HD
ENDBRANCH   7   8
ENDBRANCH   6   7
ENDBRANCH   4   6
ENDBRANCH   1   3
BRANCH   1  13
ATOM     12  OXT HIS A   1       0.714   3.502   0.484  0.00  0.00    -0.248 OA
ATOM     13  C   HIS A   1       0.002   2.623   0.009  0.00  0.00    +0.332 C 
BRANCH  13  14
ATOM     14  O   HIS A   1      -1.183   2.897  -0.588  0.00  0.00    -0.479 OA
ATOM     15  H   HIS A   1      -1.702   2.201  -0.940  0.00  0.00    +0.295 HD
ENDBRANCH  13  14
ENDBRANCH   1  13
BRANCH   1  16
ATOM     16  CB  HIS A   1       1.685   0.916  -0.713  0.00  0.00    +0.073 C 
BRANCH  16  19
ATOM     17  ND1 HIS A   1       1.764  -1.553  -0.396  0.00  0.00    -0.319 N 
ATOM     18  NE2 HIS A   1       3.792  -1.919   0.432  0.00  0.00    -0.315 N 
ATOM     19  CG  HIS A   1       2.378  -0.360  -0.296  0.00  0.00    +0.040 C 
ATOM     20  CD2 HIS A   1       3.610  -0.577   0.206  0.00  0.00    +0.069 C 
ATOM     21  CE1 HIS A   1       2.662  -2.478   0.060  0.00  0.00    +0.182 C 
ATOM     22  HD1 HIS A   1       0.854  -1.725  -0.728  0.00  0.00    +0.148 HD
ATOM     23  HE2 HIS A   1       4.592  -2.364   0.794  0.00  0.00    +0.148 HD
ENDBRANCH  16  19
ENDBRANCH   1  16
TORSDOF 8
