REMARK  Name = 16739244
REMARK  9 active torsions:
REMARK  status: ('A' for Active; 'I' for Inactive)
REMARK    1  A    between atoms: N_1  and  C_21
REMARK    2  A    between atoms: C_3  and  C_6
REMARK    3  A    between atoms: C_4  and  O_10
REMARK    4  A    between atoms: C_5  and  C_8
REMARK    5  A    between atoms: O_10  and  C_11
REMARK    6  A    between atoms: C_14  and  C_20
REMARK    7  A    between atoms: C_15  and  C_18
REMARK    8  A    between atoms: C_21  and  C_22
REMARK    9  A    between atoms: C_22  and  O_23
REMARK                            x       y       z     vdW  Elec       q    Type
REMARK                         _______ _______ _______ _____ _____    ______ ____
ROOT
ATOM      1  N   UNL     1       3.058  -0.246   0.268  0.00  0.00    -0.250 N 
ATOM      2  N   UNL     1       2.633   0.621   1.202  0.00  0.00    -0.171 NA
ATOM      3  C   UNL     1       2.167  -0.443  -0.747  0.00  0.00    +0.091 A 
ATOM      4  C   UNL     1       1.084   0.349  -0.454  0.00  0.00    +0.173 A 
ATOM      5  C   UNL     1       1.426   0.981   0.756  0.00  0.00    +0.114 A 
ENDROOT
BRANCH   3   6
ATOM      6  C   UNL     1       2.432  -1.353  -1.877  0.00  0.00    +0.049 C 
ATOM      7  C   UNL     1       1.957  -2.787  -1.625  0.00  0.00    +0.007 C 
ENDBRANCH   3   6
BRANCH   5   8
ATOM      8  C   UNL     1       0.623   1.945   1.528  0.00  0.00    +0.051 C 
ATOM      9  C   UNL     1       0.873   3.402   1.128  0.00  0.00    +0.007 C 
ENDBRANCH   5   8
BRANCH   4  10
ATOM     10  O   UNL     1      -0.057   0.467  -1.204  0.00  0.00    -0.451 OA
BRANCH  10  11
ATOM     11  C   UNL     1      -1.284   0.152  -0.708  0.00  0.00    +0.147 C 
ATOM     12  C   UNL     1      -1.461  -1.023   0.021  0.00  0.00    +0.048 C 
ATOM     13  C   UNL     1      -2.366   1.006  -0.929  0.00  0.00    +0.048 C 
ATOM     14  C   UNL     1      -2.719  -1.346   0.530  0.00  0.00    +0.072 C 
ATOM     15  C   UNL     1      -3.624   0.683  -0.420  0.00  0.00    +0.072 C 
ATOM     16  C   UNL     1      -3.801  -0.493   0.309  0.00  0.00    +0.021 C 
BRANCH  15  18
ATOM     17  N   UNL     1      -5.631   2.266  -0.832  0.00  0.00    -0.191 NA
ATOM     18  C   UNL     1      -4.732   1.556  -0.648  0.00  0.00    +0.101 C 
ENDBRANCH  15  18
BRANCH  14  20
ATOM     19  N   UNL     1      -3.047  -3.527   1.886  0.00  0.00    -0.191 NA
ATOM     20  C   UNL     1      -2.900  -2.550   1.278  0.00  0.00    +0.101 C 
ENDBRANCH  14  20
ENDBRANCH  10  11
ENDBRANCH   4  10
BRANCH   1  21
ATOM     21  C   UNL     1       4.358  -0.858   0.411  0.00  0.00    +0.159 C 
BRANCH  21  22
ATOM     22  C   UNL     1       5.463  -0.041  -0.246  0.00  0.00    +0.163 C 
BRANCH  22  23
ATOM     23  O   UNL     1       5.548   1.236   0.372  0.00  0.00    -0.380 OA
ATOM     24  H   UNL     1       6.252   1.753  -0.049  0.00  0.00    +0.211 HD
ENDBRANCH  22  23
ENDBRANCH  21  22
ENDBRANCH   1  21
TORSDOF 9
