REMARK  Name = 10219851
REMARK  5 active torsions:
REMARK  status: ('A' for Active; 'I' for Inactive)
REMARK    1  A    between atoms: C_1  and  C_8
REMARK    2  A    between atoms: C_2  and  O_11
REMARK    3  A    between atoms: O_11  and  C_12
REMARK    4  A    between atoms: C_12  and  C_13
REMARK    5  A    between atoms: C_13  and  O_14
REMARK                            x       y       z     vdW  Elec       q    Type
REMARK                         _______ _______ _______ _____ _____    ______ ____
ROOT
ATOM      1  C   UNL     1      -0.873  -0.736   0.415  0.00  0.00    +0.027 C 
ATOM      2  C   UNL     1       0.171   0.086  -0.358  0.00  0.00    +0.115 C 
ATOM      3  C   UNL     1      -2.288  -0.206   0.153  0.00  0.00    +0.002 C 
ATOM      4  C   UNL     1      -1.367   2.104  -0.324  0.00  0.00    +0.002 C 
ATOM      5  C   UNL     1       0.048   1.581  -0.057  0.00  0.00    +0.030 C 
ATOM      6  C   UNL     1      -2.402   1.286   0.458  0.00  0.00    +0.000 C 
ATOM      7  C   UNL     1      -1.471   3.586   0.030  0.00  0.00    +0.000 C 
ENDROOT
BRANCH   1   8
ATOM      8  C   UNL     1      -0.788  -2.223   0.060  0.00  0.00    +0.002 C 
ATOM      9  C   UNL     1      -1.747  -3.033   0.927  0.00  0.00    +0.000 C 
ATOM     10  C   UNL     1      -1.088  -2.435  -1.421  0.00  0.00    +0.000 C 
ENDBRANCH   1   8
BRANCH   2  11
ATOM     11  O   UNL     1       1.479  -0.350   0.005  0.00  0.00    -0.354 OA
BRANCH  11  12
ATOM     12  C   UNL     1       2.478   0.349  -0.722  0.00  0.00    +0.174 C 
BRANCH  12  13
ATOM     13  C   UNL     1       3.844  -0.138  -0.278  0.00  0.00    +0.169 C 
BRANCH  13  14
ATOM     14  O   UNL     1       4.003   0.129   1.111  0.00  0.00    -0.379 OA
ATOM     15  H   UNL     1       4.876  -0.179   1.401  0.00  0.00    +0.211 HD
ENDBRANCH  13  14
ENDBRANCH  12  13
ENDBRANCH  11  12
ENDBRANCH   2  11
TORSDOF 5
