REMARK  Name = 24405
REMARK  7 active torsions:
REMARK  status: ('A' for Active; 'I' for Inactive)
REMARK    1  A    between atoms: N_1  and  C1*_12
REMARK    2  A    between atoms: C2*_11  and  O2*_15
REMARK    3  A    between atoms: C3*_13  and  O3*_17
REMARK    4  A    between atoms: C4*_14  and  C5*_19
REMARK    5  A    between atoms: C5*_19  and  O5*_20
REMARK    6  A    between atoms: N_22  and  C_24
REMARK    7  A    between atoms: C_24  and  C_25
REMARK                            x       y       z     vdW  Elec       q    Type
REMARK                         _______ _______ _______ _____ _____    ______ ____
ROOT
ATOM      1  N   UNL     1       1.255  -0.158   0.210  0.00  0.00    -0.247 N 
ATOM      2  N   UNL     1      -0.519   1.022  -0.451  0.00  0.00    -0.242 NA
ATOM      3  N   UNL     1       0.165  -2.241   0.818  0.00  0.00    -0.228 NA
ATOM      4  N   UNL     1      -2.246  -2.121   0.455  0.00  0.00    -0.228 NA
ATOM      5  C   UNL     1       0.174  -0.979   0.363  0.00  0.00    +0.152 C 
ATOM      6  C   UNL     1       0.786   1.033  -0.281  0.00  0.00    +0.223 C 
ATOM      7  C   UNL     1      -0.915  -0.230  -0.052  0.00  0.00    +0.140 C 
ATOM      8  C   UNL     1      -2.161  -0.846   0.005  0.00  0.00    +0.146 C 
ATOM      9  C   UNL     1      -1.094  -2.731   0.828  0.00  0.00    +0.253 C 
ATOM     10  N   UNL     1      -3.320  -0.160  -0.397  0.00  0.00    -0.313 N 
ATOM     11  H   UNL     1      -3.229   0.766  -0.720  0.00  0.00    +0.149 HD
ENDROOT
BRANCH   1  14
ATOM     12  O4* UNL     1       3.325   0.709   0.984  0.00  0.00    -0.333 OA
ATOM     13  C2* UNL     1       3.434  -1.001  -0.697  0.00  0.00    +0.187 C 
ATOM     14  C1* UNL     1       2.652  -0.477   0.509  0.00  0.00    +0.225 C 
ATOM     15  C3* UNL     1       4.263   0.200  -1.109  0.00  0.00    +0.171 C 
ATOM     16  C4* UNL     1       4.533   0.878   0.223  0.00  0.00    +0.175 C 
BRANCH  13  17
ATOM     17  O2* UNL     1       4.264  -2.085  -0.283  0.00  0.00    -0.378 OA
ATOM     18  H2* UNL     1       3.709  -2.838  -0.026  0.00  0.00    +0.211 HD
ENDBRANCH  13  17
BRANCH  15  19
ATOM     19  O3* UNL     1       5.456  -0.144  -1.781  0.00  0.00    -0.379 OA
ATOM     20  H3* UNL     1       5.240  -0.573  -2.624  0.00  0.00    +0.211 HD
ENDBRANCH  15  19
BRANCH  16  21
ATOM     21  C5* UNL     1       4.857   2.356   0.095  0.00  0.00    +0.169 C 
BRANCH  21  22
ATOM     22  O5* UNL     1       5.078   2.886   1.391  0.00  0.00    -0.379 OA
ATOM     23  H5* UNL     1       5.286   3.831   1.322  0.00  0.00    +0.211 HD
ENDBRANCH  21  22
ENDBRANCH  16  21
ENDBRANCH   1  14
BRANCH  10  24
ATOM     24  C   UNL     1      -4.628  -0.745  -0.360  0.00  0.00    +0.114 C 
BRANCH  24  25
ATOM     25  C   UNL     1      -5.617   0.253  -0.875  0.00  0.00    -0.013 C 
ATOM     26  C   UNL     1      -6.309   1.168  -0.169  0.00  0.00    -0.046 C 
ATOM     27  C   UNL     1      -7.292   2.145  -0.750  0.00  0.00    +0.026 C 
ATOM     28  C   UNL     1      -6.142   1.267   1.324  0.00  0.00    +0.026 C 
ENDBRANCH  24  25
ENDBRANCH  10  24
TORSDOF 7
