REMARK  Name = 16046068
REMARK  5 active torsions:
REMARK  status: ('A' for Active; 'I' for Inactive)
REMARK    1  A    between atoms: C_1  and  C_8
REMARK    2  A    between atoms: C_6  and  O_19
REMARK    3  A    between atoms: C_10  and  C_16
REMARK    4  A    between atoms: O_19  and  C_20
REMARK    5  A    between atoms: C_20  and  C_22
REMARK                            x       y       z     vdW  Elec       q    Type
REMARK                         _______ _______ _______ _____ _____    ______ ____
ROOT
ATOM      1  C   UNL     1       1.911  -0.934   0.390  0.00  0.00    -0.042 C 
ATOM      2  C   UNL     1       1.151  -1.810   1.168  0.00  0.00    -0.003 C 
ATOM      3  C   UNL     1       1.276   0.062  -0.354  0.00  0.00    -0.003 C 
ATOM      4  C   UNL     1      -0.238  -1.688   1.203  0.00  0.00    +0.037 C 
ATOM      5  C   UNL     1      -0.113   0.184  -0.319  0.00  0.00    +0.037 C 
ATOM      6  C   UNL     1      -0.870  -0.692   0.459  0.00  0.00    +0.139 C 
ENDROOT
BRANCH   1   8
ATOM      7  N   UNL     1       4.117   0.143   0.800  0.00  0.00    +0.395 N 
ATOM      8  C   UNL     1       3.414  -1.066   0.351  0.00  0.00    -0.038 C 
ATOM      9  C   UNL     1       3.977  -1.273  -1.050  0.00  0.00    -0.019 C 
ATOM     10  C   UNL     1       5.483   0.053   0.285  0.00  0.00    +0.017 C 
ATOM     11  C   UNL     1       5.448  -0.926  -0.883  0.00  0.00    -0.014 C 
ATOM     12  H   UNL     1       4.128   0.184   1.819  0.00  0.00    -0.083 HD
ATOM     13  H   UNL     1       3.652   0.984   0.460  0.00  0.00    -0.083 HD
BRANCH  10  16
ATOM     14  O   UNL     1       5.034   2.238  -0.559  0.00  0.00    -0.278 OA
ATOM     15  N   UNL     1       7.211   1.688  -0.057  0.00  0.00    -0.330 N 
ATOM     16  C   UNL     1       5.863   1.431  -0.147  0.00  0.00    +0.199 C 
ATOM     17  H   UNL     1       7.562   2.570  -0.319  0.00  0.00    +0.145 HD
ATOM     18  H   UNL     1       7.824   0.991   0.270  0.00  0.00    +0.145 HD
ENDBRANCH  10  16
ENDBRANCH   1   8
BRANCH   6  19
ATOM     19  O   UNL     1      -2.225  -0.573   0.494  0.00  0.00    -0.471 OA
BRANCH  19  20
ATOM     20  C   UNL     1      -2.807   0.467  -0.290  0.00  0.00    +0.234 C 
BRANCH  20  22
ATOM     21  F   UNL     1      -4.626  -0.977  -1.899  0.00  0.00    -0.204 F 
ATOM     22  C   UNL     1      -4.286   0.541  -0.106  0.00  0.00    +0.049 C 
ATOM     23  C   UNL     1      -5.132  -0.198  -0.933  0.00  0.00    +0.140 C 
ATOM     24  C   UNL     1      -4.822   1.351   0.895  0.00  0.00    +0.002 C 
ATOM     25  C   UNL     1      -6.514  -0.126  -0.759  0.00  0.00    +0.029 C 
ATOM     26  C   UNL     1      -6.204   1.422   1.069  0.00  0.00    -0.000 C 
ATOM     27  C   UNL     1      -7.050   0.684   0.242  0.00  0.00    +0.002 C 
ENDBRANCH  20  22
ENDBRANCH  19  20
ENDBRANCH   6  19
TORSDOF 5
