708857
  -OEChem-10061700113D

 28 29  0     0  0  0  0  0  0999 V2000
    3.4107   -1.3436   -0.6106 S   0  0  0  0  0  0  0  0  0  0  0  0
   -2.4442    0.9678   -0.1638 N   0  0  0  0  0  0  0  0  0  0  0  0
   -1.6399   -1.2703    0.1730 N   0  0  0  0  0  0  0  0  0  0  0  0
   -3.8414    0.5576   -0.2774 C   0  0  0  0  0  0  0  0  0  0  0  0
   -4.0409   -0.7530    0.4660 C   0  0  0  0  0  0  0  0  0  0  0  0
   -3.0087   -1.7625   -0.0083 C   0  0  0  0  0  0  0  0  0  0  0  0
   -1.4456    0.0161    0.0730 C   0  0  0  0  0  0  0  0  0  0  0  0
   -2.1683    2.3790   -0.3995 C   0  0  0  0  0  0  0  0  0  0  0  0
   -0.0205    0.4185    0.2463 C   0  0  0  0  0  0  0  0  0  0  0  0
    0.9056   -0.4493   -0.1400 C   0  0  0  0  0  0  0  0  0  0  0  0
    2.3098   -0.1774   -0.0418 C   0  0  0  0  0  0  0  0  0  0  0  0
    2.9131    0.9351    0.4668 C   0  0  0  0  0  0  0  0  0  0  0  0
    4.3323    0.8354    0.3907 C   0  0  0  0  0  0  0  0  0  0  0  0
    4.7379   -0.3535   -0.1744 C   0  0  0  0  0  0  0  0  0  0  0  0
   -4.0979    0.4396   -1.3366 H   0  0  0  0  0  0  0  0  0  0  0  0
   -4.5067    1.3179    0.1474 H   0  0  0  0  0  0  0  0  0  0  0  0
   -5.0537   -1.1342    0.2976 H   0  0  0  0  0  0  0  0  0  0  0  0
   -3.9261   -0.5883    1.5449 H   0  0  0  0  0  0  0  0  0  0  0  0
   -3.1228   -2.6879    0.5664 H   0  0  0  0  0  0  0  0  0  0  0  0
   -3.1646   -2.0161   -1.0632 H   0  0  0  0  0  0  0  0  0  0  0  0
   -3.0602    2.9159   -0.7404 H   0  0  0  0  0  0  0  0  0  0  0  0
   -1.4021    2.4987   -1.1723 H   0  0  0  0  0  0  0  0  0  0  0  0
   -1.8228    2.8561    0.5229 H   0  0  0  0  0  0  0  0  0  0  0  0
    0.1841    1.3997    0.6539 H   0  0  0  0  0  0  0  0  0  0  0  0
    0.6289   -1.4069   -0.5749 H   0  0  0  0  0  0  0  0  0  0  0  0
    2.4037    1.7955    0.8813 H   0  0  0  0  0  0  0  0  0  0  0  0
    5.0210    1.5968    0.7332 H   0  0  0  0  0  0  0  0  0  0  0  0
    5.7503   -0.6881   -0.3520 H   0  0  0  0  0  0  0  0  0  0  0  0
  1 11  1  0  0  0  0
  1 14  1  0  0  0  0
  2  4  1  0  0  0  0
  2  7  1  0  0  0  0
  2  8  1  0  0  0  0
  3  6  1  0  0  0  0
  3  7  2  0  0  0  0
  4  5  1  0  0  0  0
  4 15  1  0  0  0  0
  4 16  1  0  0  0  0
  5  6  1  0  0  0  0
  5 17  1  0  0  0  0
  5 18  1  0  0  0  0
  6 19  1  0  0  0  0
  6 20  1  0  0  0  0
  7  9  1  0  0  0  0
  8 21  1  0  0  0  0
  8 22  1  0  0  0  0
  8 23  1  0  0  0  0
  9 10  2  0  0  0  0
  9 24  1  0  0  0  0
 10 11  1  0  0  0  0
 10 25  1  0  0  0  0
 11 12  2  0  0  0  0
 12 13  1  0  0  0  0
 12 26  1  0  0  0  0
 13 14  2  0  0  0  0
 13 27  1  0  0  0  0
 14 28  1  0  0  0  0
M  END
> <DATABASE_ID>
DB11156

> <DATABASE_NAME>
drugbank

> <ORIGINAL_SOURCE>
PUBCHEM

> <ORIGINAL_SOURCE_URL>
https://pubchem.ncbi.nlm.nih.gov/rest/pug/compound/inchikey/YSAUAVHXTIETRK-AATRIKPKSA-N/SDF?record_type=3d

> <SMILES>
[H]\C(=C(\[H])C1=NCCCN1C)C1=CC=CS1

> <INCHI_IDENTIFIER>
InChI=1S/C11H14N2S/c1-13-8-3-7-12-11(13)6-5-10-4-2-9-14-10/h2,4-6,9H,3,7-8H2,1H3/b6-5+

> <INCHI_KEY>
YSAUAVHXTIETRK-AATRIKPKSA-N

> <FORMULA>
C11H14N2S

> <MOLECULAR_WEIGHT>
206.31

> <EXACT_MASS>
206.087769633

> <JCHEM_ACCEPTOR_COUNT>
2

> <JCHEM_ATOM_COUNT>
28

> <JCHEM_AVERAGE_POLARIZABILITY>
23.322536889394833

> <JCHEM_BIOAVAILABILITY>
1

> <JCHEM_DONOR_COUNT>
0

> <JCHEM_FORMAL_CHARGE>
0

> <JCHEM_GHOSE_FILTER>
1

> <JCHEM_IUPAC>
1-methyl-2-[(E)-2-(thiophen-2-yl)ethenyl]-1,4,5,6-tetrahydropyrimidine

> <ALOGPS_LOGP>
2.69

> <JCHEM_LOGP>
1.9635495253333333

> <ALOGPS_LOGS>
-3.24

> <JCHEM_MDDR_LIKE_RULE>
0

> <JCHEM_NUMBER_OF_RINGS>
2

> <JCHEM_PHYSIOLOGICAL_CHARGE>
1

> <JCHEM_PKA_STRONGEST_BASIC>
10.71463975207852

> <JCHEM_POLAR_SURFACE_AREA>
15.6

> <JCHEM_REFRACTIVITY>
61.81360000000001

> <JCHEM_ROTATABLE_BOND_COUNT>
2

> <JCHEM_RULE_OF_FIVE>
1

> <ALOGPS_SOLUBILITY>
1.18e-01 g/l

> <JCHEM_TRADITIONAL_IUPAC>
pyrantel

> <JCHEM_VEBER_RULE>
1

> <DRUGBANK_ID>
DB11156

> <DRUG_GROUPS>
approved; vet_approved

> <GENERIC_NAME>
Pyrantel

> <SYNONYMS>
Pirantel; Pyrantel; Pyrantelum

> <PRODUCTS>
CVS Pinworm Treatment; Combantrin Oral Suspension 50mg/ml; Combantrin Tab 125mg; Jaa Pyral 125 Tablet 125mg; Jaa Pyral 35 Tablet 35mg; Jaa Pyral P Oral Paste - 125mg/g; Jaa Pyral S Suspension 50mg/76; Jamp-pyrantel Pamoate; Jamp-pyrantel Pamoate Suspension; Parasitexx; Parasitol; Pin X; Pin-X; PinAway; Pinworm Medicine; Pinworm Treatment; Pronto Plus Pinworm Treatment; Pyrantel Pamoate; Vermocks; Walgreens Pinworm Medicine; Wormedex

> <SALTS>
Pyrantel citrate; Pyrantel pamoate; Pyrantel tartrate

$$$$
