REMARK  Name = 10298385
REMARK  4 active torsions:
REMARK  status: ('A' for Active; 'I' for Inactive)
REMARK    1  A    between atoms: C_1  and  C_21
REMARK    2  A    between atoms: C_2  and  C_16
REMARK    3  A    between atoms: C_21  and  N_24
REMARK    4  A    between atoms: C_25  and  C_33
REMARK                            x       y       z     vdW  Elec       q    Type
REMARK                         _______ _______ _______ _____ _____    ______ ____
ROOT
ATOM      1  C   UNL     1      -0.759   2.492   0.590  0.00  0.00    -0.006 C 
ATOM      2  C   UNL     1       1.842   1.501   0.783  0.00  0.00    +0.054 C 
ATOM      3  C   UNL     1       0.196   2.850  -0.361  0.00  0.00    -0.024 C 
ATOM      4  C   UNL     1       1.497   2.356  -0.264  0.00  0.00    +0.000 C 
ATOM      5  C   UNL     1      -0.413   1.638   1.638  0.00  0.00    -0.003 C 
ATOM      6  C   UNL     1       0.887   1.142   1.734  0.00  0.00    +0.004 C 
ATOM      7  C   UNL     1      -0.149   3.765  -1.490  0.00  0.00    +0.031 C 
ENDROOT
BRANCH   2  16
ATOM      8  O   UNL     1       3.994   1.693   1.515  0.00  0.00    -0.270 OA
ATOM      9  N   UNL     1       3.512  -0.235   0.241  0.00  0.00    -0.255 N 
ATOM     10  C   UNL     1       2.429  -0.634  -1.961  0.00  0.00    +0.022 C 
ATOM     11  C   UNL     1       3.790  -0.583  -2.645  0.00  0.00    +0.006 C 
ATOM     12  C   UNL     1       2.508  -1.023  -0.491  0.00  0.00    +0.099 C 
ATOM     13  C   UNL     1       4.728  -1.698  -2.188  0.00  0.00    +0.028 C 
ATOM     14  C   UNL     1       5.411  -1.468  -0.852  0.00  0.00    -0.008 C 
ATOM     15  C   UNL     1       4.863  -0.747   0.238  0.00  0.00    +0.050 C 
ATOM     16  C   UNL     1       3.212   0.981   0.886  0.00  0.00    +0.253 C 
ATOM     17  C   UNL     1       6.708  -2.010  -0.726  0.00  0.00    -0.003 C 
ATOM     18  C   UNL     1       5.657  -0.570   1.391  0.00  0.00    +0.015 C 
ATOM     19  C   UNL     1       7.470  -1.823   0.424  0.00  0.00    -0.000 C 
ATOM     20  C   UNL     1       6.945  -1.097   1.482  0.00  0.00    +0.001 C 
ENDBRANCH   2  16
BRANCH   1  21
ATOM     21  C   UNL     1      -2.157   3.009   0.508  0.00  0.00    +0.117 C 
BRANCH  21  24
ATOM     22  O   UNL     1      -3.761   0.911   1.532  0.00  0.00    -0.253 OA
ATOM     23  N   UNL     1      -4.544   0.394  -0.580  0.00  0.00    -0.257 N 
ATOM     24  N   UNL     1      -3.016   2.144  -0.267  0.00  0.00    -0.285 N 
ATOM     25  C   UNL     1      -5.517  -0.595  -0.133  0.00  0.00    +0.153 C 
ATOM     26  C   UNL     1      -6.435  -0.804  -1.332  0.00  0.00    +0.031 C 
ATOM     27  C   UNL     1      -5.528  -0.526  -2.527  0.00  0.00    +0.024 C 
ATOM     28  C   UNL     1      -4.620   0.588  -2.027  0.00  0.00    +0.095 C 
ATOM     29  C   UNL     1      -3.773   1.135   0.318  0.00  0.00    +0.305 C 
ATOM     30  H   UNL     1      -3.068   2.274  -1.242  0.00  0.00    +0.151 HD
BRANCH  25  33
ATOM     31  O   UNL     1      -3.708  -2.090  -0.389  0.00  0.00    -0.273 OA
ATOM     32  N   UNL     1      -5.301  -2.650   1.209  0.00  0.00    -0.275 N 
ATOM     33  C   UNL     1      -4.757  -1.841   0.211  0.00  0.00    +0.244 C 
ATOM     34  C   UNL     1      -4.665  -3.888   1.641  0.00  0.00    +0.115 C 
ATOM     35  C   UNL     1      -6.546  -2.315   1.894  0.00  0.00    +0.115 C 
ENDBRANCH  25  33
ENDBRANCH  21  24
ENDBRANCH   1  21
TORSDOF 4
