REMARK  Name = 6842999
REMARK  4 active torsions:
REMARK  status: ('A' for Active; 'I' for Inactive)
REMARK    1  A    between atoms: N_1  and  C_2
REMARK    2  A    between atoms: N_1  and  N_6
REMARK    3  A    between atoms: C_2  and  C_13
REMARK    4  A    between atoms: C_16  and  N_19
REMARK                            x       y       z     vdW  Elec       q    Type
REMARK                         _______ _______ _______ _____ _____    ______ ____
ROOT
ATOM      1  N   UNL     1       0.669   0.178  -0.126  0.00  0.00    -0.139 NA
ENDROOT
BRANCH   1   5
ATOM      2  S   UNL     1       4.421  -0.742   0.050  0.00  0.00    -0.007 S 
ATOM      3  O   UNL     1       5.387   0.059   0.776  0.00  0.00    -0.173 OA
ATOM      4  O   UNL     1       4.827  -1.943  -0.652  0.00  0.00    -0.173 OA
ATOM      5  N   UNL     1       1.717   0.776   0.483  0.00  0.00    -0.201 NA
ATOM      6  C   UNL     1       2.740   1.379  -0.392  0.00  0.00    +0.098 C 
ATOM      7  C   UNL     1       3.579   0.318  -1.111  0.00  0.00    +0.168 C 
ATOM      8  C   UNL     1       3.107  -1.178   1.171  0.00  0.00    +0.170 C 
ATOM      9  C   UNL     1       2.318   0.050   1.611  0.00  0.00    +0.115 C 
ATOM     10  C   UNL     1       2.107   2.339  -1.403  0.00  0.00    +0.021 C 
ENDBRANCH   1   5
BRANCH   1  11
ATOM     11  C   UNL     1      -0.476   0.493   0.387  0.00  0.00    +0.172 C 
BRANCH  11  13
ATOM     12  O   UNL     1      -2.854   0.353   0.486  0.00  0.00    -0.436 OA
ATOM     13  C   UNL     1      -1.742  -0.052  -0.133  0.00  0.00    +0.144 C 
ATOM     14  C   UNL     1      -1.960  -0.906  -1.147  0.00  0.00    +0.040 C 
ATOM     15  C   UNL     1      -3.366  -1.065  -1.181  0.00  0.00    +0.066 C 
ATOM     16  C   UNL     1      -3.864  -0.279  -0.168  0.00  0.00    +0.289 C 
BRANCH  16  19
ATOM     17  O   UNL     1      -6.152  -0.552  -0.243  0.00  0.00    -0.123 OA
ATOM     18  O   UNL     1      -5.309   0.780   1.284  0.00  0.00    -0.123 OA
ATOM     19  N   UNL     1      -5.149  -0.009   0.306  0.00  0.00    +0.093 N 
ENDBRANCH  16  19
ENDBRANCH  11  13
ENDBRANCH   1  11
TORSDOF 4
