REMARK  Name = 8293
REMARK  6 active torsions:
REMARK  status: ('A' for Active; 'I' for Inactive)
REMARK    1  A    between atoms: C_1  and  S_7
REMARK    2  A    between atoms: C_2  and  O_13
REMARK    3  A    between atoms: S_7  and  N_10
REMARK    4  A    between atoms: O_13  and  P_15
REMARK    5  A    between atoms: P_15  and  O_16
REMARK    6  A    between atoms: P_15  and  O_18
REMARK                            x       y       z     vdW  Elec       q    Type
REMARK                         _______ _______ _______ _____ _____    ______ ____
ROOT
ATOM      1  C   UNL     1      -2.322   0.096   0.007  0.00  0.00    +0.122 C 
ATOM      2  C   UNL     1       0.409   0.549  -0.271  0.00  0.00    +0.147 C 
ATOM      3  C   UNL     1      -1.430  -0.976   0.038  0.00  0.00    +0.023 C 
ATOM      4  C   UNL     1      -1.844   1.396  -0.164  0.00  0.00    +0.023 C 
ATOM      5  C   UNL     1      -0.061  -0.749  -0.101  0.00  0.00    +0.039 C 
ATOM      6  C   UNL     1      -0.475   1.623  -0.303  0.00  0.00    +0.039 C 
ENDROOT
BRANCH   1   7
ATOM      7  S   UNL     1      -4.036  -0.189   0.182  0.00  0.00    +0.057 S 
ATOM      8  O   UNL     1      -4.222  -1.444   0.896  0.00  0.00    -0.153 OA
ATOM      9  O   UNL     1      -4.658   1.028   0.684  0.00  0.00    -0.153 OA
BRANCH   7  10
ATOM     10  N   UNL     1      -4.497  -0.408  -1.448  0.00  0.00    -0.203 NA
ATOM     11  H   UNL     1      -5.500  -0.588  -1.497  0.00  0.00    +0.144 HD
ATOM     12  H   UNL     1      -3.990  -1.201  -1.841  0.00  0.00    +0.144 HD
ENDBRANCH   7  10
ENDBRANCH   1   7
BRANCH   2  13
ATOM     13  O   UNL     1       1.753   0.772  -0.409  0.00  0.00    -0.425 OA
BRANCH  13  15
ATOM     14  S   UNL     1       2.880  -0.427   2.159  0.00  0.00    +0.036 S 
ATOM     15  P   UNL     1       2.948  -0.115   0.235  0.00  0.00    +0.363 P 
BRANCH  15  16
ATOM     16  O   UNL     1       4.258   0.684  -0.310  0.00  0.00    -0.286 OA
ATOM     17  C   UNL     1       4.447   2.046   0.035  0.00  0.00    +0.185 C 
ENDBRANCH  15  16
BRANCH  15  18
ATOM     18  O   UNL     1       2.959  -1.423  -0.733  0.00  0.00    -0.286 OA
ATOM     19  C   UNL     1       3.889  -2.466  -0.497  0.00  0.00    +0.185 C 
ENDBRANCH  15  18
ENDBRANCH  13  15
ENDBRANCH   2  13
TORSDOF 6
