REMARK  Name = 5042
REMARK  6 active torsions:
REMARK  status: ('A' for Active; 'I' for Inactive)
REMARK    1  A    between atoms: CA_1  and  N_3
REMARK    2  A    between atoms: CA_1  and  C_14
REMARK    3  A    between atoms: CA_1  and  C_17
REMARK    4  A    between atoms: C_4  and  C_7
REMARK    5  A    between atoms: C_14  and  O_15
REMARK    6  A    between atoms: C_17  and  C_20
REMARK                            x       y       z     vdW  Elec       q    Type
REMARK                         _______ _______ _______ _____ _____    ______ ____
ROOT
ATOM      1  CA  UNL     1       0.473   2.144  -0.278  0.00  0.00    +0.176 C 
ENDROOT
BRANCH   1   3
ATOM      2  O   UNL     1      -0.763   0.759   1.890  0.00  0.00    -0.270 OA
ATOM      3  N   UNL     1      -0.777   1.428  -0.319  0.00  0.00    -0.293 N 
ATOM      4  C   UNL     1      -1.330   0.764   0.797  0.00  0.00    +0.246 C 
ATOM      5  H   UNL     1      -1.272   1.400  -1.170  0.00  0.00    +0.150 HD
BRANCH   4   7
ATOM      6 CL   UNL     1      -6.601  -1.915   0.010  0.00  0.00    -0.082 Cl
ATOM      7  C   UNL     1      -2.627   0.103   0.603  0.00  0.00    +0.053 C 
ATOM      8  C   UNL     1      -3.477  -0.063   1.687  0.00  0.00    +0.005 C 
ATOM      9  C   UNL     1      -2.984  -0.344  -0.661  0.00  0.00    +0.005 C 
ATOM     10  C   UNL     1      -4.710  -0.689   1.503  0.00  0.00    +0.012 C 
ATOM     11  C   UNL     1      -4.217  -0.970  -0.845  0.00  0.00    +0.012 C 
ATOM     12  C   UNL     1      -5.080  -1.142   0.237  0.00  0.00    +0.058 C 
ENDBRANCH   4   7
ENDBRANCH   1   3
BRANCH   1  14
ATOM     13  OXT UNL     1       1.215   4.442  -0.436  0.00  0.00    -0.248 OA
ATOM     14  C   UNL     1       0.294   3.636  -0.518  0.00  0.00    +0.332 C 
BRANCH  14  15
ATOM     15  O   UNL     1      -0.968   4.007  -0.842  0.00  0.00    -0.479 OA
ATOM     16  H   UNL     1      -1.647   3.363  -0.895  0.00  0.00    +0.295 HD
ENDBRANCH  14  15
ENDBRANCH   1  14
BRANCH   1  17
ATOM     17  C   UNL     1       1.501   1.526  -1.229  0.00  0.00    +0.058 C 
BRANCH  17  20
ATOM     18  O   UNL     1       0.589  -3.153  -2.006  0.00  0.00    -0.270 OA
ATOM     19  N   UNL     1       2.283  -2.662  -0.530  0.00  0.00    -0.280 N 
ATOM     20  C   UNL     1       1.767   0.067  -0.993  0.00  0.00    -0.014 C 
ATOM     21  C   UNL     1       2.837  -0.342  -0.058  0.00  0.00    +0.010 C 
ATOM     22  C   UNL     1       3.065  -1.711   0.148  0.00  0.00    +0.050 C 
ATOM     23  C   UNL     1       1.043  -0.875  -1.619  0.00  0.00    +0.054 C 
ATOM     24  C   UNL     1       3.639   0.575   0.637  0.00  0.00    +0.001 C 
ATOM     25  C   UNL     1       1.277  -2.327  -1.409  0.00  0.00    +0.249 C 
ATOM     26  C   UNL     1       4.064  -2.156   1.020  0.00  0.00    +0.015 C 
ATOM     27  C   UNL     1       4.638   0.132   1.510  0.00  0.00    +0.000 C 
ATOM     28  C   UNL     1       4.850  -1.231   1.701  0.00  0.00    +0.001 C 
ATOM     29  H   UNL     1       2.463  -3.616  -0.369  0.00  0.00    +0.155 HD
ENDBRANCH  17  20
ENDBRANCH   1  17
TORSDOF 6
