REMARK  Name = 31343
REMARK  8 active torsions:
REMARK  status: ('A' for Active; 'I' for Inactive)
REMARK    1  A    between atoms: C_1  and  C_5
REMARK    2  A    between atoms: C_1  and  P_6
REMARK    3  A    between atoms: C_1  and  O_12
REMARK    4  A    between atoms: P_6  and  O_8
REMARK    5  A    between atoms: P_6  and  O_10
REMARK    6  A    between atoms: O_12  and  C_14
REMARK    7  A    between atoms: C_14  and  C_15
REMARK    8  A    between atoms: C_15  and  C_16
REMARK                            x       y       z     vdW  Elec       q    Type
REMARK                         _______ _______ _______ _____ _____    ______ ____
ROOT
ATOM      1  C   UNL     1      -0.733   0.543   0.434  0.00  0.00    +0.313 C 
ENDROOT
BRANCH   1   5
ATOM      2 CL   UNL     1      -3.354   1.375   0.154  0.00  0.00    -0.078 Cl
ATOM      3 CL   UNL     1      -1.236   3.169   1.020  0.00  0.00    -0.078 Cl
ATOM      4 CL   UNL     1      -1.265   2.173  -1.696  0.00  0.00    -0.078 Cl
ATOM      5  C   UNL     1      -1.609   1.734   0.014  0.00  0.00    +0.246 C 
ENDBRANCH   1   5
BRANCH   1   6
ATOM      6  P   UNL     1      -0.869  -0.980  -0.521  0.00  0.00    +0.387 P 
ATOM      7  O   UNL     1      -0.529  -0.857  -1.978  0.00  0.00    -0.254 OA
BRANCH   6   8
ATOM      8  O   UNL     1       0.038  -2.048   0.292  0.00  0.00    -0.289 OA
ATOM      9  C   UNL     1       0.143  -3.369  -0.208  0.00  0.00    +0.184 C 
ENDBRANCH   6   8
BRANCH   6  10
ATOM     10  O   UNL     1      -2.376  -1.502  -0.228  0.00  0.00    -0.289 OA
ATOM     11  C   UNL     1      -2.757  -1.795   1.104  0.00  0.00    +0.184 C 
ENDBRANCH   6  10
ENDBRANCH   1   6
BRANCH   1  12
ATOM     12  O   UNL     1       0.661   0.897   0.298  0.00  0.00    -0.436 OA
BRANCH  12  14
ATOM     13  O   UNL     1       1.766  -0.548   1.725  0.00  0.00    -0.250 OA
ATOM     14  C   UNL     1       1.607  -0.025   0.630  0.00  0.00    +0.318 C 
BRANCH  14  15
ATOM     15  C   UNL     1       2.462  -0.332  -0.574  0.00  0.00    +0.110 C 
BRANCH  15  16
ATOM     16  C   UNL     1       3.925   0.037  -0.353  0.00  0.00    +0.012 C 
ATOM     17  C   UNL     1       4.123   1.526  -0.112  0.00  0.00    +0.001 C 
ENDBRANCH  15  16
ENDBRANCH  14  15
ENDBRANCH  12  14
ENDBRANCH   1  12
TORSDOF 8
