REMARK  Name = 11438771
REMARK  3 active torsions:
REMARK  status: ('A' for Active; 'I' for Inactive)
REMARK    1  A    between atoms: N_1  and  C_9
REMARK    2  A    between atoms: C_5  and  C_15
REMARK    3  A    between atoms: C_16  and  C_19
REMARK                            x       y       z     vdW  Elec       q    Type
REMARK                         _______ _______ _______ _____ _____    ______ ____
ROOT
ATOM      1  N   UNL     1       2.086   0.476   0.141  0.00  0.00    -0.261 N 
ATOM      2  N   UNL     1       0.348   1.815   0.557  0.00  0.00    -0.386 NA
ATOM      3  C   UNL     1       0.957  -0.290  -0.021  0.00  0.00    +0.139 C 
ATOM      4  C   UNL     1       1.659   1.736   0.489  0.00  0.00    +0.165 C 
ATOM      5  C   UNL     1      -0.095   0.555   0.240  0.00  0.00    +0.170 C 
ATOM      6  C   UNL     1       0.997  -1.717  -0.399  0.00  0.00    +0.030 C 
ATOM      7  C   UNL     1       2.601   2.845   0.749  0.00  0.00    +0.084 C 
ENDROOT
BRANCH   1   9
ATOM      8  F   UNL     1       7.305  -1.181  -0.485  0.00  0.00    -0.204 F 
ATOM      9  C   UNL     1       3.395   0.061  -0.016  0.00  0.00    +0.054 C 
ATOM     10  C   UNL     1       4.014   0.160  -1.262  0.00  0.00    +0.017 C 
ATOM     11  C   UNL     1       4.098  -0.458   1.072  0.00  0.00    +0.017 C 
ATOM     12  C   UNL     1       5.334  -0.260  -1.420  0.00  0.00    +0.031 C 
ATOM     13  C   UNL     1       5.418  -0.878   0.914  0.00  0.00    +0.031 C 
ATOM     14  C   UNL     1       6.037  -0.779  -0.333  0.00  0.00    +0.140 C 
ENDBRANCH   1   9
BRANCH   5  15
ATOM     15  C   UNL     1      -1.484   0.261   0.213  0.00  0.00    -0.031 C 
ATOM     16  C   UNL     1      -2.669   0.009   0.189  0.00  0.00    -0.057 C 
BRANCH  16  19
ATOM     17 CL   UNL     1      -7.428   1.114  -1.438  0.00  0.00    -0.061 Cl
ATOM     18  N   UNL     1      -6.800  -0.870   0.108  0.00  0.00    -0.232 NA
ATOM     19  C   UNL     1      -4.068  -0.288   0.161  0.00  0.00    +0.046 C 
ATOM     20  C   UNL     1      -4.936   0.512  -0.571  0.00  0.00    +0.039 C 
ATOM     21  C   UNL     1      -4.562  -1.379   0.867  0.00  0.00    +0.029 C 
ATOM     22  C   UNL     1      -6.282   0.182  -0.565  0.00  0.00    +0.139 C 
ATOM     23  C   UNL     1      -5.924  -1.625   0.808  0.00  0.00    +0.100 C 
ENDBRANCH  16  19
ENDBRANCH   5  15
TORSDOF 3
