REMARK  Name = 16686147
REMARK  5 active torsions:
REMARK  status: ('A' for Active; 'I' for Inactive)
REMARK    1  A    between atoms: C_2  and  C_3
REMARK    2  A    between atoms: C_2  and  C_9
REMARK    3  A    between atoms: C_3  and  P_4
REMARK    4  A    between atoms: P_4  and  O_7
REMARK    5  A    between atoms: C_9  and  N_10
REMARK                            x       y       z     vdW  Elec       q    Type
REMARK                         _______ _______ _______ _____ _____    ______ ____
ROOT
ATOM      1  F   UNL     1      -0.996   0.078  -1.367  0.00  0.00    -0.239 F 
ATOM      2  C   UNL     1      -0.875  -0.111  -0.022  0.00  0.00    +0.149 C 
ENDROOT
BRANCH   2   3
ATOM      3  C   UNL     1       0.385   0.604   0.440  0.00  0.00    +0.116 C 
BRANCH   3   4
ATOM      4  P   UNL     1       1.901  -0.007  -0.331  0.00  0.00    +0.202 P 
ATOM      5  O   UNL     1       3.067   0.828   0.128  0.00  0.00    -0.294 OA
ATOM      6  H   UNL     1       1.842  -0.670  -1.540  0.00  0.00    +0.129 HD
BRANCH   4   7
ATOM      7  O   UNL     1       1.959  -1.493   0.327  0.00  0.00    -0.345 OA
ATOM      8  H   UNL     1       2.012  -1.417   1.293  0.00  0.00    +0.217 HD
ENDBRANCH   4   7
ENDBRANCH   3   4
ENDBRANCH   2   3
BRANCH   2   9
ATOM      9  C   UNL     1      -2.135   0.410   0.660  0.00  0.00    -0.050 C 
BRANCH   9  10
ATOM     10  N   UNL     1      -3.306  -0.309   0.165  0.00  0.00    +0.382 N 
ATOM     11  H   UNL     1      -4.143   0.046   0.627  0.00  0.00    -0.089 HD
ATOM     12  H   UNL     1      -3.203  -1.304   0.366  0.00  0.00    -0.089 HD
ATOM     13  H   UNL     1      -3.389  -0.172  -0.842  0.00  0.00    -0.089 HD
ENDBRANCH   9  10
ENDBRANCH   2   9
TORSDOF 5
