21651
  -OEChem-10051722113D

 53 54  0     0  0  0  0  0  0999 V2000
   -2.3833   -1.3097   -0.6486 O   0  0  0  0  0  0  0  0  0  0  0  0
   -2.9808    1.3855   -0.9372 O   0  0  0  0  0  0  0  0  0  0  0  0
    2.6206   -1.4078    0.2349 O   0  0  0  0  0  0  0  0  0  0  0  0
    5.0928   -0.6095   -0.0447 O   0  0  0  0  0  0  0  0  0  0  0  0
    5.4887    1.3874    1.0575 O   0  0  0  0  0  0  0  0  0  0  0  0
    1.6489    2.5014   -0.2047 N   0  0  0  0  0  0  0  0  0  0  0  0
   -3.7285   -3.1430    0.1850 C   0  0  0  0  0  0  0  0  0  0  0  0
   -5.0977    2.0159    0.0561 C   0  0  0  0  0  0  0  0  0  0  0  0
   -1.4023   -0.3698   -0.5411 C   0  0  0  0  0  0  0  0  0  0  0  0
   -1.7027    0.9850   -0.6858 C   0  0  0  0  0  0  0  0  0  0  0  0
   -2.6109   -2.1409    0.4875 C   0  0  0  0  0  0  0  0  0  0  0  0
   -3.5861    2.2560    0.0164 C   0  0  0  0  0  0  0  0  0  0  0  0
    0.9159    0.1860   -0.1741 C   0  0  0  0  0  0  0  0  0  0  0  0
    0.6237    1.5553   -0.3190 C   0  0  0  0  0  0  0  0  0  0  0  0
   -0.0927   -0.7749   -0.2850 C   0  0  0  0  0  0  0  0  0  0  0  0
   -0.6946    1.9446   -0.5754 C   0  0  0  0  0  0  0  0  0  0  0  0
   -3.3581   -4.0536   -0.9876 C   0  0  0  0  0  0  0  0  0  0  0  0
   -4.0465   -3.9765    1.4245 C   0  0  0  0  0  0  0  0  0  0  0  0
   -5.7699    3.0062    1.0046 C   0  0  0  0  0  0  0  0  0  0  0  0
   -5.4231    0.5790    0.4697 C   0  0  0  0  0  0  0  0  0  0  0  0
    2.3203   -0.2283    0.0999 C   0  0  0  0  0  0  0  0  0  0  0  0
    3.3433    0.8531    0.2036 C   0  0  0  0  0  0  0  0  0  0  0  0
    2.9378    2.1199    0.0459 C   0  0  0  0  0  0  0  0  0  0  0  0
    4.7604    0.6033    0.4675 C   0  0  0  0  0  0  0  0  0  0  0  0
    6.4580   -1.0000    0.1357 C   0  0  0  0  0  0  0  0  0  0  0  0
    6.6669   -2.3645   -0.4858 C   0  0  0  0  0  0  0  0  0  0  0  0
   -4.6289   -2.5876   -0.1051 H   0  0  0  0  0  0  0  0  0  0  0  0
   -5.5020    2.1660   -0.9530 H   0  0  0  0  0  0  0  0  0  0  0  0
   -2.8985   -1.5081    1.3365 H   0  0  0  0  0  0  0  0  0  0  0  0
   -1.6996   -2.6865    0.7593 H   0  0  0  0  0  0  0  0  0  0  0  0
   -3.3808    3.2904   -0.2839 H   0  0  0  0  0  0  0  0  0  0  0  0
   -3.1590    2.0976    1.0160 H   0  0  0  0  0  0  0  0  0  0  0  0
    0.1453   -1.8308   -0.1922 H   0  0  0  0  0  0  0  0  0  0  0  0
   -0.9295    2.9996   -0.6972 H   0  0  0  0  0  0  0  0  0  0  0  0
   -3.1915   -3.4742   -1.9015 H   0  0  0  0  0  0  0  0  0  0  0  0
   -2.4463   -4.6222   -0.7755 H   0  0  0  0  0  0  0  0  0  0  0  0
   -4.1624   -4.7684   -1.1922 H   0  0  0  0  0  0  0  0  0  0  0  0
   -3.1771   -4.5600    1.7462 H   0  0  0  0  0  0  0  0  0  0  0  0
   -4.3507   -3.3337    2.2572 H   0  0  0  0  0  0  0  0  0  0  0  0
   -4.8670   -4.6738    1.2244 H   0  0  0  0  0  0  0  0  0  0  0  0
   -6.8556    2.8632    1.0113 H   0  0  0  0  0  0  0  0  0  0  0  0
   -5.5713    4.0375    0.6946 H   0  0  0  0  0  0  0  0  0  0  0  0
   -5.4061    2.8843    2.0306 H   0  0  0  0  0  0  0  0  0  0  0  0
   -6.5061    0.4284    0.5326 H   0  0  0  0  0  0  0  0  0  0  0  0
   -4.9901    0.3374    1.4462 H   0  0  0  0  0  0  0  0  0  0  0  0
   -5.0357   -0.1352   -0.2627 H   0  0  0  0  0  0  0  0  0  0  0  0
    1.4434    3.4859   -0.3093 H   0  0  0  0  0  0  0  0  0  0  0  0
    3.6121    2.9672    0.1012 H   0  0  0  0  0  0  0  0  0  0  0  0
    6.6872   -1.0415    1.2065 H   0  0  0  0  0  0  0  0  0  0  0  0
    7.1142   -0.2679   -0.3482 H   0  0  0  0  0  0  0  0  0  0  0  0
    7.7022   -2.6951   -0.3652 H   0  0  0  0  0  0  0  0  0  0  0  0
    6.0033   -3.1035   -0.0243 H   0  0  0  0  0  0  0  0  0  0  0  0
    6.4244   -2.3428   -1.5534 H   0  0  0  0  0  0  0  0  0  0  0  0
  1  9  1  0  0  0  0
  1 11  1  0  0  0  0
  2 10  1  0  0  0  0
  2 12  1  0  0  0  0
  3 21  2  0  0  0  0
  4 24  1  0  0  0  0
  4 25  1  0  0  0  0
  5 24  2  0  0  0  0
  6 14  1  0  0  0  0
  6 23  1  0  0  0  0
  6 47  1  0  0  0  0
  7 11  1  0  0  0  0
  7 17  1  0  0  0  0
  7 18  1  0  0  0  0
  7 27  1  0  0  0  0
  8 12  1  0  0  0  0
  8 19  1  0  0  0  0
  8 20  1  0  0  0  0
  8 28  1  0  0  0  0
  9 10  2  0  0  0  0
  9 15  1  0  0  0  0
 10 16  1  0  0  0  0
 11 29  1  0  0  0  0
 11 30  1  0  0  0  0
 12 31  1  0  0  0  0
 12 32  1  0  0  0  0
 13 14  1  0  0  0  0
 13 15  2  0  0  0  0
 13 21  1  0  0  0  0
 14 16  2  0  0  0  0
 15 33  1  0  0  0  0
 16 34  1  0  0  0  0
 17 35  1  0  0  0  0
 17 36  1  0  0  0  0
 17 37  1  0  0  0  0
 18 38  1  0  0  0  0
 18 39  1  0  0  0  0
 18 40  1  0  0  0  0
 19 41  1  0  0  0  0
 19 42  1  0  0  0  0
 19 43  1  0  0  0  0
 20 44  1  0  0  0  0
 20 45  1  0  0  0  0
 20 46  1  0  0  0  0
 21 22  1  0  0  0  0
 22 23  2  0  0  0  0
 22 24  1  0  0  0  0
 23 48  1  0  0  0  0
 25 26  1  0  0  0  0
 25 49  1  0  0  0  0
 25 50  1  0  0  0  0
 26 51  1  0  0  0  0
 26 52  1  0  0  0  0
 26 53  1  0  0  0  0
M  END
> <DATABASE_ID>
DB11378

> <DATABASE_NAME>
drugbank

> <ORIGINAL_SOURCE>
PUBCHEM

> <ORIGINAL_SOURCE_URL>
https://pubchem.ncbi.nlm.nih.gov/rest/pug/compound/inchikey/LVVXOXRUTDAKFE-UHFFFAOYSA-N/SDF?record_type=3d

> <SMILES>
CCOC(=O)C1=CNC2=CC(OCC(C)C)=C(OCC(C)C)C=C2C1=O

> <INCHI_IDENTIFIER>
InChI=1S/C20H27NO5/c1-6-24-20(23)15-9-21-16-8-18(26-11-13(4)5)17(25-10-12(2)3)7-14(16)19(15)22/h7-9,12-13H,6,10-11H2,1-5H3,(H,21,22)

> <INCHI_KEY>
LVVXOXRUTDAKFE-UHFFFAOYSA-N

> <FORMULA>
C20H27NO5

> <MOLECULAR_WEIGHT>
361.438

> <EXACT_MASS>
361.188922973

> <JCHEM_ACCEPTOR_COUNT>
5

> <JCHEM_ATOM_COUNT>
53

> <JCHEM_AVERAGE_POLARIZABILITY>
40.763191721329555

> <JCHEM_BIOAVAILABILITY>
1

> <JCHEM_DONOR_COUNT>
1

> <JCHEM_FORMAL_CHARGE>
0

> <JCHEM_GHOSE_FILTER>
1

> <JCHEM_IUPAC>
ethyl 6,7-bis(2-methylpropoxy)-4-oxo-1,4-dihydroquinoline-3-carboxylate

> <ALOGPS_LOGP>
3.73

> <JCHEM_LOGP>
4.446472205333332

> <ALOGPS_LOGS>
-4.43

> <JCHEM_MDDR_LIKE_RULE>
0

> <JCHEM_NUMBER_OF_RINGS>
2

> <JCHEM_PHYSIOLOGICAL_CHARGE>
-1

> <JCHEM_PKA_STRONGEST_ACIDIC>
5.948233596622657

> <JCHEM_PKA_STRONGEST_BASIC>
-1.55163340205626

> <JCHEM_POLAR_SURFACE_AREA>
73.86000000000001

> <JCHEM_REFRACTIVITY>
101.02549999999997

> <JCHEM_ROTATABLE_BOND_COUNT>
9

> <JCHEM_RULE_OF_FIVE>
1

> <ALOGPS_SOLUBILITY>
1.36e-02 g/l

> <JCHEM_TRADITIONAL_IUPAC>
buquinolate

> <JCHEM_VEBER_RULE>
0

> <DRUGBANK_ID>
DB11378

> <DRUG_GROUPS>
experimental; vet_approved

> <GENERIC_NAME>
Buquinolate

> <SYNONYMS>
Buquinolate; Buquinolato; Buquinolatum

$$$$
