REMARK  Name = 22024915
REMARK  2 active torsions:
REMARK  status: ('A' for Active; 'I' for Inactive)
REMARK    1  A    between atoms: N_5  and  C_23
REMARK    2  A    between atoms: C_26  and  C_29
REMARK                            x       y       z     vdW  Elec       q    Type
REMARK                         _______ _______ _______ _____ _____    ______ ____
ROOT
ATOM      1  O   UNL     1      -2.585   1.138   1.016  0.00  0.00    -0.470 OA
ATOM      2  O   UNL     1      -3.652  -1.268   0.977  0.00  0.00    -0.474 OA
ATOM      3  O   UNL     1      -4.594   2.386  -0.660  0.00  0.00    -0.347 OA
ATOM      4  O   UNL     1      -5.916  -0.157  -0.441  0.00  0.00    -0.347 OA
ATOM      5  N   UNL     1       2.243   0.543  -0.678  0.00  0.00    -0.298 N 
ATOM      6  N   UNL     1       0.426  -3.175  -0.707  0.00  0.00    -0.248 NA
ATOM      7  N   UNL     1       2.343  -1.769  -1.099  0.00  0.00    -0.230 NA
ATOM      8  C   UNL     1       0.280  -0.821  -0.267  0.00  0.00    +0.048 C 
ATOM      9  C   UNL     1      -1.790   0.123   0.561  0.00  0.00    +0.169 C 
ATOM     10  C   UNL     1      -2.359  -1.152   0.536  0.00  0.00    +0.156 C 
ATOM     11  C   UNL     1      -0.283  -2.108  -0.298  0.00  0.00    +0.066 C 
ATOM     12  C   UNL     1      -0.465   0.290   0.167  0.00  0.00    +0.044 C 
ATOM     13  C   UNL     1      -1.605  -2.254   0.116  0.00  0.00    +0.112 C 
ATOM     14  C   UNL     1       1.605  -0.723  -0.682  0.00  0.00    +0.131 C 
ATOM     15  C   UNL     1      -2.433   2.399   0.353  0.00  0.00    +0.237 C 
ATOM     16  C   UNL     1      -4.501  -2.019   0.101  0.00  0.00    +0.237 C 
ATOM     17  C   UNL     1      -3.811   3.048   0.337  0.00  0.00    +0.189 C 
ATOM     18  C   UNL     1      -5.906  -1.434   0.201  0.00  0.00    +0.189 C 
ATOM     19  C   UNL     1      -5.968   2.230  -0.305  0.00  0.00    +0.174 C 
ATOM     20  C   UNL     1      -6.159   0.926   0.460  0.00  0.00    +0.174 C 
ATOM     21  C   UNL     1       1.700  -2.947  -1.086  0.00  0.00    +0.252 C 
ATOM     22  H   UNL     1       1.630   1.298  -0.831  0.00  0.00    +0.154 HD
ENDROOT
BRANCH   5  23
ATOM     23  C   UNL     1       3.581   0.929  -0.497  0.00  0.00    +0.050 C 
ATOM     24  C   UNL     1       4.426   0.163   0.307  0.00  0.00    +0.023 C 
ATOM     25  C   UNL     1       4.065   2.078  -1.123  0.00  0.00    +0.015 C 
ATOM     26  C   UNL     1       5.755   0.547   0.485  0.00  0.00    +0.044 C 
ATOM     27  C   UNL     1       5.394   2.461  -0.944  0.00  0.00    +0.002 C 
ATOM     28  C   UNL     1       6.239   1.696  -0.140  0.00  0.00    +0.008 C 
BRANCH  26  29
ATOM     29  C   UNL     1       6.620  -0.237   1.309  0.00  0.00    -0.051 C 
ATOM     30  C   UNL     1       7.348  -0.895   2.001  0.00  0.00    -0.009 C 
ENDBRANCH  26  29
ENDBRANCH   5  23
TORSDOF 2
