REMARK  Name = 59757
REMARK  7 active torsions:
REMARK  status: ('A' for Active; 'I' for Inactive)
REMARK    1  A    between atoms: N_1  and  C_13
REMARK    2  A    between atoms: C_3  and  C_7
REMARK    3  A    between atoms: C_4  and  C_21
REMARK    4  A    between atoms: C_18  and  O_19
REMARK    5  A    between atoms: C_21  and  C_22
REMARK    6  A    between atoms: C_22  and  C_25
REMARK    7  A    between atoms: N_24  and  O_27
REMARK                            x       y       z     vdW  Elec       q    Type
REMARK                         _______ _______ _______ _____ _____    ______ ____
ROOT
ATOM      1  N   UNL     1       0.141   0.361   0.390  0.00  0.00    -0.190 N 
ATOM      2  N   UNL     1      -1.065   0.891   0.659  0.00  0.00    -0.178 NA
ATOM      3  C   UNL     1       0.163  -1.002   0.423  0.00  0.00    +0.075 C 
ATOM      4  C   UNL     1      -1.803  -0.187   0.862  0.00  0.00    +0.079 C 
ATOM      5  C   UNL     1      -1.117  -1.391   0.735  0.00  0.00    +0.033 C 
ENDROOT
BRANCH   3   7
ATOM      6 CL   UNL     1       4.989  -4.327  -0.619  0.00  0.00    -0.082 Cl
ATOM      7  C   UNL     1       1.335  -1.809   0.170  0.00  0.00    +0.016 C 
ATOM      8  C   UNL     1       1.622  -2.230  -1.127  0.00  0.00    +0.002 C 
ATOM      9  C   UNL     1       2.174  -2.164   1.224  0.00  0.00    +0.002 C 
ATOM     10  C   UNL     1       2.753  -3.009  -1.372  0.00  0.00    +0.011 C 
ATOM     11  C   UNL     1       3.305  -2.943   0.979  0.00  0.00    +0.011 C 
ATOM     12  C   UNL     1       3.595  -3.365  -0.318  0.00  0.00    +0.058 C 
ENDBRANCH   3   7
BRANCH   1  13
ATOM     13  C   UNL     1       1.216   1.207   0.114  0.00  0.00    +0.074 C 
ATOM     14  C   UNL     1       1.467   1.588  -1.197  0.00  0.00    +0.020 C 
ATOM     15  C   UNL     1       2.020   1.653   1.154  0.00  0.00    +0.020 C 
ATOM     16  C   UNL     1       2.543   2.433  -1.473  0.00  0.00    +0.038 C 
ATOM     17  C   UNL     1       3.095   2.498   0.878  0.00  0.00    +0.038 C 
ATOM     18  C   UNL     1       3.357   2.888  -0.436  0.00  0.00    +0.139 C 
BRANCH  18  19
ATOM     19  O   UNL     1       4.405   3.713  -0.705  0.00  0.00    -0.471 OA
ATOM     20  C   UNL     1       5.196   4.140   0.403  0.00  0.00    +0.252 C 
ENDBRANCH  18  19
ENDBRANCH   1  13
BRANCH   4  21
ATOM     21  C   UNL     1      -3.254  -0.015   1.198  0.00  0.00    +0.057 C 
BRANCH  21  22
ATOM     22  C   UNL     1      -4.140   0.012  -0.050  0.00  0.00    +0.094 C 
BRANCH  22  25
ATOM     23  O   UNL     1      -6.011   0.253   1.449  0.00  0.00    -0.273 OA
ATOM     24  N   UNL     1      -6.456   0.200  -0.799  0.00  0.00    -0.170 N 
ATOM     25  C   UNL     1      -5.617   0.169   0.284  0.00  0.00    +0.248 C 
ATOM     26  C   UNL     1      -7.894   0.333  -0.698  0.00  0.00    +0.148 C 
BRANCH  24  27
ATOM     27  O   UNL     1      -6.018   0.105  -2.125  0.00  0.00    -0.292 OA
ATOM     28  H   UNL     1      -5.052   0.017  -2.140  0.00  0.00    +0.242 HD
ENDBRANCH  24  27
ENDBRANCH  22  25
ENDBRANCH  21  22
ENDBRANCH   4  21
TORSDOF 7
