REMARK  Name = 2320
REMARK  12 active torsions:
REMARK  status: ('A' for Active; 'I' for Inactive)
REMARK    1  A    between atoms: C_1  and  N_5
REMARK    2  A    between atoms: C_2  and  S_18
REMARK    3  A    between atoms: C_2  and  C_27
REMARK    4  A    between atoms: N_5  and  C_7
REMARK    5  A    between atoms: C_7  and  C_11
REMARK    6  A    between atoms: S_18  and  C_20
REMARK    7  A    between atoms: C_20  and  C_21
REMARK    8  A    between atoms: C_27  and  C_28
REMARK    9  A    between atoms: C_28  and  O_29
REMARK   10  A    between atoms: O_29  and  P_30
REMARK   11  A    between atoms: P_30  and  O_32
REMARK   12  A    between atoms: P_30  and  O_34
REMARK                            x       y       z     vdW  Elec       q    Type
REMARK                         _______ _______ _______ _____ _____    ______ ____
ROOT
ATOM      1  C   UNL     1      -1.259   2.392   0.635  0.00  0.00    +0.034 C 
ATOM      2  C   UNL     1      -0.286   1.663   1.233  0.00  0.00    +0.022 C 
ATOM      3  C   UNL     1      -1.028   3.644  -0.167  0.00  0.00    +0.048 C 
ENDROOT
BRANCH   1   5
ATOM      4  O   UNL     1      -4.389   1.673   2.180  0.00  0.00    -0.265 OA
ATOM      5  N   UNL     1      -2.584   2.044   0.730  0.00  0.00    -0.250 N 
ATOM      6  C   UNL     1      -3.219   1.969   1.962  0.00  0.00    +0.307 C 
BRANCH   5   7
ATOM      7  C   UNL     1      -3.308   1.756  -0.500  0.00  0.00    +0.130 C 
BRANCH   7  11
ATOM      8  N   UNL     1      -2.619  -1.784  -1.677  0.00  0.00    -0.340 NA
ATOM      9  N   UNL     1      -1.170  -0.263  -2.859  0.00  0.00    -0.186 NA
ATOM     10  N   UNL     1      -4.157  -0.962  -0.070  0.00  0.00    -0.332 N 
ATOM     11  C   UNL     1      -2.729   0.579  -1.230  0.00  0.00    +0.062 C 
ATOM     12  C   UNL     1      -3.137  -0.723  -1.023  0.00  0.00    +0.187 C 
ATOM     13  C   UNL     1      -1.732   0.750  -2.169  0.00  0.00    +0.111 C 
ATOM     14  C   UNL     1      -1.654  -1.486  -2.568  0.00  0.00    +0.066 C 
ATOM     15  C   UNL     1      -1.057  -2.633  -3.311  0.00  0.00    +0.129 C 
ATOM     16  H   UNL     1      -4.468  -1.881   0.098  0.00  0.00    +0.145 HD
ATOM     17  H   UNL     1      -4.556  -0.209   0.424  0.00  0.00    +0.145 HD
ENDBRANCH   7  11
ENDBRANCH   5   7
ENDBRANCH   1   5
BRANCH   2  18
ATOM     18  S   UNL     1       1.396   2.180   1.154  0.00  0.00    -0.049 S 
BRANCH  18  20
ATOM     19  O   UNL     1       1.198   1.078  -1.236  0.00  0.00    -0.279 OA
ATOM     20  C   UNL     1       1.941   1.379  -0.308  0.00  0.00    +0.225 C 
BRANCH  20  21
ATOM     21  C   UNL     1       3.377   1.002  -0.351  0.00  0.00    +0.045 C 
ATOM     22  C   UNL     1       3.776  -0.149  -1.032  0.00  0.00    +0.004 C 
ATOM     23  C   UNL     1       4.327   1.798   0.288  0.00  0.00    +0.004 C 
ATOM     24  C   UNL     1       5.124  -0.503  -1.073  0.00  0.00    +0.000 C 
ATOM     25  C   UNL     1       5.675   1.444   0.247  0.00  0.00    +0.000 C 
ATOM     26  C   UNL     1       6.074   0.293  -0.433  0.00  0.00    +0.000 C 
ENDBRANCH  20  21
ENDBRANCH  18  20
ENDBRANCH   2  18
BRANCH   2  27
ATOM     27  C   UNL     1      -0.556   0.401   2.037  0.00  0.00    +0.067 C 
BRANCH  27  28
ATOM     28  C   UNL     1       0.086  -0.844   1.426  0.00  0.00    +0.159 C 
BRANCH  28  29
ATOM     29  O   UNL     1      -0.233  -2.005   2.181  0.00  0.00    -0.273 OA
BRANCH  29  30
ATOM     30  P   UNL     1       0.358  -3.427   1.689  0.00  0.00    +0.473 P 
ATOM     31  O   UNL     1      -0.026  -4.603   2.539  0.00  0.00    -0.227 OA
BRANCH  30  32
ATOM     32  O   UNL     1      -0.136  -3.507   0.151  0.00  0.00    -0.303 OA
ATOM     33  H   UNL     1       0.153  -2.712  -0.323  0.00  0.00    +0.222 HD
ENDBRANCH  30  32
BRANCH  30  34
ATOM     34  O   UNL     1       1.947  -3.159   1.556  0.00  0.00    -0.303 OA
ATOM     35  H   UNL     1       2.098  -2.384   0.992  0.00  0.00    +0.222 HD
ENDBRANCH  30  34
ENDBRANCH  29  30
ENDBRANCH  28  29
ENDBRANCH  27  28
ENDBRANCH   2  27
TORSDOF 12
