REMARK  Name = 57336276
REMARK  5 active torsions:
REMARK  status: ('A' for Active; 'I' for Inactive)
REMARK    1  A    between atoms: C_2  and  C_16
REMARK    2  A    between atoms: C_6  and  O_17
REMARK    3  A    between atoms: O_17  and  C_18
REMARK    4  A    between atoms: C_18  and  C_21
REMARK    5  A    between atoms: C_22  and  C_26
REMARK                            x       y       z     vdW  Elec       q    Type
REMARK                         _______ _______ _______ _____ _____    ______ ____
ROOT
ATOM      1  N   UNL     1       0.025   1.923   0.650  0.00  0.00    -0.210 NA
ATOM      2  C   UNL     1       2.246   1.713  -0.282  0.00  0.00    +0.073 C 
ATOM      3  C   UNL     1       1.719   1.111  -1.419  0.00  0.00    +0.011 C 
ATOM      4  C   UNL     1       1.364   2.098   0.716  0.00  0.00    +0.107 C 
ATOM      5  C   UNL     1       0.346   0.915  -1.523  0.00  0.00    +0.058 C 
ATOM      6  C   UNL     1      -0.450   1.335  -0.470  0.00  0.00    +0.225 C 
ENDROOT
BRANCH   2  16
ATOM      7  S   UNL     1       6.181  -1.590   0.024  0.00  0.00    -0.007 S 
ATOM      8  O   UNL     1       6.545  -2.429  -1.101  0.00  0.00    -0.173 OA
ATOM      9  O   UNL     1       6.679  -1.876   1.356  0.00  0.00    -0.173 OA
ATOM     10  O   UNL     1       4.118   3.004  -0.572  0.00  0.00    -0.270 OA
ATOM     11  N   UNL     1       4.455   0.927   0.451  0.00  0.00    -0.272 N 
ATOM     12  C   UNL     1       6.614   0.093  -0.384  0.00  0.00    +0.172 C 
ATOM     13  C   UNL     1       4.399  -1.513   0.098  0.00  0.00    +0.172 C 
ATOM     14  C   UNL     1       5.910   1.083   0.532  0.00  0.00    +0.119 C 
ATOM     15  C   UNL     1       3.933  -0.350   0.962  0.00  0.00    +0.119 C 
ATOM     16  C   UNL     1       3.690   1.934  -0.142  0.00  0.00    +0.251 C 
ENDBRANCH   2  16
BRANCH   6  17
ATOM     17  O   UNL     1      -1.806   1.153  -0.549  0.00  0.00    -0.455 OA
BRANCH  17  18
ATOM     18  C   UNL     1      -2.578   1.602   0.558  0.00  0.00    +0.238 C 
BRANCH  18  21
ATOM     19  O   UNL     1      -6.221   1.499  -0.011  0.00  0.00    -0.358 OA
ATOM     20  N   UNL     1      -5.946   0.140  -0.101  0.00  0.00    -0.078 NA
ATOM     21  C   UNL     1      -4.024   1.291   0.306  0.00  0.00    +0.075 A 
ATOM     22  C   UNL     1      -4.628   0.040   0.092  0.00  0.00    +0.122 A 
ATOM     23  C   UNL     1      -5.069   2.174   0.232  0.00  0.00    +0.154 A 
ATOM     24  C   UNL     1      -5.181   3.634   0.357  0.00  0.00    +0.075 C 
BRANCH  22  26
ATOM     25  F   UNL     1      -2.142  -4.941  -0.013  0.00  0.00    -0.204 F 
ATOM     26  C   UNL     1      -3.986  -1.247   0.065  0.00  0.00    +0.021 C 
ATOM     27  C   UNL     1      -3.299  -1.708   1.188  0.00  0.00    +0.004 C 
ATOM     28  C   UNL     1      -4.049  -2.035  -1.085  0.00  0.00    +0.004 C 
ATOM     29  C   UNL     1      -2.677  -2.956   1.162  0.00  0.00    +0.030 C 
ATOM     30  C   UNL     1      -3.426  -3.283  -1.111  0.00  0.00    +0.030 C 
ATOM     31  C   UNL     1      -2.740  -3.743   0.012  0.00  0.00    +0.140 C 
ENDBRANCH  22  26
ENDBRANCH  18  21
ENDBRANCH  17  18
ENDBRANCH   6  17
TORSDOF 5
