REMARK  Name = 588
REMARK  0 active torsions:
REMARK  status: ('A' for Active; 'I' for Inactive)
REMARK                            x       y       z     vdW  Elec       q    Type
REMARK                         _______ _______ _______ _____ _____    ______ ____
ROOT
ATOM      1  O   UNL     1       2.622   0.072   0.002  0.00  0.00    -0.212 OA
ATOM      2  N   UNL     1      -0.787   0.631  -0.002  0.00  0.00    -0.254 N 
ATOM      3  N   UNL     1       0.622  -1.124   0.000  0.00  0.00    -0.304 NA
ATOM      4  N   UNL     1      -1.730  -1.541   0.001  0.00  0.00    -0.320 N 
ATOM      5  C   UNL     1       0.510   1.266  -0.001  0.00  0.00    +0.231 C 
ATOM      6  C   UNL     1      -0.632  -0.733  -0.001  0.00  0.00    +0.248 C 
ATOM      7  C   UNL     1       1.398   0.028   0.000  0.00  0.00    +0.204 C 
ATOM      8  C   UNL     1      -2.003   1.401   0.002  0.00  0.00    +0.117 C 
ATOM      9  H   UNL     1      -2.632  -1.146   0.000  0.00  0.00    +0.146 HD
ATOM     10  H   UNL     1      -1.622  -2.519   0.002  0.00  0.00    +0.146 HD
ENDROOT
TORSDOF 0
