REMARK  Name = 49867930
REMARK  6 active torsions:
REMARK  status: ('A' for Active; 'I' for Inactive)
REMARK    1  A    between atoms: N_2  and  C_7
REMARK    2  A    between atoms: C_3  and  C_22
REMARK    3  A    between atoms: C_22  and  C_27
REMARK    4  A    between atoms: N_26  and  C_29
REMARK    5  A    between atoms: C_29  and  C_32
REMARK    6  A    between atoms: C_32  and  C_36
REMARK                            x       y       z     vdW  Elec       q    Type
REMARK                         _______ _______ _______ _____ _____    ______ ____
ROOT
ATOM      1  O   UNL     1       0.178   1.782  -2.065  0.00  0.00    -0.275 OA
ATOM      2  N   UNL     1       0.109   1.236   0.183  0.00  0.00    -0.295 N 
ATOM      3  C   UNL     1      -0.340   1.894  -0.955  0.00  0.00    +0.230 C 
ATOM      4  H   UNL     1      -0.366   1.383   1.033  0.00  0.00    +0.150 HD
ENDROOT
BRANCH   2   7
ATOM      5  O   UNL     1       0.172  -0.610   2.108  0.00  0.00    -0.273 OA
ATOM      6  N   UNL     1       1.756  -1.886   1.079  0.00  0.00    -0.282 N 
ATOM      7  C   UNL     1       1.243   0.345   0.167  0.00  0.00    +0.172 C 
ATOM      8  C   UNL     1       2.574   1.011   0.403  0.00  0.00    +0.004 C 
ATOM      9  C   UNL     1       3.752   0.263   0.186  0.00  0.00    -0.001 C 
ATOM     10  C   UNL     1       1.008  -0.733   1.211  0.00  0.00    +0.248 C 
ATOM     11  C   UNL     1       3.727  -1.148  -0.289  0.00  0.00    +0.013 C 
ATOM     12  C   UNL     1       2.843  -2.135   0.208  0.00  0.00    +0.050 C 
ATOM     13  C   UNL     1       2.663   2.338   0.869  0.00  0.00    -0.002 C 
ATOM     14  C   UNL     1       4.988   0.890   0.459  0.00  0.00    -0.000 C 
ATOM     15  C   UNL     1       4.699  -1.569  -1.226  0.00  0.00    +0.001 C 
ATOM     16  C   UNL     1       3.898   2.933   1.115  0.00  0.00    -0.000 C 
ATOM     17  C   UNL     1       3.029  -3.487  -0.138  0.00  0.00    +0.015 C 
ATOM     18  C   UNL     1       5.063   2.208   0.912  0.00  0.00    -0.000 C 
ATOM     19  C   UNL     1       4.840  -2.907  -1.601  0.00  0.00    +0.000 C 
ATOM     20  C   UNL     1       4.016  -3.870  -1.041  0.00  0.00    +0.001 C 
ATOM     21  H   UNL     1       1.500  -2.633   1.667  0.00  0.00    +0.155 HD
ENDBRANCH   2   7
BRANCH   3  22
ATOM     22  C   UNL     1      -1.558   2.803  -0.697  0.00  0.00    +0.137 C 
ATOM     23  C   UNL     1      -1.968   3.514  -2.001  0.00  0.00    +0.018 C 
ATOM     24  C   UNL     1      -1.151   3.883   0.324  0.00  0.00    +0.018 C 
BRANCH  22  27
ATOM     25  O   UNL     1      -3.293   2.249   0.921  0.00  0.00    -0.275 OA
ATOM     26  N   UNL     1      -3.224   1.041  -1.051  0.00  0.00    -0.299 N 
ATOM     27  C   UNL     1      -2.774   2.015  -0.170  0.00  0.00    +0.230 C 
ATOM     28  H   UNL     1      -2.751   0.917  -1.905  0.00  0.00    +0.150 HD
BRANCH  26  29
ATOM     29  C   UNL     1      -4.361   0.203  -0.756  0.00  0.00    +0.166 C 
BRANCH  29  32
ATOM     30  F   UNL     1      -3.074  -1.764  -0.804  0.00  0.00    -0.193 F 
ATOM     31  F   UNL     1      -3.290  -0.743   1.111  0.00  0.00    -0.193 F 
ATOM     32  C   UNL     1      -3.946  -1.066  -0.033  0.00  0.00    +0.367 C 
BRANCH  32  36
ATOM     33  F   UNL     1      -5.769  -2.337  -0.805  0.00  0.00    -0.165 F 
ATOM     34  F   UNL     1      -5.994  -1.322   1.113  0.00  0.00    -0.165 F 
ATOM     35  F   UNL     1      -4.703  -3.074   0.950  0.00  0.00    -0.165 F 
ATOM     36  C   UNL     1      -5.112  -1.957   0.312  0.00  0.00    +0.456 C 
ENDBRANCH  32  36
ENDBRANCH  29  32
ENDBRANCH  26  29
ENDBRANCH  22  27
ENDBRANCH   3  22
TORSDOF 6
