REMARK  Name = 6674
REMARK  5 active torsions:
REMARK  status: ('A' for Active; 'I' for Inactive)
REMARK    1  A    between atoms: C_9  and  C_23
REMARK    2  A    between atoms: C_23  and  C_25
REMARK    3  A    between atoms: C_25  and  C_26
REMARK    4  A    between atoms: C_26  and  C_28
REMARK    5  A    between atoms: C_28  and  O_29
REMARK                            x       y       z     vdW  Elec       q    Type
REMARK                         _______ _______ _______ _____ _____    ______ ____
ROOT
ATOM      1  O   UNL     1      -1.001   2.404   0.023  0.00  0.00    -0.296 OA
ATOM      2  O   UNL     1       1.550  -3.002   0.481  0.00  0.00    -0.296 OA
ATOM      3  O   UNL     1       5.720   0.631   2.826  0.00  0.00    -0.296 OA
ATOM      4  C   UNL     1      -0.204  -0.938  -0.380  0.00  0.00    +0.013 C 
ATOM      5  C   UNL     1      -0.996   0.224  -1.024  0.00  0.00    +0.052 C 
ATOM      6  C   UNL     1       1.274  -0.946  -0.789  0.00  0.00    +0.058 C 
ATOM      7  C   UNL     1       1.937   0.388  -0.314  0.00  0.00    +0.014 C 
ATOM      8  C   UNL     1       3.470   0.448  -0.674  0.00  0.00    +0.002 C 
ATOM      9  C   UNL     1      -2.405  -0.091  -0.476  0.00  0.00    +0.007 C 
ATOM     10  C   UNL     1      -1.071  -2.154  -0.700  0.00  0.00    +0.001 C 
ATOM     11  C   UNL     1       4.200  -0.800  -0.068  0.00  0.00    +0.015 C 
ATOM     12  C   UNL     1       1.143   1.638  -0.754  0.00  0.00    +0.065 C 
ATOM     13  C   UNL     1      -2.512  -1.627  -0.602  0.00  0.00    +0.000 C 
ATOM     14  C   UNL     1      -0.353   1.500  -0.502  0.00  0.00    +0.150 C 
ATOM     15  C   UNL     1       2.063  -2.102  -0.180  0.00  0.00    +0.150 C 
ATOM     16  C   UNL     1       3.544  -2.121  -0.489  0.00  0.00    +0.065 C 
ATOM     17  C   UNL     1       4.166   1.728  -0.126  0.00  0.00    +0.008 C 
ATOM     18  C   UNL     1      -0.972   0.261  -2.566  0.00  0.00    +0.007 C 
ATOM     19  C   UNL     1       3.682   0.469  -2.211  0.00  0.00    +0.000 C 
ATOM     20  C   UNL     1       4.311  -0.750   1.468  0.00  0.00    +0.065 C 
ATOM     21  C   UNL     1       4.211   1.812   1.391  0.00  0.00    +0.065 C 
ATOM     22  C   UNL     1       4.860   0.571   1.948  0.00  0.00    +0.151 C 
ENDROOT
BRANCH   9  23
ATOM     23  C   UNL     1      -3.573   0.626  -1.143  0.00  0.00    +0.001 C 
ATOM     24  C   UNL     1      -3.385   2.142  -1.037  0.00  0.00    +0.000 C 
BRANCH  23  25
ATOM     25  C   UNL     1      -4.904   0.161  -0.520  0.00  0.00    +0.012 C 
BRANCH  25  26
ATOM     26  C   UNL     1      -4.982   0.371   0.994  0.00  0.00    +0.109 C 
BRANCH  26  28
ATOM     27  O   UNL     1      -7.158  -0.720   0.938  0.00  0.00    -0.250 OA
ATOM     28  C   UNL     1      -6.271  -0.167   1.572  0.00  0.00    +0.314 C 
BRANCH  28  29
ATOM     29  O   UNL     1      -6.340   0.045   2.913  0.00  0.00    -0.480 OA
ATOM     30  H   UNL     1      -5.634   0.473   3.356  0.00  0.00    +0.295 HD
ENDBRANCH  28  29
ENDBRANCH  26  28
ENDBRANCH  25  26
ENDBRANCH  23  25
ENDBRANCH   9  23
TORSDOF 5
