REMARK  Name = 9865515
REMARK  6 active torsions:
REMARK  status: ('A' for Active; 'I' for Inactive)
REMARK    1  A    between atoms: C_1  and  C_20
REMARK    2  A    between atoms: C_2  and  C_9
REMARK    3  A    between atoms: N_8  and  C_11
REMARK    4  A    between atoms: C_12  and  N_17
REMARK    5  A    between atoms: C_20  and  N_21
REMARK    6  A    between atoms: C_25  and  C_30
REMARK                            x       y       z     vdW  Elec       q    Type
REMARK                         _______ _______ _______ _____ _____    ______ ____
ROOT
ATOM      1  C   UNL     1       0.005  -0.506  -0.263  0.00  0.00    -0.002 C 
ATOM      2  C   UNL     1      -2.759  -0.744  -0.551  0.00  0.00    +0.054 C 
ATOM      3  C   UNL     1      -0.835  -0.231   0.816  0.00  0.00    -0.002 C 
ATOM      4  C   UNL     1      -0.537  -0.900  -1.486  0.00  0.00    -0.002 C 
ATOM      5  C   UNL     1      -2.217  -0.349   0.672  0.00  0.00    +0.004 C 
ATOM      6  C   UNL     1      -1.919  -1.019  -1.630  0.00  0.00    +0.004 C 
ENDROOT
BRANCH   2   9
ATOM      7  O   UNL     1      -4.655  -1.671  -1.530  0.00  0.00    -0.270 OA
ATOM      8  N   UNL     1      -4.974  -0.056   0.142  0.00  0.00    -0.279 N 
ATOM      9  C   UNL     1      -4.201  -0.865  -0.702  0.00  0.00    +0.250 C 
ATOM     10  H   UNL     1      -4.471   0.535   0.747  0.00  0.00    +0.155 HD
BRANCH   8  11
ATOM     11  C   UNL     1      -6.386   0.022   0.237  0.00  0.00    +0.064 C 
ATOM     12  C   UNL     1      -6.979   0.889   1.140  0.00  0.00    +0.055 C 
ATOM     13  C   UNL     1      -7.146  -0.788  -0.591  0.00  0.00    +0.016 C 
ATOM     14  C   UNL     1      -8.371   0.948   1.216  0.00  0.00    +0.015 C 
ATOM     15  C   UNL     1      -8.537  -0.729  -0.515  0.00  0.00    +0.001 C 
ATOM     16  C   UNL     1      -9.150   0.139   0.389  0.00  0.00    +0.001 C 
BRANCH  12  17
ATOM     17  N   UNL     1      -6.210   1.718   1.986  0.00  0.00    -0.356 N 
ATOM     18  H   UNL     1      -5.227   1.688   1.944  0.00  0.00    +0.142 HD
ATOM     19  H   UNL     1      -6.657   2.327   2.618  0.00  0.00    +0.142 HD
ENDBRANCH  12  17
ENDBRANCH   8  11
ENDBRANCH   2   9
BRANCH   1  20
ATOM     20  C   UNL     1       1.484  -0.381  -0.109  0.00  0.00    +0.124 C 
BRANCH  20  21
ATOM     21  N   UNL     1       1.927   0.956  -0.441  0.00  0.00    -0.264 N 
ATOM     22  N   UNL     1       4.183   0.416  -0.085  0.00  0.00    -0.338 NA
ATOM     23  N   UNL     1       3.534   2.635  -0.763  0.00  0.00    -0.170 NA
ATOM     24  C   UNL     1       3.255   1.347  -0.429  0.00  0.00    +0.145 C 
ATOM     25  C   UNL     1       5.466   0.831  -0.084  0.00  0.00    +0.147 C 
ATOM     26  C   UNL     1       5.857   2.115  -0.406  0.00  0.00    +0.055 C 
ATOM     27  C   UNL     1       4.838   2.983  -0.741  0.00  0.00    +0.114 C 
ATOM     28  H   UNL     1       1.247   1.623  -0.689  0.00  0.00    +0.160 HD
BRANCH  25  30
ATOM     29  N   UNL     1       8.678  -1.052   0.076  0.00  0.00    -0.242 NA
ATOM     30  C   UNL     1       6.436  -0.173   0.284  0.00  0.00    +0.050 C 
ATOM     31  C   UNL     1       6.107  -1.201   1.162  0.00  0.00    +0.006 C 
ATOM     32  C   UNL     1       7.724  -0.144  -0.226  0.00  0.00    +0.101 C 
ATOM     33  C   UNL     1       7.062  -2.154   1.497  0.00  0.00    +0.021 C 
ATOM     34  C   UNL     1       8.322  -2.036   0.932  0.00  0.00    +0.099 C 
ENDBRANCH  25  30
ENDBRANCH  20  21
ENDBRANCH   1  20
TORSDOF 6
