REMARK  Name = 6441712
REMARK  16 active torsions:
REMARK  status: ('A' for Active; 'I' for Inactive)
REMARK    1  A    between atoms: C_1  and  C_24
REMARK    2  A    between atoms: C_2  and  S_10
REMARK    3  A    between atoms: C_3  and  O_6
REMARK    4  A    between atoms: C_4  and  O_8
REMARK    5  A    between atoms: S_10  and  C_11
REMARK    6  A    between atoms: C_11  and  C_12
REMARK    7  A    between atoms: C_12  and  O_13
REMARK    8  A    between atoms: C_12  and  C_15
REMARK    9  A    between atoms: C_15  and  O_16
REMARK   10  A    between atoms: O_16  and  C_18
REMARK   11  A    between atoms: C_24  and  C_25
REMARK   12  A    between atoms: C_26  and  C_27
REMARK   13  A    between atoms: C_27  and  C_28
REMARK   14  A    between atoms: C_28  and  C_29
REMARK   15  A    between atoms: C_29  and  C_31
REMARK   16  A    between atoms: C_31  and  O_32
REMARK                            x       y       z     vdW  Elec       q    Type
REMARK                         _______ _______ _______ _____ _____    ______ ____
ROOT
ATOM      1  C   UNL     1      -2.228  -1.383   0.082  0.00  0.00    +0.044 C 
ATOM      2  C   UNL     1      -2.563   0.112   0.185  0.00  0.00    +0.077 C 
ATOM      3  C   UNL     1      -3.532  -1.965  -0.478  0.00  0.00    +0.114 C 
ATOM      4  C   UNL     1      -4.027   0.142   0.651  0.00  0.00    +0.123 C 
ATOM      5  C   UNL     1      -4.617  -1.237   0.315  0.00  0.00    +0.059 C 
ENDROOT
BRANCH   3   6
ATOM      6  O   UNL     1      -3.702  -1.660  -1.857  0.00  0.00    -0.384 OA
ATOM      7  H   UNL     1      -3.020  -2.114  -2.376  0.00  0.00    +0.210 HD
ENDBRANCH   3   6
BRANCH   4   8
ATOM      8  O   UNL     1      -4.739   1.169  -0.028  0.00  0.00    -0.384 OA
ATOM      9  H   UNL     1      -4.355   2.031   0.195  0.00  0.00    +0.210 HD
ENDBRANCH   4   8
BRANCH   2  10
ATOM     10  S   UNL     1      -1.468   1.007   1.333  0.00  0.00    -0.136 S 
BRANCH  10  11
ATOM     11  C   UNL     1      -1.754   2.678   0.710  0.00  0.00    +0.091 C 
BRANCH  11  12
ATOM     12  C   UNL     1      -0.695   3.701   1.132  0.00  0.00    +0.165 C 
BRANCH  12  13
ATOM     13  O   UNL     1      -1.083   4.997   0.673  0.00  0.00    -0.380 OA
ATOM     14  H   UNL     1      -1.982   5.193   0.979  0.00  0.00    +0.211 HD
ENDBRANCH  12  13
BRANCH  12  15
ATOM     15  C   UNL     1       0.720   3.390   0.651  0.00  0.00    +0.235 C 
BRANCH  15  16
ATOM     16  O   UNL     1       0.655   2.927  -0.695  0.00  0.00    -0.473 OA
BRANCH  16  18
ATOM     17 CL   UNL     1       1.921  -1.013  -3.667  0.00  0.00    -0.082 Cl
ATOM     18  C   UNL     1       1.606   2.022  -1.080  0.00  0.00    +0.140 C 
ATOM     19  C   UNL     1       1.312   1.076  -2.062  0.00  0.00    +0.048 C 
ATOM     20  C   UNL     1       2.871   2.046  -0.491  0.00  0.00    +0.037 C 
ATOM     21  C   UNL     1       2.282   0.153  -2.455  0.00  0.00    +0.061 C 
ATOM     22  C   UNL     1       3.841   1.124  -0.884  0.00  0.00    +0.004 C 
ATOM     23  C   UNL     1       3.546   0.178  -1.866  0.00  0.00    +0.012 C 
ENDBRANCH  16  18
ENDBRANCH  15  16
ENDBRANCH  12  15
ENDBRANCH  11  12
ENDBRANCH  10  11
ENDBRANCH   2  10
BRANCH   1  24
ATOM     24  C   UNL     1      -1.000  -1.675  -0.771  0.00  0.00    +0.029 C 
BRANCH  24  25
ATOM     25  C   UNL     1      -0.647  -3.122  -0.980  0.00  0.00    -0.031 C 
ATOM     26  C   UNL     1       0.196  -3.865  -0.247  0.00  0.00    -0.031 C 
BRANCH  26  27
ATOM     27  C   UNL     1       0.945  -3.341   0.943  0.00  0.00    +0.026 C 
BRANCH  27  28
ATOM     28  C   UNL     1       2.314  -2.740   0.595  0.00  0.00    +0.016 C 
BRANCH  28  29
ATOM     29  C   UNL     1       3.093  -2.223   1.808  0.00  0.00    +0.110 C 
BRANCH  29  31
ATOM     30  O   UNL     1       1.628  -0.293   2.058  0.00  0.00    -0.250 OA
ATOM     31  C   UNL     1       2.389  -1.112   2.556  0.00  0.00    +0.314 C 
BRANCH  31  32
ATOM     32  O   UNL     1       2.734  -1.094   3.870  0.00  0.00    -0.480 OA
ATOM     33  H   UNL     1       3.321  -1.741   4.209  0.00  0.00    +0.295 HD
ENDBRANCH  31  32
ENDBRANCH  29  31
ENDBRANCH  28  29
ENDBRANCH  27  28
ENDBRANCH  26  27
ENDBRANCH  24  25
ENDBRANCH   1  24
TORSDOF 16
