REMARK  Name = 5054
REMARK  2 active torsions:
REMARK  status: ('A' for Active; 'I' for Inactive)
REMARK    1  A    between atoms: C_1  and  O_7
REMARK    2  A    between atoms: C_2  and  O_9
REMARK                            x       y       z     vdW  Elec       q    Type
REMARK                         _______ _______ _______ _____ _____    ______ ____
ROOT
ATOM      1  C   UNL     1       1.208   0.353   0.000  0.00  0.00    +0.137 C 
ATOM      2  C   UNL     1      -1.208   0.353   0.000  0.00  0.00    +0.137 C 
ATOM      3  C   UNL     1       0.000   1.050   0.000  0.00  0.00    +0.073 C 
ATOM      4  C   UNL     1       1.208  -1.042   0.000  0.00  0.00    +0.037 C 
ATOM      5  C   UNL     1      -1.208  -1.042   0.000  0.00  0.00    +0.037 C 
ATOM      6  C   UNL     1       0.000  -1.739   0.000  0.00  0.00    +0.006 C 
ENDROOT
BRANCH   1   7
ATOM      7  O   UNL     1       2.387   1.033   0.000  0.00  0.00    -0.505 OA
ATOM      8  H   UNL     1       2.387   1.970   0.000  0.00  0.00    +0.292 HD
ENDBRANCH   1   7
BRANCH   2   9
ATOM      9  O   UNL     1      -2.387   1.033   0.000  0.00  0.00    -0.505 OA
ATOM     10  H   UNL     1      -2.387   1.970   0.000  0.00  0.00    +0.292 HD
ENDBRANCH   2   9
TORSDOF 2
