11641515
  -OEChem-12171916533D

 58 61  0     1  0  0  0  0  0999 V2000
   -6.8081   -4.2611    0.7957 Cl  0  0  0  0  0  0  0  0  0  0  0  0
   -2.0296    2.5362   -0.8305 S   0  0  0  0  0  0  0  0  0  0  0  0
    6.3824   -1.6245   -1.2238 O   0  0  0  0  0  0  0  0  0  0  0  0
    1.7029    3.6240    1.8427 O   0  0  0  0  0  0  0  0  0  0  0  0
    0.0116    4.6115    0.1491 O   0  0  0  0  0  0  0  0  0  0  0  0
   -1.6909    2.2630   -2.2158 O   0  0  0  0  0  0  0  0  0  0  0  0
   -2.6107    3.8134   -0.4563 O   0  0  0  0  0  0  0  0  0  0  0  0
    4.3987   -1.5568   -0.0100 N   0  0  0  0  0  0  0  0  0  0  0  0
    2.6962    2.2971    0.2147 N   0  0  0  0  0  0  0  0  0  0  0  0
    5.6461   -3.5504   -0.2575 N   0  0  0  0  0  0  0  0  0  0  0  0
    4.2163   -0.1360   -0.1849 C   0  0  0  0  0  0  0  0  0  0  0  0
    2.9387    0.1555   -0.9807 C   0  0  0  0  0  0  0  0  0  0  0  0
    4.1810    0.5797    1.1700 C   0  0  0  0  0  0  0  0  0  0  0  0
    2.6923    1.6575   -1.1063 C   0  0  0  0  0  0  0  0  0  0  0  0
    3.9110    2.0723    1.0001 C   0  0  0  0  0  0  0  0  0  0  0  0
    3.4413   -2.2359    0.8636 C   0  0  0  0  0  0  0  0  0  0  0  0
    3.3560   -3.7202    0.5580 C   0  0  0  0  0  0  0  0  0  0  0  0
    5.5302   -2.1956   -0.5374 C   0  0  0  0  0  0  0  0  0  0  0  0
    1.6757    3.0970    0.7276 C   0  0  0  0  0  0  0  0  0  0  0  0
    4.7542   -4.2966    0.6072 C   0  0  0  0  0  0  0  0  0  0  0  0
    0.4748    3.3110   -0.1590 C   0  0  1  0  0  0  0  0  0  0  0  0
   -0.5904    2.2877    0.1639 C   0  0  0  0  0  0  0  0  0  0  0  0
   -3.1350    1.2598   -0.3073 C   0  0  0  0  0  0  0  0  0  0  0  0
   -3.1034    0.0337   -0.9493 C   0  0  0  0  0  0  0  0  0  0  0  0
   -4.0092    1.5102    0.7319 C   0  0  0  0  0  0  0  0  0  0  0  0
   -3.9751   -0.9907   -0.5453 C   0  0  0  0  0  0  0  0  0  0  0  0
   -4.8781   -0.7519    0.5181 C   0  0  0  0  0  0  0  0  0  0  0  0
   -4.8825    0.5041    1.1461 C   0  0  0  0  0  0  0  0  0  0  0  0
   -3.9708   -2.2466   -1.1735 C   0  0  0  0  0  0  0  0  0  0  0  0
   -5.7499   -1.7761    0.9219 C   0  0  0  0  0  0  0  0  0  0  0  0
   -4.8440   -3.2529   -0.7592 C   0  0  0  0  0  0  0  0  0  0  0  0
   -5.7318   -3.0181    0.2865 C   0  0  0  0  0  0  0  0  0  0  0  0
    5.0610    0.2706   -0.7550 H   0  0  0  0  0  0  0  0  0  0  0  0
    3.0123   -0.2903   -1.9803 H   0  0  0  0  0  0  0  0  0  0  0  0
    2.0546   -0.2860   -0.5094 H   0  0  0  0  0  0  0  0  0  0  0  0
    3.3912    0.1722    1.8126 H   0  0  0  0  0  0  0  0  0  0  0  0
    5.1291    0.4324    1.7010 H   0  0  0  0  0  0  0  0  0  0  0  0
    3.4867    2.1284   -1.6972 H   0  0  0  0  0  0  0  0  0  0  0  0
    1.7597    1.7937   -1.6506 H   0  0  0  0  0  0  0  0  0  0  0  0
    3.8349    2.5487    1.9826 H   0  0  0  0  0  0  0  0  0  0  0  0
    4.7394    2.5538    0.4670 H   0  0  0  0  0  0  0  0  0  0  0  0
    2.4421   -1.8049    0.7787 H   0  0  0  0  0  0  0  0  0  0  0  0
    3.7841   -2.0964    1.8960 H   0  0  0  0  0  0  0  0  0  0  0  0
    2.9282   -3.8663   -0.4417 H   0  0  0  0  0  0  0  0  0  0  0  0
    2.7040   -4.2270    1.2770 H   0  0  0  0  0  0  0  0  0  0  0  0
    5.1676   -4.2517    1.6205 H   0  0  0  0  0  0  0  0  0  0  0  0
    4.7614   -5.3402    0.2783 H   0  0  0  0  0  0  0  0  0  0  0  0
    0.7180    3.3402   -1.2206 H   0  0  0  0  0  0  0  0  0  0  0  0
    6.4643   -4.0327   -0.6166 H   0  0  0  0  0  0  0  0  0  0  0  0
   -0.2302    1.2697   -0.0147 H   0  0  0  0  0  0  0  0  0  0  0  0
   -0.9108    2.3717    1.2086 H   0  0  0  0  0  0  0  0  0  0  0  0
    0.6826    5.2467   -0.1550 H   0  0  0  0  0  0  0  0  0  0  0  0
   -2.4029   -0.1505   -1.7605 H   0  0  0  0  0  0  0  0  0  0  0  0
   -4.0325    2.4676    1.2431 H   0  0  0  0  0  0  0  0  0  0  0  0
   -5.5669    0.7094    1.9666 H   0  0  0  0  0  0  0  0  0  0  0  0
   -3.2854   -2.4526   -1.9931 H   0  0  0  0  0  0  0  0  0  0  0  0
   -6.4477   -1.6002    1.7393 H   0  0  0  0  0  0  0  0  0  0  0  0
   -4.8190   -4.2156   -1.2633 H   0  0  0  0  0  0  0  0  0  0  0  0
  1 32  1  0  0  0  0
  2  6  2  0  0  0  0
  2  7  2  0  0  0  0
  2 22  1  0  0  0  0
  2 23  1  0  0  0  0
  3 18  2  0  0  0  0
  4 19  2  0  0  0  0
  5 21  1  0  0  0  0
  5 52  1  0  0  0  0
  8 11  1  0  0  0  0
  8 16  1  0  0  0  0
  8 18  1  0  0  0  0
  9 14  1  0  0  0  0
  9 15  1  0  0  0  0
  9 19  1  0  0  0  0
 10 18  1  0  0  0  0
 10 20  1  0  0  0  0
 10 49  1  0  0  0  0
 11 12  1  0  0  0  0
 11 13  1  0  0  0  0
 11 33  1  0  0  0  0
 12 14  1  0  0  0  0
 12 34  1  0  0  0  0
 12 35  1  0  0  0  0
 13 15  1  0  0  0  0
 13 36  1  0  0  0  0
 13 37  1  0  0  0  0
 14 38  1  0  0  0  0
 14 39  1  0  0  0  0
 15 40  1  0  0  0  0
 15 41  1  0  0  0  0
 16 17  1  0  0  0  0
 16 42  1  0  0  0  0
 16 43  1  0  0  0  0
 17 20  1  0  0  0  0
 17 44  1  0  0  0  0
 17 45  1  0  0  0  0
 19 21  1  0  0  0  0
 20 46  1  0  0  0  0
 20 47  1  0  0  0  0
 21 22  1  0  0  0  0
 21 48  1  0  0  0  0
 22 50  1  0  0  0  0
 22 51  1  0  0  0  0
 23 24  2  0  0  0  0
 23 25  1  0  0  0  0
 24 26  1  0  0  0  0
 24 53  1  0  0  0  0
 25 28  2  0  0  0  0
 25 54  1  0  0  0  0
 26 27  2  0  0  0  0
 26 29  1  0  0  0  0
 27 28  1  0  0  0  0
 27 30  1  0  0  0  0
 28 55  1  0  0  0  0
 29 31  2  0  0  0  0
 29 56  1  0  0  0  0
 30 32  2  0  0  0  0
 30 57  1  0  0  0  0
 31 32  1  0  0  0  0
 31 58  1  0  0  0  0
M  END
> <DATABASE_ID>
DB11984

> <DATABASE_NAME>
drugbank

> <ORIGINAL_SOURCE>
PUBCHEM

> <ORIGINAL_SOURCE_URL>
https://pubchem.ncbi.nlm.nih.gov/rest/pug/compound/inchikey/GEHAEMCVKDPMKO-HXUWFJFHSA-N/SDF?record_type=3d

> <SMILES>
O[C@H](CS(=O)(=O)C1=CC=C2C=C(Cl)C=CC2=C1)C(=O)N1CCC(CC1)N1CCCNC1=O

> <INCHI_IDENTIFIER>
InChI=1S/C22H26ClN3O5S/c23-17-4-2-16-13-19(5-3-15(16)12-17)32(30,31)14-20(27)21(28)25-10-6-18(7-11-25)26-9-1-8-24-22(26)29/h2-5,12-13,18,20,27H,1,6-11,14H2,(H,24,29)/t20-/m1/s1

> <INCHI_KEY>
GEHAEMCVKDPMKO-HXUWFJFHSA-N

> <FORMULA>
C22H26ClN3O5S

> <MOLECULAR_WEIGHT>
479.977

> <EXACT_MASS>
479.128169354

> <JCHEM_ACCEPTOR_COUNT>
5

> <JCHEM_ATOM_COUNT>
58

> <JCHEM_AVERAGE_NEUTRAL_MICROSPECIES_CHARGE>
-5.8576205592286245e-06

> <JCHEM_AVERAGE_POLARIZABILITY>
47.62731805216908

> <JCHEM_BIOAVAILABILITY>
1

> <JCHEM_DONOR_COUNT>
2

> <JCHEM_FORMAL_CHARGE>
0

> <JCHEM_GHOSE_FILTER>
1

> <JCHEM_IUPAC>
1-{1-[(2S)-3-[(6-chloronaphthalen-2-yl)sulfonyl]-2-hydroxypropanoyl]piperidin-4-yl}-1,3-diazinan-2-one

> <ALOGPS_LOGP>
1.55

> <JCHEM_LOGP>
0.2317779029999999

> <ALOGPS_LOGS>
-3.34

> <JCHEM_MDDR_LIKE_RULE>
0

> <JCHEM_NEUTRAL_CHARGE>
0

> <JCHEM_NUMBER_OF_RINGS>
4

> <JCHEM_PHYSIOLOGICAL_CHARGE>
0

> <JCHEM_PKA>
13.623254446550888

> <JCHEM_PKA_STRONGEST_ACIDIC>
12.255331025227484

> <JCHEM_PKA_STRONGEST_BASIC>
-0.871616187231351

> <JCHEM_POLAR_SURFACE_AREA>
107.01999999999998

> <JCHEM_REFRACTIVITY>
120.74989999999998

> <JCHEM_ROTATABLE_BOND_COUNT>
5

> <JCHEM_RULE_OF_FIVE>
1

> <ALOGPS_SOLUBILITY>
2.17e-01 g/l

> <JCHEM_TRADITIONAL_IUPAC>
(2S)-N-[(1S,2R)-1-{[(1S)-1-[({[(1S)-1-{[(1S)-1-{[(1S)-1-carbamoyl-2-(1H-indol-3-yl)ethyl]carbamoyl}-4-(N'-methylcarbamimidamido)butyl]carbamoyl}-3-methylbutyl]carbamoyl}amino)carbamoyl]-2-phenylethyl]carbamoyl}-2-hydroxypropyl]-2-{[(2S,4R)-1-[(2R)-2-acetamido-3-(4-hydroxyphenyl)propanoyl]-4-hydroxypyrrolidin-2-yl]formamido}succinamide

> <JCHEM_VEBER_RULE>
0

> <DRUGBANK_ID>
DB11984

> <DRUG_GROUPS>
investigational

> <GENERIC_NAME>
Letaxaban

> <SYNONYMS>
Letaxaban; Letaxab√°n; Letaxabanum

$$$$
