REMARK  Name = 185460
REMARK  11 active torsions:
REMARK  status: ('A' for Active; 'I' for Inactive)
REMARK    1  A    between atoms: N_1  and  C_22
REMARK    2  A    between atoms: C_2  and  C_10
REMARK    3  A    between atoms: N_8  and  C_17
REMARK    4  A    between atoms: C_17  and  C_18
REMARK    5  A    between atoms: C_18  and  O_19
REMARK    6  A    between atoms: O_19  and  C_20
REMARK    7  A    between atoms: C_22  and  C_23
REMARK    8  A    between atoms: C_23  and  C_24
REMARK    9  A    between atoms: C_27  and  C_30
REMARK   10  A    between atoms: C_30  and  C_34
REMARK   11  A    between atoms: C_34  and  O_35
REMARK                            x       y       z     vdW  Elec       q    Type
REMARK                         _______ _______ _______ _____ _____    ______ ____
ROOT
ATOM      1  N   UNL     1      -0.463   0.650   0.199  0.00  0.00    +0.387 N 
ATOM      2  C   UNL     1       2.424   0.151   0.168  0.00  0.00    +0.063 C 
ATOM      3  C   UNL     1       1.638   0.509  -1.103  0.00  0.00    -0.014 C 
ATOM      4  C   UNL     1       1.697   0.695   1.407  0.00  0.00    -0.014 C 
ATOM      5  C   UNL     1       0.176   0.068  -0.989  0.00  0.00    -0.077 C 
ATOM      6  C   UNL     1       0.233   0.247   1.429  0.00  0.00    -0.077 C 
ATOM      7  H   UNL     1      -0.403   1.666   0.122  0.00  0.00    -0.080 HD
ENDROOT
BRANCH   2  10
ATOM      8  N   UNL     1       4.883  -0.077   0.706  0.00  0.00    -0.262 N 
ATOM      9  N   UNL     1       4.309   1.683  -0.524  0.00  0.00    -0.394 NA
ATOM     10  C   UNL     1       3.870   0.613   0.100  0.00  0.00    +0.163 C 
ATOM     11  C   UNL     1       6.053   0.593   0.457  0.00  0.00    +0.079 C 
ATOM     12  C   UNL     1       5.668   1.688  -0.312  0.00  0.00    +0.128 C 
ATOM     13  C   UNL     1       7.375   0.344   0.828  0.00  0.00    +0.017 C 
ATOM     14  C   UNL     1       6.647   2.598  -0.747  0.00  0.00    +0.086 C 
ATOM     15  C   UNL     1       8.336   1.260   0.387  0.00  0.00    -0.003 C 
ATOM     16  C   UNL     1       7.981   2.367  -0.386  0.00  0.00    -0.019 C 
BRANCH   8  17
ATOM     17  C   UNL     1       4.749  -1.295   1.473  0.00  0.00    +0.130 C 
BRANCH  17  18
ATOM     18  C   UNL     1       4.881  -2.544   0.612  0.00  0.00    +0.164 C 
BRANCH  18  19
ATOM     19  O   UNL     1       6.171  -2.582   0.017  0.00  0.00    -0.352 OA
BRANCH  19  20
ATOM     20  C   UNL     1       6.336  -3.735  -0.797  0.00  0.00    +0.142 C 
ATOM     21  C   UNL     1       7.725  -3.718  -1.400  0.00  0.00    +0.035 C 
ENDBRANCH  19  20
ENDBRANCH  18  19
ENDBRANCH  17  18
ENDBRANCH   8  17
ENDBRANCH   2  10
BRANCH   1  22
ATOM     22  C   UNL     1      -1.873   0.265   0.260  0.00  0.00    -0.073 C 
BRANCH  22  23
ATOM     23  C   UNL     1      -2.726   1.165  -0.636  0.00  0.00    +0.004 C 
BRANCH  23  24
ATOM     24  C   UNL     1      -4.185   0.792  -0.564  0.00  0.00    -0.024 C 
ATOM     25  C   UNL     1      -5.012   1.391   0.387  0.00  0.00    -0.005 C 
ATOM     26  C   UNL     1      -4.709  -0.151  -1.448  0.00  0.00    -0.005 C 
ATOM     27  C   UNL     1      -6.886   0.104  -0.430  0.00  0.00    -0.013 C 
ATOM     28  C   UNL     1      -6.362   1.047   0.454  0.00  0.00    -0.004 C 
ATOM     29  C   UNL     1      -6.059  -0.495  -1.381  0.00  0.00    -0.004 C 
BRANCH  27  30
ATOM     30  C   UNL     1      -8.329  -0.264  -0.358  0.00  0.00    +0.108 C 
ATOM     31  C   UNL     1      -9.219   0.992  -0.630  0.00  0.00    +0.016 C 
ATOM     32  C   UNL     1      -8.789  -1.352  -1.386  0.00  0.00    +0.016 C 
BRANCH  30  34
ATOM     33  O   UNL     1      -7.881  -1.477   1.724  0.00  0.00    -0.250 OA
ATOM     34  C   UNL     1      -8.689  -0.857   1.040  0.00  0.00    +0.317 C 
BRANCH  34  35
ATOM     35  O   UNL     1      -9.972  -0.677   1.447  0.00  0.00    -0.480 OA
ATOM     36  H   UNL     1     -10.572  -0.200   0.908  0.00  0.00    +0.295 HD
ENDBRANCH  34  35
ENDBRANCH  30  34
ENDBRANCH  27  30
ENDBRANCH  23  24
ENDBRANCH  22  23
ENDBRANCH   1  22
TORSDOF 11
