REMARK  Name = 3885
REMARK  0 active torsions:
REMARK  status: ('A' for Active; 'I' for Inactive)
REMARK                            x       y       z     vdW  Elec       q    Type
REMARK                         _______ _______ _______ _____ _____    ______ ____
ROOT
ATOM      1  O   UNL     1       1.532  -1.179   0.143  0.00  0.00    -0.483 OA
ATOM      2  O   UNL     1      -0.213   3.269  -0.024  0.00  0.00    -0.283 OA
ATOM      3  O   UNL     1      -2.682   2.312  -0.103  0.00  0.00    -0.283 OA
ATOM      4  C   UNL     1       2.887  -0.738  -0.064  0.00  0.00    +0.134 C 
ATOM      5  C   UNL     1       3.147   0.613   0.619  0.00  0.00    +0.045 C 
ATOM      6  C   UNL     1       2.147   1.670   0.167  0.00  0.00    +0.036 C 
ATOM      7  C   UNL     1       0.765   1.096   0.084  0.00  0.00    +0.054 C 
ATOM      8  C   UNL     1       0.529  -0.228   0.097  0.00  0.00    +0.137 C 
ATOM      9  C   UNL     1       3.784  -1.806   0.576  0.00  0.00    +0.044 C 
ATOM     10  C   UNL     1       3.171  -0.698  -1.573  0.00  0.00    +0.044 C 
ATOM     11  C   UNL     1      -0.839  -0.785   0.058  0.00  0.00    +0.037 C 
ATOM     12  C   UNL     1      -0.362   2.056   0.006  0.00  0.00    +0.233 C 
ATOM     13  C   UNL     1      -1.957   0.058  -0.010  0.00  0.00    +0.045 C 
ATOM     14  C   UNL     1      -1.759   1.515  -0.041  0.00  0.00    +0.234 C 
ATOM     15  C   UNL     1      -1.067  -2.172   0.086  0.00  0.00    +0.003 C 
ATOM     16  C   UNL     1      -3.259  -0.457  -0.049  0.00  0.00    +0.003 C 
ATOM     17  C   UNL     1      -2.365  -2.691   0.047  0.00  0.00    +0.000 C 
ATOM     18  C   UNL     1      -3.459  -1.834  -0.021  0.00  0.00    +0.000 C 
ENDROOT
TORSDOF 0
