REMARK  Name = 3109
REMARK  3 active torsions:
REMARK  status: ('A' for Active; 'I' for Inactive)
REMARK    1  A    between atoms: S_1  and  C_4
REMARK    2  A    between atoms: S_1  and  S_9
REMARK    3  A    between atoms: S_9  and  C_12
REMARK                            x       y       z     vdW  Elec       q    Type
REMARK                         _______ _______ _______ _____ _____    ______ ____
ROOT
ATOM      1  S   UNL     1      -0.704  -2.056   0.628  0.00  0.00    -0.028 S 
ENDROOT
BRANCH   1   4
ATOM      2  O   UNL     1      -0.601   0.809   1.489  0.00  0.00    -0.163 OA
ATOM      3  N   UNL     1      -1.649   0.527   0.817  0.00  0.00    -0.122 N 
ATOM      4  C   UNL     1      -1.883  -0.744   0.330  0.00  0.00    +0.138 C 
ATOM      5  C   UNL     1      -3.031  -1.033  -0.400  0.00  0.00    +0.028 C 
ATOM      6  C   UNL     1      -2.577   1.520   0.569  0.00  0.00    +0.122 C 
ATOM      7  C   UNL     1      -3.958  -0.026  -0.644  0.00  0.00    +0.004 C 
ATOM      8  C   UNL     1      -3.733   1.257  -0.158  0.00  0.00    +0.022 C 
ENDBRANCH   1   4
BRANCH   1   9
ATOM      9  S   UNL     1       0.531  -1.879  -1.008  0.00  0.00    -0.028 S 
BRANCH   9  12
ATOM     10  O   UNL     1       1.275   0.821  -2.065  0.00  0.00    -0.163 OA
ATOM     11  N   UNL     1       1.958   0.479  -1.042  0.00  0.00    -0.122 N 
ATOM     12  C   UNL     1       1.763  -0.736  -0.410  0.00  0.00    +0.138 C 
ATOM     13  C   UNL     1       2.520  -1.088   0.705  0.00  0.00    +0.028 C 
ATOM     14  C   UNL     1       2.918   1.345  -0.555  0.00  0.00    +0.122 C 
ATOM     15  C   UNL     1       3.484  -0.209   1.188  0.00  0.00    +0.004 C 
ATOM     16  C   UNL     1       3.686   1.014   0.557  0.00  0.00    +0.022 C 
ENDBRANCH   9  12
ENDBRANCH   1   9
TORSDOF 3
