REMARK  Name = 72048
REMARK  15 active torsions:
REMARK  status: ('A' for Active; 'I' for Inactive)
REMARK    1  A    between atoms: C_1  and  N_2
REMARK    2  A    between atoms: C_1  and  C_14
REMARK    3  A    between atoms: N_2  and  C_5
REMARK    4  A    between atoms: C_5  and  C_7
REMARK    5  A    between atoms: C_5  and  C_11
REMARK    6  A    between atoms: C_7  and  O_8
REMARK    7  A    between atoms: O_8  and  C_9
REMARK    8  A    between atoms: C_11  and  S_12
REMARK    9  A    between atoms: C_14  and  N_15
REMARK   10  A    between atoms: N_15  and  C_18
REMARK   11  A    between atoms: C_18  and  C_20
REMARK   12  A    between atoms: C_18  and  C_24
REMARK   13  A    between atoms: C_20  and  O_21
REMARK   14  A    between atoms: O_21  and  C_22
REMARK   15  A    between atoms: C_24  and  S_25
REMARK                            x       y       z     vdW  Elec       q    Type
REMARK                         _______ _______ _______ _____ _____    ______ ____
ROOT
ATOM      1  C   UNL     1       0.736   0.905  -0.193  0.00  0.00    -0.105 C 
ENDROOT
BRANCH   1   2
ATOM      2  N   UNL     1       1.572   0.919   0.997  0.00  0.00    +0.391 N 
ATOM      3  H   UNL     1       1.368   0.093   1.560  0.00  0.00    -0.084 HD
ATOM      4  H   UNL     1       1.373   1.767   1.528  0.00  0.00    -0.084 HD
BRANCH   2   5
ATOM      5  C   UNL     1       2.991   0.914   0.630  0.00  0.00    +0.050 C 
BRANCH   5   7
ATOM      6  O   UNL     1       2.844  -1.509   0.819  0.00  0.00    -0.252 OA
ATOM      7  C   UNL     1       3.339  -0.524   0.286  0.00  0.00    +0.297 C 
BRANCH   7   8
ATOM      8  O   UNL     1       4.300  -0.542  -0.685  0.00  0.00    -0.450 OA
BRANCH   8   9
ATOM      9  C   UNL     1       4.744  -1.841  -1.089  0.00  0.00    +0.208 C 
ATOM     10  C   UNL     1       5.801  -1.688  -2.163  0.00  0.00    +0.051 C 
ENDBRANCH   8   9
ENDBRANCH   7   8
ENDBRANCH   5   7
BRANCH   5  11
ATOM     11  C   UNL     1       3.820   1.423   1.810  0.00  0.00    +0.043 C 
BRANCH  11  12
ATOM     12  S   UNL     1       5.489   1.941   1.299  0.00  0.00    -0.170 S 
ATOM     13  H   UNL     1       6.179   2.383   2.385  0.00  0.00    +0.102 HD
ENDBRANCH  11  12
ENDBRANCH   5  11
ENDBRANCH   2   5
ENDBRANCH   1   2
BRANCH   1  14
ATOM     14  C   UNL     1      -0.738   0.912   0.201  0.00  0.00    -0.105 C 
BRANCH  14  15
ATOM     15  N   UNL     1      -1.577   0.915  -0.993  0.00  0.00    +0.391 N 
ATOM     16  H   UNL     1      -1.371   0.084  -1.548  0.00  0.00    -0.084 HD
ATOM     17  H   UNL     1      -1.379   1.760  -1.529  0.00  0.00    -0.084 HD
BRANCH  15  18
ATOM     18  C   UNL     1      -2.988   0.911  -0.634  0.00  0.00    +0.050 C 
BRANCH  18  20
ATOM     19  O   UNL     1      -2.839  -1.513  -0.807  0.00  0.00    -0.252 OA
ATOM     20  C   UNL     1      -3.337  -0.525  -0.282  0.00  0.00    +0.297 C 
BRANCH  20  21
ATOM     21  O   UNL     1      -4.302  -0.537   0.685  0.00  0.00    -0.450 OA
BRANCH  21  22
ATOM     22  C   UNL     1      -4.747  -1.833   1.096  0.00  0.00    +0.208 C 
ATOM     23  C   UNL     1      -5.808  -1.674   2.164  0.00  0.00    +0.051 C 
ENDBRANCH  21  22
ENDBRANCH  20  21
ENDBRANCH  18  20
BRANCH  18  24
ATOM     24  C   UNL     1      -3.813   1.413  -1.821  0.00  0.00    +0.043 C 
BRANCH  24  25
ATOM     25  S   UNL     1      -5.485   1.933  -1.321  0.00  0.00    -0.170 S 
ATOM     26  H   UNL     1      -6.170   2.367  -2.412  0.00  0.00    +0.102 HD
ENDBRANCH  24  25
ENDBRANCH  18  24
ENDBRANCH  15  18
ENDBRANCH  14  15
ENDBRANCH   1  14
TORSDOF 15
