REMARK  Name = 104845
REMARK  2 active torsions:
REMARK  status: ('A' for Active; 'I' for Inactive)
REMARK    1  A    between atoms: C_9  and  C_22
REMARK    2  A    between atoms: C_20  and  O_24
REMARK                            x       y       z     vdW  Elec       q    Type
REMARK                         _______ _______ _______ _____ _____    ______ ____
ROOT
ATOM      1  O   UNL     1      -0.197  -2.531  -0.549  0.00  0.00    -0.296 OA
ATOM      2  C   UNL     1       0.031   1.036  -0.264  0.00  0.00    +0.007 C 
ATOM      3  C   UNL     1       1.429   1.071   0.368  0.00  0.00    +0.001 C 
ATOM      4  C   UNL     1      -0.706  -0.256   0.213  0.00  0.00    +0.058 C 
ATOM      5  C   UNL     1       2.296  -0.149  -0.021  0.00  0.00    +0.013 C 
ATOM      6  C   UNL     1      -2.172  -0.343  -0.347  0.00  0.00    +0.007 C 
ATOM      7  C   UNL     1      -2.909   0.970   0.085  0.00  0.00    +0.003 C 
ATOM      8  C   UNL     1      -0.768   2.298   0.086  0.00  0.00    +0.000 C 
ATOM      9  C   UNL     1       3.606   0.238   0.698  0.00  0.00    +0.058 C 
ATOM     10  C   UNL     1       2.338   2.260   0.075  0.00  0.00    +0.000 C 
ATOM     11  C   UNL     1       1.616  -1.408   0.520  0.00  0.00    +0.065 C 
ATOM     12  C   UNL     1      -2.206   2.234  -0.421  0.00  0.00    +0.000 C 
ATOM     13  C   UNL     1       0.194  -1.492  -0.021  0.00  0.00    +0.150 C 
ATOM     14  C   UNL     1      -2.944  -1.532   0.298  0.00  0.00    +0.003 C 
ATOM     15  C   UNL     1       3.742   1.754   0.447  0.00  0.00    +0.007 C 
ATOM     16  C   UNL     1      -4.400   0.975  -0.294  0.00  0.00    +0.029 C 
ATOM     17  C   UNL     1      -2.164  -0.515  -1.887  0.00  0.00    +0.000 C 
ATOM     18  C   UNL     1       2.517  -0.301  -1.549  0.00  0.00    +0.001 C 
ATOM     19  C   UNL     1      -4.443  -1.547  -0.034  0.00  0.00    +0.029 C 
ATOM     20  C   UNL     1      -5.136  -0.229   0.296  0.00  0.00    +0.111 C 
ENDROOT
BRANCH   9  22
ATOM     21  O   UNL     1       5.506  -0.143  -0.693  0.00  0.00    -0.296 OA
ATOM     22  C   UNL     1       4.818  -0.521   0.254  0.00  0.00    +0.151 C 
ATOM     23  C   UNL     1       5.155  -1.768   1.026  0.00  0.00    +0.072 C 
ENDBRANCH   9  22
BRANCH  20  24
ATOM     24  O   UNL     1      -5.204  -0.101   1.716  0.00  0.00    -0.384 OA
ATOM     25  H   UNL     1      -5.642   0.734   1.945  0.00  0.00    +0.210 HD
ENDBRANCH  20  24
TORSDOF 2
