REMARK  Name = 46843057
REMARK  7 active torsions:
REMARK  status: ('A' for Active; 'I' for Inactive)
REMARK    1  A    between atoms: N_2  and  C_18
REMARK    2  A    between atoms: C_3  and  C_7
REMARK    3  A    between atoms: C_8  and  C_14
REMARK    4  A    between atoms: C_18  and  C_19
REMARK    5  A    between atoms: C_18  and  C_27
REMARK    6  A    between atoms: C_19  and  C_21
REMARK    7  A    between atoms: C_27  and  N_28
REMARK                            x       y       z     vdW  Elec       q    Type
REMARK                         _______ _______ _______ _____ _____    ______ ____
ROOT
ATOM      1  O   UNL     1       1.747   1.084   2.265  0.00  0.00    -0.270 OA
ATOM      2  N   UNL     1       1.645   1.484  -0.017  0.00  0.00    -0.304 N 
ATOM      3  C   UNL     1       1.119   1.117   1.210  0.00  0.00    +0.252 C 
ATOM      4  H   UNL     1       1.058   1.478  -0.807  0.00  0.00    +0.150 HD
ENDROOT
BRANCH   3   7
ATOM      5 CL   UNL     1      -3.885  -0.587   2.824  0.00  0.00    -0.075 Cl
ATOM      6  S   UNL     1      -1.050   0.242   2.674  0.00  0.00    -0.071 S 
ATOM      7  C   UNL     1      -0.311   0.715   1.204  0.00  0.00    +0.084 C 
ATOM      8  C   UNL     1      -2.483   0.220   0.542  0.00  0.00    +0.033 C 
ATOM      9  C   UNL     1      -1.188   0.658   0.142  0.00  0.00    +0.014 C 
ATOM     10  C   UNL     1      -2.547  -0.041   1.893  0.00  0.00    +0.088 C 
BRANCH   8  14
ATOM     11 CL   UNL     1      -4.139  -2.648  -0.029  0.00  0.00    -0.079 Cl
ATOM     12  N   UNL     1      -4.197   1.038  -1.139  0.00  0.00    -0.209 N 
ATOM     13  N   UNL     1      -5.230   0.613  -1.886  0.00  0.00    -0.175 NA
ATOM     14  C   UNL     1      -3.628   0.060  -0.378  0.00  0.00    +0.082 C 
ATOM     15  C   UNL     1      -4.338  -1.085  -0.646  0.00  0.00    +0.093 C 
ATOM     16  C   UNL     1      -3.802   2.426  -1.208  0.00  0.00    +0.140 C 
ATOM     17  C   UNL     1      -5.311  -0.685  -1.581  0.00  0.00    +0.130 C 
ENDBRANCH   8  14
ENDBRANCH   3   7
BRANCH   2  18
ATOM     18  C   UNL     1       3.030   1.877  -0.178  0.00  0.00    +0.055 C 
BRANCH  18  19
ATOM     19  C   UNL     1       3.758   0.926  -1.147  0.00  0.00    +0.044 C 
BRANCH  19  21
ATOM     20  F   UNL     1       1.558  -3.436  -1.168  0.00  0.00    -0.204 F 
ATOM     21  C   UNL     1       3.688  -0.521  -0.717  0.00  0.00    -0.018 C 
ATOM     22  C   UNL     1       2.635  -1.327  -1.150  0.00  0.00    +0.025 C 
ATOM     23  C   UNL     1       4.676  -1.050   0.114  0.00  0.00    -0.004 C 
ATOM     24  C   UNL     1       2.569  -2.662  -0.752  0.00  0.00    +0.140 C 
ATOM     25  C   UNL     1       4.610  -2.386   0.511  0.00  0.00    +0.002 C 
ATOM     26  C   UNL     1       3.557  -3.192   0.078  0.00  0.00    +0.030 C 
ENDBRANCH  19  21
ENDBRANCH  18  19
BRANCH  18  27
ATOM     27  C   UNL     1       3.076   3.338  -0.650  0.00  0.00    -0.066 C 
BRANCH  27  28
ATOM     28  N   UNL     1       4.443   3.819  -0.811  0.00  0.00    +0.382 N 
ATOM     29  H   UNL     1       4.428   4.790  -1.124  0.00  0.00    -0.089 HD
ATOM     30  H   UNL     1       4.926   3.246  -1.502  0.00  0.00    -0.089 HD
ATOM     31  H   UNL     1       4.932   3.758   0.083  0.00  0.00    -0.089 HD
ENDBRANCH  27  28
ENDBRANCH  18  27
ENDBRANCH   2  18
TORSDOF 7
