REMARK  Name = 91469
REMARK  3 active torsions:
REMARK  status: ('A' for Active; 'I' for Inactive)
REMARK    1  A    between atoms: C_2  and  C_11
REMARK    2  A    between atoms: C_10  and  O_19
REMARK    3  A    between atoms: C_16  and  O_17
REMARK                            x       y       z     vdW  Elec       q    Type
REMARK                         _______ _______ _______ _____ _____    ______ ____
ROOT
ATOM      1  O   UNL     1       1.433   1.786   0.135  0.00  0.00    -0.475 OA
ATOM      2  C   UNL     1      -0.488   0.353  -0.392  0.00  0.00    +0.070 C 
ATOM      3  C   UNL     1       0.306  -0.921  -0.080  0.00  0.00    +0.038 C 
ATOM      4  C   UNL     1       0.069   1.495   0.465  0.00  0.00    +0.210 C 
ATOM      5  C   UNL     1       1.781  -0.626  -0.048  0.00  0.00    +0.012 C 
ATOM      6  C   UNL     1       2.253   0.689   0.067  0.00  0.00    +0.138 C 
ATOM      7  C   UNL     1       2.703  -1.679  -0.110  0.00  0.00    +0.002 C 
ATOM      8  C   UNL     1       3.627   0.945   0.080  0.00  0.00    +0.073 C 
ATOM      9  C   UNL     1       4.074  -1.421  -0.082  0.00  0.00    +0.036 C 
ATOM     10  C   UNL     1       4.535  -0.110   0.009  0.00  0.00    +0.137 C 
ENDROOT
BRANCH   2  11
ATOM     11  C   UNL     1      -1.979   0.148  -0.216  0.00  0.00    -0.018 C 
ATOM     12  C   UNL     1      -2.835   0.298  -1.307  0.00  0.00    -0.001 C 
ATOM     13  C   UNL     1      -2.493  -0.190   1.034  0.00  0.00    -0.001 C 
ATOM     14  C   UNL     1      -4.207   0.109  -1.146  0.00  0.00    +0.036 C 
ATOM     15  C   UNL     1      -3.866  -0.378   1.195  0.00  0.00    +0.036 C 
ATOM     16  C   UNL     1      -4.723  -0.229   0.105  0.00  0.00    +0.134 C 
BRANCH  16  17
ATOM     17  O   UNL     1      -6.063  -0.412   0.262  0.00  0.00    -0.506 OA
ATOM     18  H   UNL     1      -6.638  -0.312  -0.471  0.00  0.00    +0.292 HD
ENDBRANCH  16  17
ENDBRANCH   2  11
BRANCH  10  19
ATOM     19  O   UNL     1       5.873   0.142   0.029  0.00  0.00    -0.505 OA
ATOM     20  H   UNL     1       6.183   1.024   0.090  0.00  0.00    +0.292 HD
ENDBRANCH  10  19
TORSDOF 3
