REMARK  Name = 1140
REMARK  0 active torsions:
REMARK  status: ('A' for Active; 'I' for Inactive)
REMARK                            x       y       z     vdW  Elec       q    Type
REMARK                         _______ _______ _______ _____ _____    ______ ____
ROOT
ATOM      1  C   UNL     1      -0.983   0.000   0.000  0.00  0.00    -0.022 C 
ATOM      2  C   UNL     1      -0.285   1.208   0.000  0.00  0.00    -0.004 C 
ATOM      3  C   UNL     1      -0.285  -1.208   0.000  0.00  0.00    -0.004 C 
ATOM      4  C   UNL     1      -2.474   0.000   0.000  0.00  0.00    +0.031 C 
ATOM      5  C   UNL     1       1.110   1.208   0.000  0.00  0.00    -0.000 C 
ATOM      6  C   UNL     1       1.110  -1.208   0.000  0.00  0.00    -0.000 C 
ATOM      7  C   UNL     1       1.807   0.000   0.000  0.00  0.00    -0.000 C 
ENDROOT
TORSDOF 0
