REMARK  Name = 46181428
REMARK  7 active torsions:
REMARK  status: ('A' for Active; 'I' for Inactive)
REMARK    1  A    between atoms: C_1  and  C_5
REMARK    2  A    between atoms: C_1  and  N_16
REMARK    3  A    between atoms: C_1  and  C_25
REMARK    4  A    between atoms: C_10  and  C_13
REMARK    5  A    between atoms: C_13  and  O_14
REMARK    6  A    between atoms: C_20  and  C_24
REMARK    7  A    between atoms: C_25  and  C_26
REMARK                            x       y       z     vdW  Elec       q    Type
REMARK                         _______ _______ _______ _____ _____    ______ ____
ROOT
ATOM      1  C   UNL     1       1.109  -0.940  -0.051  0.00  0.00    +0.137 C 
ENDROOT
BRANCH   1   5
ATOM      2  O   UNL     1      -0.493  -0.580   1.723  0.00  0.00    -0.273 OA
ATOM      3  N   UNL     1      -1.250  -0.629  -0.498  0.00  0.00    -0.268 N 
ATOM      4  N   UNL     1      -3.405  -0.403  -1.479  0.00  0.00    -0.229 NA
ATOM      5  C   UNL     1      -0.297  -0.690   0.516  0.00  0.00    +0.242 C 
ATOM      6  C   UNL     1      -2.644  -0.430  -0.361  0.00  0.00    +0.134 C 
ATOM      7  C   UNL     1      -3.145  -0.275   0.921  0.00  0.00    +0.035 C 
ATOM      8  C   UNL     1      -4.514  -0.080   1.066  0.00  0.00    +0.011 C 
ATOM      9  C   UNL     1      -4.731  -0.211  -1.298  0.00  0.00    +0.107 C 
ATOM     10  C   UNL     1      -5.329  -0.046  -0.060  0.00  0.00    +0.095 C 
ATOM     11  H   UNL     1      -0.914  -0.738  -1.417  0.00  0.00    +0.156 HD
BRANCH  10  13
ATOM     12  O   UNL     1      -7.561   0.197  -0.886  0.00  0.00    -0.245 OA
ATOM     13  C   UNL     1      -6.763   0.153   0.058  0.00  0.00    +0.340 C 
BRANCH  13  14
ATOM     14  O   UNL     1      -7.167   0.292   1.351  0.00  0.00    -0.477 OA
ATOM     15  H   UNL     1      -6.539   0.255   2.045  0.00  0.00    +0.295 HD
ENDBRANCH  13  14
ENDBRANCH  10  13
ENDBRANCH   1   5
BRANCH   1  16
ATOM     16  N   UNL     1       1.788   0.381  -0.373  0.00  0.00    -0.240 NA
ATOM     17  N   UNL     1       2.741   1.996  -1.563  0.00  0.00    -0.251 NA
ATOM     18  C   UNL     1       2.118   1.360   0.521  0.00  0.00    +0.124 C 
ATOM     19  C   UNL     1       2.182   0.807  -1.611  0.00  0.00    +0.201 C 
ATOM     20  C   UNL     1       2.705   2.346  -0.237  0.00  0.00    +0.143 C 
BRANCH  20  24
ATOM     21  F   UNL     1       3.139   3.834   1.566  0.00  0.00    -0.165 F 
ATOM     22  F   UNL     1       4.589   3.809  -0.055  0.00  0.00    -0.165 F 
ATOM     23  F   UNL     1       2.650   4.735  -0.352  0.00  0.00    -0.165 F 
ATOM     24  C   UNL     1       3.252   3.635   0.212  0.00  0.00    +0.432 C 
ENDBRANCH  20  24
ENDBRANCH   1  16
BRANCH   1  25
ATOM     25  C   UNL     1       1.945  -1.815   0.907  0.00  0.00    +0.025 C 
BRANCH  25  26
ATOM     26  C   UNL     1       3.169  -2.426   0.246  0.00  0.00    +0.002 C 
ATOM     27  C   UNL     1       2.824  -3.481  -0.800  0.00  0.00    +0.000 C 
ATOM     28  C   UNL     1       4.050  -3.206   1.216  0.00  0.00    +0.000 C 
ATOM     29  C   UNL     1       4.911  -4.083   0.312  0.00  0.00    +0.000 C 
ATOM     30  C   UNL     1       4.127  -4.250  -0.991  0.00  0.00    +0.000 C 
ENDBRANCH  25  26
ENDBRANCH   1  25
TORSDOF 7
