REMARK  Name = 9882105
REMARK  9 active torsions:
REMARK  status: ('A' for Active; 'I' for Inactive)
REMARK    1  A    between atoms: C_1  and  O_2
REMARK    2  A    between atoms: C_1  and  C_4
REMARK    3  A    between atoms: C_1  and  C_13
REMARK    4  A    between atoms: C_4  and  O_5
REMARK    5  A    between atoms: C_4  and  C_7
REMARK    6  A    between atoms: C_7  and  O_8
REMARK    7  A    between atoms: O_8  and  S_9
REMARK    8  A    between atoms: C_13  and  O_14
REMARK    9  A    between atoms: O_14  and  S_15
REMARK                            x       y       z     vdW  Elec       q    Type
REMARK                         _______ _______ _______ _____ _____    ______ ____
ROOT
ATOM      1  C   UNL     1       0.315  -1.426   0.700  0.00  0.00    +0.172 C 
ENDROOT
BRANCH   1   2
ATOM      2  O   UNL     1       1.109  -2.600   0.879  0.00  0.00    -0.379 OA
ATOM      3  H   UNL     1       0.561  -3.387   0.735  0.00  0.00    +0.211 HD
ENDBRANCH   1   2
BRANCH   1   4
ATOM      4  C   UNL     1      -0.310  -1.413  -0.702  0.00  0.00    +0.172 C 
BRANCH   4   5
ATOM      5  O   UNL     1      -1.079  -2.604  -0.884  0.00  0.00    -0.379 OA
ATOM      6  H   UNL     1      -0.514  -3.379  -0.739  0.00  0.00    +0.211 HD
ENDBRANCH   4   5
BRANCH   4   7
ATOM      7  C   UNL     1      -1.220  -0.209  -0.935  0.00  0.00    +0.204 C 
BRANCH   7   8
ATOM      8  O   UNL     1      -2.254  -0.220   0.043  0.00  0.00    -0.239 OA
BRANCH   8   9
ATOM      9  S   UNL     1      -3.369   0.971   0.015  0.00  0.00    -0.005 S 
ATOM     10  O   UNL     1      -4.190   0.835  -1.171  0.00  0.00    -0.072 OA
ATOM     11  O   UNL     1      -2.742   2.227   0.375  0.00  0.00    -0.072 OA
ATOM     12  C   UNL     1      -4.310   0.403   1.408  0.00  0.00    +0.181 C 
ENDBRANCH   8   9
ENDBRANCH   7   8
ENDBRANCH   4   7
ENDBRANCH   1   4
BRANCH   1  13
ATOM     13  C   UNL     1       1.221  -0.219   0.936  0.00  0.00    +0.204 C 
BRANCH  13  14
ATOM     14  O   UNL     1       2.252  -0.218  -0.046  0.00  0.00    -0.239 OA
BRANCH  14  15
ATOM     15  S   UNL     1       3.361   0.978  -0.013  0.00  0.00    -0.005 S 
ATOM     16  O   UNL     1       4.187   0.838   1.169  0.00  0.00    -0.072 OA
ATOM     17  O   UNL     1       2.727   2.233  -0.362  0.00  0.00    -0.072 OA
ATOM     18  C   UNL     1       4.301   0.424  -1.413  0.00  0.00    +0.181 C 
ENDBRANCH  14  15
ENDBRANCH  13  14
ENDBRANCH   1  13
TORSDOF 9
