REMARK  Name = 59472121
REMARK  7 active torsions:
REMARK  status: ('A' for Active; 'I' for Inactive)
REMARK    1  A    between atoms: C_4  and  C_13
REMARK    2  A    between atoms: C_5  and  C_24
REMARK    3  A    between atoms: C_10  and  S_16
REMARK    4  A    between atoms: S_16  and  C_19
REMARK    5  A    between atoms: C_25  and  C_27
REMARK    6  A    between atoms: C_28  and  C_33
REMARK    7  A    between atoms: C_33  and  N_34
REMARK                            x       y       z     vdW  Elec       q    Type
REMARK                         _______ _______ _______ _____ _____    ______ ____
ROOT
ATOM      1  N   UNL     1       0.936   1.006  -0.134  0.00  0.00    -0.398 NA
ATOM      2  N   UNL     1       1.024   3.773   0.316  0.00  0.00    -0.247 NA
ATOM      3  N   UNL     1      -1.349   3.831   0.318  0.00  0.00    -0.341 N 
ATOM      4  C   UNL     1       2.101   1.675  -0.022  0.00  0.00    +0.134 C 
ATOM      5  C   UNL     1      -0.184   1.746  -0.017  0.00  0.00    +0.198 C 
ATOM      6  C   UNL     1       2.144   3.034   0.199  0.00  0.00    +0.185 C 
ATOM      7  C   UNL     1      -0.142   3.105   0.204  0.00  0.00    +0.154 C 
ATOM      8  H   UNL     1      -1.326   4.803   0.476  0.00  0.00    +0.144 HD
ATOM      9  H   UNL     1      -2.213   3.366   0.240  0.00  0.00    +0.144 HD
ENDROOT
BRANCH   4  13
ATOM     10  C   UNL     1       5.619  -0.657  -0.392  0.00  0.00    +0.106 C 
ATOM     11  C   UNL     1       5.624   0.681  -0.786  0.00  0.00    +0.018 C 
ATOM     12  C   UNL     1       4.455  -1.228   0.124  0.00  0.00    +0.018 C 
ATOM     13  C   UNL     1       3.303   0.878  -0.148  0.00  0.00    +0.027 C 
ATOM     14  C   UNL     1       4.466   1.449  -0.664  0.00  0.00    +0.004 C 
ATOM     15  C   UNL     1       3.297  -0.460   0.246  0.00  0.00    +0.004 C 
BRANCH  10  16
ATOM     16  S   UNL     1       7.085  -1.630  -0.547  0.00  0.00    +0.007 S 
ATOM     17  O   UNL     1       6.695  -3.024  -0.628  0.00  0.00    -0.169 OA
ATOM     18  O   UNL     1       7.890  -1.027  -1.591  0.00  0.00    -0.169 OA
BRANCH  16  19
ATOM     19  C   UNL     1       7.912  -1.397   1.004  0.00  0.00    +0.134 C 
ATOM     20  C   UNL     1       7.014  -1.837   2.151  0.00  0.00    +0.026 C 
ATOM     21  C   UNL     1       9.235  -2.148   1.014  0.00  0.00    +0.026 C 
ENDBRANCH  16  19
ENDBRANCH  10  16
ENDBRANCH   4  13
BRANCH   5  24
ATOM     22  O   UNL     1      -1.340  -0.103  -0.943  0.00  0.00    -0.351 OA
ATOM     23  N   UNL     1      -2.582  -0.725  -0.970  0.00  0.00    -0.077 NA
ATOM     24  C   UNL     1      -1.405   0.992  -0.143  0.00  0.00    +0.209 C 
ATOM     25  C   UNL     1      -3.360   0.021  -0.181  0.00  0.00    +0.123 C 
ATOM     26  C   UNL     1      -2.670   1.116   0.367  0.00  0.00    +0.065 C 
BRANCH  25  27
ATOM     27  C   UNL     1      -4.739  -0.328   0.033  0.00  0.00    +0.021 C 
ATOM     28  C   UNL     1      -7.414  -1.002   0.449  0.00  0.00    -0.044 C 
ATOM     29  C   UNL     1      -5.679   0.671   0.288  0.00  0.00    +0.001 C 
ATOM     30  C   UNL     1      -5.137  -1.664  -0.015  0.00  0.00    +0.001 C 
ATOM     31  C   UNL     1      -7.016   0.334   0.497  0.00  0.00    -0.006 C 
ATOM     32  C   UNL     1      -6.474  -2.001   0.193  0.00  0.00    -0.006 C 
BRANCH  28  33
ATOM     33  C   UNL     1      -8.844  -1.363   0.672  0.00  0.00    -0.054 C 
BRANCH  33  34
ATOM     34  N   UNL     1      -9.536  -1.692  -0.575  0.00  0.00    +0.385 N 
ATOM     35  C   UNL     1     -10.927  -2.027  -0.317  0.00  0.00    -0.105 C 
ATOM     36  H   UNL     1      -9.075  -2.490  -1.014  0.00  0.00    -0.084 HD
ATOM     37  H   UNL     1      -9.503  -0.881  -1.193  0.00  0.00    -0.084 HD
ENDBRANCH  33  34
ENDBRANCH  28  33
ENDBRANCH  25  27
ENDBRANCH   5  24
TORSDOF 7
