REMARK  Name = 8359
REMARK  0 active torsions:
REMARK  status: ('A' for Active; 'I' for Inactive)
REMARK                            x       y       z     vdW  Elec       q    Type
REMARK                         _______ _______ _______ _____ _____    ______ ____
ROOT
ATOM      1  O   UNL     1      -1.965  -0.698   0.000  0.00  0.00    -0.373 OA
ATOM      2  O   UNL     1      -0.725  -2.585   0.001  0.00  0.00    -0.244 OA
ATOM      3  O   UNL     1      -3.180   1.204   0.000  0.00  0.00    -0.223 OA
ATOM      4  N   UNL     1      -0.908   1.410   0.000  0.00  0.00    -0.290 N 
ATOM      5  C   UNL     1       0.352   0.825   0.000  0.00  0.00    +0.068 A 
ATOM      6  C   UNL     1       0.450  -0.555   0.000  0.00  0.00    +0.092 A 
ATOM      7  C   UNL     1       1.500   1.620   0.000  0.00  0.00    +0.017 C 
ATOM      8  C   UNL     1       1.708  -1.166  -0.001  0.00  0.00    +0.008 C 
ATOM      9  C   UNL     1      -0.778  -1.361   0.000  0.00  0.00    +0.350 A 
ATOM     10  C   UNL     1       2.756   1.014   0.000  0.00  0.00    +0.001 C 
ATOM     11  C   UNL     1       2.860  -0.378   0.000  0.00  0.00    +0.000 C 
ATOM     12  C   UNL     1      -2.070   0.670   0.000  0.00  0.00    +0.421 A 
ATOM     13  H   UNL     1      -0.973   2.393   0.000  0.00  0.00    +0.172 HD
ENDROOT
TORSDOF 0
