REMARK  Name = 1712019
REMARK  1 active torsions:
REMARK  status: ('A' for Active; 'I' for Inactive)
REMARK    1  A    between atoms: C_7  and  S_19
REMARK                            x       y       z     vdW  Elec       q    Type
REMARK                         _______ _______ _______ _____ _____    ______ ____
ROOT
ATOM      1  N   UNL     1       0.637  -0.822   0.002  0.00  0.00    -0.380 NA
ATOM      2  N   UNL     1       0.939   1.321  -0.002  0.00  0.00    -0.317 N 
ATOM      3  C   UNL     1      -0.622  -0.258   0.000  0.00  0.00    +0.044 C 
ATOM      4  C   UNL     1      -0.427   1.125  -0.002  0.00  0.00    +0.058 C 
ATOM      5  C   UNL     1       1.566   0.140   0.000  0.00  0.00    +0.164 C 
ATOM      6  C   UNL     1      -1.887  -0.835   0.001  0.00  0.00    +0.033 C 
ATOM      7  C   UNL     1      -2.963   0.064   0.000  0.00  0.00    +0.114 C 
ATOM      8  C   UNL     1      -1.484   2.029  -0.004  0.00  0.00    +0.017 C 
ATOM      9  C   UNL     1      -2.767   1.462  -0.003  0.00  0.00    +0.020 C 
ATOM     10  H   UNL     1       0.824  -1.789   0.003  0.00  0.00    +0.126 HD
ATOM     11  H   UNL     1       1.482  -1.185  -0.350  0.00  0.00    +0.126 HD
ATOM     12  H   UNL     1       1.385   2.198  -0.003  0.00  0.00    +0.148 HD
ENDROOT
BRANCH   7  13
ATOM     13  S   UNL     1      -4.596  -0.567   0.001  0.00  0.00    +0.042 S 
ATOM     14  O   UNL     1      -4.918  -0.689   1.429  0.00  0.00    -0.065 OA
ATOM     15  O   UNL     1      -5.409   0.434  -0.708  0.00  0.00    -0.065 OA
ATOM     16  O   UNL     1      -4.476  -1.845  -0.715  0.00  0.00    -0.065 OA
ENDBRANCH   7  13
TORSDOF 1
REMARK  Name = 1712019
REMARK  1 active torsions:
REMARK  status: ('A' for Active; 'I' for Inactive)
REMARK    1  A    between atoms: C_7  and  S_19
REMARK                            x       y       z     vdW  Elec       q    Type
REMARK                         _______ _______ _______ _____ _____    ______ ____
ROOT
ATOM      1  C   UNL     1       3.032  -0.067   0.000  0.00  0.00    +0.000 C 
ATOM      2  C   UNL     1       3.540  -1.358   0.001  0.00  0.00    +0.000 C 
ATOM      3  C   UNL     1       3.877   1.034  -0.002  0.00  0.00    +0.000 C 
ATOM      4  C   UNL     1       4.921  -1.553   0.002  0.00  0.00    +0.000 C 
ATOM      5  C   UNL     1       5.258   0.840  -0.002  0.00  0.00    +0.000 C 
ATOM      6  C   UNL     1       5.780  -0.454   0.000  0.00  0.00    +0.000 C 
ENDROOT
TORSDOF 0
