7019
  -OEChem-10051722163D

 25 27  0     0  0  0  0  0  0999 V2000
    0.0000    1.5499    0.0000 N   0  0  0  0  0  0  0  0  0  0  0  0
    0.0002   -2.6417    0.0000 N   0  0  0  0  0  0  0  0  0  0  0  0
   -1.2147   -0.5270   -0.0001 C   0  0  0  0  0  0  0  0  0  0  0  0
    1.2147   -0.5271   -0.0001 C   0  0  0  0  0  0  0  0  0  0  0  0
    0.0000   -1.2202   -0.0002 C   0  0  0  0  0  0  0  0  0  0  0  0
   -1.1672    0.8772   -0.0001 C   0  0  0  0  0  0  0  0  0  0  0  0
    1.1671    0.8772    0.0000 C   0  0  0  0  0  0  0  0  0  0  0  0
   -2.4500   -1.1980    0.0000 C   0  0  0  0  0  0  0  0  0  0  0  0
    2.4500   -1.1980    0.0001 C   0  0  0  0  0  0  0  0  0  0  0  0
   -2.3732    1.5731   -0.0001 C   0  0  0  0  0  0  0  0  0  0  0  0
    2.3731    1.5732    0.0000 C   0  0  0  0  0  0  0  0  0  0  0  0
   -3.6415   -0.4789    0.0001 C   0  0  0  0  0  0  0  0  0  0  0  0
    3.6415   -0.4788    0.0001 C   0  0  0  0  0  0  0  0  0  0  0  0
   -3.6026    0.9095    0.0001 C   0  0  0  0  0  0  0  0  0  0  0  0
    3.6025    0.9096    0.0000 C   0  0  0  0  0  0  0  0  0  0  0  0
   -2.5408   -2.2789    0.0001 H   0  0  0  0  0  0  0  0  0  0  0  0
    2.5408   -2.2789    0.0002 H   0  0  0  0  0  0  0  0  0  0  0  0
   -2.3692    2.6616   -0.0001 H   0  0  0  0  0  0  0  0  0  0  0  0
    2.3691    2.6618    0.0000 H   0  0  0  0  0  0  0  0  0  0  0  0
   -4.5946   -0.9988    0.0003 H   0  0  0  0  0  0  0  0  0  0  0  0
    4.5947   -0.9988    0.0002 H   0  0  0  0  0  0  0  0  0  0  0  0
   -4.5266    1.4803    0.0002 H   0  0  0  0  0  0  0  0  0  0  0  0
    4.5265    1.4805    0.0000 H   0  0  0  0  0  0  0  0  0  0  0  0
    0.8578   -3.1718   -0.0008 H   0  0  0  0  0  0  0  0  0  0  0  0
   -0.8574   -3.1718   -0.0008 H   0  0  0  0  0  0  0  0  0  0  0  0
  1  6  2  0  0  0  0
  1  7  1  0  0  0  0
  2  5  1  0  0  0  0
  2 24  1  0  0  0  0
  2 25  1  0  0  0  0
  3  5  2  0  0  0  0
  3  6  1  0  0  0  0
  3  8  1  0  0  0  0
  4  5  1  0  0  0  0
  4  7  1  0  0  0  0
  4  9  2  0  0  0  0
  6 10  1  0  0  0  0
  7 11  2  0  0  0  0
  8 12  2  0  0  0  0
  8 16  1  0  0  0  0
  9 13  1  0  0  0  0
  9 17  1  0  0  0  0
 10 14  2  0  0  0  0
 10 18  1  0  0  0  0
 11 15  1  0  0  0  0
 11 19  1  0  0  0  0
 12 14  1  0  0  0  0
 12 20  1  0  0  0  0
 13 15  2  0  0  0  0
 13 21  1  0  0  0  0
 14 22  1  0  0  0  0
 15 23  1  0  0  0  0
M  END
> <DATABASE_ID>
DB11561

> <DATABASE_NAME>
drugbank

> <ORIGINAL_SOURCE>
PUBCHEM

> <ORIGINAL_SOURCE_URL>
https://pubchem.ncbi.nlm.nih.gov/rest/pug/compound/inchikey/XJGFWWJLMVZSIG-UHFFFAOYSA-N/SDF?record_type=3d

> <SMILES>
NC1=C2C=CC=CC2=NC2=C1C=CC=C2

> <INCHI_IDENTIFIER>
InChI=1S/C13H10N2/c14-13-9-5-1-3-7-11(9)15-12-8-4-2-6-10(12)13/h1-8H,(H2,14,15)

> <INCHI_KEY>
XJGFWWJLMVZSIG-UHFFFAOYSA-N

> <FORMULA>
C13H10N2

> <MOLECULAR_WEIGHT>
194.237

> <EXACT_MASS>
194.08439833

> <JCHEM_ACCEPTOR_COUNT>
2

> <JCHEM_ATOM_COUNT>
25

> <JCHEM_AVERAGE_POLARIZABILITY>
21.310745214692144

> <JCHEM_BIOAVAILABILITY>
1

> <JCHEM_DONOR_COUNT>
1

> <JCHEM_FORMAL_CHARGE>
0

> <JCHEM_GHOSE_FILTER>
1

> <JCHEM_IUPAC>
acridin-9-amine

> <ALOGPS_LOGP>
2.75

> <JCHEM_LOGP>
2.6773015996666665

> <ALOGPS_LOGS>
-3.41

> <JCHEM_MDDR_LIKE_RULE>
0

> <JCHEM_NUMBER_OF_RINGS>
3

> <JCHEM_PHYSIOLOGICAL_CHARGE>
1

> <JCHEM_PKA_STRONGEST_BASIC>
9.294145710873659

> <JCHEM_POLAR_SURFACE_AREA>
38.91

> <JCHEM_REFRACTIVITY>
60.757900000000014

> <JCHEM_ROTATABLE_BOND_COUNT>
0

> <JCHEM_RULE_OF_FIVE>
1

> <ALOGPS_SOLUBILITY>
7.55e-02 g/l

> <JCHEM_TRADITIONAL_IUPAC>
9-aminoacridine

> <JCHEM_VEBER_RULE>
1

> <DRUGBANK_ID>
DB11561

> <DRUG_GROUPS>
experimental

> <GENERIC_NAME>
Aminacrine

> <SYNONYMS>
10-amino-5-azaanthracene; 5-aminoacridine; 9-acridinamine; 9AA; Aminacrin; Aminacrine; Aminoacridina; Aminoacridine; Aminoacridinum

$$$$
