REMARK  Name = 5334
REMARK  5 active torsions:
REMARK  status: ('A' for Active; 'I' for Inactive)
REMARK    1  A    between atoms: S_1  and  C_4
REMARK    2  A    between atoms: S_1  and  N_15
REMARK    3  A    between atoms: C_7  and  N_11
REMARK    4  A    between atoms: N_15  and  C_17
REMARK    5  A    between atoms: C_20  and  N_25
REMARK                            x       y       z     vdW  Elec       q    Type
REMARK                         _______ _______ _______ _____ _____    ______ ____
ROOT
ATOM      1  S   UNL     1      -0.287  -3.128  -0.371  0.00  0.00    +0.074 S 
ATOM      2  O   UNL     1       0.221  -4.374   0.190  0.00  0.00    -0.150 OA
ATOM      3  O   UNL     1      -0.697  -3.103  -1.770  0.00  0.00    -0.150 OA
ENDROOT
BRANCH   1   4
ATOM      4  C   UNL     1       0.927  -1.898  -0.123  0.00  0.00    +0.125 C 
ATOM      5  C   UNL     1       0.966  -0.778  -0.953  0.00  0.00    +0.021 C 
ATOM      6  C   UNL     1       1.858  -2.036   0.906  0.00  0.00    +0.021 C 
ATOM      7  C   UNL     1       2.867   0.067   0.275  0.00  0.00    +0.050 C 
ATOM      8  C   UNL     1       1.936   0.205  -0.754  0.00  0.00    +0.016 C 
ATOM      9  C   UNL     1       2.828  -1.053   1.105  0.00  0.00    +0.016 C 
BRANCH   7  11
ATOM     10  O   UNL     1       3.376   2.639  -1.206  0.00  0.00    -0.275 OA
ATOM     11  N   UNL     1       3.836   1.050   0.474  0.00  0.00    -0.284 N 
ATOM     12  C   UNL     1       4.030   2.234  -0.250  0.00  0.00    +0.227 C 
ATOM     13  C   UNL     1       5.193   3.033   0.284  0.00  0.00    +0.095 C 
ATOM     14  H   UNL     1       4.463   0.892   1.217  0.00  0.00    +0.155 HD
ENDBRANCH   7  11
ENDBRANCH   1   4
BRANCH   1  15
ATOM     15  N   UNL     1      -1.588  -2.586   0.620  0.00  0.00    -0.215 N 
ATOM     16  H   UNL     1      -2.005  -3.186   1.280  0.00  0.00    +0.174 HD
BRANCH  15  17
ATOM     17  C   UNL     1      -2.046  -1.233   0.456  0.00  0.00    +0.065 C 
ATOM     18  C   UNL     1      -2.535  -0.818  -0.777  0.00  0.00    +0.018 C 
ATOM     19  C   UNL     1      -1.995  -0.355   1.532  0.00  0.00    +0.018 C 
ATOM     20  C   UNL     1      -2.932   1.382   0.138  0.00  0.00    +0.143 C 
ATOM     21  C   UNL     1      -2.980   0.494  -0.936  0.00  0.00    +0.025 C 
ATOM     22  C   UNL     1      -2.439   0.958   1.372  0.00  0.00    +0.025 C 
BRANCH  20  25
ATOM     23  O   UNL     1      -3.823   3.080  -1.143  0.00  0.00    -0.126 OA
ATOM     24  O   UNL     1      -3.333   3.501   0.956  0.00  0.00    -0.126 OA
ATOM     25  N   UNL     1      -3.384   2.719  -0.024  0.00  0.00    +0.058 N 
ENDBRANCH  20  25
ENDBRANCH  15  17
ENDBRANCH   1  15
TORSDOF 5
