REMARK  Name = 197033
REMARK  3 active torsions:
REMARK  status: ('A' for Active; 'I' for Inactive)
REMARK    1  A    between atoms: N_1  and  C_17
REMARK    2  A    between atoms: C_17  and  C_18
REMARK    3  A    between atoms: C_18  and  C_20
REMARK                            x       y       z     vdW  Elec       q    Type
REMARK                         _______ _______ _______ _____ _____    ______ ____
ROOT
ATOM      1  N   UNL     1      -0.562   0.035  -0.359  0.00  0.00    -0.331 N 
ATOM      2  N   UNL     1      -3.426   2.975  -0.255  0.00  0.00    +0.388 N 
ATOM      3  C   UNL     1      -1.373   1.118  -0.196  0.00  0.00    +0.029 A 
ATOM      4  C   UNL     1      -2.661   0.682   0.024  0.00  0.00    -0.030 A 
ATOM      5  C   UNL     1      -0.959   2.540  -0.276  0.00  0.00    +0.021 C 
ATOM      6  C   UNL     1      -3.788   1.631   0.260  0.00  0.00    -0.049 C 
ATOM      7  C   UNL     1      -2.633  -0.741   0.004  0.00  0.00    +0.011 A 
ATOM      8  C   UNL     1      -2.109   3.429   0.249  0.00  0.00    -0.071 C 
ATOM      9  C   UNL     1      -1.307  -1.119  -0.239  0.00  0.00    +0.059 A 
ATOM     10  C   UNL     1      -3.605  -1.748   0.171  0.00  0.00    -0.003 C 
ATOM     11  C   UNL     1      -0.911  -2.459  -0.327  0.00  0.00    +0.017 C 
ATOM     12  C   UNL     1      -4.468   3.941   0.091  0.00  0.00    -0.100 C 
ATOM     13  C   UNL     1      -3.220  -3.091   0.086  0.00  0.00    -0.022 C 
ATOM     14  C   UNL     1      -1.893  -3.438  -0.159  0.00  0.00    -0.003 C 
ATOM     15  C   UNL     1      -4.245  -4.162   0.261  0.00  0.00    +0.031 C 
ATOM     16  H   UNL     1      -3.351   2.907  -1.270  0.00  0.00    -0.079 HD
ENDROOT
BRANCH   1  17
ATOM     17  C   UNL     1       0.863   0.085  -0.610  0.00  0.00    +0.110 C 
BRANCH  17  18
ATOM     18  C   UNL     1       1.710   0.091   0.667  0.00  0.00    +0.052 C 
BRANCH  18  20
ATOM     19  N   UNL     1       5.203  -1.179   0.047  0.00  0.00    -0.248 NA
ATOM     20  C   UNL     1       3.195   0.085   0.400  0.00  0.00    -0.001 C 
ATOM     21  C   UNL     1       3.882   1.274   0.270  0.00  0.00    -0.001 C 
ATOM     22  C   UNL     1       3.875  -1.104   0.285  0.00  0.00    +0.094 C 
ATOM     23  C   UNL     1       5.250   1.238   0.024  0.00  0.00    +0.014 C 
ATOM     24  C   UNL     1       5.858  -0.003  -0.077  0.00  0.00    +0.059 C 
ATOM     25  C   UNL     1       7.325  -0.080  -0.341  0.00  0.00    +0.052 C 
ENDBRANCH  18  20
ENDBRANCH  17  18
ENDBRANCH   1  17
TORSDOF 3
