REMARK  Name = 5977
REMARK  2 active torsions:
REMARK  status: ('A' for Active; 'I' for Inactive)
REMARK    1  A    between atoms: C_1  and  C_7
REMARK    2  A    between atoms: C_1  and  O_8
REMARK                            x       y       z     vdW  Elec       q    Type
REMARK                         _______ _______ _______ _____ _____    ______ ____
ROOT
ATOM      1  C   UNL     1       0.819   0.002   0.018  0.00  0.00    +0.127 C 
ATOM      2  C   UNL     1       1.450   1.285  -0.553  0.00  0.00    +0.033 C 
ATOM      3  C   UNL     1       1.450  -1.202  -0.701  0.00  0.00    +0.033 C 
ENDROOT
BRANCH   1   7
ATOM      4 CL   UNL     1      -1.425  -1.522   0.649  0.00  0.00    -0.080 Cl
ATOM      5 CL   UNL     1      -1.362   0.171  -1.710  0.00  0.00    -0.080 Cl
ATOM      6 CL   UNL     1      -1.430   1.357   0.940  0.00  0.00    -0.080 Cl
ATOM      7  C   UNL     1      -0.740   0.002  -0.031  0.00  0.00    +0.220 C 
ENDBRANCH   1   7
BRANCH   1   8
ATOM      8  O   UNL     1       1.239  -0.092   1.388  0.00  0.00    -0.383 OA
ATOM      9  H   UNL     1       0.867   0.648   1.892  0.00  0.00    +0.210 HD
ENDBRANCH   1   8
TORSDOF 2
