REMARK  Name = 25062766
REMARK  6 active torsions:
REMARK  status: ('A' for Active; 'I' for Inactive)
REMARK    1  A    between atoms: N_1  and  C_12
REMARK    2  A    between atoms: C_5  and  C_21
REMARK    3  A    between atoms: C_9  and  N_16
REMARK    4  A    between atoms: C_24  and  C_29
REMARK    5  A    between atoms: N_28  and  C_31
REMARK    6  A    between atoms: C_31  and  C_33
REMARK                            x       y       z     vdW  Elec       q    Type
REMARK                         _______ _______ _______ _____ _____    ______ ____
ROOT
ATOM      1  N   UNL     1       2.236   3.130   0.115  0.00  0.00    -0.247 N 
ATOM      2  N   UNL     1       0.032   2.337   0.053  0.00  0.00    -0.337 NA
ATOM      3  N   UNL     1       0.496   4.700   0.133  0.00  0.00    -0.170 NA
ATOM      4  C   UNL     1       0.854   3.403   0.100  0.00  0.00    +0.149 C 
ATOM      5  C   UNL     1      -1.284   2.634   0.040  0.00  0.00    +0.146 C 
ATOM      6  C   UNL     1      -1.780   3.922   0.071  0.00  0.00    +0.055 C 
ATOM      7  C   UNL     1      -0.834   4.925   0.118  0.00  0.00    +0.114 C 
ATOM      8  H   UNL     1       2.798   3.938   0.149  0.00  0.00    +0.165 HD
ENDROOT
BRANCH   1  12
ATOM      9  C   UNL     1       4.430  -0.450   0.042  0.00  0.00    +0.048 C 
ATOM     10  C   UNL     1       4.967   0.709  -0.519  0.00  0.00    +0.016 C 
ATOM     11  C   UNL     1       3.164  -0.420   0.627  0.00  0.00    +0.016 C 
ATOM     12  C   UNL     1       2.973   1.928   0.090  0.00  0.00    +0.058 C 
ATOM     13  C   UNL     1       4.239   1.897  -0.495  0.00  0.00    +0.017 C 
ATOM     14  C   UNL     1       2.436   0.769   0.651  0.00  0.00    +0.017 C 
BRANCH   9  16
ATOM     15  O   UNL     1       6.407  -4.156  -0.152  0.00  0.00    -0.350 OA
ATOM     16  N   UNL     1       5.161  -1.643   0.018  0.00  0.00    -0.303 N 
ATOM     17  C   UNL     1       5.544  -2.195  -1.288  0.00  0.00    +0.123 C 
ATOM     18  C   UNL     1       4.982  -2.632   1.086  0.00  0.00    +0.123 C 
ATOM     19  C   UNL     1       6.718  -3.153  -1.119  0.00  0.00    +0.164 C 
ATOM     20  C   UNL     1       6.186  -3.567   1.129  0.00  0.00    +0.164 C 
ENDBRANCH   9  16
ENDBRANCH   1  12
BRANCH   5  21
ATOM     21  C   UNL     1      -2.169   1.495  -0.008  0.00  0.00    +0.031 C 
ATOM     22  C   UNL     1      -3.058   1.346  -1.073  0.00  0.00    +0.003 C 
ATOM     23  C   UNL     1      -2.135   0.542   1.010  0.00  0.00    +0.003 C 
ATOM     24  C   UNL     1      -3.877  -0.709  -0.102  0.00  0.00    +0.053 C 
ATOM     25  C   UNL     1      -3.912   0.244  -1.120  0.00  0.00    +0.005 C 
ATOM     26  C   UNL     1      -2.989  -0.560   0.963  0.00  0.00    +0.005 C 
BRANCH  24  29
ATOM     27  O   UNL     1      -4.460  -2.918   0.423  0.00  0.00    -0.270 OA
ATOM     28  N   UNL     1      -5.973  -1.700  -0.843  0.00  0.00    -0.288 N 
ATOM     29  C   UNL     1      -4.767  -1.858  -0.150  0.00  0.00    +0.247 C 
ATOM     30  H   UNL     1      -6.151  -0.833  -1.274  0.00  0.00    +0.151 HD
BRANCH  28  31
ATOM     31  C   UNL     1      -6.970  -2.739  -0.960  0.00  0.00    +0.197 C 
BRANCH  31  33
ATOM     32  N   UNL     1      -8.690  -2.615   1.015  0.00  0.00    -0.194 NA
ATOM     33  C   UNL     1      -7.928  -2.668   0.142  0.00  0.00    +0.095 C 
ENDBRANCH  31  33
ENDBRANCH  28  31
ENDBRANCH  24  29
ENDBRANCH   5  21
TORSDOF 6
