REMARK  Name = 56052
REMARK  10 active torsions:
REMARK  status: ('A' for Active; 'I' for Inactive)
REMARK    1  A    between atoms: N_1  and  C_4
REMARK    2  A    between atoms: N_1  and  C_16
REMARK    3  A    between atoms: C_4  and  C_6
REMARK    4  A    between atoms: C_6  and  C_7
REMARK    5  A    between atoms: C_7  and  C_8
REMARK    6  A    between atoms: C_13  and  O_14
REMARK    7  A    between atoms: C_16  and  C_17
REMARK    8  A    between atoms: C_17  and  C_18
REMARK    9  A    between atoms: C_17  and  O_26
REMARK   10  A    between atoms: C_23  and  O_24
REMARK                            x       y       z     vdW  Elec       q    Type
REMARK                         _______ _______ _______ _____ _____    ______ ____
ROOT
ATOM      1  N   UNL     1       0.263  -1.649  -0.248  0.00  0.00    +0.387 N 
ATOM      2  H   UNL     1      -0.004  -2.561  -0.619  0.00  0.00    -0.084 HD
ATOM      3  H   UNL     1       0.708  -1.088  -0.974  0.00  0.00    -0.084 HD
ENDROOT
BRANCH   1   4
ATOM      4  C   UNL     1       1.211  -1.837   0.851  0.00  0.00    -0.062 C 
ATOM      5  C   UNL     1       0.559  -2.673   1.952  0.00  0.00    -0.023 C 
BRANCH   4   6
ATOM      6  C   UNL     1       2.501  -2.514   0.354  0.00  0.00    -0.017 C 
BRANCH   6   7
ATOM      7  C   UNL     1       3.205  -1.796  -0.807  0.00  0.00    +0.024 C 
BRANCH   7   8
ATOM      8  C   UNL     1       3.690  -0.410  -0.464  0.00  0.00    -0.022 C 
ATOM      9  C   UNL     1       2.851   0.675  -0.665  0.00  0.00    -0.001 C 
ATOM     10  C   UNL     1       4.968  -0.245   0.049  0.00  0.00    -0.001 C 
ATOM     11  C   UNL     1       3.300   1.957  -0.346  0.00  0.00    +0.036 C 
ATOM     12  C   UNL     1       5.417   1.037   0.368  0.00  0.00    +0.036 C 
ATOM     13  C   UNL     1       4.584   2.138   0.170  0.00  0.00    +0.134 C 
BRANCH  13  14
ATOM     14  O   UNL     1       5.022   3.388   0.480  0.00  0.00    -0.506 OA
ATOM     15  H   UNL     1       4.461   4.127   0.347  0.00  0.00    +0.292 HD
ENDBRANCH  13  14
ENDBRANCH   7   8
ENDBRANCH   6   7
ENDBRANCH   4   6
ENDBRANCH   1   4
BRANCH   1  16
ATOM     16  C   UNL     1      -0.929  -0.955   0.214  0.00  0.00    -0.047 C 
BRANCH  16  17
ATOM     17  C   UNL     1      -1.924  -0.756  -0.936  0.00  0.00    +0.112 C 
BRANCH  17  18
ATOM     18  C   UNL     1      -3.171  -0.035  -0.471  0.00  0.00    +0.002 C 
ATOM     19  C   UNL     1      -3.230   1.344  -0.570  0.00  0.00    +0.001 C 
ATOM     20  C   UNL     1      -4.225  -0.770   0.042  0.00  0.00    +0.001 C 
ATOM     21  C   UNL     1      -4.380   2.009  -0.142  0.00  0.00    +0.036 C 
ATOM     22  C   UNL     1      -5.374  -0.106   0.470  0.00  0.00    +0.036 C 
ATOM     23  C   UNL     1      -5.452   1.284   0.378  0.00  0.00    +0.134 C 
BRANCH  23  24
ATOM     24  O   UNL     1      -6.572   1.933   0.796  0.00  0.00    -0.506 OA
ATOM     25  H   UNL     1      -6.624   2.866   0.734  0.00  0.00    +0.292 HD
ENDBRANCH  23  24
ENDBRANCH  17  18
BRANCH  17  26
ATOM     26  O   UNL     1      -2.315  -2.018  -1.475  0.00  0.00    -0.382 OA
ATOM     27  H   UNL     1      -1.528  -2.497  -1.779  0.00  0.00    +0.211 HD
ENDBRANCH  17  26
ENDBRANCH  16  17
ENDBRANCH   1  16
TORSDOF 10
