REMARK  Name = 43231
REMARK  6 active torsions:
REMARK  status: ('A' for Active; 'I' for Inactive)
REMARK    1  A    between atoms: C_1  and  S_12
REMARK    2  A    between atoms: C_2  and  S_18
REMARK    3  A    between atoms: C_3  and  C_10
REMARK    4  A    between atoms: C_5  and  N_24
REMARK    5  A    between atoms: S_12  and  N_15
REMARK    6  A    between atoms: S_18  and  N_21
REMARK                            x       y       z     vdW  Elec       q    Type
REMARK                         _______ _______ _______ _____ _____    ______ ____
ROOT
ATOM      1  C   UNL     1      -0.320  -0.709  -0.070  0.00  0.00    +0.124 C 
ATOM      2  C   UNL     1       1.942   0.140  -0.075  0.00  0.00    +0.136 C 
ATOM      3  C   UNL     1      -0.803   0.577  -0.314  0.00  0.00    +0.032 C 
ATOM      4  C   UNL     1       1.052  -0.927   0.049  0.00  0.00    +0.041 C 
ATOM      5  C   UNL     1       1.459   1.426  -0.319  0.00  0.00    +0.060 C 
ATOM      6  C   UNL     1       0.086   1.644  -0.438  0.00  0.00    +0.018 C 
ENDROOT
BRANCH   3  10
ATOM      7 CL   UNL     1      -2.831   0.720  -2.075  0.00  0.00    -0.080 Cl
ATOM      8 CL   UNL     1      -4.731   1.494   0.406  0.00  0.00    -0.069 Cl
ATOM      9 CL   UNL     1      -2.433   1.304   2.216  0.00  0.00    -0.069 Cl
ATOM     10  C   UNL     1      -2.229   0.849  -0.445  0.00  0.00    +0.080 C 
ATOM     11  C   UNL     1      -3.035   1.175   0.591  0.00  0.00    +0.125 C 
ENDBRANCH   3  10
BRANCH   1  12
ATOM     12  S   UNL     1      -1.395  -2.084   0.092  0.00  0.00    +0.057 S 
ATOM     13  O   UNL     1      -0.714  -3.100   0.878  0.00  0.00    -0.153 OA
ATOM     14  O   UNL     1      -2.700  -1.595   0.506  0.00  0.00    -0.153 OA
BRANCH  12  15
ATOM     15  N   UNL     1      -1.490  -2.607  -1.530  0.00  0.00    -0.203 NA
ATOM     16  H   UNL     1      -2.099  -3.423  -1.590  0.00  0.00    +0.144 HD
ATOM     17  H   UNL     1      -0.558  -2.854  -1.863  0.00  0.00    +0.144 HD
ENDBRANCH  12  15
ENDBRANCH   1  12
BRANCH   2  18
ATOM     18  S   UNL     1       3.657  -0.174   0.083  0.00  0.00    +0.058 S 
ATOM     19  O   UNL     1       3.895  -1.571  -0.244  0.00  0.00    -0.153 OA
ATOM     20  O   UNL     1       4.381   0.872  -0.623  0.00  0.00    -0.153 OA
BRANCH  18  21
ATOM     21  N   UNL     1       3.869   0.045   1.763  0.00  0.00    -0.203 NA
ATOM     22  H   UNL     1       4.848  -0.110   2.006  0.00  0.00    +0.144 HD
ATOM     23  H   UNL     1       3.284  -0.619   2.270  0.00  0.00    +0.144 HD
ENDBRANCH  18  21
ENDBRANCH   2  18
BRANCH   5  24
ATOM     24  N   UNL     1       2.339   2.522  -0.448  0.00  0.00    -0.356 N 
ATOM     25  H   UNL     1       3.311   2.386  -0.366  0.00  0.00    +0.142 HD
ATOM     26  H   UNL     1       1.982   3.424  -0.619  0.00  0.00    +0.142 HD
ENDBRANCH   5  24
TORSDOF 6
