REMARK  Name = 15664
REMARK  1 active torsions:
REMARK  status: ('A' for Active; 'I' for Inactive)
REMARK    1  A    between atoms: C_2  and  C_9
REMARK                            x       y       z     vdW  Elec       q    Type
REMARK                         _______ _______ _______ _____ _____    ______ ____
ROOT
ATOM      1  N   UNL     1       1.331   1.141  -0.297  0.00  0.00    -0.243 NA
ATOM      2  C   UNL     1       0.722  -0.024   0.020  0.00  0.00    +0.099 C 
ATOM      3  C   UNL     1       3.450   0.011  -0.013  0.00  0.00    -0.003 C 
ATOM      4  C   UNL     1       1.396  -1.194   0.328  0.00  0.00    +0.020 C 
ATOM      5  C   UNL     1       2.787  -1.168   0.309  0.00  0.00    -0.001 C 
ATOM      6  C   UNL     1       2.683   1.128  -0.305  0.00  0.00    +0.095 C 
ATOM      7  C   UNL     1       4.936   0.072  -0.041  0.00  0.00    +0.033 C 
ENDROOT
BRANCH   2   9
ATOM      8  N   UNL     1      -1.331  -1.141  -0.297  0.00  0.00    -0.243 NA
ATOM      9  C   UNL     1      -0.722   0.024   0.020  0.00  0.00    +0.099 C 
ATOM     10  C   UNL     1      -3.450  -0.011  -0.013  0.00  0.00    -0.003 C 
ATOM     11  C   UNL     1      -1.397   1.194   0.328  0.00  0.00    +0.020 C 
ATOM     12  C   UNL     1      -2.787   1.168   0.309  0.00  0.00    -0.001 C 
ATOM     13  C   UNL     1      -2.683  -1.128  -0.305  0.00  0.00    +0.095 C 
ATOM     14  C   UNL     1      -4.936  -0.072  -0.041  0.00  0.00    +0.033 C 
ENDBRANCH   2   9
TORSDOF 1
