REMARK  Name = 107751
REMARK  11 active torsions:
REMARK  status: ('A' for Active; 'I' for Inactive)
REMARK    1  A    between atoms: N_2  and  C_18
REMARK    2  A    between atoms: C_3  and  C_5
REMARK    3  A    between atoms: C_5  and  C_6
REMARK    4  A    between atoms: C_5  and  C_13
REMARK    5  A    between atoms: C_6  and  C_7
REMARK    6  A    between atoms: C_13  and  S_14
REMARK    7  A    between atoms: S_14  and  C_16
REMARK    8  A    between atoms: C_18  and  C_20
REMARK    9  A    between atoms: C_20  and  O_21
REMARK   10  A    between atoms: O_21  and  C_22
REMARK   11  A    between atoms: C_22  and  C_23
REMARK                            x       y       z     vdW  Elec       q    Type
REMARK                         _______ _______ _______ _____ _____    ______ ____
ROOT
ATOM      1  O   UNL     1      -2.013  -0.496   1.971  0.00  0.00    -0.275 OA
ATOM      2  N   UNL     1      -0.964  -1.710   0.296  0.00  0.00    -0.295 N 
ATOM      3  C   UNL     1      -1.663  -0.622   0.799  0.00  0.00    +0.224 C 
ATOM      4  H   UNL     1      -0.729  -1.718  -0.660  0.00  0.00    +0.150 HD
ENDROOT
BRANCH   3   5
ATOM      5  C   UNL     1      -1.967   0.431  -0.275  0.00  0.00    +0.092 C 
BRANCH   5   6
ATOM      6  C   UNL     1      -1.940   1.849   0.337  0.00  0.00    +0.036 C 
BRANCH   6   7
ATOM      7  C   UNL     1      -0.552   2.369   0.621  0.00  0.00    -0.022 C 
ATOM      8  C   UNL     1       0.120   3.081  -0.360  0.00  0.00    -0.004 C 
ATOM      9  C   UNL     1       0.025   2.126   1.857  0.00  0.00    -0.004 C 
ATOM     10  C   UNL     1       1.403   3.563  -0.097  0.00  0.00    -0.000 C 
ATOM     11  C   UNL     1       1.308   2.608   2.120  0.00  0.00    -0.000 C 
ATOM     12  C   UNL     1       1.997   3.326   1.142  0.00  0.00    -0.000 C 
ENDBRANCH   6   7
ENDBRANCH   5   6
BRANCH   5  13
ATOM     13  C   UNL     1      -3.263   0.086  -1.037  0.00  0.00    +0.074 C 
BRANCH  13  14
ATOM     14  S   UNL     1      -4.761   0.015  -0.004  0.00  0.00    -0.077 S 
BRANCH  14  16
ATOM     15  O   UNL     1      -5.710  -0.425  -2.434  0.00  0.00    -0.285 OA
ATOM     16  C   UNL     1      -5.970  -0.309  -1.242  0.00  0.00    +0.199 C 
ATOM     17  C   UNL     1      -7.364  -0.428  -0.693  0.00  0.00    +0.085 C 
ENDBRANCH  14  16
ENDBRANCH  13  14
ENDBRANCH   5  13
ENDBRANCH   3   5
BRANCH   2  18
ATOM     18  C   UNL     1      -0.567  -2.832   1.115  0.00  0.00    +0.201 C 
BRANCH  18  20
ATOM     19  O   UNL     1       1.444  -3.946   1.802  0.00  0.00    -0.248 OA
ATOM     20  C   UNL     1       0.928  -3.043   1.150  0.00  0.00    +0.338 C 
BRANCH  20  21
ATOM     21  O   UNL     1       1.599  -2.133   0.393  0.00  0.00    -0.442 OA
BRANCH  21  22
ATOM     22  C   UNL     1       3.025  -2.268   0.376  0.00  0.00    +0.235 C 
BRANCH  22  23
ATOM     23  C   UNL     1       3.608  -1.197  -0.498  0.00  0.00    +0.021 C 
ATOM     24  C   UNL     1       3.795  -1.441  -1.854  0.00  0.00    -0.001 C 
ATOM     25  C   UNL     1       3.956   0.030   0.056  0.00  0.00    -0.001 C 
ATOM     26  C   UNL     1       4.338  -0.446  -2.666  0.00  0.00    -0.000 C 
ATOM     27  C   UNL     1       4.499   1.025  -0.756  0.00  0.00    -0.000 C 
ATOM     28  C   UNL     1       4.690   0.788  -2.118  0.00  0.00    -0.000 C 
ENDBRANCH  22  23
ENDBRANCH  21  22
ENDBRANCH  20  21
ENDBRANCH  18  20
ENDBRANCH   2  18
TORSDOF 11
