REMARK  Name = 10237
REMARK  1 active torsions:
REMARK  status: ('A' for Active; 'I' for Inactive)
REMARK    1  A    between atoms: C_4  and  C_20
REMARK                            x       y       z     vdW  Elec       q    Type
REMARK                         _______ _______ _______ _____ _____    ______ ____
ROOT
ATOM      1  O   UNL     1      -4.239   2.454  -0.531  0.00  0.00    -0.435 OA
ATOM      2  O   UNL     1      -5.817   0.862   0.352  0.00  0.00    -0.435 OA
ATOM      3  N   UNL     1      -0.238  -2.260  -0.501  0.00  0.00    +0.392 N 
ATOM      4  C   UNL     1      -0.488  -0.802  -0.468  0.00  0.00    +0.010 C 
ATOM      5  C   UNL     1      -1.942  -0.411  -0.244  0.00  0.00    -0.039 C 
ATOM      6  C   UNL     1      -0.945  -2.962   0.577  0.00  0.00    -0.072 C 
ATOM      7  C   UNL     1      -2.872  -1.344   0.281  0.00  0.00    -0.027 C 
ATOM      8  C   UNL     1      -2.462  -2.770   0.544  0.00  0.00    +0.003 C 
ATOM      9  C   UNL     1      -2.358   0.899  -0.538  0.00  0.00    +0.034 C 
ATOM     10  C   UNL     1      -0.524  -2.837  -1.815  0.00  0.00    -0.100 C 
ATOM     11  C   UNL     1      -4.207  -0.966   0.498  0.00  0.00    +0.035 C 
ATOM     12  C   UNL     1      -3.675   1.236  -0.304  0.00  0.00    +0.176 C 
ATOM     13  C   UNL     1      -4.574   0.329   0.200  0.00  0.00    +0.176 C 
ATOM     14  C   UNL     1      -5.598   2.209  -0.113  0.00  0.00    +0.429 C 
ATOM     15  H   UNL     1       0.760  -2.393  -0.335  0.00  0.00    -0.079 HD
ENDROOT
BRANCH   4  20
ATOM     16  O   UNL     1       0.340   1.290   0.466  0.00  0.00    -0.446 OA
ATOM     17  O   UNL     1       4.675   1.856  -0.199  0.00  0.00    -0.434 OA
ATOM     18  O   UNL     1       5.899  -0.221  -0.169  0.00  0.00    -0.435 OA
ATOM     19  O   UNL     1       1.800   3.045   0.085  0.00  0.00    -0.245 OA
ATOM     20  C   UNL     1       0.410  -0.157   0.600  0.00  0.00    +0.177 C 
ATOM     21  C   UNL     1       1.854  -0.424   0.416  0.00  0.00    +0.025 C 
ATOM     22  C   UNL     1       2.519   0.771   0.210  0.00  0.00    +0.112 C 
ATOM     23  C   UNL     1       1.562   1.863   0.236  0.00  0.00    +0.344 C 
ATOM     24  C   UNL     1       2.548  -1.632   0.439  0.00  0.00    +0.003 C 
ATOM     25  C   UNL     1       3.873   0.786   0.018  0.00  0.00    +0.182 C 
ATOM     26  C   UNL     1       4.565  -0.403   0.036  0.00  0.00    +0.177 C 
ATOM     27  C   UNL     1       3.935  -1.623   0.244  0.00  0.00    +0.040 C 
ATOM     28  C   UNL     1       5.961   1.213  -0.319  0.00  0.00    +0.429 C 
ENDBRANCH   4  20
TORSDOF 1
