REMARK  Name = 71969
REMARK  1 active torsions:
REMARK  status: ('A' for Active; 'I' for Inactive)
REMARK    1  A    between atoms: N_2  and  C_11
REMARK                            x       y       z     vdW  Elec       q    Type
REMARK                         _______ _______ _______ _____ _____    ______ ____
ROOT
ATOM      1  N   UNL     1       2.704  -0.845  -0.756  0.00  0.00    -0.284 N 
ATOM      2  N   UNL     1       0.419  -0.911  -0.328  0.00  0.00    -0.284 N 
ATOM      3  N   UNL     1       1.925   0.448   0.939  0.00  0.00    -0.214 NA
ATOM      4  C   UNL     1       3.918  -0.237  -0.305  0.00  0.00    +0.085 C 
ATOM      5  C   UNL     1       3.403   0.643   0.841  0.00  0.00    +0.117 C 
ATOM      6  C   UNL     1       1.647  -0.412  -0.012  0.00  0.00    +0.190 C 
ATOM      7  H   UNL     1       2.640  -1.486  -1.500  0.00  0.00    +0.155 HD
ATOM      8  H   UNL     1       0.399  -1.819  -0.707  0.00  0.00    +0.155 HD
ENDROOT
BRANCH   2  11
ATOM      9 BR   UNL     1      -1.981  -2.888   0.215  0.00  0.00    -0.048 Br
ATOM     10  F   UNL     1       0.232   1.833  -0.495  0.00  0.00    -0.203 F 
ATOM     11  C   UNL     1      -0.817  -0.275  -0.171  0.00  0.00    +0.084 C 
ATOM     12  C   UNL     1      -1.994  -0.995   0.076  0.00  0.00    +0.050 C 
ATOM     13  C   UNL     1      -0.881   1.123  -0.262  0.00  0.00    +0.154 C 
ATOM     14  C   UNL     1      -3.212  -0.331   0.229  0.00  0.00    +0.008 C 
ATOM     15  C   UNL     1      -2.098   1.787  -0.109  0.00  0.00    +0.031 C 
ATOM     16  C   UNL     1      -3.264   1.060   0.136  0.00  0.00    +0.003 C 
ENDBRANCH   2  11
TORSDOF 1
