REMARK  Name = 107805
REMARK  4 active torsions:
REMARK  status: ('A' for Active; 'I' for Inactive)
REMARK    1  A    between atoms: C_4  and  C_17
REMARK    2  A    between atoms: N_16  and  C_19
REMARK    3  A    between atoms: C_19  and  C_20
REMARK    4  A    between atoms: C_20  and  N_21
REMARK                            x       y       z     vdW  Elec       q    Type
REMARK                         _______ _______ _______ _____ _____    ______ ____
ROOT
ATOM      1  N   UNL     1      -1.409   0.644  -0.060  0.00  0.00    -0.405 NA
ATOM      2  C   UNL     1      -1.045  -0.652  -0.032  0.00  0.00    +0.121 C 
ATOM      3  C   UNL     1      -1.992  -1.688   0.032  0.00  0.00    +0.026 C 
ATOM      4  C   UNL     1       0.303  -0.999  -0.067  0.00  0.00    +0.150 C 
ATOM      5  C   UNL     1      -3.728   0.011   0.038  0.00  0.00    +0.030 C 
ATOM      6  C   UNL     1      -3.345  -1.333   0.066  0.00  0.00    +0.005 C 
ATOM      7  C   UNL     1      -2.713   0.981  -0.026  0.00  0.00    +0.131 C 
ATOM      8  C   UNL     1      -1.578  -3.031   0.059  0.00  0.00    +0.002 C 
ATOM      9  C   UNL     1       0.718  -2.333  -0.040  0.00  0.00    -0.010 C 
ATOM     10  C   UNL     1      -0.224  -3.351   0.023  0.00  0.00    -0.004 C 
ATOM     11  C   UNL     1      -5.080   0.396   0.071  0.00  0.00    +0.003 C 
ATOM     12  C   UNL     1      -3.089   2.321  -0.055  0.00  0.00    +0.032 C 
ATOM     13  C   UNL     1      -5.429   1.743   0.042  0.00  0.00    +0.000 C 
ATOM     14  C   UNL     1      -4.431   2.707  -0.021  0.00  0.00    +0.003 C 
ENDROOT
BRANCH   4  17
ATOM     15  O   UNL     1       1.093   1.122  -0.680  0.00  0.00    -0.274 OA
ATOM     16  N   UNL     1       2.564  -0.265   0.454  0.00  0.00    -0.306 N 
ATOM     17  C   UNL     1       1.332   0.032  -0.136  0.00  0.00    +0.233 C 
ATOM     18  H   UNL     1       2.682  -1.151   0.868  0.00  0.00    +0.149 HD
BRANCH  16  19
ATOM     19  C   UNL     1       3.674   0.660   0.489  0.00  0.00    +0.067 C 
BRANCH  19  20
ATOM     20  C   UNL     1       4.891   0.087  -0.221  0.00  0.00    -0.056 C 
BRANCH  20  21
ATOM     21  N   UNL     1       5.988   1.046  -0.199  0.00  0.00    +0.385 N 
ATOM     22  C   UNL     1       7.151   0.516  -0.914  0.00  0.00    -0.101 C 
ATOM     23  C   UNL     1       6.351   1.385   1.178  0.00  0.00    -0.101 C 
ATOM     24  H   UNL     1       5.677   1.895  -0.671  0.00  0.00    -0.080 HD
ENDBRANCH  20  21
ENDBRANCH  19  20
ENDBRANCH  16  19
ENDBRANCH   4  17
TORSDOF 4
