REMARK  Name = 182137
REMARK  2 active torsions:
REMARK  status: ('A' for Active; 'I' for Inactive)
REMARK    1  A    between atoms: C_2  and  C_9
REMARK    2  A    between atoms: C_2  and  N_15
REMARK                            x       y       z     vdW  Elec       q    Type
REMARK                         _______ _______ _______ _____ _____    ______ ____
ROOT
ATOM      1  O   UNL     1       1.776  -1.877   1.019  0.00  0.00    -0.298 OA
ATOM      2  C   UNL     1       0.737  -0.291  -0.522  0.00  0.00    +0.028 C 
ATOM      3  C   UNL     1       1.595   0.778  -1.249  0.00  0.00    -0.009 C 
ATOM      4  C   UNL     1       1.976   1.958  -0.349  0.00  0.00    -0.001 C 
ATOM      5  C   UNL     1       2.751   1.476   0.874  0.00  0.00    +0.008 C 
ATOM      6  C   UNL     1       1.542  -0.704   0.725  0.00  0.00    +0.136 C 
ATOM      7  C   UNL     1       1.980   0.419   1.648  0.00  0.00    +0.063 C 
ENDROOT
BRANCH   2   9
ATOM      8 CL   UNL     1      -1.093  -2.369   0.875  0.00  0.00    -0.083 Cl
ATOM      9  C   UNL     1      -0.692   0.124  -0.151  0.00  0.00    -0.023 C 
ATOM     10  C   UNL     1      -1.570  -0.758   0.478  0.00  0.00    +0.052 C 
ATOM     11  C   UNL     1      -1.107   1.420  -0.458  0.00  0.00    -0.005 C 
ATOM     12  C   UNL     1      -2.863  -0.344   0.800  0.00  0.00    +0.011 C 
ATOM     13  C   UNL     1      -2.399   1.833  -0.137  0.00  0.00    -0.000 C 
ATOM     14  C   UNL     1      -3.277   0.951   0.493  0.00  0.00    +0.001 C 
ENDBRANCH   2   9
BRANCH   2  15
ATOM     15  N   UNL     1       0.692  -1.462  -1.416  0.00  0.00    +0.391 N 
ATOM     16  C   UNL     1      -0.047  -1.153  -2.631  0.00  0.00    -0.104 C 
ATOM     17  H   UNL     1       0.234  -2.235  -0.933  0.00  0.00    -0.083 HD
ATOM     18  H   UNL     1       1.646  -1.718  -1.670  0.00  0.00    -0.083 HD
ENDBRANCH   2  15
TORSDOF 2
