REMARK  Name = 3037556
REMARK  10 active torsions:
REMARK  status: ('A' for Active; 'I' for Inactive)
REMARK    1  A    between atoms: C_1  and  O_2
REMARK    2  A    between atoms: C_1  and  C_4
REMARK    3  A    between atoms: C_1  and  C_12
REMARK    4  A    between atoms: C_4  and  O_5
REMARK    5  A    between atoms: C_4  and  C_7
REMARK    6  A    between atoms: C_7  and  O_8
REMARK    7  A    between atoms: C_7  and  C_11
REMARK    8  A    between atoms: C_12  and  O_13
REMARK    9  A    between atoms: C_12  and  C_15
REMARK   10  A    between atoms: C_15  and  O_16
REMARK                            x       y       z     vdW  Elec       q    Type
REMARK                         _______ _______ _______ _____ _____    ______ ____
ROOT
ATOM      1  C   UNL     1       0.617   0.475  -0.154  0.00  0.00    +0.169 C 
ENDROOT
BRANCH   1   2
ATOM      2  O   UNL     1       0.799   1.548   0.776  0.00  0.00    -0.379 OA
ATOM      3  H   UNL     1      -0.009   2.085   0.812  0.00  0.00    +0.211 HD
ENDBRANCH   1   2
BRANCH   1   4
ATOM      4  C   UNL     1      -0.654  -0.313   0.207  0.00  0.00    +0.174 C 
BRANCH   4   5
ATOM      5  O   UNL     1      -0.806  -1.347  -0.772  0.00  0.00    -0.379 OA
ATOM      6  H   UNL     1       0.021  -1.850  -0.842  0.00  0.00    +0.211 HD
ENDBRANCH   4   5
BRANCH   4   7
ATOM      7  C   UNL     1      -1.959   0.486   0.322  0.00  0.00    +0.205 C 
BRANCH   7   8
ATOM      8  O   UNL     1      -2.176   1.152  -0.918  0.00  0.00    -0.375 OA
ATOM      9  H   UNL     1      -1.409   1.708  -1.125  0.00  0.00    +0.211 HD
ENDBRANCH   7   8
BRANCH   7  11
ATOM     10  O   UNL     1      -4.125  -0.497  -0.166  0.00  0.00    -0.286 OA
ATOM     11  C   UNL     1      -3.178  -0.368   0.604  0.00  0.00    +0.239 C 
ENDBRANCH   7  11
ENDBRANCH   4   7
ENDBRANCH   1   4
BRANCH   1  12
ATOM     12  C   UNL     1       1.920  -0.338  -0.172  0.00  0.00    +0.169 C 
BRANCH  12  13
ATOM     13  O   UNL     1       2.087  -0.930   1.125  0.00  0.00    -0.379 OA
ATOM     14  H   UNL     1       1.309  -1.470   1.336  0.00  0.00    +0.211 HD
ENDBRANCH  12  13
BRANCH  12  15
ATOM     15  C   UNL     1       3.168   0.493  -0.447  0.00  0.00    +0.169 C 
BRANCH  15  16
ATOM     16  O   UNL     1       4.308  -0.360  -0.405  0.00  0.00    -0.379 OA
ATOM     17  H   UNL     1       5.108   0.160  -0.579  0.00  0.00    +0.211 HD
ENDBRANCH  15  16
ENDBRANCH  12  15
ENDBRANCH   1  12
TORSDOF 10
