REMARK  Name = 56843908
REMARK  14 active torsions:
REMARK  status: ('A' for Active; 'I' for Inactive)
REMARK    1  A    between atoms: N_2  and  C_5
REMARK    2  A    between atoms: C_3  and  C_14
REMARK    3  A    between atoms: C_5  and  C_7
REMARK    4  A    between atoms: C_5  and  C_10
REMARK    5  A    between atoms: C_7  and  O_8
REMARK    6  A    between atoms: C_10  and  C_11
REMARK    7  A    between atoms: C_14  and  C_15
REMARK    8  A    between atoms: C_15  and  C_16
REMARK    9  A    between atoms: C_16  and  C_17
REMARK   10  A    between atoms: C_17  and  C_18
REMARK   11  A    between atoms: C_18  and  C_19
REMARK   12  A    between atoms: C_19  and  C_20
REMARK   13  A    between atoms: C_20  and  C_21
REMARK   14  A    between atoms: C_21  and  C_22
REMARK                            x       y       z     vdW  Elec       q    Type
REMARK                         _______ _______ _______ _____ _____    ______ ____
ROOT
ATOM      1  O   UNL     1      -1.765  -0.753   1.502  0.00  0.00    -0.275 OA
ATOM      2  N   UNL     1      -2.900   0.131  -0.323  0.00  0.00    -0.297 N 
ATOM      3  C   UNL     1      -1.766  -0.217   0.397  0.00  0.00    +0.223 C 
ATOM      4  H   UNL     1      -2.783   0.558  -1.202  0.00  0.00    +0.150 HD
ENDROOT
BRANCH   2   5
ATOM      5  C   UNL     1      -4.244  -0.101   0.156  0.00  0.00    +0.171 C 
BRANCH   5   7
ATOM      6  O   UNL     1      -3.909  -2.247  -0.945  0.00  0.00    -0.248 OA
ATOM      7  C   UNL     1      -4.604  -1.517  -0.250  0.00  0.00    +0.335 C 
BRANCH   7   8
ATOM      8  O   UNL     1      -5.842  -1.824   0.240  0.00  0.00    -0.443 OA
ATOM      9  C   UNL     1      -6.339  -3.120  -0.109  0.00  0.00    +0.256 C 
ENDBRANCH   7   8
ENDBRANCH   5   7
BRANCH   5  10
ATOM     10  C   UNL     1      -5.256   0.886  -0.431  0.00  0.00    +0.031 C 
BRANCH  10  11
ATOM     11  C   UNL     1      -5.255   2.280   0.227  0.00  0.00    +0.002 C 
ATOM     12  C   UNL     1      -6.322   3.204  -0.361  0.00  0.00    +0.000 C 
ATOM     13  C   UNL     1      -3.874   2.924   0.072  0.00  0.00    +0.000 C 
ENDBRANCH  10  11
ENDBRANCH   5  10
ENDBRANCH   2   5
BRANCH   3  14
ATOM     14  C   UNL     1      -0.494   0.180  -0.334  0.00  0.00    +0.085 C 
BRANCH  14  15
ATOM     15  C   UNL     1       0.787  -0.182   0.417  0.00  0.00    +0.010 C 
BRANCH  15  16
ATOM     16  C   UNL     1       2.085   0.255  -0.272  0.00  0.00    +0.001 C 
BRANCH  16  17
ATOM     17  C   UNL     1       3.349  -0.195   0.464  0.00  0.00    +0.000 C 
BRANCH  17  18
ATOM     18  C   UNL     1       4.611   0.296  -0.251  0.00  0.00    +0.000 C 
BRANCH  18  19
ATOM     19  C   UNL     1       5.876  -0.124   0.501  0.00  0.00    +0.000 C 
BRANCH  19  20
ATOM     20  C   UNL     1       7.137   0.341  -0.233  0.00  0.00    +0.005 C 
BRANCH  20  21
ATOM     21  C   UNL     1       8.431  -0.084   0.469  0.00  0.00    +0.026 C 
BRANCH  21  22
ATOM     22  C   UNL     1       9.666   0.351  -0.264  0.00  0.00    -0.026 C 
ATOM     23  C   UNL     1      10.627  -0.484  -0.672  0.00  0.00    -0.005 C 
ENDBRANCH  21  22
ENDBRANCH  20  21
ENDBRANCH  19  20
ENDBRANCH  18  19
ENDBRANCH  17  18
ENDBRANCH  16  17
ENDBRANCH  15  16
ENDBRANCH  14  15
ENDBRANCH   3  14
TORSDOF 14
