10172827
  -OEChem-10051722323D

 55 56  0     1  0  0  0  0  0999 V2000
   -0.3589   -1.9721    0.6522 O   0  0  0  0  0  0  0  0  0  0  0  0
   -3.6800    3.6729    0.6826 O   0  0  0  0  0  0  0  0  0  0  0  0
   -3.7390    2.6805   -1.9077 O   0  0  0  0  0  0  0  0  0  0  0  0
   -3.9659    0.7717    0.6268 O   0  0  0  0  0  0  0  0  0  0  0  0
    2.7788   -2.6024   -1.3549 O   0  0  0  0  0  0  0  0  0  0  0  0
    0.0241   -2.1714   -1.6182 O   0  0  0  0  0  0  0  0  0  0  0  0
    5.0388    1.2560    0.3575 N   0  0  0  0  0  0  0  0  0  0  0  0
   -2.8042   -2.0926    0.5305 C   0  0  1  0  0  0  0  0  0  0  0  0
   -1.4810   -2.8947    0.6537 C   0  0  2  0  0  0  0  0  0  0  0  0
   -2.4760    3.2127    0.0634 C   0  0  2  0  0  0  0  0  0  0  0  0
   -2.7943    2.1425   -0.9906 C   0  0  1  0  0  0  0  0  0  0  0  0
   -2.9852   -1.5951   -0.8885 C   0  0  0  0  0  0  0  0  0  0  0  0
   -4.0408   -2.9178    0.8968 C   0  0  0  0  0  0  0  0  0  0  0  0
   -1.4991    2.7716    1.1630 C   0  0  0  0  0  0  0  0  0  0  0  0
   -1.3587   -3.6617    1.9692 C   0  0  0  0  0  0  0  0  0  0  0  0
   -3.3733    0.8431   -0.4453 C   0  0  0  0  0  0  0  0  0  0  0  0
   -3.2115   -0.3485   -1.3235 C   0  0  0  0  0  0  0  0  0  0  0  0
    1.4775   -0.8989   -0.2341 C   0  0  0  0  0  0  0  0  0  0  0  0
    1.4262    0.3455    0.4246 C   0  0  0  0  0  0  0  0  0  0  0  0
   -0.2212    2.1843    0.6406 C   0  0  0  0  0  0  0  0  0  0  0  0
    0.2922   -1.7364   -0.5107 C   0  0  0  0  0  0  0  0  0  0  0  0
    0.1768    0.9351    0.9280 C   0  0  0  0  0  0  0  0  0  0  0  0
    2.6319    1.0434    0.6194 C   0  0  0  0  0  0  0  0  0  0  0  0
    2.6972   -1.4007   -0.7129 C   0  0  0  0  0  0  0  0  0  0  0  0
    3.8448    0.5331    0.1521 C   0  0  0  0  0  0  0  0  0  0  0  0
    3.8766   -0.6858   -0.5170 C   0  0  0  0  0  0  0  0  0  0  0  0
    6.3142    0.7930   -0.0939 C   0  0  0  0  0  0  0  0  0  0  0  0
    7.4097    1.7924    0.2370 C   0  0  0  0  0  0  0  0  0  0  0  0
   -2.7402   -1.2436    1.2195 H   0  0  0  0  0  0  0  0  0  0  0  0
   -1.3760   -3.6148   -0.1683 H   0  0  0  0  0  0  0  0  0  0  0  0
   -2.0550    4.0858   -0.4522 H   0  0  0  0  0  0  0  0  0  0  0  0
   -1.8791    1.9122   -1.5489 H   0  0  0  0  0  0  0  0  0  0  0  0
   -2.9000   -2.3619   -1.6589 H   0  0  0  0  0  0  0  0  0  0  0  0
   -4.9621   -2.3558    0.7042 H   0  0  0  0  0  0  0  0  0  0  0  0
   -4.0875   -3.8485    0.3200 H   0  0  0  0  0  0  0  0  0  0  0  0
   -4.0434   -3.1754    1.9607 H   0  0  0  0  0  0  0  0  0  0  0  0
   -2.0009    2.0778    1.8493 H   0  0  0  0  0  0  0  0  0  0  0  0
   -1.2536    3.6441    1.7825 H   0  0  0  0  0  0  0  0  0  0  0  0
   -1.4935   -2.9929    2.8265 H   0  0  0  0  0  0  0  0  0  0  0  0
   -2.0860   -4.4757    2.0358 H   0  0  0  0  0  0  0  0  0  0  0  0
   -0.3568   -4.0956    2.0646 H   0  0  0  0  0  0  0  0  0  0  0  0
   -3.2525   -0.1635   -2.3929 H   0  0  0  0  0  0  0  0  0  0  0  0
    0.3844    2.8228    0.0020 H   0  0  0  0  0  0  0  0  0  0  0  0
   -0.4373    0.3088    1.5667 H   0  0  0  0  0  0  0  0  0  0  0  0
    2.6285    1.9985    1.1434 H   0  0  0  0  0  0  0  0  0  0  0  0
    4.8012   -1.1133   -0.8941 H   0  0  0  0  0  0  0  0  0  0  0  0
   -4.2850    3.9481   -0.0272 H   0  0  0  0  0  0  0  0  0  0  0  0
   -3.7755    2.0911   -2.6799 H   0  0  0  0  0  0  0  0  0  0  0  0
    4.9706    2.1368    0.8553 H   0  0  0  0  0  0  0  0  0  0  0  0
    6.5660   -0.1627    0.3809 H   0  0  0  0  0  0  0  0  0  0  0  0
    6.3085    0.6457   -1.1804 H   0  0  0  0  0  0  0  0  0  0  0  0
    1.9161   -3.0447   -1.3812 H   0  0  0  0  0  0  0  0  0  0  0  0
    7.4761    1.9577    1.3176 H   0  0  0  0  0  0  0  0  0  0  0  0
    8.3798    1.4276   -0.1144 H   0  0  0  0  0  0  0  0  0  0  0  0
    7.2143    2.7598   -0.2378 H   0  0  0  0  0  0  0  0  0  0  0  0
  1  9  1  0  0  0  0
  1 21  1  0  0  0  0
  2 10  1  0  0  0  0
  2 47  1  0  0  0  0
  3 11  1  0  0  0  0
  3 48  1  0  0  0  0
  4 16  2  0  0  0  0
  5 24  1  0  0  0  0
  5 52  1  0  0  0  0
  6 21  2  0  0  0  0
  7 25  1  0  0  0  0
  7 27  1  0  0  0  0
  7 49  1  0  0  0  0
  8  9  1  0  0  0  0
  8 12  1  0  0  0  0
  8 13  1  0  0  0  0
  8 29  1  0  0  0  0
  9 15  1  0  0  0  0
  9 30  1  0  0  0  0
 10 11  1  0  0  0  0
 10 14  1  0  0  0  0
 10 31  1  0  0  0  0
 11 16  1  0  0  0  0
 11 32  1  0  0  0  0
 12 17  2  0  0  0  0
 12 33  1  0  0  0  0
 13 34  1  0  0  0  0
 13 35  1  0  0  0  0
 13 36  1  0  0  0  0
 14 20  1  0  0  0  0
 14 37  1  0  0  0  0
 14 38  1  0  0  0  0
 15 39  1  0  0  0  0
 15 40  1  0  0  0  0
 15 41  1  0  0  0  0
 16 17  1  0  0  0  0
 17 42  1  0  0  0  0
 18 19  2  0  0  0  0
 18 21  1  0  0  0  0
 18 24  1  0  0  0  0
 19 22  1  0  0  0  0
 19 23  1  0  0  0  0
 20 22  2  0  0  0  0
 20 43  1  0  0  0  0
 22 44  1  0  0  0  0
 23 25  2  0  0  0  0
 23 45  1  0  0  0  0
 24 26  2  0  0  0  0
 25 26  1  0  0  0  0
 26 46  1  0  0  0  0
 27 28  1  0  0  0  0
 27 50  1  0  0  0  0
 27 51  1  0  0  0  0
 28 53  1  0  0  0  0
 28 54  1  0  0  0  0
 28 55  1  0  0  0  0
M  END
> <DATABASE_ID>
DB11687

> <DATABASE_NAME>
drugbank

> <ORIGINAL_SOURCE>
PUBCHEM

> <ORIGINAL_SOURCE_URL>
https://pubchem.ncbi.nlm.nih.gov/rest/pug/compound/inchikey/MWUFVYLAWAXDHQ-HMNLTAHHSA-N/SDF?record_type=3d

> <SMILES>
CCNC1=CC2=C(C(O)=C1)C(=O)O[C@@H](C)[C@H](C)\C=C/C(=O)[C@@H](O)[C@@H](O)C\C=C\2

> <INCHI_IDENTIFIER>
InChI=1S/C21H27NO6/c1-4-22-15-10-14-6-5-7-16(23)20(26)17(24)9-8-12(2)13(3)28-21(27)19(14)18(25)11-15/h5-6,8-13,16,20,22-23,25-26H,4,7H2,1-3H3/b6-5+,9-8-/t12-,13+,16+,20+/m1/s1

> <INCHI_KEY>
MWUFVYLAWAXDHQ-HMNLTAHHSA-N

> <FORMULA>
C21H27NO6

> <MOLECULAR_WEIGHT>
389.448

> <EXACT_MASS>
389.183837593

> <JCHEM_ACCEPTOR_COUNT>
6

> <JCHEM_ATOM_COUNT>
55

> <JCHEM_AVERAGE_POLARIZABILITY>
41.34267488842532

> <JCHEM_BIOAVAILABILITY>
1

> <JCHEM_DONOR_COUNT>
4

> <JCHEM_FORMAL_CHARGE>
0

> <JCHEM_GHOSE_FILTER>
1

> <JCHEM_IUPAC>
(3S,4R,8S,9S)-14-(ethylamino)-8,9,16-trihydroxy-3,4-dimethyl-3,4,7,8,9,10-hexahydro-1H-2-benzoxacyclotetradecine-1,7-dione

> <ALOGPS_LOGP>
3.09

> <JCHEM_LOGP>
2.924143797666667

> <ALOGPS_LOGS>
-2.96

> <JCHEM_MDDR_LIKE_RULE>
0

> <JCHEM_NUMBER_OF_RINGS>
2

> <JCHEM_PHYSIOLOGICAL_CHARGE>
0

> <JCHEM_PKA>
12.421297898794926

> <JCHEM_PKA_STRONGEST_ACIDIC>
9.860971089870846

> <JCHEM_PKA_STRONGEST_BASIC>
2.9776926214559505

> <JCHEM_POLAR_SURFACE_AREA>
116.09

> <JCHEM_REFRACTIVITY>
109.71959999999999

> <JCHEM_ROTATABLE_BOND_COUNT>
2

> <JCHEM_RULE_OF_FIVE>
1

> <ALOGPS_SOLUBILITY>
4.30e-01 g/l

> <JCHEM_TRADITIONAL_IUPAC>
(3S,4R,8S,9S)-14-(ethylamino)-8,9,16-trihydroxy-3,4-dimethyl-4,8,9,10-tetrahydro-3H-2-benzoxacyclotetradecine-1,7-dione

> <JCHEM_VEBER_RULE>
0

> <DRUGBANK_ID>
DB11687

> <DRUG_GROUPS>
investigational

> <GENERIC_NAME>
E-6201

$$$$
