59174488
  -OEChem-10051722343D

 53 55  0     0  0  0  0  0  0999 V2000
    5.9813    0.1295    0.0968 F   0  0  0  0  0  0  0  0  0  0  0  0
   -3.8698   -1.8431    0.7940 O   0  0  0  0  0  0  0  0  0  0  0  0
   -5.9378    1.1419    1.0188 O   0  0  0  0  0  0  0  0  0  0  0  0
   -0.5662    0.1768   -1.4720 O   0  0  0  0  0  0  0  0  0  0  0  0
    3.5257    1.2577    0.6658 N   0  0  0  0  0  0  0  0  0  0  0  0
    1.5060   -2.9397   -0.1138 N   0  0  0  0  0  0  0  0  0  0  0  0
    2.4886   -0.8485    0.2770 N   0  0  0  0  0  0  0  0  0  0  0  0
   -0.8725    2.4545   -0.9652 N   0  0  0  0  0  0  0  0  0  0  0  0
    3.8301   -2.7507   -0.3471 N   0  0  0  0  0  0  0  0  0  0  0  0
    2.5141    2.2148    0.4832 C   0  0  0  0  0  0  0  0  0  0  0  0
    0.1426   -2.6625    0.1174 C   0  0  0  0  0  0  0  0  0  0  0  0
   -2.5541   -2.1120    0.5724 C   0  0  0  0  0  0  0  0  0  0  0  0
    1.3234    1.8593   -0.1505 C   0  0  0  0  0  0  0  0  0  0  0  0
    0.3191    2.8100   -0.3316 C   0  0  0  0  0  0  0  0  0  0  0  0
    3.6187   -0.1127    0.3207 C   0  0  0  0  0  0  0  0  0  0  0  0
   -0.2229   -1.6707    1.0275 C   0  0  0  0  0  0  0  0  0  0  0  0
   -0.8404   -3.3793   -0.5651 C   0  0  0  0  0  0  0  0  0  0  0  0
    2.7005    3.5210    0.9358 C   0  0  0  0  0  0  0  0  0  0  0  0
   -1.5711   -1.3953    1.2549 C   0  0  0  0  0  0  0  0  0  0  0  0
   -2.1887   -3.1041   -0.3377 C   0  0  0  0  0  0  0  0  0  0  0  0
    2.6646   -2.1408   -0.0588 C   0  0  0  0  0  0  0  0  0  0  0  0
    0.5054    4.1163    0.1209 C   0  0  0  0  0  0  0  0  0  0  0  0
    1.6960    4.4717    0.7547 C   0  0  0  0  0  0  0  0  0  0  0  0
   -4.2065   -0.5054    1.1588 C   0  0  0  0  0  0  0  0  0  0  0  0
    4.8735   -0.6176    0.0474 C   0  0  0  0  0  0  0  0  0  0  0  0
   -5.5940   -0.1847    0.6376 C   0  0  0  0  0  0  0  0  0  0  0  0
    4.9189   -1.9564   -0.2841 C   0  0  0  0  0  0  0  0  0  0  0  0
   -1.2355    1.2032   -1.4811 C   0  0  0  0  0  0  0  0  0  0  0  0
   -7.2239    1.5054    0.5366 C   0  0  0  0  0  0  0  0  0  0  0  0
   -2.6000    1.2314   -2.0836 C   0  0  0  0  0  0  0  0  0  0  0  0
   -3.1252    0.1302   -2.6297 C   0  0  0  0  0  0  0  0  0  0  0  0
    1.2170    0.8626   -0.5345 H   0  0  0  0  0  0  0  0  0  0  0  0
    4.3592    1.6146    1.1248 H   0  0  0  0  0  0  0  0  0  0  0  0
    0.5060   -1.1232    1.6157 H   0  0  0  0  0  0  0  0  0  0  0  0
   -0.5687   -4.1535   -1.2781 H   0  0  0  0  0  0  0  0  0  0  0  0
    1.6858   -3.8613   -0.5009 H   0  0  0  0  0  0  0  0  0  0  0  0
    3.6232    3.8120    1.4314 H   0  0  0  0  0  0  0  0  0  0  0  0
   -1.8134   -0.6414    1.9981 H   0  0  0  0  0  0  0  0  0  0  0  0
   -2.9501   -3.6644   -0.8733 H   0  0  0  0  0  0  0  0  0  0  0  0
   -0.2687    4.8677   -0.0134 H   0  0  0  0  0  0  0  0  0  0  0  0
    1.8410    5.4887    1.1071 H   0  0  0  0  0  0  0  0  0  0  0  0
   -4.1846   -0.4085    2.2509 H   0  0  0  0  0  0  0  0  0  0  0  0
   -3.5123    0.2330    0.7374 H   0  0  0  0  0  0  0  0  0  0  0  0
   -6.3215   -0.8950    1.0487 H   0  0  0  0  0  0  0  0  0  0  0  0
   -5.6151   -0.2825   -0.4546 H   0  0  0  0  0  0  0  0  0  0  0  0
   -1.5497    3.2094   -1.0546 H   0  0  0  0  0  0  0  0  0  0  0  0
    5.8610   -2.4419   -0.5152 H   0  0  0  0  0  0  0  0  0  0  0  0
   -7.2462    1.4738   -0.5570 H   0  0  0  0  0  0  0  0  0  0  0  0
   -7.9900    0.8417    0.9490 H   0  0  0  0  0  0  0  0  0  0  0  0
   -7.4367    2.5277    0.8603 H   0  0  0  0  0  0  0  0  0  0  0  0
   -3.1669    2.1558   -2.0682 H   0  0  0  0  0  0  0  0  0  0  0  0
   -4.1207    0.1607   -3.0599 H   0  0  0  0  0  0  0  0  0  0  0  0
   -2.5950   -0.8146   -2.6662 H   0  0  0  0  0  0  0  0  0  0  0  0
  1 25  1  0  0  0  0
  2 12  1  0  0  0  0
  2 24  1  0  0  0  0
  3 26  1  0  0  0  0
  3 29  1  0  0  0  0
  4 28  2  0  0  0  0
  5 10  1  0  0  0  0
  5 15  1  0  0  0  0
  5 33  1  0  0  0  0
  6 11  1  0  0  0  0
  6 21  1  0  0  0  0
  6 36  1  0  0  0  0
  7 15  2  0  0  0  0
  7 21  1  0  0  0  0
  8 14  1  0  0  0  0
  8 28  1  0  0  0  0
  8 46  1  0  0  0  0
  9 21  2  0  0  0  0
  9 27  1  0  0  0  0
 10 13  2  0  0  0  0
 10 18  1  0  0  0  0
 11 16  2  0  0  0  0
 11 17  1  0  0  0  0
 12 19  2  0  0  0  0
 12 20  1  0  0  0  0
 13 14  1  0  0  0  0
 13 32  1  0  0  0  0
 14 22  2  0  0  0  0
 15 25  1  0  0  0  0
 16 19  1  0  0  0  0
 16 34  1  0  0  0  0
 17 20  2  0  0  0  0
 17 35  1  0  0  0  0
 18 23  2  0  0  0  0
 18 37  1  0  0  0  0
 19 38  1  0  0  0  0
 20 39  1  0  0  0  0
 22 23  1  0  0  0  0
 22 40  1  0  0  0  0
 23 41  1  0  0  0  0
 24 26  1  0  0  0  0
 24 42  1  0  0  0  0
 24 43  1  0  0  0  0
 25 27  2  0  0  0  0
 26 44  1  0  0  0  0
 26 45  1  0  0  0  0
 27 47  1  0  0  0  0
 28 30  1  0  0  0  0
 29 48  1  0  0  0  0
 29 49  1  0  0  0  0
 29 50  1  0  0  0  0
 30 31  2  0  0  0  0
 30 51  1  0  0  0  0
 31 52  1  0  0  0  0
 31 53  1  0  0  0  0
M  END
> <DATABASE_ID>
DB11764

> <DATABASE_NAME>
drugbank

> <ORIGINAL_SOURCE>
PUBCHEM

> <ORIGINAL_SOURCE_URL>
https://pubchem.ncbi.nlm.nih.gov/rest/pug/compound/inchikey/KXBDTLQSDKGAEB-UHFFFAOYSA-N/SDF?record_type=3d

> <SMILES>
COCCOC1=CC=C(NC2=NC=C(F)C(NC3=CC=CC(NC(=O)C=C)=C3)=N2)C=C1

> <INCHI_IDENTIFIER>
InChI=1S/C22H22FN5O3/c1-3-20(29)25-16-5-4-6-17(13-16)26-21-19(23)14-24-22(28-21)27-15-7-9-18(10-8-15)31-12-11-30-2/h3-10,13-14H,1,11-12H2,2H3,(H,25,29)(H2,24,26,27,28)

> <INCHI_KEY>
KXBDTLQSDKGAEB-UHFFFAOYSA-N

> <FORMULA>
C22H22FN5O3

> <MOLECULAR_WEIGHT>
423.448

> <EXACT_MASS>
423.170667751

> <JCHEM_ACCEPTOR_COUNT>
7

> <JCHEM_ATOM_COUNT>
53

> <JCHEM_AVERAGE_POLARIZABILITY>
44.254241550384286

> <JCHEM_BIOAVAILABILITY>
1

> <JCHEM_DONOR_COUNT>
3

> <JCHEM_FORMAL_CHARGE>
0

> <JCHEM_GHOSE_FILTER>
1

> <JCHEM_IUPAC>
N-{3-[(5-fluoro-2-{[4-(2-methoxyethoxy)phenyl]amino}pyrimidin-4-yl)amino]phenyl}prop-2-enamide

> <ALOGPS_LOGP>
4.15

> <JCHEM_LOGP>
4.134889095333333

> <ALOGPS_LOGS>
-4.62

> <JCHEM_MDDR_LIKE_RULE>
1

> <JCHEM_NUMBER_OF_RINGS>
3

> <JCHEM_PHYSIOLOGICAL_CHARGE>
0

> <JCHEM_PKA>
14.846484296025618

> <JCHEM_PKA_STRONGEST_ACIDIC>
13.875003475231416

> <JCHEM_PKA_STRONGEST_BASIC>
2.9798855143783736

> <JCHEM_POLAR_SURFACE_AREA>
97.4

> <JCHEM_REFRACTIVITY>
117.188

> <JCHEM_ROTATABLE_BOND_COUNT>
10

> <JCHEM_RULE_OF_FIVE>
1

> <ALOGPS_SOLUBILITY>
1.02e-02 g/l

> <JCHEM_TRADITIONAL_IUPAC>
N-{3-[(5-fluoro-2-{[4-(2-methoxyethoxy)phenyl]amino}pyrimidin-4-yl)amino]phenyl}prop-2-enamide

> <JCHEM_VEBER_RULE>
0

> <DRUGBANK_ID>
DB11764

> <DRUG_GROUPS>
investigational

> <GENERIC_NAME>
Spebrutinib

$$$$
