REMARK  Name = 3334
REMARK  4 active torsions:
REMARK  status: ('A' for Active; 'I' for Inactive)
REMARK    1  A    between atoms: N_4  and  C_9
REMARK    2  A    between atoms: C_8  and  S_18
REMARK    3  A    between atoms: C_12  and  O_16
REMARK    4  A    between atoms: S_18  and  C_19
REMARK                            x       y       z     vdW  Elec       q    Type
REMARK                         _______ _______ _______ _____ _____    ______ ____
ROOT
ATOM      1  N   UNL     1       1.374   0.526  -0.930  0.00  0.00    -0.302 N 
ATOM      2  N   UNL     1       2.337  -0.951   0.423  0.00  0.00    -0.302 N 
ATOM      3  C   UNL     1       0.386  -0.365  -0.598  0.00  0.00    +0.061 C 
ATOM      4  C   UNL     1       1.012  -1.276   0.248  0.00  0.00    +0.060 C 
ATOM      5  C   UNL     1      -0.961  -0.448  -0.953  0.00  0.00    +0.022 C 
ATOM      6  C   UNL     1      -1.689  -1.514  -0.414  0.00  0.00    +0.031 C 
ATOM      7  C   UNL     1       2.520   0.133  -0.296  0.00  0.00    +0.229 C 
ATOM      8  C   UNL     1       0.265  -2.341   0.780  0.00  0.00    +0.016 C 
ATOM      9  C   UNL     1      -1.089  -2.445   0.437  0.00  0.00    +0.008 C 
ATOM     10  H   UNL     1       1.276   1.308  -1.520  0.00  0.00    +0.150 HD
ATOM     11  H   UNL     1       3.003  -1.427   0.970  0.00  0.00    +0.150 HD
ENDROOT
BRANCH   7  13
ATOM     12  O   UNL     1       5.213  -0.340   0.872  0.00  0.00    -0.226 OA
ATOM     13  N   UNL     1       3.678   0.850  -0.452  0.00  0.00    -0.240 N 
ATOM     14  C   UNL     1       4.922   0.583   0.122  0.00  0.00    +0.404 C 
ATOM     15  H   UNL     1       3.627   1.641  -1.035  0.00  0.00    +0.156 HD
BRANCH  14  16
ATOM     16  O   UNL     1       5.821   1.535  -0.282  0.00  0.00    -0.431 OA
ATOM     17  C   UNL     1       7.154   1.399   0.225  0.00  0.00    +0.257 C 
ENDBRANCH  14  16
ENDBRANCH   7  13
BRANCH   6  18
ATOM     18  S   UNL     1      -3.419  -1.686  -0.826  0.00  0.00    -0.087 S 
BRANCH  18  19
ATOM     19  C   UNL     1      -4.076  -0.145  -0.208  0.00  0.00    +0.029 C 
ATOM     20  C   UNL     1      -3.955   0.168   1.144  0.00  0.00    +0.006 C 
ATOM     21  C   UNL     1      -4.706   0.740  -1.080  0.00  0.00    +0.006 C 
ATOM     22  C   UNL     1      -4.468   1.372   1.627  0.00  0.00    +0.001 C 
ATOM     23  C   UNL     1      -5.219   1.944  -0.597  0.00  0.00    +0.001 C 
ATOM     24  C   UNL     1      -5.100   2.260   0.757  0.00  0.00    +0.000 C 
ENDBRANCH  18  19
ENDBRANCH   6  18
TORSDOF 4
