REMARK  Name = 5634
REMARK  10 active torsions:
REMARK  status: ('A' for Active; 'I' for Inactive)
REMARK    1  A    between atoms: C_1  and  C_2
REMARK    2  A    between atoms: C_1  and  C_8
REMARK    3  A    between atoms: C_2  and  C_3
REMARK    4  A    between atoms: C_3  and  C_4
REMARK    5  A    between atoms: C_4  and  C_5
REMARK    6  A    between atoms: C_5  and  C_6
REMARK    7  A    between atoms: C_8  and  C_9
REMARK    8  A    between atoms: C_9  and  C_10
REMARK    9  A    between atoms: C_10  and  C_12
REMARK   10  A    between atoms: C_12  and  O_13
REMARK                            x       y       z     vdW  Elec       q    Type
REMARK                         _______ _______ _______ _____ _____    ______ ____
ROOT
ATOM      1  C   UNL     1       0.166   0.419   0.011  0.00  0.00    +0.000 C 
ENDROOT
BRANCH   1   2
ATOM      2  C   UNL     1      -1.168  -0.327   0.085  0.00  0.00    +0.000 C 
BRANCH   2   3
ATOM      3  C   UNL     1      -2.386   0.602   0.042  0.00  0.00    +0.000 C 
BRANCH   3   4
ATOM      4  C   UNL     1      -3.722  -0.146   0.041  0.00  0.00    +0.005 C 
BRANCH   4   5
ATOM      5  C   UNL     1      -4.900   0.828  -0.075  0.00  0.00    +0.026 C 
BRANCH   5   6
ATOM      6  C   UNL     1      -6.278   0.224  -0.065  0.00  0.00    -0.026 C 
ATOM      7  C   UNL     1      -6.597  -1.075  -0.016  0.00  0.00    -0.005 C 
ENDBRANCH   5   6
ENDBRANCH   4   5
ENDBRANCH   3   4
ENDBRANCH   2   3
ENDBRANCH   1   2
BRANCH   1   8
ATOM      8  C   UNL     1       1.383  -0.510   0.066  0.00  0.00    +0.001 C 
BRANCH   8   9
ATOM      9  C   UNL     1       2.720   0.238   0.018  0.00  0.00    +0.012 C 
BRANCH   9  10
ATOM     10  C   UNL     1       3.916  -0.710   0.007  0.00  0.00    +0.109 C 
BRANCH  10  12
ATOM     11  O   UNL     1       5.336   1.244   0.013  0.00  0.00    -0.250 OA
ATOM     12  C   UNL     1       5.232   0.025  -0.024  0.00  0.00    +0.314 C 
BRANCH  12  13
ATOM     13  O   UNL     1       6.296  -0.812  -0.102  0.00  0.00    -0.480 OA
ATOM     14  H   UNL     1       6.162  -1.739  -0.128  0.00  0.00    +0.295 HD
ENDBRANCH  12  13
ENDBRANCH  10  12
ENDBRANCH   9  10
ENDBRANCH   8   9
ENDBRANCH   1   8
TORSDOF 10
