REMARK  Name = 7077
REMARK  6 active torsions:
REMARK  status: ('A' for Active; 'I' for Inactive)
REMARK    1  A    between atoms: C_1  and  C_14
REMARK    2  A    between atoms: C_2  and  O_7
REMARK    3  A    between atoms: O_7  and  C_8
REMARK    4  A    between atoms: C_8  and  C_9
REMARK    5  A    between atoms: C_9  and  N_10
REMARK    6  A    between atoms: C_14  and  C_15
REMARK                            x       y       z     vdW  Elec       q    Type
REMARK                         _______ _______ _______ _____ _____    ______ ____
ROOT
ATOM      1  C   UNL     1       0.690   1.260  -0.590  0.00  0.00    +0.016 C 
ATOM      2  C   UNL     1      -0.376   1.305   0.302  0.00  0.00    +0.135 C 
ATOM      3  C   UNL     1       1.433   2.413  -0.839  0.00  0.00    -0.001 C 
ATOM      4  C   UNL     1      -0.706   2.491   0.950  0.00  0.00    +0.037 C 
ATOM      5  C   UNL     1       1.107   3.606  -0.193  0.00  0.00    -0.000 C 
ATOM      6  C   UNL     1       0.037   3.645   0.701  0.00  0.00    +0.003 C 
ENDROOT
BRANCH   2   7
ATOM      7  O   UNL     1      -1.117   0.181   0.558  0.00  0.00    -0.478 OA
BRANCH   7   8
ATOM      8  C   UNL     1      -2.505   0.246   0.257  0.00  0.00    +0.183 C 
BRANCH   8   9
ATOM      9  C   UNL     1      -2.984  -1.141  -0.140  0.00  0.00    -0.029 C 
BRANCH   9  10
ATOM     10  N   UNL     1      -4.415  -1.126  -0.443  0.00  0.00    +0.387 N 
ATOM     11  C   UNL     1      -5.177  -0.651   0.711  0.00  0.00    -0.101 C 
ATOM     12  C   UNL     1      -4.867  -2.458  -0.841  0.00  0.00    -0.101 C 
ATOM     13  H   UNL     1      -4.574  -0.485  -1.221  0.00  0.00    -0.080 HD
ENDBRANCH   9  10
ENDBRANCH   8   9
ENDBRANCH   7   8
ENDBRANCH   2   7
BRANCH   1  14
ATOM     14  C   UNL     1       1.053  -0.008  -1.290  0.00  0.00    +0.056 C 
BRANCH  14  15
ATOM     15  C   UNL     1       2.058  -0.857  -0.539  0.00  0.00    -0.018 C 
ATOM     16  C   UNL     1       1.603  -1.805   0.359  0.00  0.00    -0.004 C 
ATOM     17  C   UNL     1       3.409  -0.664  -0.769  0.00  0.00    -0.004 C 
ATOM     18  C   UNL     1       2.528  -2.586   1.051  0.00  0.00    -0.000 C 
ATOM     19  C   UNL     1       4.334  -1.445  -0.077  0.00  0.00    -0.000 C 
ATOM     20  C   UNL     1       3.894  -2.406   0.833  0.00  0.00    -0.000 C 
ENDBRANCH  14  15
ENDBRANCH   1  14
TORSDOF 6
