REMARK  Name = 5282192
REMARK  6 active torsions:
REMARK  status: ('A' for Active; 'I' for Inactive)
REMARK    1  A    between atoms: N_3  and  C1*_13
REMARK    2  A    between atoms: C_7  and  C_23
REMARK    3  A    between atoms: C2*_11  and  O2*_15
REMARK    4  A    between atoms: C3*_12  and  O3*_17
REMARK    5  A    between atoms: C4*_14  and  C5*_19
REMARK    6  A    between atoms: C5*_19  and  O5*_20
REMARK                            x       y       z     vdW  Elec       q    Type
REMARK                         _______ _______ _______ _____ _____    ______ ____
ROOT
ATOM      1  O   UNL     1      -0.024   3.372   0.269  0.00  0.00    -0.252 OA
ATOM      2  O   UNL     1       4.104   1.365   0.071  0.00  0.00    -0.270 OA
ATOM      3  N   UNL     1       0.049   1.039   0.248  0.00  0.00    -0.217 N 
ATOM      4  N   UNL     1       2.027   2.352   0.171  0.00  0.00    -0.236 N 
ATOM      5  C   UNL     1       0.864  -0.090   0.204  0.00  0.00    +0.076 C 
ATOM      6  C   UNL     1       0.630   2.328   0.232  0.00  0.00    +0.315 C 
ATOM      7  C   UNL     1       2.202  -0.067   0.146  0.00  0.00    +0.069 C 
ATOM      8  C   UNL     1       2.881   1.260   0.126  0.00  0.00    +0.254 C 
ATOM      9  H   UNL     1       2.451   3.241   0.158  0.00  0.00    +0.159 HD
ENDROOT
BRANCH   3  13
ATOM     10  O4* UNL     1      -1.710  -0.282   1.056  0.00  0.00    -0.333 OA
ATOM     11  C2* UNL     1      -2.046   0.745  -1.048  0.00  0.00    +0.187 C 
ATOM     12  C3* UNL     1      -3.327   0.028  -0.677  0.00  0.00    +0.171 C 
ATOM     13  C1* UNL     1      -1.375   0.894   0.309  0.00  0.00    +0.229 C 
ATOM     14  C4* UNL     1      -2.914  -0.854   0.503  0.00  0.00    +0.175 C 
BRANCH  11  15
ATOM     15  O2* UNL     1      -1.289  -0.098  -1.909  0.00  0.00    -0.378 OA
ATOM     16  H2* UNL     1      -1.739  -0.175  -2.764  0.00  0.00    +0.211 HD
ENDBRANCH  11  15
BRANCH  12  17
ATOM     17  O3* UNL     1      -4.281   0.980  -0.213  0.00  0.00    -0.379 OA
ATOM     18  H3* UNL     1      -4.555   1.549  -0.950  0.00  0.00    +0.211 HD
ENDBRANCH  12  17
BRANCH  14  19
ATOM     19  C5* UNL     1      -2.607  -2.291   0.105  0.00  0.00    +0.169 C 
BRANCH  19  20
ATOM     20  O5* UNL     1      -2.227  -3.012   1.264  0.00  0.00    -0.379 OA
ATOM     21  H5* UNL     1      -2.028  -3.930   1.023  0.00  0.00    +0.211 HD
ENDBRANCH  19  20
ENDBRANCH  14  19
ENDBRANCH   3  13
BRANCH   7  23
ATOM     22 BR   UNL     1       3.521  -3.982  -0.515  0.00  0.00    -0.048 Br
ATOM     23  C   UNL     1       2.983  -1.277   0.103  0.00  0.00    +0.013 C 
ATOM     24  C   UNL     1       2.538  -2.409  -0.445  0.00  0.00    +0.041 C 
ENDBRANCH   7  23
TORSDOF 6
