REMARK  Name = 46908929
REMARK  8 active torsions:
REMARK  status: ('A' for Active; 'I' for Inactive)
REMARK    1  A    between atoms: C_4  and  O_15
REMARK    2  A    between atoms: C_5  and  O_17
REMARK    3  A    between atoms: C_6  and  O_19
REMARK    4  A    between atoms: C_7  and  C_21
REMARK    5  A    between atoms: C_13  and  C_24
REMARK    6  A    between atoms: C_21  and  O_22
REMARK    7  A    between atoms: C_24  and  C_25
REMARK    8  A    between atoms: C_30  and  C_31
REMARK                            x       y       z     vdW  Elec       q    Type
REMARK                         _______ _______ _______ _____ _____    ______ ____
ROOT
ATOM      1  O   UNL     1      -2.926  -0.438  -0.641  0.00  0.00    -0.326 OA
ATOM      2  O   UNL     1      -2.654  -0.529   1.736  0.00  0.00    -0.324 OA
ATOM      3  C   UNL     1      -2.071  -0.127   0.464  0.00  0.00    +0.235 C 
ATOM      4  C   UNL     1      -1.754   1.375   0.487  0.00  0.00    +0.196 C 
ATOM      5  C   UNL     1      -3.042   2.202   0.508  0.00  0.00    +0.172 C 
ATOM      6  C   UNL     1      -3.986   1.758  -0.612  0.00  0.00    +0.169 C 
ATOM      7  C   UNL     1      -4.185   0.239  -0.597  0.00  0.00    +0.176 C 
ATOM      8  C   UNL     1      -0.865  -1.005   0.351  0.00  0.00    +0.029 C 
ATOM      9  C   UNL     1      -0.942  -2.010   1.307  0.00  0.00    +0.008 C 
ATOM     10  C   UNL     1      -2.185  -1.848   2.095  0.00  0.00    +0.171 C 
ATOM     11  C   UNL     1       0.198  -0.948  -0.536  0.00  0.00    -0.004 C 
ATOM     12  C   UNL     1       0.034  -2.986   1.409  0.00  0.00    -0.002 C 
ATOM     13  C   UNL     1       1.196  -1.921  -0.440  0.00  0.00    -0.018 C 
ATOM     14  C   UNL     1       1.114  -2.934   0.527  0.00  0.00    -0.004 C 
ENDROOT
BRANCH   4  15
ATOM     15  O   UNL     1      -0.996   1.717   1.647  0.00  0.00    -0.377 OA
ATOM     16  H   UNL     1      -0.172   1.205   1.657  0.00  0.00    +0.211 HD
ENDBRANCH   4  15
BRANCH   5  17
ATOM     17  O   UNL     1      -2.718   3.579   0.302  0.00  0.00    -0.379 OA
ATOM     18  H   UNL     1      -2.118   3.878   1.004  0.00  0.00    +0.211 HD
ENDBRANCH   5  17
BRANCH   6  19
ATOM     19  O   UNL     1      -5.234   2.422  -0.425  0.00  0.00    -0.379 OA
ATOM     20  H   UNL     1      -5.095   3.382  -0.436  0.00  0.00    +0.211 HD
ENDBRANCH   6  19
BRANCH   7  21
ATOM     21  C   UNL     1      -4.994  -0.246  -1.797  0.00  0.00    +0.169 C 
BRANCH  21  22
ATOM     22  O   UNL     1      -5.123  -1.653  -1.714  0.00  0.00    -0.379 OA
ATOM     23  H   UNL     1      -5.636  -1.976  -2.472  0.00  0.00    +0.211 HD
ENDBRANCH  21  22
ENDBRANCH   7  21
BRANCH  13  24
ATOM     24  C   UNL     1       2.356  -1.886  -1.378  0.00  0.00    +0.053 C 
BRANCH  24  25
ATOM     25  C   UNL     1       3.408  -0.857  -1.017  0.00  0.00    -0.018 C 
ATOM     26  C   UNL     1       3.203   0.487  -1.328  0.00  0.00    -0.004 C 
ATOM     27  C   UNL     1       4.579  -1.253  -0.372  0.00  0.00    -0.004 C 
ATOM     28  C   UNL     1       4.171   1.435  -0.995  0.00  0.00    -0.005 C 
ATOM     29  C   UNL     1       5.547  -0.305  -0.039  0.00  0.00    -0.005 C 
ATOM     30  C   UNL     1       5.343   1.039  -0.350  0.00  0.00    -0.022 C 
BRANCH  30  31
ATOM     31  C   UNL     1       6.375   2.053   0.008  0.00  0.00    +0.026 C 
ATOM     32  C   UNL     1       6.152   2.642   1.399  0.00  0.00    +0.005 C 
ENDBRANCH  30  31
ENDBRANCH  24  25
ENDBRANCH  13  24
TORSDOF 8
