REMARK  Name = 11697697
REMARK  7 active torsions:
REMARK  status: ('A' for Active; 'I' for Inactive)
REMARK    1  A    between atoms: N_2  and  C_14
REMARK    2  A    between atoms: C_8  and  C_32
REMARK    3  A    between atoms: C_13  and  O_19
REMARK    4  A    between atoms: O_19  and  C_20
REMARK    5  A    between atoms: C_20  and  C_21
REMARK    6  A    between atoms: C_21  and  C_22
REMARK    7  A    between atoms: C_22  and  N_23
REMARK                            x       y       z     vdW  Elec       q    Type
REMARK                         _______ _______ _______ _____ _____    ______ ____
ROOT
ATOM      1  O   UNL     1       2.770  -1.396   0.088  0.00  0.00    -0.273 OA
ATOM      2  N   UNL     1       1.984   0.819   0.245  0.00  0.00    -0.215 N 
ATOM      3  N   UNL     1       3.541   2.607   0.041  0.00  0.00    -0.394 NA
ATOM      4  C   UNL     1       4.350   0.304  -0.080  0.00  0.00    +0.156 C 
ATOM      5  C   UNL     1       2.968  -0.184   0.112  0.00  0.00    +0.245 C 
ATOM      6  C   UNL     1       2.334   2.172   0.235  0.00  0.00    +0.170 C 
ATOM      7  C   UNL     1       4.574   1.679  -0.131  0.00  0.00    +0.123 C 
ATOM      8  C   UNL     1       5.410  -0.599  -0.232  0.00  0.00    +0.064 C 
ATOM      9  C   UNL     1       5.877   2.147  -0.338  0.00  0.00    +0.028 C 
ATOM     10  C   UNL     1       6.703  -0.120  -0.437  0.00  0.00    +0.001 C 
ATOM     11  C   UNL     1       1.289   3.231   0.518  0.00  0.00    +0.084 C 
ATOM     12  C   UNL     1       6.937   1.252  -0.491  0.00  0.00    +0.002 C 
ENDROOT
BRANCH   2  14
ATOM     13  C   UNL     1      -2.022  -0.458   0.535  0.00  0.00    +0.139 C 
ATOM     14  C   UNL     1       0.618   0.385   0.344  0.00  0.00    +0.060 C 
ATOM     15  C   UNL     1      -1.464  -0.190  -0.715  0.00  0.00    +0.038 C 
ATOM     16  C   UNL     1      -1.254  -0.302   1.690  0.00  0.00    +0.038 C 
ATOM     17  C   UNL     1      -0.139   0.233  -0.811  0.00  0.00    +0.018 C 
ATOM     18  C   UNL     1       0.071   0.121   1.593  0.00  0.00    +0.018 C 
BRANCH  13  19
ATOM     19  O   UNL     1      -3.316  -0.870   0.629  0.00  0.00    -0.476 OA
BRANCH  19  20
ATOM     20  C   UNL     1      -4.218  -0.412  -0.377  0.00  0.00    +0.203 C 
BRANCH  20  21
ATOM     21  C   UNL     1      -5.617  -0.326   0.219  0.00  0.00    +0.025 C 
BRANCH  21  22
ATOM     22  C   UNL     1      -6.631   0.175  -0.804  0.00  0.00    -0.074 C 
BRANCH  22  23
ATOM     23  N   UNL     1      -7.953   0.268  -0.202  0.00  0.00    +0.387 N 
ATOM     24  C   UNL     1      -8.957   0.776  -1.135  0.00  0.00    -0.077 C 
ATOM     25  C   UNL     1      -8.461  -1.034   0.231  0.00  0.00    -0.077 C 
ATOM     26  C   UNL     1     -10.269   0.423  -0.451  0.00  0.00    -0.025 C 
ATOM     27  C   UNL     1      -9.943  -0.765   0.450  0.00  0.00    -0.025 C 
ATOM     28  H   UNL     1      -7.821   0.899   0.588  0.00  0.00    -0.080 HD
ENDBRANCH  22  23
ENDBRANCH  21  22
ENDBRANCH  20  21
ENDBRANCH  19  20
ENDBRANCH  13  19
ENDBRANCH   2  14
BRANCH   8  32
ATOM     29  F   UNL     1       6.420  -2.763  -0.364  0.00  0.00    -0.166 F 
ATOM     30  F   UNL     1       4.739  -2.543   0.989  0.00  0.00    -0.166 F 
ATOM     31  F   UNL     1       4.409  -2.546  -1.161  0.00  0.00    -0.166 F 
ATOM     32  C   UNL     1       5.249  -2.084  -0.191  0.00  0.00    +0.416 C 
ENDBRANCH   8  32
TORSDOF 7
