REMARK  Name = 11610526
REMARK  3 active torsions:
REMARK  status: ('A' for Active; 'I' for Inactive)
REMARK    1  A    between atoms: C_2  and  C_21
REMARK    2  A    between atoms: C_9  and  C_14
REMARK    3  A    between atoms: C_21  and  C_23
REMARK                            x       y       z     vdW  Elec       q    Type
REMARK                         _______ _______ _______ _____ _____    ______ ____
ROOT
ATOM      1  N   UNL     1       1.170   1.066  -0.052  0.00  0.00    -0.388 NA
ATOM      2  C   UNL     1       2.180   1.937   0.018  0.00  0.00    +0.167 C 
ATOM      3  C   UNL     1       2.085   3.289   0.201  0.00  0.00    +0.031 C 
ATOM      4  C   UNL     1      -0.061   1.609   0.073  0.00  0.00    +0.167 C 
ATOM      5  C   UNL     1       0.802   3.811   0.326  0.00  0.00    -0.015 C 
ATOM      6  C   UNL     1      -0.297   2.961   0.262  0.00  0.00    +0.101 C 
ATOM      7  O   UNL     1      -2.986   2.234   0.283  0.00  0.00    -0.270 OA
ATOM      8  N   UNL     1      -1.174   0.762   0.011  0.00  0.00    -0.259 N 
ATOM      9  C   UNL     1      -2.524   1.110   0.115  0.00  0.00    +0.255 C 
ATOM     10  H   UNL     1      -0.983  -0.194  -0.124  0.00  0.00    +0.157 HD
ENDROOT
BRANCH   9  14
ATOM     11  F   UNL     1      -1.852  -1.467   0.994  0.00  0.00    -0.204 F 
ATOM     12  F   UNL     1      -5.114   1.406  -0.921  0.00  0.00    -0.204 F 
ATOM     13  F   UNL     1      -6.112  -3.158  -0.179  0.00  0.00    -0.204 F 
ATOM     14  C   UNL     1      -3.479  -0.026   0.037  0.00  0.00    +0.109 C 
ATOM     15  C   UNL     1      -3.077  -1.266   0.489  0.00  0.00    +0.149 C 
ATOM     16  C   UNL     1      -4.736   0.196  -0.485  0.00  0.00    +0.149 C 
ATOM     17  C   UNL     1      -3.974  -2.332   0.415  0.00  0.00    +0.060 C 
ATOM     18  C   UNL     1      -5.632  -0.871  -0.559  0.00  0.00    +0.060 C 
ATOM     19  C   UNL     1      -5.251  -2.135  -0.109  0.00  0.00    +0.145 C 
ENDBRANCH   9  14
BRANCH   2  21
ATOM     20  O   UNL     1       4.535   2.028  -0.075  0.00  0.00    -0.289 OA
ATOM     21  C   UNL     1       3.530   1.323  -0.123  0.00  0.00    +0.202 C 
BRANCH  21  23
ATOM     22  N   UNL     1       5.197  -2.596   0.095  0.00  0.00    +0.386 N 
ATOM     23  C   UNL     1       3.639  -0.157  -0.323  0.00  0.00    +0.060 C 
ATOM     24  C   UNL     1       3.715  -0.853   1.036  0.00  0.00    -0.015 C 
ATOM     25  C   UNL     1       4.874  -0.488  -1.159  0.00  0.00    -0.015 C 
ATOM     26  C   UNL     1       3.978  -2.352   0.877  0.00  0.00    -0.077 C 
ATOM     27  C   UNL     1       5.097  -1.999  -1.244  0.00  0.00    -0.077 C 
ATOM     28  C   UNL     1       5.463  -4.031  -0.003  0.00  0.00    -0.101 C 
ATOM     29  H   UNL     1       5.977  -2.151   0.580  0.00  0.00    -0.080 HD
ENDBRANCH  21  23
ENDBRANCH   2  21
TORSDOF 3
