REMARK  Name = 11234052
REMARK  6 active torsions:
REMARK  status: ('A' for Active; 'I' for Inactive)
REMARK    1  A    between atoms: C_6  and  O_11
REMARK    2  A    between atoms: C_8  and  O_17
REMARK    3  A    between atoms: O_11  and  C_12
REMARK    4  A    between atoms: C_12  and  C_13
REMARK    5  A    between atoms: C_13  and  O_15
REMARK    6  A    between atoms: O_17  and  C_22
REMARK                            x       y       z     vdW  Elec       q    Type
REMARK                         _______ _______ _______ _____ _____    ______ ____
ROOT
ATOM      1  N   UNL     1       2.032   1.483   0.181  0.00  0.00    -0.180 N 
ATOM      2  N   UNL     1       1.395   2.656   0.449  0.00  0.00    -0.151 NA
ATOM      3  N   UNL     1      -0.675   1.498  -0.019  0.00  0.00    -0.187 NA
ATOM      4  C   UNL     1       1.382   0.330  -0.178  0.00  0.00    +0.126 C 
ATOM      5  C   UNL     1       2.321  -0.656  -0.373  0.00  0.00    +0.034 C 
ATOM      6  C   UNL     1       3.590  -0.072  -0.121  0.00  0.00    +0.153 C 
ATOM      7  C   UNL     1       3.382   1.249   0.219  0.00  0.00    +0.126 C 
ATOM      8  C   UNL     1      -0.034   0.402  -0.266  0.00  0.00    +0.247 C 
ATOM      9  C   UNL     1       2.114  -2.065  -0.768  0.00  0.00    +0.036 C 
ATOM     10  C   UNL     1       0.094   2.597   0.335  0.00  0.00    +0.220 C 
ENDROOT
BRANCH   6  11
ATOM     11  O   UNL     1       4.796  -0.654  -0.187  0.00  0.00    -0.472 OA
BRANCH  11  12
ATOM     12  C   UNL     1       5.933   0.161   0.118  0.00  0.00    +0.234 C 
BRANCH  12  13
ATOM     13  C   UNL     1       7.197  -0.675  -0.034  0.00  0.00    +0.154 C 
ATOM     14  C   UNL     1       8.441   0.130   0.307  0.00  0.00    +0.036 C 
BRANCH  13  15
ATOM     15  O   UNL     1       7.108  -1.788   0.855  0.00  0.00    -0.381 OA
ATOM     16  H   UNL     1       6.317  -2.307   0.645  0.00  0.00    +0.210 HD
ENDBRANCH  13  15
ENDBRANCH  12  13
ENDBRANCH  11  12
ENDBRANCH   6  11
BRANCH   8  17
ATOM     17  O   UNL     1      -0.700  -0.722  -0.618  0.00  0.00    -0.433 OA
BRANCH  17  22
ATOM     18  F   UNL     1      -2.235  -1.123   1.624  0.00  0.00    -0.201 F 
ATOM     19  N   UNL     1      -6.126   0.062  -0.560  0.00  0.00    -0.316 N 
ATOM     20  C   UNL     1      -4.207  -0.498   0.431  0.00  0.00    +0.045 C 
ATOM     21  C   UNL     1      -4.773  -0.077  -0.775  0.00  0.00    +0.050 C 
ATOM     22  C   UNL     1      -2.046  -0.511  -0.663  0.00  0.00    +0.175 C 
ATOM     23  C   UNL     1      -6.434  -0.255   0.736  0.00  0.00    +0.026 C 
ATOM     24  C   UNL     1      -2.816  -0.719   0.486  0.00  0.00    +0.176 C 
ATOM     25  C   UNL     1      -5.267  -0.606   1.374  0.00  0.00    +0.014 C 
ATOM     26  C   UNL     1      -4.015   0.135  -1.932  0.00  0.00    +0.018 C 
ATOM     27  C   UNL     1      -2.638  -0.091  -1.853  0.00  0.00    +0.041 C 
ATOM     28  C   UNL     1      -7.821  -0.189   1.232  0.00  0.00    +0.047 C 
ATOM     29  H   UNL     1      -6.777   0.349  -1.240  0.00  0.00    +0.152 HD
ENDBRANCH  17  22
ENDBRANCH   8  17
TORSDOF 6
