REMARK  Name = 25273230
REMARK  3 active torsions:
REMARK  status: ('A' for Active; 'I' for Inactive)
REMARK    1  A    between atoms: N_3  and  C_22
REMARK    2  A    between atoms: C_4  and  N_13
REMARK    3  A    between atoms: C_12  and  C_30
REMARK                            x       y       z     vdW  Elec       q    Type
REMARK                         _______ _______ _______ _____ _____    ______ ____
ROOT
ATOM      1  F   UNL     1      -2.751   3.246   0.257  0.00  0.00    -0.203 F 
ATOM      2  O   UNL     1       2.258   3.616   0.255  0.00  0.00    -0.286 OA
ATOM      3  N   UNL     1       1.495  -0.405  -0.048  0.00  0.00    -0.264 N 
ATOM      4  C   UNL     1      -2.004   1.004   0.047  0.00  0.00    +0.077 C 
ATOM      5  C   UNL     1      -0.949   0.089  -0.033  0.00  0.00    +0.032 C 
ATOM      6  C   UNL     1       0.391   0.513   0.032  0.00  0.00    +0.060 C 
ATOM      7  C   UNL     1      -1.744   2.364   0.180  0.00  0.00    +0.153 C 
ATOM      8  C   UNL     1       0.629   1.901   0.137  0.00  0.00    +0.055 C 
ATOM      9  C   UNL     1      -0.429   2.817   0.219  0.00  0.00    +0.035 C 
ATOM     10  C   UNL     1       2.018   2.421   0.136  0.00  0.00    +0.204 C 
ATOM     11  C   UNL     1       2.778   0.136  -0.101  0.00  0.00    +0.079 C 
ATOM     12  C   UNL     1       3.104   1.429  -0.024  0.00  0.00    +0.134 C 
ENDROOT
BRANCH   4  13
ATOM     13  N   UNL     1      -3.325   0.545  -0.007  0.00  0.00    -0.310 N 
ATOM     14  N   UNL     1      -5.947  -0.454  -0.298  0.00  0.00    +0.386 N 
ATOM     15  C   UNL     1      -4.176   1.045  -1.098  0.00  0.00    +0.068 C 
ATOM     16  C   UNL     1      -3.649  -0.792   0.503  0.00  0.00    +0.068 C 
ATOM     17  C   UNL     1      -5.646   0.944  -0.722  0.00  0.00    -0.060 C 
ATOM     18  C   UNL     1      -5.124  -0.886   0.868  0.00  0.00    -0.060 C 
ATOM     19  H   UNL     1      -5.759  -1.081  -1.080  0.00  0.00    -0.084 HD
ATOM     20  H   UNL     1      -6.926  -0.489  -0.016  0.00  0.00    -0.084 HD
ENDBRANCH   4  13
BRANCH   3  22
ATOM     21  F   UNL     1       0.971  -5.942   0.028  0.00  0.00    -0.204 F 
ATOM     22  C   UNL     1       1.361  -1.832  -0.029  0.00  0.00    +0.056 C 
ATOM     23  C   UNL     1       0.777  -2.461   1.070  0.00  0.00    +0.017 C 
ATOM     24  C   UNL     1       1.812  -2.590  -1.109  0.00  0.00    +0.017 C 
ATOM     25  C   UNL     1       0.645  -3.850   1.090  0.00  0.00    +0.031 C 
ATOM     26  C   UNL     1       1.680  -3.979  -1.089  0.00  0.00    +0.031 C 
ATOM     27  C   UNL     1       1.097  -4.609   0.010  0.00  0.00    +0.140 C 
ENDBRANCH   3  22
BRANCH  12  30
ATOM     28  O   UNL     1       5.012   2.062  -1.236  0.00  0.00    -0.240 OA
ATOM     29  O   UNL     1       5.155   1.850   1.038  0.00  0.00    -0.240 OA
ATOM     30  C   UNL     1       4.564   1.818  -0.079  0.00  0.00    +0.392 C 
ENDBRANCH  12  30
TORSDOF 3
