REMARK  Name = 465951
REMARK  4 active torsions:
REMARK  status: ('A' for Active; 'I' for Inactive)
REMARK    1  A    between atoms: C_2  and  N_16
REMARK    2  A    between atoms: C_3  and  N_9
REMARK    3  A    between atoms: C_17  and  C_20
REMARK    4  A    between atoms: C_20  and  N_22
REMARK                            x       y       z     vdW  Elec       q    Type
REMARK                         _______ _______ _______ _____ _____    ______ ____
ROOT
ATOM      1  F   UNL     1      -2.993   2.156   0.115  0.00  0.00    -0.203 F 
ATOM      2  C   UNL     1      -0.048   0.082  -0.378  0.00  0.00    +0.059 C 
ATOM      3  C   UNL     1      -2.840  -0.209  -0.051  0.00  0.00    +0.076 C 
ATOM      4  C   UNL     1      -0.852   1.209  -0.208  0.00  0.00    +0.046 C 
ATOM      5  C   UNL     1      -0.623  -1.189  -0.386  0.00  0.00    +0.016 C 
ATOM      6  C   UNL     1      -2.230   1.066  -0.047  0.00  0.00    +0.155 C 
ATOM      7  C   UNL     1      -2.001  -1.333  -0.224  0.00  0.00    +0.018 C 
ENDROOT
BRANCH   3   9
ATOM      8  S   UNL     1      -7.311  -0.678   0.581  0.00  0.00    -0.137 S 
ATOM      9  N   UNL     1      -4.223  -0.356   0.112  0.00  0.00    -0.304 N 
ATOM     10  C   UNL     1      -4.800   0.157   1.364  0.00  0.00    +0.102 C 
ATOM     11  C   UNL     1      -4.903  -1.494  -0.518  0.00  0.00    +0.102 C 
ATOM     12  C   UNL     1      -6.225   0.655   1.159  0.00  0.00    +0.079 C 
ATOM     13  C   UNL     1      -6.346  -1.155  -0.878  0.00  0.00    +0.079 C 
ENDBRANCH   3   9
BRANCH   2  16
ATOM     14  O   UNL     1       3.422   1.118  -0.749  0.00  0.00    -0.434 OA
ATOM     15  O   UNL     1       1.702   2.568  -0.461  0.00  0.00    -0.226 OA
ATOM     16  N   UNL     1       1.359   0.228  -0.543  0.00  0.00    -0.221 N 
ATOM     17  C   UNL     1       3.611  -0.298  -0.626  0.00  0.00    +0.210 C 
ATOM     18  C   UNL     1       2.228  -0.880  -0.834  0.00  0.00    +0.147 C 
ATOM     19  C   UNL     1       2.091   1.412  -0.560  0.00  0.00    +0.409 C 
BRANCH  17  20
ATOM     20  C   UNL     1       4.188  -0.600   0.750  0.00  0.00    +0.135 C 
BRANCH  20  22
ATOM     21  O   UNL     1       6.731  -1.847   0.116  0.00  0.00    -0.275 OA
ATOM     22  N   UNL     1       5.496  -0.034   0.899  0.00  0.00    -0.301 N 
ATOM     23  C   UNL     1       6.667  -0.706   0.568  0.00  0.00    +0.223 C 
ATOM     24  C   UNL     1       7.899   0.127   0.799  0.00  0.00    +0.095 C 
ATOM     25  H   UNL     1       5.569   0.881   1.255  0.00  0.00    +0.150 HD
ENDBRANCH  20  22
ENDBRANCH  17  20
ENDBRANCH   2  16
TORSDOF 4
