REMARK  Name = 10083
REMARK  4 active torsions:
REMARK  status: ('A' for Active; 'I' for Inactive)
REMARK    1  A    between atoms: C_1  and  C_3
REMARK    2  A    between atoms: C_1  and  C_10
REMARK    3  A    between atoms: C_1  and  C_16
REMARK    4  A    between atoms: C_1  and  O_22
REMARK                            x       y       z     vdW  Elec       q    Type
REMARK                         _______ _______ _______ _____ _____    ______ ____
ROOT
ATOM      1  C   UNL     1      -0.039   0.052  -0.473  0.00  0.00    +0.108 C 
ENDROOT
BRANCH   1   3
ATOM      2  N   UNL     1      -2.465  -0.086  -0.250  0.00  0.00    +0.387 N 
ATOM      3  C   UNL     1      -1.274   0.648   0.198  0.00  0.00    -0.029 C 
ATOM      4  C   UNL     1      -1.399   2.141  -0.132  0.00  0.00    -0.018 C 
ATOM      5  C   UNL     1      -2.672   2.735   0.465  0.00  0.00    -0.004 C 
ATOM      6  C   UNL     1      -3.889   1.911   0.059  0.00  0.00    -0.023 C 
ATOM      7  C   UNL     1      -3.684   0.431   0.374  0.00  0.00    -0.082 C 
ATOM      8  H   UNL     1      -2.359  -1.070  -0.004  0.00  0.00    -0.084 HD
ATOM      9  H   UNL     1      -2.550   0.032  -1.260  0.00  0.00    -0.084 HD
ENDBRANCH   1   3
BRANCH   1  10
ATOM     10  C   UNL     1       0.070  -1.441  -0.116  0.00  0.00    +0.004 C 
ATOM     11  C   UNL     1       0.359  -1.779   1.182  0.00  0.00    -0.002 C 
ATOM     12  C   UNL     1      -0.129  -2.365  -1.111  0.00  0.00    -0.002 C 
ATOM     13  C   UNL     1       0.457  -3.132   1.507  0.00  0.00    -0.000 C 
ATOM     14  C   UNL     1      -0.030  -3.717  -0.786  0.00  0.00    -0.000 C 
ATOM     15  C   UNL     1       0.262  -4.101   0.523  0.00  0.00    -0.000 C 
ENDBRANCH   1  10
BRANCH   1  16
ATOM     16  C   UNL     1       1.286   0.778  -0.182  0.00  0.00    +0.004 C 
ATOM     17  C   UNL     1       2.225   0.844  -1.180  0.00  0.00    -0.002 C 
ATOM     18  C   UNL     1       1.467   1.327   1.063  0.00  0.00    -0.002 C 
ATOM     19  C   UNL     1       3.426   1.502  -0.916  0.00  0.00    -0.000 C 
ATOM     20  C   UNL     1       2.668   1.985   1.327  0.00  0.00    -0.000 C 
ATOM     21  C   UNL     1       3.647   2.073   0.337  0.00  0.00    -0.000 C 
ENDBRANCH   1  16
BRANCH   1  22
ATOM     22  O   UNL     1      -0.288   0.195  -1.888  0.00  0.00    -0.381 OA
ATOM     23  H   UNL     1      -1.118  -0.251  -2.117  0.00  0.00    +0.211 HD
ENDBRANCH   1  22
TORSDOF 4
