REMARK  Name = 5084146
REMARK  7 active torsions:
REMARK  status: ('A' for Active; 'I' for Inactive)
REMARK    1  A    between atoms: C_1  and  C_11
REMARK    2  A    between atoms: C_4  and  O_7
REMARK    3  A    between atoms: C_6  and  O_9
REMARK    4  A    between atoms: C_11  and  O_12
REMARK    5  A    between atoms: O_12  and  C_13
REMARK    6  A    between atoms: C_13  and  C_14
REMARK    7  A    between atoms: C_14  and  C_15
REMARK                            x       y       z     vdW  Elec       q    Type
REMARK                         _______ _______ _______ _____ _____    ______ ____
ROOT
ATOM      1  C   UNL     1      -0.517  -0.715  -0.565  0.00  0.00    +0.010 C 
ATOM      2  C   UNL     1      -1.286   0.417  -0.811  0.00  0.00    +0.038 C 
ATOM      3  C   UNL     1      -1.024  -1.767   0.190  0.00  0.00    +0.001 C 
ATOM      4  C   UNL     1      -2.581   0.497  -0.297  0.00  0.00    +0.172 C 
ATOM      5  C   UNL     1      -2.318  -1.686   0.704  0.00  0.00    +0.040 C 
ATOM      6  C   UNL     1      -3.096  -0.555   0.461  0.00  0.00    +0.168 C 
ENDROOT
BRANCH   4   7
ATOM      7  O   UNL     1      -3.331   1.607  -0.541  0.00  0.00    -0.468 OA
ATOM      8  C   UNL     1      -3.236   2.675   0.399  0.00  0.00    +0.253 C 
ENDBRANCH   4   7
BRANCH   6   9
ATOM      9  O   UNL     1      -4.359  -0.488   0.968  0.00  0.00    -0.503 OA
ATOM     10  H   UNL     1      -4.888   0.268   0.809  0.00  0.00    +0.292 HD
ENDBRANCH   6   9
BRANCH   1  11
ATOM     11  C   UNL     1       0.875  -0.801  -1.118  0.00  0.00    +0.169 C 
BRANCH  11  12
ATOM     12  O   UNL     1       1.785  -0.257  -0.171  0.00  0.00    -0.349 OA
BRANCH  12  13
ATOM     13  C   UNL     1       3.124  -0.312  -0.642  0.00  0.00    +0.143 C 
BRANCH  13  14
ATOM     14  C   UNL     1       4.045   0.265   0.423  0.00  0.00    +0.032 C 
BRANCH  14  15
ATOM     15  C   UNL     1       5.504   0.252  -0.025  0.00  0.00    +0.003 C 
ATOM     16  C   UNL     1       6.415   0.868   1.025  0.00  0.00    +0.000 C 
ENDBRANCH  14  15
ENDBRANCH  13  14
ENDBRANCH  12  13
ENDBRANCH  11  12
ENDBRANCH   1  11
TORSDOF 7
