REMARK  Name = 46239015
REMARK  3 active torsions:
REMARK  status: ('A' for Active; 'I' for Inactive)
REMARK    1  A    between atoms: C_5  and  C_12
REMARK    2  A    between atoms: C_8  and  N_25
REMARK    3  A    between atoms: C_9  and  C_21
REMARK                            x       y       z     vdW  Elec       q    Type
REMARK                         _______ _______ _______ _____ _____    ______ ____
ROOT
ATOM      1 BR   UNL     1      -4.041   1.983  -0.210  0.00  0.00    -0.044 Br
ATOM      2  N   UNL     1      -0.359   0.028  -0.107  0.00  0.00    -0.393 NA
ATOM      3  N   UNL     1       0.069   2.390   0.005  0.00  0.00    -0.152 N 
ATOM      4  N   UNL     1       1.124   3.251   0.091  0.00  0.00    -0.173 NA
ATOM      5  C   UNL     1      -1.627   0.316  -0.158  0.00  0.00    +0.116 C 
ATOM      6  C   UNL     1      -2.198   1.711  -0.131  0.00  0.00    +0.089 C 
ATOM      7  C   UNL     1       0.509   1.068  -0.025  0.00  0.00    +0.193 C 
ATOM      8  C   UNL     1      -1.298   2.712  -0.048  0.00  0.00    +0.128 C 
ATOM      9  C   UNL     1       1.883   1.108   0.043  0.00  0.00    +0.137 C 
ATOM     10  C   UNL     1       2.200   2.469   0.111  0.00  0.00    +0.105 C 
ENDROOT
BRANCH   5  12
ATOM     11  N   UNL     1      -2.739  -3.181  -1.069  0.00  0.00    +0.384 N 
ATOM     12  C   UNL     1      -2.567  -0.847  -0.246  0.00  0.00    +0.032 C 
ATOM     13  C   UNL     1      -2.978  -1.293   1.157  0.00  0.00    +0.003 C 
ATOM     14  C   UNL     1      -1.890  -1.988  -1.011  0.00  0.00    -0.075 C 
ATOM     15  C   UNL     1      -3.794  -2.582   1.092  0.00  0.00    -0.023 C 
ATOM     16  C   UNL     1      -3.071  -3.653   0.277  0.00  0.00    -0.082 C 
ATOM     17  H   UNL     1      -2.243  -3.919  -1.569  0.00  0.00    -0.085 HD
ATOM     18  H   UNL     1      -3.604  -2.942  -1.553  0.00  0.00    -0.085 HD
ENDBRANCH   5  12
BRANCH   9  21
ATOM     19  N   UNL     1       3.817  -1.931   0.018  0.00  0.00    -0.209 N 
ATOM     20  N   UNL     1       4.840  -1.063   0.101  0.00  0.00    -0.177 NA
ATOM     21  C   UNL     1       2.827   0.017   0.046  0.00  0.00    +0.028 C 
ATOM     22  C   UNL     1       2.590  -1.335  -0.018  0.00  0.00    +0.082 C 
ATOM     23  C   UNL     1       4.229   0.125   0.118  0.00  0.00    +0.116 C 
ATOM     24  C   UNL     1       4.082  -3.349  -0.023  0.00  0.00    +0.140 C 
ENDBRANCH   9  21
BRANCH   8  25
ATOM     25  N   UNL     1      -1.609   4.045  -0.012  0.00  0.00    -0.344 N 
ATOM     26  H   UNL     1      -0.892   4.716   0.049  0.00  0.00    +0.144 HD
ATOM     27  H   UNL     1      -2.551   4.331  -0.047  0.00  0.00    +0.144 HD
ENDBRANCH   8  25
TORSDOF 3
