REMARK  Name = 42690
REMARK  9 active torsions:
REMARK  status: ('A' for Active; 'I' for Inactive)
REMARK    1  A    between atoms: C_1  and  N_22
REMARK    2  A    between atoms: C_2  and  N_8
REMARK    3  A    between atoms: C_4  and  S_28
REMARK    4  A    between atoms: N_10  and  C_18
REMARK    5  A    between atoms: C_12  and  O_15
REMARK    6  A    between atoms: C_18  and  O_19
REMARK    7  A    between atoms: C_23  and  C_25
REMARK    8  A    between atoms: C_25  and  O_26
REMARK    9  A    between atoms: S_28  and  C_29
REMARK                            x       y       z     vdW  Elec       q    Type
REMARK                         _______ _______ _______ _____ _____    ______ ____
ROOT
ATOM      1  C   UNL     1      -0.614  -0.500  -0.783  0.00  0.00    +0.067 C 
ATOM      2  C   UNL     1       0.471   0.358  -0.961  0.00  0.00    +0.072 C 
ATOM      3  C   UNL     1      -1.903  -0.068  -1.095  0.00  0.00    +0.023 C 
ATOM      4  C   UNL     1      -2.107   1.222  -1.585  0.00  0.00    +0.031 C 
ATOM      5  C   UNL     1       0.267   1.648  -1.451  0.00  0.00    +0.019 C 
ATOM      6  C   UNL     1      -1.022   2.080  -1.763  0.00  0.00    +0.008 C 
ENDROOT
BRANCH   2   8
ATOM      7  O   UNL     1       3.521  -2.253  -0.488  0.00  0.00    -0.226 OA
ATOM      8  N   UNL     1       1.785  -0.057  -0.651  0.00  0.00    -0.327 N 
ATOM      9  N   UNL     1       4.061  -0.040   0.044  0.00  0.00    -0.223 N 
ATOM     10  N   UNL     1       2.837   1.974  -0.020  0.00  0.00    -0.111 NA
ATOM     11  C   UNL     1       2.875   0.682  -0.218  0.00  0.00    +0.197 C 
ATOM     12  C   UNL     1       4.314  -1.405  -0.096  0.00  0.00    +0.407 C 
ATOM     13  H   UNL     1       1.952  -1.021  -0.758  0.00  0.00    +0.168 HD
ATOM     14  H   UNL     1       4.817   0.497   0.374  0.00  0.00    +0.161 HD
BRANCH  12  15
ATOM     15  O   UNL     1       5.605  -1.665   0.272  0.00  0.00    -0.430 OA
ATOM     16  C   UNL     1       6.017  -3.034   0.179  0.00  0.00    +0.257 C 
ENDBRANCH  12  15
BRANCH  10  18
ATOM     17  O   UNL     1       5.011   2.751  -0.212  0.00  0.00    -0.224 OA
ATOM     18  C   UNL     1       3.945   2.672   0.389  0.00  0.00    +0.428 C 
BRANCH  18  19
ATOM     19  O   UNL     1       3.670   3.309   1.566  0.00  0.00    -0.429 OA
ATOM     20  C   UNL     1       4.727   4.115   2.100  0.00  0.00    +0.257 C 
ENDBRANCH  18  19
ENDBRANCH  10  18
ENDBRANCH   2   8
BRANCH   1  22
ATOM     21  O   UNL     1      -2.618  -2.677  -0.236  0.00  0.00    -0.272 OA
ATOM     22  N   UNL     1      -0.433  -1.797  -0.294  0.00  0.00    -0.281 N 
ATOM     23  C   UNL     1      -1.407  -2.775  -0.061  0.00  0.00    +0.256 C 
ATOM     24  H   UNL     1       0.495  -2.055  -0.088  0.00  0.00    +0.155 HD
BRANCH  23  25
ATOM     25  C   UNL     1      -0.809  -4.058   0.474  0.00  0.00    +0.227 C 
BRANCH  25  26
ATOM     26  O   UNL     1      -1.849  -4.990   0.689  0.00  0.00    -0.342 OA
ATOM     27  C   UNL     1      -1.356  -6.227   1.195  0.00  0.00    +0.175 C 
ENDBRANCH  25  26
ENDBRANCH  23  25
ENDBRANCH   1  22
BRANCH   4  28
ATOM     28  S   UNL     1      -3.753   1.774  -1.985  0.00  0.00    -0.087 S 
BRANCH  28  29
ATOM     29  C   UNL     1      -4.569   1.616  -0.403  0.00  0.00    +0.029 C 
ATOM     30  C   UNL     1      -5.673   0.775  -0.269  0.00  0.00    +0.006 C 
ATOM     31  C   UNL     1      -4.102   2.335   0.697  0.00  0.00    +0.006 C 
ATOM     32  C   UNL     1      -6.310   0.652   0.966  0.00  0.00    +0.001 C 
ATOM     33  C   UNL     1      -4.739   2.212   1.932  0.00  0.00    +0.001 C 
ATOM     34  C   UNL     1      -5.843   1.371   2.067  0.00  0.00    +0.000 C 
ENDBRANCH  28  29
ENDBRANCH   4  28
TORSDOF 9
