REMARK  Name = 6634
REMARK  3 active torsions:
REMARK  status: ('A' for Active; 'I' for Inactive)
REMARK    1  A    between atoms: S_1  and  N_5
REMARK    2  A    between atoms: S_1  and  C_13
REMARK    3  A    between atoms: C_16  and  N_19
REMARK                            x       y       z     vdW  Elec       q    Type
REMARK                         _______ _______ _______ _____ _____    ______ ____
ROOT
ATOM      1  S   UNL     1      -0.754  -2.209   0.209  0.00  0.00    +0.075 S 
ATOM      2  O   UNL     1      -1.664  -3.158  -0.422  0.00  0.00    -0.150 OA
ATOM      3  O   UNL     1      -0.299  -2.470   1.569  0.00  0.00    -0.150 OA
ENDROOT
BRANCH   1   5
ATOM      4 CL   UNL     1       4.252   2.335   0.453  0.00  0.00    -0.059 Cl
ATOM      5  N   UNL     1       0.608  -2.006  -0.826  0.00  0.00    -0.197 N 
ATOM      6  N   UNL     1       2.200  -0.951   0.565  0.00  0.00    -0.131 NA
ATOM      7  N   UNL     1       3.050   0.070   0.854  0.00  0.00    -0.135 NA
ATOM      8  C   UNL     1       1.489  -0.896  -0.575  0.00  0.00    +0.169 C 
ATOM      9  C   UNL     1       1.567   0.138  -1.477  0.00  0.00    +0.040 C 
ATOM     10  C   UNL     1       2.433   1.177  -1.183  0.00  0.00    +0.036 C 
ATOM     11  C   UNL     1       3.154   1.104  -0.008  0.00  0.00    +0.160 C 
ATOM     12  H   UNL     1       0.779  -2.631  -1.567  0.00  0.00    +0.175 HD
ENDBRANCH   1   5
BRANCH   1  13
ATOM     13  C   UNL     1      -1.512  -0.636   0.165  0.00  0.00    +0.125 C 
ATOM     14  C   UNL     1      -2.481  -0.355  -0.798  0.00  0.00    +0.021 C 
ATOM     15  C   UNL     1      -1.148   0.339   1.094  0.00  0.00    +0.021 C 
ATOM     16  C   UNL     1      -2.722   1.876   0.095  0.00  0.00    +0.042 C 
ATOM     17  C   UNL     1      -3.085   0.901  -0.833  0.00  0.00    +0.015 C 
ATOM     18  C   UNL     1      -1.753   1.595   1.059  0.00  0.00    +0.015 C 
BRANCH  16  19
ATOM     19  N   UNL     1      -3.334   3.147   0.060  0.00  0.00    -0.357 N 
ATOM     20  H   UNL     1      -4.018   3.345  -0.619  0.00  0.00    +0.142 HD
ATOM     21  H   UNL     1      -3.078   3.835   0.716  0.00  0.00    +0.142 HD
ENDBRANCH  16  19
ENDBRANCH   1  13
TORSDOF 3
