REMARK  Name = 25166913
REMARK  4 active torsions:
REMARK  status: ('A' for Active; 'I' for Inactive)
REMARK    1  A    between atoms: C_2  and  C_11
REMARK    2  A    between atoms: C_3  and  N_21
REMARK    3  A    between atoms: N_22  and  C_26
REMARK    4  A    between atoms: C_31  and  C_33
REMARK                            x       y       z     vdW  Elec       q    Type
REMARK                         _______ _______ _______ _____ _____    ______ ____
ROOT
ATOM      1  N   UNL     1       2.322  -2.099   1.019  0.00  0.00    +0.389 N 
ATOM      2  C   UNL     1       2.222  -0.772   0.358  0.00  0.00    -0.019 C 
ATOM      3  C   UNL     1       0.140  -1.572  -0.916  0.00  0.00    +0.069 C 
ATOM      4  C   UNL     1       1.497  -0.873  -1.006  0.00  0.00    +0.002 C 
ATOM      5  C   UNL     1       0.285  -2.898  -0.177  0.00  0.00    -0.003 C 
ATOM      6  C   UNL     1       0.998  -2.729   1.165  0.00  0.00    -0.076 C 
ATOM      7  C   UNL     1       2.946  -2.004   2.346  0.00  0.00    -0.100 C 
ATOM      8  H   UNL     1       2.909  -2.673   0.414  0.00  0.00    -0.080 HD
ENDROOT
BRANCH   2  11
ATOM      9  N   UNL     1       3.874   1.108   0.677  0.00  0.00    -0.320 N 
ATOM     10  N   UNL     1       4.574  -0.582  -0.586  0.00  0.00    -0.320 N 
ATOM     11  C   UNL     1       3.577  -0.107   0.127  0.00  0.00    +0.124 C 
ATOM     12  C   UNL     1       5.149   1.440   0.294  0.00  0.00    +0.059 C 
ATOM     13  C   UNL     1       5.564   0.370  -0.493  0.00  0.00    +0.059 C 
ATOM     14  C   UNL     1       5.950   2.551   0.561  0.00  0.00    +0.016 C 
ATOM     15  C   UNL     1       6.851   0.392  -1.055  0.00  0.00    +0.016 C 
ATOM     16  C   UNL     1       7.228   2.557  -0.007  0.00  0.00    +0.001 C 
ATOM     17  C   UNL     1       7.673   1.497  -0.801  0.00  0.00    +0.001 C 
ATOM     18  H   UNL     1       3.280   1.649   1.246  0.00  0.00    +0.148 HD
ATOM     19  H   UNL     1       4.606  -1.433  -1.079  0.00  0.00    +0.148 HD
ENDBRANCH   2  11
BRANCH   3  21
ATOM     20  O   UNL     1      -2.679  -1.545  -1.454  0.00  0.00    -0.252 OA
ATOM     21  N   UNL     1      -0.853  -0.729  -0.293  0.00  0.00    -0.290 N 
ATOM     22  N   UNL     1      -2.925   0.152   0.149  0.00  0.00    -0.268 N 
ATOM     23  C   UNL     1      -2.214  -0.778  -0.614  0.00  0.00    +0.304 C 
ATOM     24  H   UNL     1      -0.557  -0.086   0.392  0.00  0.00    +0.151 HD
ATOM     25  H   UNL     1      -2.395   0.690   0.780  0.00  0.00    +0.156 HD
BRANCH  22  26
ATOM     26  C   UNL     1      -4.315   0.413   0.126  0.00  0.00    +0.052 C 
ATOM     27  C   UNL     1      -4.857   1.387   0.965  0.00  0.00    +0.015 C 
ATOM     28  C   UNL     1      -5.144  -0.303  -0.737  0.00  0.00    +0.015 C 
ATOM     29  C   UNL     1      -6.228   1.644   0.942  0.00  0.00    +0.012 C 
ATOM     30  C   UNL     1      -6.515  -0.046  -0.761  0.00  0.00    +0.012 C 
ATOM     31  C   UNL     1      -7.057   0.927   0.079  0.00  0.00    +0.069 C 
BRANCH  31  33
ATOM     32  N   UNL     1      -9.601   1.406   0.036  0.00  0.00    -0.191 NA
ATOM     33  C   UNL     1      -8.461   1.191   0.055  0.00  0.00    +0.100 C 
ENDBRANCH  31  33
ENDBRANCH  22  26
ENDBRANCH   3  21
TORSDOF 4
