REMARK  Name = 56832738
REMARK  10 active torsions:
REMARK  status: ('A' for Active; 'I' for Inactive)
REMARK    1  A    between atoms: C_2  and  C_11
REMARK    2  A    between atoms: C_5  and  C_25
REMARK    3  A    between atoms: C_10  and  C_22
REMARK    4  A    between atoms: C_12  and  O_16
REMARK    5  A    between atoms: C_13  and  O_18
REMARK    6  A    between atoms: C_14  and  O_20
REMARK    7  A    between atoms: C_22  and  O_23
REMARK    8  A    between atoms: C_25  and  C_27
REMARK    9  A    between atoms: C_32  and  O_33
REMARK   10  A    between atoms: O_33  and  C_34
REMARK                            x       y       z     vdW  Elec       q    Type
REMARK                         _______ _______ _______ _____ _____    ______ ____
ROOT
ATOM      1 CL   UNL     1       2.178   4.070  -0.662  0.00  0.00    -0.083 Cl
ATOM      2  C   UNL     1      -1.417   1.351  -0.401  0.00  0.00    +0.031 C 
ATOM      3  C   UNL     1      -0.391   1.225   0.535  0.00  0.00    -0.003 C 
ATOM      4  C   UNL     1      -1.329   2.313  -1.407  0.00  0.00    +0.001 C 
ATOM      5  C   UNL     1       0.724   2.060   0.464  0.00  0.00    -0.007 C 
ATOM      6  C   UNL     1      -0.214   3.148  -1.478  0.00  0.00    +0.011 C 
ATOM      7  C   UNL     1       0.813   3.022  -0.542  0.00  0.00    +0.054 C 
ENDROOT
BRANCH   2  11
ATOM      8  O   UNL     1      -2.303  -0.850   0.220  0.00  0.00    -0.326 OA
ATOM      9  O   UNL     1      -3.159   0.227  -1.651  0.00  0.00    -0.326 OA
ATOM     10  C   UNL     1      -3.344  -1.681  -0.309  0.00  0.00    +0.176 C 
ATOM     11  C   UNL     1      -2.629   0.444  -0.324  0.00  0.00    +0.235 C 
ATOM     12  C   UNL     1      -4.637  -1.381   0.493  0.00  0.00    +0.169 C 
ATOM     13  C   UNL     1      -3.764   1.026   0.550  0.00  0.00    +0.196 C 
ATOM     14  C   UNL     1      -5.009   0.117   0.524  0.00  0.00    +0.172 C 
ATOM     15  C   UNL     1      -3.386  -1.186  -1.747  0.00  0.00    +0.177 C 
BRANCH  12  16
ATOM     16  O   UNL     1      -4.439  -1.818   1.841  0.00  0.00    -0.379 OA
ATOM     17  H   UNL     1      -4.204  -2.759   1.845  0.00  0.00    +0.211 HD
ENDBRANCH  12  16
BRANCH  13  18
ATOM     18  O   UNL     1      -3.315   1.153   1.899  0.00  0.00    -0.377 OA
ATOM     19  H   UNL     1      -2.531   1.724   1.926  0.00  0.00    +0.211 HD
ENDBRANCH  13  18
BRANCH  14  20
ATOM     20  O   UNL     1      -5.773   0.436  -0.640  0.00  0.00    -0.379 OA
ATOM     21  H   UNL     1      -6.561  -0.128  -0.674  0.00  0.00    +0.211 HD
ENDBRANCH  14  20
BRANCH  10  22
ATOM     22  C   UNL     1      -2.926  -3.143  -0.215  0.00  0.00    +0.169 C 
BRANCH  22  23
ATOM     23  O   UNL     1      -3.868  -3.928  -0.925  0.00  0.00    -0.379 OA
ATOM     24  H   UNL     1      -3.614  -4.863  -0.873  0.00  0.00    +0.211 HD
ENDBRANCH  22  23
ENDBRANCH  10  22
ENDBRANCH   2  11
BRANCH   5  25
ATOM     25  C   UNL     1       1.803   1.892   1.485  0.00  0.00    +0.054 C 
BRANCH  25  27
ATOM     26  F   UNL     1       3.411  -2.688   0.935  0.00  0.00    -0.201 F 
ATOM     27  C   UNL     1       2.879   0.906   1.081  0.00  0.00    -0.015 C 
ATOM     28  C   UNL     1       2.648  -0.465   1.195  0.00  0.00    +0.029 C 
ATOM     29  C   UNL     1       4.102   1.369   0.596  0.00  0.00    -0.001 C 
ATOM     30  C   UNL     1       3.639  -1.372   0.823  0.00  0.00    +0.174 C 
ATOM     31  C   UNL     1       5.093   0.462   0.224  0.00  0.00    +0.039 C 
ATOM     32  C   UNL     1       4.862  -0.909   0.338  0.00  0.00    +0.166 C 
BRANCH  32  33
ATOM     33  O   UNL     1       5.831  -1.794  -0.025  0.00  0.00    -0.473 OA
BRANCH  33  34
ATOM     34  C   UNL     1       6.723  -1.389  -1.063  0.00  0.00    +0.206 C 
ATOM     35  C   UNL     1       7.197  -2.617  -1.811  0.00  0.00    +0.051 C 
ENDBRANCH  33  34
ENDBRANCH  32  33
ENDBRANCH  25  27
ENDBRANCH   5  25
TORSDOF 10
