REMARK  Name = 65036
REMARK  5 active torsions:
REMARK  status: ('A' for Active; 'I' for Inactive)
REMARK    1  A    between atoms: S_1  and  S_3
REMARK    2  A    between atoms: S_1  and  C_7
REMARK    3  A    between atoms: S_3  and  C_4
REMARK    4  A    between atoms: C_4  and  C_5
REMARK    5  A    between atoms: C_7  and  C_8
REMARK                            x       y       z     vdW  Elec       q    Type
REMARK                         _______ _______ _______ _____ _____    ______ ____
ROOT
ATOM      1  S   UNL     1      -0.875   1.080  -0.488  0.00  0.00    +0.097 S 
ATOM      2  O   UNL     1      -0.554   2.377   0.194  0.00  0.00    -0.245 OA
ENDROOT
BRANCH   1   3
ATOM      3  S   UNL     1       0.463  -0.157   0.469  0.00  0.00    -0.045 S 
BRANCH   3   4
ATOM      4  C   UNL     1       2.038   0.424  -0.200  0.00  0.00    +0.097 C 
BRANCH   4   5
ATOM      5  C   UNL     1       3.167  -0.364   0.382  0.00  0.00    -0.014 C 
ATOM      6  C   UNL     1       4.030  -1.081  -0.347  0.00  0.00    -0.004 C 
ENDBRANCH   4   5
ENDBRANCH   3   4
ENDBRANCH   1   3
BRANCH   1   7
ATOM      7  C   UNL     1      -2.439   0.483   0.195  0.00  0.00    +0.129 C 
BRANCH   7   8
ATOM      8  C   UNL     1      -2.823  -0.812  -0.441  0.00  0.00    -0.011 C 
ATOM      9  C   UNL     1      -3.006  -1.951   0.237  0.00  0.00    -0.004 C 
ENDBRANCH   7   8
ENDBRANCH   1   7
TORSDOF 5
