REMARK  Name = 16662431
REMARK  6 active torsions:
REMARK  status: ('A' for Active; 'I' for Inactive)
REMARK    1  A    between atoms: N_2  and  C_26
REMARK    2  A    between atoms: C_10  and  C_16
REMARK    3  A    between atoms: C_26  and  C_27
REMARK    4  A    between atoms: C_27  and  N_28
REMARK    5  A    between atoms: N_28  and  C_30
REMARK    6  A    between atoms: N_28  and  C_32
REMARK                            x       y       z     vdW  Elec       q    Type
REMARK                         _______ _______ _______ _____ _____    ______ ____
ROOT
ATOM      1  O   UNL     1       2.626   0.291   1.756  0.00  0.00    -0.270 OA
ATOM      2  N   UNL     1       3.380  -0.631  -0.258  0.00  0.00    -0.278 N 
ATOM      3  N   UNL     1      -0.550  -0.372  -1.447  0.00  0.00    -0.357 N 
ATOM      4  C   UNL     1       3.131  -0.832  -1.701  0.00  0.00    +0.100 C 
ATOM      5  C   UNL     1       1.721  -1.348  -2.013  0.00  0.00    +0.065 C 
ATOM      6  C   UNL     1       0.769  -0.592  -1.172  0.00  0.00    +0.039 A 
ATOM      7  C   UNL     1       1.074  -0.009   0.038  0.00  0.00    +0.062 A 
ATOM      8  C   UNL     1       2.408  -0.085   0.608  0.00  0.00    +0.250 C 
ATOM      9  C   UNL     1      -0.119   0.582   0.522  0.00  0.00    -0.001 A 
ATOM     10  C   UNL     1      -1.104   0.347  -0.417  0.00  0.00    +0.053 A 
ATOM     11  C   UNL     1      -0.289   1.312   1.796  0.00  0.00    +0.033 C 
ATOM     12  H   UNL     1      -1.026  -0.679  -2.252  0.00  0.00    +0.166 HD
ENDROOT
BRANCH  10  16
ATOM     13  F   UNL     1      -7.809   2.198  -0.991  0.00  0.00    -0.204 F 
ATOM     14  O   UNL     1      -2.245  -1.903   0.948  0.00  0.00    -0.270 OA
ATOM     15  N   UNL     1      -4.601  -1.752   1.032  0.00  0.00    -0.280 N 
ATOM     16  C   UNL     1      -2.464   0.684  -0.511  0.00  0.00    +0.021 C 
ATOM     17  C   UNL     1      -3.491  -0.049  -0.019  0.00  0.00    +0.056 C 
ATOM     18  C   UNL     1      -4.921   0.236  -0.079  0.00  0.00    +0.020 C 
ATOM     19  C   UNL     1      -5.548  -0.830   0.574  0.00  0.00    +0.051 C 
ATOM     20  C   UNL     1      -3.302  -1.349   0.708  0.00  0.00    +0.250 C 
ATOM     21  C   UNL     1      -5.664   1.270  -0.615  0.00  0.00    +0.031 C 
ATOM     22  C   UNL     1      -6.920  -0.906   0.716  0.00  0.00    +0.017 C 
ATOM     23  C   UNL     1      -7.055   1.213  -0.483  0.00  0.00    +0.140 C 
ATOM     24  C   UNL     1      -7.677   0.136   0.176  0.00  0.00    +0.031 C 
ATOM     25  H   UNL     1      -4.821  -2.579   1.519  0.00  0.00    +0.155 HD
ENDBRANCH  10  16
BRANCH   2  26
ATOM     26  C   UNL     1       4.758  -0.760   0.190  0.00  0.00    +0.071 C 
BRANCH  26  27
ATOM     27  C   UNL     1       5.575   0.469  -0.180  0.00  0.00    -0.055 C 
BRANCH  27  28
ATOM     28  N   UNL     1       6.943   0.332   0.303  0.00  0.00    +0.388 N 
ATOM     29  H   UNL     1       6.914   0.253   1.319  0.00  0.00    -0.080 HD
BRANCH  28  30
ATOM     30  C   UNL     1       7.736   1.512  -0.051  0.00  0.00    -0.077 C 
ATOM     31  C   UNL     1       7.110   2.780   0.504  0.00  0.00    -0.025 C 
ENDBRANCH  28  30
BRANCH  28  32
ATOM     32  C   UNL     1       7.564  -0.877  -0.241  0.00  0.00    -0.077 C 
ATOM     33  C   UNL     1       8.968  -1.068   0.307  0.00  0.00    -0.025 C 
ENDBRANCH  28  32
ENDBRANCH  27  28
ENDBRANCH  26  27
ENDBRANCH   2  26
TORSDOF 6
