REMARK  Name = 33309
REMARK  4 active torsions:
REMARK  status: ('A' for Active; 'I' for Inactive)
REMARK    1  A    between atoms: C_6  and  N_18
REMARK    2  A    between atoms: C_7  and  C_14
REMARK    3  A    between atoms: C_19  and  O_21
REMARK    4  A    between atoms: O_21  and  C_22
REMARK                            x       y       z     vdW  Elec       q    Type
REMARK                         _______ _______ _______ _____ _____    ______ ____
ROOT
ATOM      1  N   UNL     1       1.782   0.651  -0.140  0.00  0.00    -0.314 N 
ATOM      2  N   UNL     1       2.607  -1.390   0.163  0.00  0.00    -0.314 N 
ATOM      3  C   UNL     1       0.693  -0.181  -0.096  0.00  0.00    +0.061 C 
ATOM      4  C   UNL     1       1.234  -1.449   0.093  0.00  0.00    +0.059 C 
ATOM      5  C   UNL     1      -0.677   0.060  -0.203  0.00  0.00    +0.030 C 
ATOM      6  C   UNL     1      -1.521  -1.052  -0.111  0.00  0.00    +0.054 C 
ATOM      7  C   UNL     1       2.901  -0.117   0.019  0.00  0.00    +0.182 C 
ATOM      8  C   UNL     1       0.372  -2.555   0.184  0.00  0.00    +0.017 C 
ATOM      9  C   UNL     1      -1.008  -2.337   0.079  0.00  0.00    +0.016 C 
ATOM     10  H   UNL     1       1.761   1.628  -0.263  0.00  0.00    +0.149 HD
ATOM     11  H   UNL     1       3.233  -2.139   0.292  0.00  0.00    +0.149 HD
ENDROOT
BRANCH   7  14
ATOM     12  S   UNL     1       6.800   0.590   0.149  0.00  0.00    -0.108 S 
ATOM     13  N   UNL     1       4.519   1.774  -0.127  0.00  0.00    -0.263 NA
ATOM     14  C   UNL     1       4.273   0.424   0.028  0.00  0.00    +0.080 C 
ATOM     15  C   UNL     1       5.384  -0.377   0.191  0.00  0.00    +0.104 C 
ATOM     16  C   UNL     1       5.817   1.977  -0.080  0.00  0.00    +0.183 C 
ENDBRANCH   7  14
BRANCH   6  18
ATOM     17  O   UNL     1      -3.151   1.440  -0.514  0.00  0.00    -0.226 OA
ATOM     18  N   UNL     1      -2.902  -0.872  -0.210  0.00  0.00    -0.250 N 
ATOM     19  C   UNL     1      -3.611   0.311  -0.398  0.00  0.00    +0.405 C 
ATOM     20  H   UNL     1      -3.446  -1.690  -0.137  0.00  0.00    +0.158 HD
BRANCH  19  21
ATOM     21  O   UNL     1      -4.952   0.032  -0.436  0.00  0.00    -0.438 OA
BRANCH  21  22
ATOM     22  C   UNL     1      -5.823   1.066   0.036  0.00  0.00    +0.171 C 
ATOM     23  C   UNL     1      -7.266   0.609  -0.106  0.00  0.00    +0.047 C 
ATOM     24  C   UNL     1      -5.473   1.397   1.478  0.00  0.00    +0.047 C 
ENDBRANCH  21  22
ENDBRANCH  19  21
ENDBRANCH   6  18
TORSDOF 4
