REMARK  Name = 71571306
REMARK  4 active torsions:
REMARK  status: ('A' for Active; 'I' for Inactive)
REMARK    1  A    between atoms: N_3  and  C_19
REMARK    2  A    between atoms: C_5  and  C_11
REMARK    3  A    between atoms: C_12  and  O_17
REMARK    4  A    between atoms: C_19  and  C_22
REMARK                            x       y       z     vdW  Elec       q    Type
REMARK                         _______ _______ _______ _____ _____    ______ ____
ROOT
ATOM      1  S   UNL     1       3.838  -1.466  -1.329  0.00  0.00    -0.018 S 
ATOM      2  O   UNL     1       3.276   2.133   1.995  0.00  0.00    -0.270 OA
ATOM      3  N   UNL     1       1.387  -0.462  -0.503  0.00  0.00    -0.261 N 
ATOM      4  N   UNL     1       3.376   0.441   0.425  0.00  0.00    -0.263 N 
ATOM      5  C   UNL     1       0.661   0.433   0.297  0.00  0.00    +0.061 C 
ATOM      6  C   UNL     1       1.251   1.302   1.132  0.00  0.00    +0.073 C 
ATOM      7  C   UNL     1       2.798  -0.474  -0.452  0.00  0.00    +0.145 C 
ATOM      8  C   UNL     1       2.719   1.345   1.237  0.00  0.00    +0.252 C 
ATOM      9  H   UNL     1       4.359   0.444   0.472  0.00  0.00    +0.157 HD
ENDROOT
BRANCH   5  11
ATOM     10 CL   UNL     1      -3.790  -1.354   2.195  0.00  0.00    -0.082 Cl
ATOM     11  C   UNL     1      -0.796   0.462   0.260  0.00  0.00    +0.049 C 
ATOM     12  C   UNL     1      -1.475   1.291  -0.633  0.00  0.00    +0.140 C 
ATOM     13  C   UNL     1      -1.511  -0.355   1.135  0.00  0.00    +0.016 C 
ATOM     14  C   UNL     1      -2.870   1.302  -0.651  0.00  0.00    +0.038 C 
ATOM     15  C   UNL     1      -2.906  -0.344   1.117  0.00  0.00    +0.058 C 
ATOM     16  C   UNL     1      -3.585   0.485   0.224  0.00  0.00    +0.015 C 
BRANCH  12  17
ATOM     17  O   UNL     1      -0.801   2.100  -1.499  0.00  0.00    -0.471 OA
ATOM     18  C   UNL     1      -1.585   2.910  -2.371  0.00  0.00    +0.252 C 
ENDBRANCH  12  17
ENDBRANCH   5  11
BRANCH   3  19
ATOM     19  C   UNL     1       0.620  -1.366  -1.379  0.00  0.00    +0.182 C 
BRANCH  19  22
ATOM     20  O   UNL     1       0.550  -2.965   0.439  0.00  0.00    -0.273 OA
ATOM     21  N   UNL     1      -1.174  -2.934  -1.081  0.00  0.00    -0.327 N 
ATOM     22  C   UNL     1       0.018  -2.482  -0.557  0.00  0.00    +0.240 C 
ATOM     23  H   UNL     1      -1.665  -3.662  -0.634  0.00  0.00    +0.145 HD
ATOM     24  H   UNL     1      -1.536  -2.530  -1.903  0.00  0.00    +0.145 HD
ENDBRANCH  19  22
ENDBRANCH   3  19
TORSDOF 4
