REMARK  Name = 21071390
REMARK  9 active torsions:
REMARK  status: ('A' for Active; 'I' for Inactive)
REMARK    1  A    between atoms: N_1  and  C_4
REMARK    2  A    between atoms: N_1  and  C_17
REMARK    3  A    between atoms: C_4  and  C_5
REMARK    4  A    between atoms: C_5  and  C_8
REMARK    5  A    between atoms: C_17  and  C_18
REMARK    6  A    between atoms: C_21  and  O_24
REMARK    7  A    between atoms: O_24  and  C_25
REMARK    8  A    between atoms: C_25  and  C_28
REMARK    9  A    between atoms: C_28  and  C_31
REMARK                            x       y       z     vdW  Elec       q    Type
REMARK                         _______ _______ _______ _____ _____    ______ ____
ROOT
ATOM      1  N   UNL     1      -0.424  -1.709   0.250  0.00  0.00    +0.387 N 
ATOM      2  H   UNL     1      -0.335  -2.380   1.013  0.00  0.00    -0.084 HD
ATOM      3  H   UNL     1      -0.048  -0.802   0.527  0.00  0.00    -0.084 HD
ENDROOT
BRANCH   1   4
ATOM      4  C   UNL     1      -1.835  -1.548  -0.083  0.00  0.00    -0.076 C 
BRANCH   4   5
ATOM      5  C   UNL     1      -2.655  -1.047   1.121  0.00  0.00    +0.004 C 
BRANCH   5   8
ATOM      6  F   UNL     1      -7.450   3.055  -1.097  0.00  0.00    -0.204 F 
ATOM      7  N   UNL     1      -6.254  -1.356   0.586  0.00  0.00    -0.312 N 
ATOM      8  C   UNL     1      -4.093  -0.903   0.818  0.00  0.00    -0.008 C 
ATOM      9  C   UNL     1      -4.741   0.261   0.315  0.00  0.00    +0.011 C 
ATOM     10  C   UNL     1      -6.095  -0.051   0.179  0.00  0.00    +0.050 C 
ATOM     11  C   UNL     1      -5.050  -1.880   0.974  0.00  0.00    +0.057 C 
ATOM     12  C   UNL     1      -4.303   1.552  -0.038  0.00  0.00    +0.003 C 
ATOM     13  C   UNL     1      -7.037   0.869  -0.295  0.00  0.00    +0.044 C 
ATOM     14  C   UNL     1      -5.234   2.483  -0.513  0.00  0.00    +0.030 C 
ATOM     15  C   UNL     1      -6.580   2.144  -0.639  0.00  0.00    +0.141 C 
ATOM     16  H   UNL     1      -7.110  -1.843   0.597  0.00  0.00    +0.152 HD
ENDBRANCH   5   8
ENDBRANCH   4   5
ENDBRANCH   1   4
BRANCH   1  17
ATOM     17  C   UNL     1       0.328  -2.193  -0.899  0.00  0.00    -0.054 C 
BRANCH  17  18
ATOM     18  C   UNL     1       1.788  -2.375  -0.578  0.00  0.00    -0.041 C 
ATOM     19  C   UNL     1       2.680  -1.320  -0.767  0.00  0.00    +0.031 C 
ATOM     20  C   UNL     1       2.247  -3.599  -0.092  0.00  0.00    -0.006 C 
ATOM     21  C   UNL     1       4.032  -1.489  -0.470  0.00  0.00    +0.138 C 
ATOM     22  C   UNL     1       3.599  -3.768   0.206  0.00  0.00    +0.003 C 
ATOM     23  C   UNL     1       4.492  -2.713   0.017  0.00  0.00    +0.037 C 
BRANCH  21  24
ATOM     24  O   UNL     1       4.904  -0.460  -0.653  0.00  0.00    -0.469 OA
BRANCH  24  25
ATOM     25  C   UNL     1       4.388   0.862  -0.504  0.00  0.00    +0.277 C 
BRANCH  25  28
ATOM     26  F   UNL     1       6.513   1.762  -0.933  0.00  0.00    -0.194 F 
ATOM     27  F   UNL     1       6.012   1.284   1.136  0.00  0.00    -0.194 F 
ATOM     28  C   UNL     1       5.504   1.769  -0.025  0.00  0.00    +0.363 C 
BRANCH  28  31
ATOM     29  F   UNL     1       6.102   3.934   0.630  0.00  0.00    -0.192 F 
ATOM     30  F   UNL     1       4.109   3.240   1.164  0.00  0.00    -0.192 F 
ATOM     31  C   UNL     1       5.052   3.193   0.193  0.00  0.00    +0.382 C 
ENDBRANCH  28  31
ENDBRANCH  25  28
ENDBRANCH  24  25
ENDBRANCH  21  24
ENDBRANCH  17  18
ENDBRANCH   1  17
TORSDOF 9
