REMARK  Name = 13755
REMARK  5 active torsions:
REMARK  status: ('A' for Active; 'I' for Inactive)
REMARK    1  A    between atoms: S_1  and  N_4
REMARK    2  A    between atoms: S_1  and  C_15
REMARK    3  A    between atoms: C_10  and  O_12
REMARK    4  A    between atoms: O_12  and  C_13
REMARK    5  A    between atoms: C_18  and  N_21
REMARK                            x       y       z     vdW  Elec       q    Type
REMARK                         _______ _______ _______ _____ _____    ______ ____
ROOT
ATOM      1  S   UNL     1       1.843  -2.011  -0.425  0.00  0.00    +0.075 S 
ATOM      2  O   UNL     1       3.038  -2.722   0.016  0.00  0.00    -0.150 OA
ATOM      3  O   UNL     1       1.315  -2.284  -1.756  0.00  0.00    -0.150 OA
ENDROOT
BRANCH   1   4
ATOM      4  N   UNL     1       0.608  -2.262   0.749  0.00  0.00    -0.197 N 
ATOM      5  N   UNL     1      -1.357  -1.577  -0.369  0.00  0.00    -0.129 NA
ATOM      6  N   UNL     1      -2.472  -0.804  -0.469  0.00  0.00    -0.109 NA
ATOM      7  C   UNL     1      -0.555  -1.418   0.699  0.00  0.00    +0.169 C 
ATOM      8  C   UNL     1      -0.794  -0.514   1.707  0.00  0.00    +0.042 C 
ATOM      9  C   UNL     1      -1.928   0.272   1.605  0.00  0.00    +0.062 C 
ATOM     10  C   UNL     1      -2.740   0.095   0.502  0.00  0.00    +0.244 C 
ATOM     11  H   UNL     1       0.695  -2.964   1.434  0.00  0.00    +0.175 HD
BRANCH  10  12
ATOM     12  O   UNL     1      -3.870   0.851   0.363  0.00  0.00    -0.459 OA
BRANCH  12  13
ATOM     13  C   UNL     1      -4.662   0.618  -0.797  0.00  0.00    +0.207 C 
ATOM     14  C   UNL     1      -5.868   1.533  -0.764  0.00  0.00    +0.051 C 
ENDBRANCH  12  13
ENDBRANCH  10  12
ENDBRANCH   1   4
BRANCH   1  15
ATOM     15  C   UNL     1       2.163  -0.299  -0.290  0.00  0.00    +0.125 C 
ATOM     16  C   UNL     1       3.132   0.161   0.602  0.00  0.00    +0.021 C 
ATOM     17  C   UNL     1       1.450   0.607  -1.074  0.00  0.00    +0.021 C 
ATOM     18  C   UNL     1       2.674   2.435  -0.075  0.00  0.00    +0.042 C 
ATOM     19  C   UNL     1       3.387   1.528   0.709  0.00  0.00    +0.015 C 
ATOM     20  C   UNL     1       1.705   1.974  -0.966  0.00  0.00    +0.015 C 
BRANCH  18  21
ATOM     21  N   UNL     1       2.932   3.817   0.033  0.00  0.00    -0.357 N 
ATOM     22  H   UNL     1       3.616   4.142   0.663  0.00  0.00    +0.142 HD
ATOM     23  H   UNL     1       2.429   4.457  -0.521  0.00  0.00    +0.142 HD
ENDBRANCH  18  21
ENDBRANCH   1  15
TORSDOF 5
