REMARK  Name = 9942657
REMARK  8 active torsions:
REMARK  status: ('A' for Active; 'I' for Inactive)
REMARK    1  A    between atoms: N_2  and  C_12
REMARK    2  A    between atoms: C_3  and  C_5
REMARK    3  A    between atoms: C_5  and  C_6
REMARK    4  A    between atoms: C_6  and  C_7
REMARK    5  A    between atoms: C_7  and  C_9
REMARK    6  A    between atoms: C_9  and  O_10
REMARK    7  A    between atoms: C_12  and  C_13
REMARK    8  A    between atoms: C_13  and  C_16
REMARK                            x       y       z     vdW  Elec       q    Type
REMARK                         _______ _______ _______ _____ _____    ______ ____
ROOT
ATOM      1  O   UNL     1      -0.896   3.050  -0.973  0.00  0.00    -0.275 OA
ATOM      2  N   UNL     1       0.375   1.930   0.612  0.00  0.00    -0.304 N 
ATOM      3  C   UNL     1      -0.812   2.375   0.050  0.00  0.00    +0.222 C 
ATOM      4  H   UNL     1       0.338   1.393   1.437  0.00  0.00    +0.149 HD
ENDROOT
BRANCH   3   5
ATOM      5  C   UNL     1      -2.017   1.951   0.873  0.00  0.00    +0.086 C 
BRANCH   5   6
ATOM      6  C   UNL     1      -2.159   0.437   1.019  0.00  0.00    +0.021 C 
BRANCH   6   7
ATOM      7  C   UNL     1      -2.324  -0.265  -0.331  0.00  0.00    +0.110 C 
BRANCH   7   9
ATOM      8  O   UNL     1      -2.488  -2.364   0.892  0.00  0.00    -0.250 OA
ATOM      9  C   UNL     1      -2.470  -1.761  -0.172  0.00  0.00    +0.314 C 
BRANCH   9  10
ATOM     10  O   UNL     1      -2.587  -2.379  -1.377  0.00  0.00    -0.480 OA
ATOM     11  H   UNL     1      -2.568  -1.874  -2.166  0.00  0.00    +0.295 HD
ENDBRANCH   9  10
ENDBRANCH   7   9
ENDBRANCH   6   7
ENDBRANCH   5   6
ENDBRANCH   3   5
BRANCH   2  12
ATOM     12  C   UNL     1       1.663   2.226   0.031  0.00  0.00    +0.095 C 
BRANCH  12  13
ATOM     13  C   UNL     1       2.111   1.169  -0.976  0.00  0.00    +0.063 C 
BRANCH  13  16
ATOM     14  N   UNL     1       1.581  -1.260  -0.825  0.00  0.00    -0.319 N 
ATOM     15  N   UNL     1       2.810  -1.967   0.885  0.00  0.00    -0.315 N 
ATOM     16  C   UNL     1       2.260  -0.198  -0.352  0.00  0.00    +0.039 C 
ATOM     17  C   UNL     1       3.007  -0.624   0.686  0.00  0.00    +0.069 C 
ATOM     18  C   UNL     1       1.946  -2.319  -0.041  0.00  0.00    +0.182 C 
ATOM     19  H   UNL     1       0.951  -1.271  -1.581  0.00  0.00    +0.148 HD
ATOM     20  H   UNL     1       3.224  -2.541   1.570  0.00  0.00    +0.148 HD
ENDBRANCH  13  16
ENDBRANCH  12  13
ENDBRANCH   2  12
TORSDOF 8
