REMARK  Name = 491941
REMARK  5 active torsions:
REMARK  status: ('A' for Active; 'I' for Inactive)
REMARK    1  A    between atoms: C_5  and  C_17
REMARK    2  A    between atoms: C_7  and  S_11
REMARK    3  A    between atoms: S_11  and  N_14
REMARK    4  A    between atoms: C_17  and  C_18
REMARK    5  A    between atoms: C_21  and  C_25
REMARK                            x       y       z     vdW  Elec       q    Type
REMARK                         _______ _______ _______ _____ _____    ______ ____
ROOT
ATOM      1  S   UNL     1       4.580  -1.097  -0.347  0.00  0.00    -0.035 S 
ATOM      2  O   UNL     1       0.444   0.344   0.091  0.00  0.00    -0.274 OA
ATOM      3  N   UNL     1       2.050  -1.366   0.284  0.00  0.00    -0.227 N 
ATOM      4  N   UNL     1       3.129   0.736   0.758  0.00  0.00    -0.386 NA
ATOM      5  C   UNL     1       0.734  -0.853   0.174  0.00  0.00    +0.236 C 
ATOM      6  C   UNL     1       3.154  -0.461   0.303  0.00  0.00    +0.217 C 
ATOM      7  C   UNL     1       5.319   0.410   0.002  0.00  0.00    +0.247 C 
ATOM      8  C   UNL     1       4.397   1.254   0.585  0.00  0.00    +0.123 C 
ATOM      9  C   UNL     1       2.304  -2.813   0.379  0.00  0.00    +0.123 C 
ATOM     10  C   UNL     1       4.653   2.639   1.030  0.00  0.00    +0.064 C 
ENDROOT
BRANCH   7  11
ATOM     11  S   UNL     1       7.011   0.541  -0.436  0.00  0.00    +0.052 S 
ATOM     12  O   UNL     1       7.582   1.553   0.448  0.00  0.00    -0.157 OA
ATOM     13  O   UNL     1       7.519  -0.826  -0.419  0.00  0.00    -0.157 OA
BRANCH  11  14
ATOM     14  N   UNL     1       7.123   1.136  -2.046  0.00  0.00    -0.206 NA
ATOM     15  H   UNL     1       8.104   1.216  -2.311  0.00  0.00    +0.144 HD
ATOM     16  H   UNL     1       6.679   2.053  -2.101  0.00  0.00    +0.144 HD
ENDBRANCH  11  14
ENDBRANCH   7  11
BRANCH   5  17
ATOM     17  C   UNL     1      -0.394  -1.891   0.117  0.00  0.00    +0.112 C 
BRANCH  17  18
ATOM     18  C   UNL     1      -1.761  -1.300   0.059  0.00  0.00    -0.013 C 
ATOM     19  C   UNL     1      -2.456  -1.031   1.239  0.00  0.00    -0.004 C 
ATOM     20  C   UNL     1      -2.346  -1.015  -1.175  0.00  0.00    -0.004 C 
ATOM     21  C   UNL     1      -4.320  -0.194  -0.049  0.00  0.00    +0.018 C 
ATOM     22  C   UNL     1      -3.735  -0.478   1.185  0.00  0.00    +0.001 C 
ATOM     23  C   UNL     1      -3.626  -0.462  -1.229  0.00  0.00    +0.001 C 
BRANCH  21  25
ATOM     24  N   UNL     1      -6.653  -0.519  -0.157  0.00  0.00    -0.244 NA
ATOM     25  C   UNL     1      -5.647   0.380  -0.106  0.00  0.00    +0.081 C 
ATOM     26  C   UNL     1      -5.827   1.752  -0.105  0.00  0.00    +0.019 C 
ATOM     27  C   UNL     1      -7.130   2.235  -0.161  0.00  0.00    +0.003 C 
ATOM     28  C   UNL     1      -7.906  -0.013  -0.211  0.00  0.00    +0.099 C 
ATOM     29  C   UNL     1      -8.195   1.342  -0.215  0.00  0.00    +0.021 C 
ENDBRANCH  21  25
ENDBRANCH  17  18
ENDBRANCH   5  17
TORSDOF 5
