REMARK  Name = 10366136
REMARK  5 active torsions:
REMARK  status: ('A' for Active; 'I' for Inactive)
REMARK    1  A    between atoms: C_4  and  N_20
REMARK    2  A    between atoms: C_7  and  O_30
REMARK    3  A    between atoms: C_21  and  N_26
REMARK    4  A    between atoms: O_30  and  C_31
REMARK    5  A    between atoms: C_31  and  C_33
REMARK                            x       y       z     vdW  Elec       q    Type
REMARK                         _______ _______ _______ _____ _____    ______ ____
ROOT
ATOM      1  N   UNL     1       2.357   0.754   0.099  0.00  0.00    -0.389 NA
ATOM      2  N   UNL     1       0.692   2.390   0.306  0.00  0.00    -0.240 N 
ATOM      3  N   UNL     1      -1.090   3.566   0.951  0.00  0.00    -0.246 NA
ATOM      4  C   UNL     1       4.012  -0.935  -0.107  0.00  0.00    +0.133 C 
ATOM      5  C   UNL     1       3.651   0.427  -0.083  0.00  0.00    +0.129 C 
ATOM      6  C   UNL     1       5.368  -1.286  -0.298  0.00  0.00    -0.003 C 
ATOM      7  C   UNL     1      -2.936   0.678  -0.540  0.00  0.00    +0.122 C 
ATOM      8  C   UNL     1       4.650   1.408  -0.252  0.00  0.00    +0.027 C 
ATOM      9  C   UNL     1       2.026   2.066   0.119  0.00  0.00    +0.188 C 
ATOM     10  C   UNL     1       6.347  -0.314  -0.463  0.00  0.00    -0.003 C 
ATOM     11  C   UNL     1      -0.404   1.647  -0.069  0.00  0.00    +0.069 C 
ATOM     12  C   UNL     1      -2.795   1.912   0.106  0.00  0.00    +0.053 C 
ATOM     13  C   UNL     1       5.990   1.031  -0.440  0.00  0.00    +0.002 C 
ATOM     14  C   UNL     1      -1.499   2.401   0.344  0.00  0.00    +0.094 C 
ATOM     15  C   UNL     1      -1.817  -0.056  -0.942  0.00  0.00    +0.091 C 
ATOM     16  C   UNL     1       4.264   2.755  -0.225  0.00  0.00    +0.006 C 
ATOM     17  C   UNL     1      -0.520   0.415  -0.714  0.00  0.00    -0.002 C 
ATOM     18  C   UNL     1       2.932   3.095  -0.036  0.00  0.00    +0.048 C 
ATOM     19  C   UNL     1       0.223   3.529   0.911  0.00  0.00    +0.226 C 
ENDROOT
BRANCH   4  20
ATOM     20  N   UNL     1       3.057  -1.946   0.057  0.00  0.00    -0.265 NA
ATOM     21  C   UNL     1       1.185  -4.107   0.471  0.00  0.00    -0.063 C 
ATOM     22  C   UNL     1       1.388  -3.015   1.520  0.00  0.00    -0.004 C 
ATOM     23  C   UNL     1       1.464  -3.548  -0.924  0.00  0.00    -0.004 C 
ATOM     24  C   UNL     1       2.785  -2.405   1.426  0.00  0.00    +0.071 C 
ATOM     25  C   UNL     1       2.860  -2.931  -1.012  0.00  0.00    +0.071 C 
BRANCH  21  26
ATOM     26  N   UNL     1      -0.150  -4.648   0.550  0.00  0.00    +0.382 N 
ATOM     27  H   UNL     1      -0.313  -5.014   1.488  0.00  0.00    -0.089 HD
ATOM     28  H   UNL     1      -0.253  -5.400  -0.131  0.00  0.00    -0.089 HD
ATOM     29  H   UNL     1      -0.828  -3.913   0.350  0.00  0.00    -0.089 HD
ENDBRANCH  21  26
ENDBRANCH   4  20
BRANCH   7  30
ATOM     30  O   UNL     1      -4.185   0.187  -0.780  0.00  0.00    -0.479 OA
BRANCH  30  31
ATOM     31  C   UNL     1      -5.210   0.548   0.142  0.00  0.00    +0.210 C 
BRANCH  31  33
ATOM     32  O   UNL     1      -8.172  -0.313  -0.676  0.00  0.00    -0.353 OA
ATOM     33  C   UNL     1      -6.238  -0.566   0.184  0.00  0.00    +0.095 C 
ATOM     34  C   UNL     1      -6.912  -0.836  -1.154  0.00  0.00    +0.148 C 
ATOM     35  C   UNL     1      -7.617  -0.115   0.645  0.00  0.00    +0.148 C 
ATOM     36  C   UNL     1      -5.705  -1.790   0.883  0.00  0.00    +0.009 C 
ENDBRANCH  31  33
ENDBRANCH  30  31
ENDBRANCH   7  30
TORSDOF 5
