56832738
  -OEChem-10051722373D

 55 58  0     1  0  0  0  0  0999 V2000
    2.1781    4.0704   -0.6624 Cl  0  0  0  0  0  0  0  0  0  0  0  0
    3.4108   -2.6882    0.9351 F   0  0  0  0  0  0  0  0  0  0  0  0
   -2.3027   -0.8497    0.2195 O   0  0  0  0  0  0  0  0  0  0  0  0
   -3.1592    0.2272   -1.6511 O   0  0  0  0  0  0  0  0  0  0  0  0
   -4.4393   -1.8176    1.8408 O   0  0  0  0  0  0  0  0  0  0  0  0
   -3.3146    1.1533    1.8990 O   0  0  0  0  0  0  0  0  0  0  0  0
   -5.7726    0.4359   -0.6398 O   0  0  0  0  0  0  0  0  0  0  0  0
   -3.8678   -3.9284   -0.9249 O   0  0  0  0  0  0  0  0  0  0  0  0
    5.8306   -1.7938   -0.0255 O   0  0  0  0  0  0  0  0  0  0  0  0
   -3.3438   -1.6807   -0.3095 C   0  0  1  0  0  0  0  0  0  0  0  0
   -2.6288    0.4439   -0.3242 C   0  0  1  0  0  0  0  0  0  0  0  0
   -4.6369   -1.3808    0.4929 C   0  0  2  0  0  0  0  0  0  0  0  0
   -3.7644    1.0262    0.5503 C   0  0  1  0  0  0  0  0  0  0  0  0
   -5.0090    0.1166    0.5236 C   0  0  1  0  0  0  0  0  0  0  0  0
   -3.3862   -1.1862   -1.7468 C   0  0  0  0  0  0  0  0  0  0  0  0
   -2.9264   -3.1435   -0.2155 C   0  0  0  0  0  0  0  0  0  0  0  0
   -1.4173    1.3512   -0.4008 C   0  0  0  0  0  0  0  0  0  0  0  0
   -0.3908    1.2251    0.5351 C   0  0  0  0  0  0  0  0  0  0  0  0
   -1.3289    2.3128   -1.4075 C   0  0  0  0  0  0  0  0  0  0  0  0
    0.7242    2.0601    0.4644 C   0  0  0  0  0  0  0  0  0  0  0  0
   -0.2139    3.1478   -1.4784 C   0  0  0  0  0  0  0  0  0  0  0  0
    0.8127    3.0215   -0.5425 C   0  0  0  0  0  0  0  0  0  0  0  0
    1.8029    1.8922    1.4852 C   0  0  0  0  0  0  0  0  0  0  0  0
    2.8789    0.9063    1.0815 C   0  0  0  0  0  0  0  0  0  0  0  0
    2.6477   -0.4646    1.1953 C   0  0  0  0  0  0  0  0  0  0  0  0
    4.1018    1.3693    0.5959 C   0  0  0  0  0  0  0  0  0  0  0  0
    3.6391   -1.3724    0.8233 C   0  0  0  0  0  0  0  0  0  0  0  0
    5.0933    0.4615    0.2238 C   0  0  0  0  0  0  0  0  0  0  0  0
    4.8619   -0.9094    0.3375 C   0  0  0  0  0  0  0  0  0  0  0  0
    6.7231   -1.3894   -1.0628 C   0  0  0  0  0  0  0  0  0  0  0  0
    7.1974   -2.6167   -1.8114 C   0  0  0  0  0  0  0  0  0  0  0  0
   -5.4652   -1.9675    0.0779 H   0  0  0  0  0  0  0  0  0  0  0  0
   -4.0346    2.0263    0.1878 H   0  0  0  0  0  0  0  0  0  0  0  0
   -5.6417    0.3327    1.3927 H   0  0  0  0  0  0  0  0  0  0  0  0
   -2.5676   -1.5973   -2.3482 H   0  0  0  0  0  0  0  0  0  0  0  0
   -4.3324   -1.3846   -2.2581 H   0  0  0  0  0  0  0  0  0  0  0  0
   -2.8646   -3.4901    0.8212 H   0  0  0  0  0  0  0  0  0  0  0  0
   -1.9350   -3.2934   -0.6586 H   0  0  0  0  0  0  0  0  0  0  0  0
   -5.2811   -1.7004    2.3132 H   0  0  0  0  0  0  0  0  0  0  0  0
   -4.0305    1.5692    2.4089 H   0  0  0  0  0  0  0  0  0  0  0  0
   -6.5761   -0.1114   -0.6224 H   0  0  0  0  0  0  0  0  0  0  0  0
   -0.4612    0.4845    1.3277 H   0  0  0  0  0  0  0  0  0  0  0  0
   -2.1203    2.4392   -2.1410 H   0  0  0  0  0  0  0  0  0  0  0  0
   -3.5764   -4.8537   -0.8598 H   0  0  0  0  0  0  0  0  0  0  0  0
   -0.1610    3.8936   -2.2676 H   0  0  0  0  0  0  0  0  0  0  0  0
    1.3617    1.5474    2.4320 H   0  0  0  0  0  0  0  0  0  0  0  0
    2.2502    2.8547    1.7630 H   0  0  0  0  0  0  0  0  0  0  0  0
    1.7033   -0.8416    1.5775 H   0  0  0  0  0  0  0  0  0  0  0  0
    4.3105    2.4322    0.5229 H   0  0  0  0  0  0  0  0  0  0  0  0
    6.0419    0.8640   -0.1190 H   0  0  0  0  0  0  0  0  0  0  0  0
    6.2322   -0.7304   -1.7900 H   0  0  0  0  0  0  0  0  0  0  0  0
    7.5806   -0.8721   -0.6186 H   0  0  0  0  0  0  0  0  0  0  0  0
    7.8936   -2.3440   -2.6096 H   0  0  0  0  0  0  0  0  0  0  0  0
    6.3492   -3.1528   -2.2501 H   0  0  0  0  0  0  0  0  0  0  0  0
    7.6967   -3.3143   -1.1309 H   0  0  0  0  0  0  0  0  0  0  0  0
  1 22  1  0  0  0  0
  2 27  1  0  0  0  0
  3 10  1  0  0  0  0
  3 11  1  0  0  0  0
  4 11  1  0  0  0  0
  4 15  1  0  0  0  0
  5 12  1  0  0  0  0
  5 39  1  0  0  0  0
  6 13  1  0  0  0  0
  6 40  1  0  0  0  0
  7 14  1  0  0  0  0
  7 41  1  0  0  0  0
  8 16  1  0  0  0  0
  8 44  1  0  0  0  0
  9 29  1  0  0  0  0
  9 30  1  0  0  0  0
 10 12  1  0  0  0  0
 10 15  1  0  0  0  0
 10 16  1  0  0  0  0
 11 13  1  0  0  0  0
 11 17  1  0  0  0  0
 12 14  1  0  0  0  0
 12 32  1  0  0  0  0
 13 14  1  0  0  0  0
 13 33  1  0  0  0  0
 14 34  1  0  0  0  0
 15 35  1  0  0  0  0
 15 36  1  0  0  0  0
 16 37  1  0  0  0  0
 16 38  1  0  0  0  0
 17 18  2  0  0  0  0
 17 19  1  0  0  0  0
 18 20  1  0  0  0  0
 18 42  1  0  0  0  0
 19 21  2  0  0  0  0
 19 43  1  0  0  0  0
 20 22  2  0  0  0  0
 20 23  1  0  0  0  0
 21 22  1  0  0  0  0
 21 45  1  0  0  0  0
 23 24  1  0  0  0  0
 23 46  1  0  0  0  0
 23 47  1  0  0  0  0
 24 25  2  0  0  0  0
 24 26  1  0  0  0  0
 25 27  1  0  0  0  0
 25 48  1  0  0  0  0
 26 28  2  0  0  0  0
 26 49  1  0  0  0  0
 27 29  2  0  0  0  0
 28 29  1  0  0  0  0
 28 50  1  0  0  0  0
 30 31  1  0  0  0  0
 30 51  1  0  0  0  0
 30 52  1  0  0  0  0
 31 53  1  0  0  0  0
 31 54  1  0  0  0  0
 31 55  1  0  0  0  0
M  END
> <DATABASE_ID>
DB11939

> <DATABASE_NAME>
drugbank

> <ORIGINAL_SOURCE>
PUBCHEM

> <ORIGINAL_SOURCE_URL>
https://pubchem.ncbi.nlm.nih.gov/rest/pug/compound/inchikey/HYTPDMFFHVZBOR-VNXMGFANSA-N/SDF?record_type=3d

> <SMILES>
CCOC1=CC=C(CC2=CC(=CC=C2Cl)[C@@]23OC[C@@](CO)(O2)[C@@H](O)[C@H](O)[C@H]3O)C=C1F

> <INCHI_IDENTIFIER>
InChI=1S/C22H24ClFO7/c1-2-29-17-6-3-12(8-16(17)24)7-13-9-14(4-5-15(13)23)22-20(28)18(26)19(27)21(10-25,31-22)11-30-22/h3-6,8-9,18-20,25-28H,2,7,10-11H2,1H3/t18-,19-,20+,21+,22+/m0/s1

> <INCHI_KEY>
HYTPDMFFHVZBOR-VNXMGFANSA-N

> <FORMULA>
C22H24ClFO7

> <MOLECULAR_WEIGHT>
454.88

> <EXACT_MASS>
454.119459

> <JCHEM_ACCEPTOR_COUNT>
7

> <JCHEM_ATOM_COUNT>
55

> <JCHEM_AVERAGE_POLARIZABILITY>
44.48313448624803

> <JCHEM_BIOAVAILABILITY>
1

> <JCHEM_DONOR_COUNT>
4

> <JCHEM_FORMAL_CHARGE>
0

> <JCHEM_GHOSE_FILTER>
1

> <JCHEM_IUPAC>
(1R,2S,3S,4R,5R)-5-{4-chloro-3-[(4-ethoxy-3-fluorophenyl)methyl]phenyl}-1-(hydroxymethyl)-6,8-dioxabicyclo[3.2.1]octane-2,3,4-triol

> <ALOGPS_LOGP>
2.19

> <JCHEM_LOGP>
2.4592884719999994

> <ALOGPS_LOGS>
-3.40

> <JCHEM_MDDR_LIKE_RULE>
1

> <JCHEM_NUMBER_OF_RINGS>
4

> <JCHEM_PHYSIOLOGICAL_CHARGE>
0

> <JCHEM_PKA>
12.960529004597003

> <JCHEM_PKA_STRONGEST_ACIDIC>
11.980109267848674

> <JCHEM_PKA_STRONGEST_BASIC>
-3.1476481593402514

> <JCHEM_POLAR_SURFACE_AREA>
108.61000000000001

> <JCHEM_REFRACTIVITY>
109.28559999999999

> <JCHEM_ROTATABLE_BOND_COUNT>
6

> <JCHEM_RULE_OF_FIVE>
1

> <ALOGPS_SOLUBILITY>
1.82e-01 g/l

> <JCHEM_TRADITIONAL_IUPAC>
(1R,2S,3S,4R,5R)-5-{4-chloro-3-[(4-ethoxy-3-fluorophenyl)methyl]phenyl}-1-(hydroxymethyl)-6,8-dioxabicyclo[3.2.1]octane-2,3,4-triol

> <JCHEM_VEBER_RULE>
0

> <DRUGBANK_ID>
DB11939

> <DRUG_GROUPS>
investigational

> <GENERIC_NAME>
Henagliflozin

$$$$
