REMARK  Name = 25227462
REMARK  4 active torsions:
REMARK  status: ('A' for Active; 'I' for Inactive)
REMARK    1  A    between atoms: N_6  and  C_28
REMARK    2  A    between atoms: C_28  and  C_29
REMARK    3  A    between atoms: C_28  and  C_35
REMARK    4  A    between atoms: C_35  and  N_36
REMARK                            x       y       z     vdW  Elec       q    Type
REMARK                         _______ _______ _______ _____ _____    ______ ____
ROOT
ATOM      1  S   UNL     1       3.888  -2.983  -0.177  0.00  0.00    -0.098 S 
ATOM      2  O   UNL     1      -3.626   2.025   0.573  0.00  0.00    -0.253 OA
ATOM      3  N   UNL     1      -1.378   1.480   0.370  0.00  0.00    -0.258 N 
ATOM      4  N   UNL     1       1.724   3.326   0.154  0.00  0.00    -0.277 N 
ATOM      5  N   UNL     1       2.808   2.517   0.045  0.00  0.00    -0.158 NA
ATOM      6  N   UNL     1      -3.026  -0.193   0.473  0.00  0.00    -0.289 N 
ATOM      7  N   UNL     1       2.983   0.114  -0.027  0.00  0.00    -0.274 N 
ATOM      8  N   UNL     1       5.296   0.776  -0.204  0.00  0.00    -0.332 NA
ATOM      9  N   UNL     1       7.106  -0.819  -0.394  0.00  0.00    -0.347 NA
ATOM     10  C   UNL     1      -0.866   2.915   0.361  0.00  0.00    +0.097 C 
ATOM     11  C   UNL     1       0.578   2.620   0.233  0.00  0.00    +0.068 A 
ATOM     12  C   UNL     1      -0.283   0.448   0.253  0.00  0.00    +0.126 C 
ATOM     13  C   UNL     1       0.901   1.301   0.175  0.00  0.00    +0.046 A 
ATOM     14  C   UNL     1      -1.380   3.693  -0.852  0.00  0.00    +0.026 C 
ATOM     15  C   UNL     1      -1.167   3.632   1.677  0.00  0.00    +0.026 C 
ATOM     16  C   UNL     1       2.288   1.276   0.059  0.00  0.00    +0.152 A 
ATOM     17  C   UNL     1      -2.742   1.170   0.478  0.00  0.00    +0.305 C 
ATOM     18  C   UNL     1       4.384  -0.215  -0.152  0.00  0.00    +0.191 C 
ATOM     19  C   UNL     1       4.811  -1.536  -0.220  0.00  0.00    +0.172 C 
ATOM     20  C   UNL     1       6.173  -1.807  -0.340  0.00  0.00    +0.140 C 
ATOM     21  C   UNL     1       6.588   0.418  -0.321  0.00  0.00    +0.115 C 
ATOM     22  C   UNL     1       6.435  -3.209  -0.396  0.00  0.00    +0.036 C 
ATOM     23  C   UNL     1       5.284  -3.958  -0.318  0.00  0.00    +0.034 C 
ATOM     24  C   UNL     1       7.571   1.540  -0.377  0.00  0.00    +0.143 C 
ATOM     25  H   UNL     1       1.769   4.310   0.174  0.00  0.00    +0.189 HD
ATOM     26  H   UNL     1      -2.283  -0.834   0.395  0.00  0.00    +0.151 HD
ATOM     27  H   UNL     1       2.404  -0.682   0.004  0.00  0.00    +0.156 HD
ENDROOT
BRANCH   6  28
ATOM     28  C   UNL     1      -4.376  -0.696   0.578  0.00  0.00    +0.075 C 
BRANCH  28  29
ATOM     29  C   UNL     1      -5.017  -0.792  -0.792  0.00  0.00    -0.006 C 
ATOM     30  C   UNL     1      -4.244  -1.137  -1.901  0.00  0.00    -0.003 C 
ATOM     31  C   UNL     1      -6.380  -0.536  -0.944  0.00  0.00    -0.003 C 
ATOM     32  C   UNL     1      -4.834  -1.225  -3.162  0.00  0.00    -0.000 C 
ATOM     33  C   UNL     1      -6.970  -0.625  -2.204  0.00  0.00    -0.000 C 
ATOM     34  C   UNL     1      -6.197  -0.969  -3.313  0.00  0.00    -0.000 C 
ENDBRANCH  28  29
BRANCH  28  35
ATOM     35  C   UNL     1      -4.423  -2.042   1.319  0.00  0.00    -0.053 C 
BRANCH  35  36
ATOM     36  N   UNL     1      -3.800  -1.940   2.637  0.00  0.00    +0.385 N 
ATOM     37  C   UNL     1      -3.398  -3.261   3.118  0.00  0.00    -0.101 C 
ATOM     38  C   UNL     1      -4.714  -1.307   3.588  0.00  0.00    -0.101 C 
ATOM     39  H   UNL     1      -2.966  -1.358   2.554  0.00  0.00    -0.080 HD
ENDBRANCH  35  36
ENDBRANCH  28  35
ENDBRANCH   6  28
TORSDOF 4
