REMARK  Name = 157385
REMARK  9 active torsions:
REMARK  status: ('A' for Active; 'I' for Inactive)
REMARK    1  A    between atoms: C_1  and  C_3
REMARK    2  A    between atoms: C_1  and  N_17
REMARK    3  A    between atoms: C_1  and  C_31
REMARK    4  A    between atoms: C_4  and  O_10
REMARK    5  A    between atoms: C_5  and  O_12
REMARK    6  A    between atoms: C_6  and  O_14
REMARK    7  A    between atoms: C_7  and  S_8
REMARK    8  A    between atoms: C_18  and  C_22
REMARK    9  A    between atoms: C_21  and  C_28
REMARK                            x       y       z     vdW  Elec       q    Type
REMARK                         _______ _______ _______ _____ _____    ______ ____
ROOT
ATOM      1  C   UNL     1       0.640  -0.870  -0.696  0.00  0.00    +0.116 C 
ENDROOT
BRANCH   1   3
ATOM      2  O   UNL     1       3.020  -0.756  -0.715  0.00  0.00    -0.341 OA
ATOM      3  C   UNL     1       1.867  -0.298   0.008  0.00  0.00    +0.164 C 
ATOM      4  C   UNL     1       1.835   1.233   0.082  0.00  0.00    +0.168 C 
ATOM      5  C   UNL     1       3.137   1.762   0.687  0.00  0.00    +0.170 C 
ATOM      6  C   UNL     1       4.339   1.204  -0.075  0.00  0.00    +0.177 C 
ATOM      7  C   UNL     1       4.280  -0.327  -0.182  0.00  0.00    +0.192 C 
BRANCH   7   8
ATOM      8  S   UNL     1       4.726  -1.205   1.365  0.00  0.00    -0.109 S 
ATOM      9  C   UNL     1       4.514  -2.891   0.756  0.00  0.00    +0.072 C 
ENDBRANCH   7   8
BRANCH   4  10
ATOM     10  O   UNL     1       1.673   1.756  -1.239  0.00  0.00    -0.379 OA
ATOM     11  H   UNL     1       0.847   1.420  -1.621  0.00  0.00    +0.211 HD
ENDBRANCH   4  10
BRANCH   5  12
ATOM     12  O   UNL     1       3.160   3.186   0.619  0.00  0.00    -0.379 OA
ATOM     13  H   UNL     1       2.399   3.545   1.102  0.00  0.00    +0.211 HD
ENDBRANCH   5  12
BRANCH   6  14
ATOM     14  O   UNL     1       5.560   1.621   0.527  0.00  0.00    -0.379 OA
ATOM     15  H   UNL     1       5.578   2.589   0.585  0.00  0.00    +0.211 HD
ENDBRANCH   6  14
ENDBRANCH   1   3
BRANCH   1  17
ATOM     16  O   UNL     1      -1.412   0.818  -1.866  0.00  0.00    -0.277 OA
ATOM     17  N   UNL     1      -0.569  -0.391  -0.064  0.00  0.00    -0.304 N 
ATOM     18  C   UNL     1      -1.491   0.414  -0.708  0.00  0.00    +0.202 C 
ATOM     19  H   UNL     1      -0.744  -0.649   0.870  0.00  0.00    +0.149 HD
BRANCH  18  22
ATOM     20  N   UNL     1      -3.123   2.068  -0.253  0.00  0.00    +0.391 N 
ATOM     21  C   UNL     1      -5.024   0.077   0.756  0.00  0.00    -0.004 C 
ATOM     22  C   UNL     1      -2.661   0.745   0.164  0.00  0.00    +0.017 C 
ATOM     23  C   UNL     1      -3.751  -0.315  -0.005  0.00  0.00    -0.013 C 
ATOM     24  C   UNL     1      -5.452   1.493   0.353  0.00  0.00    -0.023 C 
ATOM     25  C   UNL     1      -4.301   2.486   0.509  0.00  0.00    -0.081 C 
ATOM     26  H   UNL     1      -3.361   2.040  -1.244  0.00  0.00    -0.084 HD
ATOM     27  H   UNL     1      -2.374   2.739  -0.080  0.00  0.00    -0.084 HD
BRANCH  21  28
ATOM     28  C   UNL     1      -6.145  -0.928   0.506  0.00  0.00    -0.000 C 
ATOM     29  C   UNL     1      -5.741  -2.326   0.932  0.00  0.00    -0.000 C 
ENDBRANCH  21  28
ENDBRANCH  18  22
ENDBRANCH   1  17
BRANCH   1  31
ATOM     30 CL   UNL     1       0.816  -3.173   0.824  0.00  0.00    -0.113 Cl
ATOM     31  C   UNL     1       0.666  -2.409  -0.791  0.00  0.00    +0.100 C 
ATOM     32  C   UNL     1      -0.564  -2.976  -1.495  0.00  0.00    +0.019 C 
ENDBRANCH   1  31
TORSDOF 9
