REMARK  Name = 5853
REMARK  5 active torsions:
REMARK  status: ('A' for Active; 'I' for Inactive)
REMARK    1  A    between atoms: C_1  and  C_5
REMARK    2  A    between atoms: C_1  and  P_6
REMARK    3  A    between atoms: C_1  and  O_12
REMARK    4  A    between atoms: P_6  and  O_8
REMARK    5  A    between atoms: P_6  and  O_10
REMARK                            x       y       z     vdW  Elec       q    Type
REMARK                         _______ _______ _______ _____ _____    ______ ____
ROOT
ATOM      1  C   UNL     1       0.569   0.696   0.245  0.00  0.00    +0.258 C 
ENDROOT
BRANCH   1   5
ATOM      2 CL   UNL     1       3.229   0.648   0.924  0.00  0.00    -0.079 Cl
ATOM      3 CL   UNL     1       1.522  -1.678   1.194  0.00  0.00    -0.079 Cl
ATOM      4 CL   UNL     1       2.239  -0.708  -1.445  0.00  0.00    -0.079 Cl
ATOM      5  C   UNL     1       1.819  -0.196   0.219  0.00  0.00    +0.234 C 
ENDBRANCH   1   5
BRANCH   1   6
ATOM      6  P   UNL     1      -0.957   0.072  -0.466  0.00  0.00    +0.373 P 
ATOM      7  O   UNL     1      -0.869  -0.275  -1.925  0.00  0.00    -0.255 OA
BRANCH   6   8
ATOM      8  O   UNL     1      -2.100   1.167  -0.126  0.00  0.00    -0.290 OA
ATOM      9  C   UNL     1      -2.424   1.505   1.211  0.00  0.00    +0.184 C 
ENDBRANCH   6   8
BRANCH   6  10
ATOM     10  O   UNL     1      -1.331  -1.189   0.483  0.00  0.00    -0.290 OA
ATOM     11  C   UNL     1      -2.506  -1.928   0.197  0.00  0.00    +0.184 C 
ENDBRANCH   6  10
ENDBRANCH   1   6
BRANCH   1  12
ATOM     12  O   UNL     1       0.808   1.887  -0.510  0.00  0.00    -0.371 OA
ATOM     13  H   UNL     1       0.016   2.447  -0.490  0.00  0.00    +0.211 HD
ENDBRANCH   1  12
TORSDOF 5
