REMARK  Name = 15981397
REMARK  5 active torsions:
REMARK  status: ('A' for Active; 'I' for Inactive)
REMARK    1  A    between atoms: N_1  and  S_13
REMARK    2  A    between atoms: C_2  and  C_7
REMARK    3  A    between atoms: C_3  and  C_22
REMARK    4  A    between atoms: S_13  and  C_17
REMARK    5  A    between atoms: C_22  and  N_23
REMARK                            x       y       z     vdW  Elec       q    Type
REMARK                         _______ _______ _______ _____ _____    ______ ____
ROOT
ATOM      1  N   UNL     1       0.672  -0.420  -0.475  0.00  0.00    -0.168 N 
ATOM      2  C   UNL     1       0.883   0.699   0.291  0.00  0.00    +0.075 C 
ATOM      3  C   UNL     1       2.629  -0.707   0.534  0.00  0.00    -0.026 C 
ATOM      4  C   UNL     1       1.728  -1.282  -0.335  0.00  0.00    +0.082 C 
ATOM      5  C   UNL     1       2.096   0.544   0.930  0.00  0.00    +0.012 C 
ENDROOT
BRANCH   2   7
ATOM      6  F   UNL     1       1.023   2.887  -1.463  0.00  0.00    -0.204 F 
ATOM      7  C   UNL     1      -0.043   1.804   0.367  0.00  0.00    +0.043 C 
ATOM      8  C   UNL     1       0.064   2.871  -0.525  0.00  0.00    +0.141 C 
ATOM      9  C   UNL     1      -1.046   1.802   1.335  0.00  0.00    +0.004 C 
ATOM     10  C   UNL     1      -0.833   3.936  -0.449  0.00  0.00    +0.030 C 
ATOM     11  C   UNL     1      -1.943   2.867   1.412  0.00  0.00    +0.000 C 
ATOM     12  C   UNL     1      -1.837   3.934   0.520  0.00  0.00    +0.002 C 
ENDBRANCH   2   7
BRANCH   1  13
ATOM     13  S   UNL     1      -0.652  -0.721  -1.442  0.00  0.00    +0.082 S 
ATOM     14  O   UNL     1      -0.181  -1.647  -2.471  0.00  0.00    -0.149 OA
ATOM     15  O   UNL     1      -1.257   0.562  -1.809  0.00  0.00    -0.149 OA
BRANCH  13  17
ATOM     16  N   UNL     1      -2.725  -3.630   0.375  0.00  0.00    -0.241 NA
ATOM     17  C   UNL     1      -1.849  -1.562  -0.439  0.00  0.00    +0.145 C 
ATOM     18  C   UNL     1      -2.780  -0.838   0.265  0.00  0.00    +0.023 C 
ATOM     19  C   UNL     1      -1.841  -2.929  -0.370  0.00  0.00    +0.119 C 
ATOM     20  C   UNL     1      -3.706  -1.524   1.043  0.00  0.00    +0.022 C 
ATOM     21  C   UNL     1      -3.637  -2.908   1.064  0.00  0.00    +0.099 C 
ENDBRANCH  13  17
ENDBRANCH   1  13
BRANCH   3  22
ATOM     22  C   UNL     1       3.913  -1.288   0.971  0.00  0.00    -0.053 C 
BRANCH  22  23
ATOM     23  N   UNL     1       5.056  -0.918   0.090  0.00  0.00    +0.385 N 
ATOM     24  C   UNL     1       6.268  -1.533   0.580  0.00  0.00    -0.105 C 
ATOM     25  H   UNL     1       5.167   0.096   0.088  0.00  0.00    -0.084 HD
ATOM     26  H   UNL     1       4.871  -1.244  -0.858  0.00  0.00    -0.084 HD
ENDBRANCH  22  23
ENDBRANCH   3  22
TORSDOF 5
