REMARK  Name = 3610
REMARK  7 active torsions:
REMARK  status: ('A' for Active; 'I' for Inactive)
REMARK    1  A    between atoms: C_1  and  C_11
REMARK    2  A    between atoms: C_2  and  O_7
REMARK    3  A    between atoms: C_6  and  O_9
REMARK    4  A    between atoms: C_11  and  C_12
REMARK    5  A    between atoms: C_12  and  C_13
REMARK    6  A    between atoms: C_13  and  C_14
REMARK    7  A    between atoms: C_14  and  C_15
REMARK                            x       y       z     vdW  Elec       q    Type
REMARK                         _______ _______ _______ _____ _____    ______ ____
ROOT
ATOM      1  C   UNL     1      -1.056   0.055  -0.575  0.00  0.00    +0.012 C 
ATOM      2  C   UNL     1      -1.723  -1.050  -0.067  0.00  0.00    +0.133 C 
ATOM      3  C   UNL     1      -1.654   1.307  -0.590  0.00  0.00    +0.002 C 
ATOM      4  C   UNL     1      -3.015  -0.901   0.437  0.00  0.00    +0.073 C 
ATOM      5  C   UNL     1      -2.946   1.457  -0.086  0.00  0.00    +0.036 C 
ATOM      6  C   UNL     1      -3.626   0.353   0.427  0.00  0.00    +0.137 C 
ENDROOT
BRANCH   2   7
ATOM      7  O   UNL     1      -1.139  -2.282  -0.049  0.00  0.00    -0.506 OA
ATOM      8  H   UNL     1      -0.272  -2.394  -0.385  0.00  0.00    +0.292 HD
ENDBRANCH   2   7
BRANCH   6   9
ATOM      9  O   UNL     1      -4.887   0.499   0.918  0.00  0.00    -0.505 OA
ATOM     10  H   UNL     1      -5.345  -0.243   1.263  0.00  0.00    +0.292 HD
ENDBRANCH   6   9
BRANCH   1  11
ATOM     11  C   UNL     1       0.341  -0.087  -1.124  0.00  0.00    +0.029 C 
BRANCH  11  12
ATOM     12  C   UNL     1       1.399   0.130  -0.040  0.00  0.00    +0.005 C 
BRANCH  12  13
ATOM     13  C   UNL     1       2.812  -0.053  -0.599  0.00  0.00    +0.000 C 
BRANCH  13  14
ATOM     14  C   UNL     1       3.871   0.197   0.475  0.00  0.00    +0.000 C 
BRANCH  14  15
ATOM     15  C   UNL     1       5.283   0.048  -0.092  0.00  0.00    +0.000 C 
ATOM     16  C   UNL     1       6.340   0.329   0.965  0.00  0.00    +0.000 C 
ENDBRANCH  14  15
ENDBRANCH  13  14
ENDBRANCH  12  13
ENDBRANCH  11  12
ENDBRANCH   1  11
TORSDOF 7
