REMARK  Name = 54767229
REMARK  6 active torsions:
REMARK  status: ('A' for Active; 'I' for Inactive)
REMARK    1  A    between atoms: C_2  and  C_7
REMARK    2  A    between atoms: C_3  and  S_19
REMARK    3  A    between atoms: C_11  and  C_18
REMARK    4  A    between atoms: S_19  and  C_20
REMARK    5  A    between atoms: C_20  and  C_24
REMARK    6  A    between atoms: C_24  and  O_25
REMARK                            x       y       z     vdW  Elec       q    Type
REMARK                         _______ _______ _______ _____ _____    ______ ____
ROOT
ATOM      1  N   UNL     1       1.641  -2.962  -1.737  0.00  0.00    -0.242 NA
ATOM      2  C   UNL     1       0.446  -1.110  -0.744  0.00  0.00    +0.025 C 
ATOM      3  C   UNL     1       1.573  -0.770  -0.004  0.00  0.00    +0.029 C 
ATOM      4  C   UNL     1       0.531  -2.205  -1.589  0.00  0.00    +0.099 C 
ATOM      5  C   UNL     1       2.734  -1.525  -0.130  0.00  0.00    +0.027 C 
ATOM      6  C   UNL     1       2.716  -2.601  -1.002  0.00  0.00    +0.099 C 
ENDROOT
BRANCH   2   7
ATOM      7  C   UNL     1      -0.805  -0.372  -0.670  0.00  0.00    +0.002 C 
ATOM      8  C   UNL     1      -1.817  -0.698   0.247  0.00  0.00    +0.001 C 
ATOM      9  C   UNL     1      -3.010   0.064   0.261  0.00  0.00    +0.010 C 
ATOM     10  C   UNL     1      -0.966   0.690  -1.561  0.00  0.00    +0.001 C 
ATOM     11  C   UNL     1      -3.155   1.129  -0.642  0.00  0.00    +0.068 C 
ATOM     12  C   UNL     1      -1.672  -1.764   1.151  0.00  0.00    +0.000 C 
ATOM     13  C   UNL     1      -2.139   1.439  -1.547  0.00  0.00    +0.010 C 
ATOM     14  C   UNL     1      -4.022  -0.262   1.179  0.00  0.00    +0.001 C 
ATOM     15  C   UNL     1      -2.688  -2.073   2.055  0.00  0.00    +0.000 C 
ATOM     16  C   UNL     1      -3.860  -1.324   2.069  0.00  0.00    +0.000 C 
BRANCH  11  18
ATOM     17  N   UNL     1      -5.290   2.603  -0.720  0.00  0.00    -0.191 NA
ATOM     18  C   UNL     1      -4.335   1.944  -0.685  0.00  0.00    +0.100 C 
ENDBRANCH  11  18
ENDBRANCH   2   7
BRANCH   3  19
ATOM     19  S   UNL     1       1.601   0.621   1.124  0.00  0.00    -0.104 S 
BRANCH  19  20
ATOM     20  C   UNL     1       2.925   1.635   0.413  0.00  0.00    +0.132 C 
ATOM     21  C   UNL     1       2.752   3.066   0.937  0.00  0.00    +0.022 C 
ATOM     22  C   UNL     1       2.818   1.622  -1.113  0.00  0.00    +0.022 C 
BRANCH  20  24
ATOM     23  O   UNL     1       4.469   0.474   1.900  0.00  0.00    -0.249 OA
ATOM     24  C   UNL     1       4.275   1.069   0.846  0.00  0.00    +0.322 C 
BRANCH  24  25
ATOM     25  O   UNL     1       5.277   1.314  -0.038  0.00  0.00    -0.480 OA
ATOM     26  H   UNL     1       5.097   1.771  -0.836  0.00  0.00    +0.295 HD
ENDBRANCH  24  25
ENDBRANCH  20  24
ENDBRANCH  19  20
ENDBRANCH   3  19
TORSDOF 6
