REMARK  Name = 6436061
REMARK  5 active torsions:
REMARK  status: ('A' for Active; 'I' for Inactive)
REMARK    1  A    between atoms: C_1  and  C_4
REMARK    2  A    between atoms: C_2  and  C_13
REMARK    3  A    between atoms: CA_5  and  C_9
REMARK    4  A    between atoms: C_9  and  O_10
REMARK    5  A    between atoms: C_15  and  N_19
REMARK                            x       y       z     vdW  Elec       q    Type
REMARK                         _______ _______ _______ _____ _____    ______ ____
ROOT
ATOM      1  C   UNL     1       0.407  -0.539  -0.036  0.00  0.00    +0.031 C 
ATOM      2  C   UNL     1      -0.220   0.659  -0.128  0.00  0.00    +0.040 C 
ENDROOT
BRANCH   1   4
ATOM      3  N   UNL     1       2.593   0.395  -0.162  0.00  0.00    -0.408 NA
ATOM      4  C   UNL     1       1.848  -0.730  -0.069  0.00  0.00    +0.113 C 
ATOM      5  CA  UNL     1       3.934   0.226  -0.195  0.00  0.00    +0.138 C 
ATOM      6  C   UNL     1       2.378  -2.009  -0.009  0.00  0.00    +0.085 C 
ATOM      7  C   UNL     1       4.562  -1.008  -0.141  0.00  0.00    +0.026 C 
ATOM      8  C   UNL     1       3.762  -2.142  -0.046  0.00  0.00    -0.016 C 
BRANCH   5   9
ATOM      9  C   UNL     1       4.760   1.464  -0.299  0.00  0.00    +0.196 C 
BRANCH   9  10
ATOM     10  O   UNL     1       5.067   1.937   1.007  0.00  0.00    -0.375 OA
ATOM     11  H   UNL     1       5.604   2.742   0.941  0.00  0.00    +0.211 HD
ENDBRANCH   9  10
ENDBRANCH   5   9
ENDBRANCH   1   4
BRANCH   2  13
ATOM     12  O   UNL     1      -2.473  -0.225   0.043  0.00  0.00    -0.433 OA
ATOM     13  C   UNL     1      -1.643   0.826  -0.118  0.00  0.00    +0.148 C 
ATOM     14  C   UNL     1      -2.327   1.997  -0.262  0.00  0.00    +0.043 C 
ATOM     15  C   UNL     1      -3.732   0.284   0.003  0.00  0.00    +0.289 C 
ATOM     16  C   UNL     1      -3.696   1.647  -0.183  0.00  0.00    +0.066 C 
BRANCH  15  19
ATOM     17  O   UNL     1      -5.969  -0.262   0.128  0.00  0.00    -0.123 OA
ATOM     18  O   UNL     1      -4.488  -1.872   0.313  0.00  0.00    -0.123 OA
ATOM     19  N   UNL     1      -4.762  -0.646   0.153  0.00  0.00    +0.093 N 
ENDBRANCH  15  19
ENDBRANCH   2  13
TORSDOF 5
