REMARK  Name = 4261
REMARK  8 active torsions:
REMARK  status: ('A' for Active; 'I' for Inactive)
REMARK    1  A    between atoms: C_1  and  C_20
REMARK    2  A    between atoms: C_2  and  C_9
REMARK    3  A    between atoms: N_8  and  C_11
REMARK    4  A    between atoms: C_12  and  N_17
REMARK    5  A    between atoms: C_20  and  N_22
REMARK    6  A    between atoms: C_23  and  O_25
REMARK    7  A    between atoms: O_25  and  C_26
REMARK    8  A    between atoms: C_26  and  C_28
REMARK                            x       y       z     vdW  Elec       q    Type
REMARK                         _______ _______ _______ _____ _____    ______ ____
ROOT
ATOM      1  C   UNL     1       0.258  -2.584   0.106  0.00  0.00    -0.002 C 
ATOM      2  C   UNL     1      -2.263  -1.532  -0.414  0.00  0.00    +0.054 C 
ATOM      3  C   UNL     1      -0.403  -1.861   1.093  0.00  0.00    -0.002 C 
ATOM      4  C   UNL     1      -0.329  -2.786  -1.138  0.00  0.00    -0.002 C 
ATOM      5  C   UNL     1      -1.667  -1.334   0.832  0.00  0.00    +0.004 C 
ATOM      6  C   UNL     1      -1.593  -2.259  -1.399  0.00  0.00    +0.004 C 
ENDROOT
BRANCH   2   9
ATOM      7  O   UNL     1      -4.314  -1.550  -1.510  0.00  0.00    -0.270 OA
ATOM      8  N   UNL     1      -3.927   0.165   0.045  0.00  0.00    -0.279 N 
ATOM      9  C   UNL     1      -3.580  -0.981  -0.686  0.00  0.00    +0.250 C 
ATOM     10  H   UNL     1      -3.239   0.502   0.663  0.00  0.00    +0.155 HD
BRANCH   8  11
ATOM     11  C   UNL     1      -5.137   0.899   0.011  0.00  0.00    +0.064 C 
ATOM     12  C   UNL     1      -5.301   2.017   0.813  0.00  0.00    +0.055 C 
ATOM     13  C   UNL     1      -6.143   0.470  -0.841  0.00  0.00    +0.016 C 
ATOM     14  C   UNL     1      -6.503   2.724   0.762  0.00  0.00    +0.015 C 
ATOM     15  C   UNL     1      -7.344   1.177  -0.892  0.00  0.00    +0.001 C 
ATOM     16  C   UNL     1      -7.524   2.304  -0.090  0.00  0.00    +0.001 C 
BRANCH  12  17
ATOM     17  N   UNL     1      -4.280   2.461   1.683  0.00  0.00    -0.356 N 
ATOM     18  H   UNL     1      -3.427   1.972   1.729  0.00  0.00    +0.142 HD
ATOM     19  H   UNL     1      -4.422   3.258   2.242  0.00  0.00    +0.142 HD
ENDBRANCH  12  17
ENDBRANCH   8  11
ENDBRANCH   2   9
BRANCH   1  20
ATOM     20  C   UNL     1       1.618  -3.153   0.387  0.00  0.00    +0.119 C 
BRANCH  20  22
ATOM     21  O   UNL     1       2.849  -1.136   2.076  0.00  0.00    -0.226 OA
ATOM     22  N   UNL     1       2.673  -2.229   0.038  0.00  0.00    -0.267 N 
ATOM     23  C   UNL     1       3.197  -1.301   0.912  0.00  0.00    +0.402 C 
ATOM     24  H   UNL     1       3.038  -2.265  -0.876  0.00  0.00    +0.153 HD
BRANCH  23  25
ATOM     25  O   UNL     1       4.175  -0.580   0.286  0.00  0.00    -0.430 OA
BRANCH  25  26
ATOM     26  C   UNL     1       4.813   0.428   1.079  0.00  0.00    +0.238 C 
BRANCH  26  28
ATOM     27  N   UNL     1       6.416   2.903  -1.267  0.00  0.00    -0.243 NA
ATOM     28  C   UNL     1       5.853   1.120   0.247  0.00  0.00    +0.040 C 
ATOM     29  C   UNL     1       7.154   0.650   0.213  0.00  0.00    +0.002 C 
ATOM     30  C   UNL     1       5.529   2.234  -0.497  0.00  0.00    +0.098 C 
ATOM     31  C   UNL     1       8.095   1.311  -0.567  0.00  0.00    +0.020 C 
ATOM     32  C   UNL     1       7.680   2.423  -1.282  0.00  0.00    +0.099 C 
ENDBRANCH  26  28
ENDBRANCH  25  26
ENDBRANCH  23  25
ENDBRANCH  20  22
ENDBRANCH   1  20
TORSDOF 8
