REMARK  Name = 697993
REMARK  0 active torsions:
REMARK  status: ('A' for Active; 'I' for Inactive)
REMARK                            x       y       z     vdW  Elec       q    Type
REMARK                         _______ _______ _______ _____ _____    ______ ____
ROOT
ATOM      1  S   UNL     1      -1.317  -1.548   0.000  0.00  0.00    -0.061 S 
ATOM      2  S   UNL     1      -3.771   0.271   0.001  0.00  0.00    -0.025 S 
ATOM      3  N   UNL     1      -1.180   1.041   0.000  0.00  0.00    -0.342 N 
ATOM      4  C   UNL     1       0.151   0.609   0.000  0.00  0.00    +0.063 A 
ATOM      5  C   UNL     1       0.281  -0.778   0.000  0.00  0.00    +0.047 A 
ATOM      6  C   UNL     1       1.256   1.443   0.000  0.00  0.00    +0.017 C 
ATOM      7  C   UNL     1       1.530  -1.374   0.000  0.00  0.00    +0.008 C 
ATOM      8  C   UNL     1      -2.128   0.031   0.000  0.00  0.00    +0.124 A 
ATOM      9  C   UNL     1       2.521   0.851   0.000  0.00  0.00    +0.002 C 
ATOM     10  C   UNL     1       2.657  -0.547   0.000  0.00  0.00    +0.001 C 
ATOM     11  H   UNL     1      -1.426   1.994   0.000  0.00  0.00    +0.167 HD
ENDROOT
TORSDOF 0
