REMARK  Name = 60651
REMARK  3 active torsions:
REMARK  status: ('A' for Active; 'I' for Inactive)
REMARK    1  A    between atoms: C_6  and  N_17
REMARK    2  A    between atoms: C_15  and  C_26
REMARK    3  A    between atoms: C_26  and  O_27
REMARK                            x       y       z     vdW  Elec       q    Type
REMARK                         _______ _______ _______ _____ _____    ______ ____
ROOT
ATOM      1  F   UNL     1      -1.719   2.886   0.333  0.00  0.00    -0.203 F 
ATOM      2  O   UNL     1      -0.965  -1.756  -0.309  0.00  0.00    -0.454 OA
ATOM      3  O   UNL     1       3.327   2.402   0.243  0.00  0.00    -0.286 OA
ATOM      4  N   UNL     1       1.829  -1.359  -0.170  0.00  0.00    -0.222 N 
ATOM      5  N   UNL     1       1.324  -2.675  -0.221  0.00  0.00    -0.159 NA
ATOM      6  C   UNL     1      -1.353   0.560   0.026  0.00  0.00    +0.111 C 
ATOM      7  C   UNL     1      -0.456  -0.495  -0.125  0.00  0.00    +0.171 C 
ATOM      8  C   UNL     1       0.924  -0.274  -0.071  0.00  0.00    +0.105 C 
ATOM      9  C   UNL     1       1.401   1.037   0.085  0.00  0.00    +0.059 C 
ATOM     10  C   UNL     1      -0.868   1.858   0.196  0.00  0.00    +0.156 C 
ATOM     11  C   UNL     1       0.010  -2.650  -0.882  0.00  0.00    +0.302 C 
ATOM     12  C   UNL     1       0.507   2.103   0.220  0.00  0.00    +0.036 C 
ATOM     13  C   UNL     1       3.187  -1.122  -0.174  0.00  0.00    +0.092 C 
ATOM     14  C   UNL     1       2.869   1.275   0.105  0.00  0.00    +0.205 C 
ATOM     15  C   UNL     1       3.755   0.086  -0.053  0.00  0.00    +0.130 C 
ATOM     16  C   UNL     1       1.231  -3.216   1.138  0.00  0.00    +0.115 C 
ENDROOT
BRANCH   6  17
ATOM     17  N   UNL     1      -2.734   0.339  -0.004  0.00  0.00    -0.308 N 
ATOM     18  N   UNL     1      -5.580   0.103   0.076  0.00  0.00    +0.388 N 
ATOM     19  C   UNL     1      -3.555   1.001  -1.023  0.00  0.00    +0.068 C 
ATOM     20  C   UNL     1      -3.413   0.041   1.264  0.00  0.00    +0.068 C 
ATOM     21  C   UNL     1      -4.883   0.262  -1.206  0.00  0.00    -0.056 C 
ATOM     22  C   UNL     1      -4.745  -0.667   1.006  0.00  0.00    -0.056 C 
ATOM     23  C   UNL     1      -6.871  -0.556  -0.119  0.00  0.00    -0.101 C 
ATOM     24  H   UNL     1      -5.751   1.026   0.475  0.00  0.00    -0.080 HD
ENDBRANCH   6  17
BRANCH  15  26
ATOM     25  O   UNL     1       5.964  -0.709   0.323  0.00  0.00    -0.245 OA
ATOM     26  C   UNL     1       5.216   0.169  -0.071  0.00  0.00    +0.342 C 
BRANCH  26  27
ATOM     27  O   UNL     1       5.597   1.357  -0.587  0.00  0.00    -0.477 OA
ATOM     28  H   UNL     1       4.951   1.975  -0.866  0.00  0.00    +0.295 HD
ENDBRANCH  26  27
ENDBRANCH  15  26
TORSDOF 3
