REMARK  Name = 65947
REMARK  5 active torsions:
REMARK  status: ('A' for Active; 'I' for Inactive)
REMARK    1  A    between atoms: C_5  and  N_16
REMARK    2  A    between atoms: C_12  and  C_32
REMARK    3  A    between atoms: N_17  and  C_23
REMARK    4  A    between atoms: C_23  and  C_27
REMARK    5  A    between atoms: C_32  and  O_33
REMARK                            x       y       z     vdW  Elec       q    Type
REMARK                         _______ _______ _______ _____ _____    ______ ____
ROOT
ATOM      1  S   UNL     1       4.711   3.077  -0.165  0.00  0.00    -0.074 S 
ATOM      2  F   UNL     1       0.438  -3.443   0.130  0.00  0.00    -0.203 F 
ATOM      3  O   UNL     1       5.316  -2.071  -0.232  0.00  0.00    -0.286 OA
ATOM      4  N   UNL     1       3.225   1.335  -0.058  0.00  0.00    -0.314 N 
ATOM      5  C   UNL     1       0.394  -1.069   0.144  0.00  0.00    +0.077 C 
ATOM      6  C   UNL     1       2.468   0.161  -0.006  0.00  0.00    +0.065 A 
ATOM      7  C   UNL     1       2.939   2.717  -0.032  0.00  0.00    +0.139 C 
ATOM      8  C   UNL     1       4.519   1.363  -0.157  0.00  0.00    +0.098 A 
ATOM      9  C   UNL     1       1.077   0.149   0.098  0.00  0.00    +0.034 C 
ATOM     10  C   UNL     1       3.171  -1.064  -0.064  0.00  0.00    +0.057 A 
ATOM     11  C   UNL     1       1.096  -2.275   0.086  0.00  0.00    +0.154 C 
ATOM     12  C   UNL     1       5.341   0.306  -0.223  0.00  0.00    +0.136 A 
ATOM     13  C   UNL     1       2.487  -2.279  -0.018  0.00  0.00    +0.036 C 
ATOM     14  C   UNL     1       4.667  -1.033  -0.177  0.00  0.00    +0.205 A 
ATOM     15  C   UNL     1       2.390   3.157   1.303  0.00  0.00    +0.037 C 
ENDROOT
BRANCH   5  16
ATOM     16  N   UNL     1      -1.001  -1.077   0.247  0.00  0.00    -0.310 N 
ATOM     17  N   UNL     1      -3.823  -0.947   0.670  0.00  0.00    +0.394 N 
ATOM     18  C   UNL     1      -1.780   0.023  -0.328  0.00  0.00    +0.068 C 
ATOM     19  C   UNL     1      -1.602  -1.740   1.412  0.00  0.00    +0.068 C 
ATOM     20  C   UNL     1      -3.230  -0.408  -0.559  0.00  0.00    -0.055 C 
ATOM     21  C   UNL     1      -3.058  -2.115   1.123  0.00  0.00    -0.055 C 
ATOM     22  H   UNL     1      -3.788  -0.230   1.395  0.00  0.00    -0.079 HD
BRANCH  17  23
ATOM     23  C   UNL     1      -5.224  -1.306   0.451  0.00  0.00    -0.008 C 
BRANCH  23  27
ATOM     24  O   UNL     1      -5.668   1.085   0.761  0.00  0.00    -0.397 OA
ATOM     25  O   UNL     1      -7.208   1.479  -0.939  0.00  0.00    -0.395 OA
ATOM     26  O   UNL     1      -6.547   3.181   0.450  0.00  0.00    -0.202 OA
ATOM     27  C   UNL     1      -5.932  -0.063   0.041  0.00  0.00    +0.139 A 
ATOM     28  C   UNL     1      -6.803   0.160  -0.920  0.00  0.00    +0.158 A 
ATOM     29  C   UNL     1      -7.387  -0.748  -1.937  0.00  0.00    +0.076 C 
ATOM     30  C   UNL     1      -6.480   2.004   0.116  0.00  0.00    +0.521 A 
ENDBRANCH  23  27
ENDBRANCH  17  23
ENDBRANCH   5  16
BRANCH  12  32
ATOM     31  O   UNL     1       7.390   1.458   0.129  0.00  0.00    -0.245 OA
ATOM     32  C   UNL     1       6.781   0.504  -0.332  0.00  0.00    +0.343 C 
BRANCH  32  33
ATOM     33  O   UNL     1       7.336  -0.521  -1.016  0.00  0.00    -0.477 OA
ATOM     34  H   UNL     1       6.796  -1.216  -1.337  0.00  0.00    +0.295 HD
ENDBRANCH  32  33
ENDBRANCH  12  32
TORSDOF 5
