REMARK  Name = 59568713
REMARK  8 active torsions:
REMARK  status: ('A' for Active; 'I' for Inactive)
REMARK    1  A    between atoms: N_1  and  C_9
REMARK    2  A    between atoms: N_2  and  C_24
REMARK    3  A    between atoms: C_9  and  C_10
REMARK    4  A    between atoms: C_10  and  C_13
REMARK    5  A    between atoms: C_10  and  O_22
REMARK    6  A    between atoms: C_24  and  C_25
REMARK    7  A    between atoms: C_25  and  C_28
REMARK    8  A    between atoms: C_25  and  O_37
REMARK                            x       y       z     vdW  Elec       q    Type
REMARK                         _______ _______ _______ _____ _____    ______ ____
ROOT
ATOM      1  N   UNL     1       1.400  -0.959  -0.361  0.00  0.00    +0.386 N 
ATOM      2  N   UNL     1      -1.400  -0.957   0.360  0.00  0.00    +0.386 N 
ATOM      3  C   UNL     1      -0.748   0.247  -0.170  0.00  0.00    -0.101 C 
ATOM      4  C   UNL     1      -0.749  -2.164  -0.162  0.00  0.00    -0.101 C 
ATOM      5  C   UNL     1       0.748   0.248   0.161  0.00  0.00    -0.101 C 
ATOM      6  C   UNL     1       0.748  -2.163   0.168  0.00  0.00    -0.101 C 
ATOM      7  H   UNL     1       1.305  -0.962  -1.376  0.00  0.00    -0.080 HD
ATOM      8  H   UNL     1      -1.303  -0.954   1.376  0.00  0.00    -0.080 HD
ENDROOT
BRANCH   1   9
ATOM      9  C   UNL     1       2.826  -0.958  -0.041  0.00  0.00    -0.043 C 
BRANCH   9  10
ATOM     10  C   UNL     1       3.598  -0.034  -0.992  0.00  0.00    +0.112 C 
BRANCH  10  13
ATOM     11  O   UNL     1       9.119   1.216   1.147  0.00  0.00    -0.440 OA
ATOM     12  O   UNL     1      10.110  -0.517  -0.024  0.00  0.00    -0.245 OA
ATOM     13  C   UNL     1       5.077  -0.022  -0.674  0.00  0.00    -0.002 C 
ATOM     14  C   UNL     1       5.611   0.934   0.196  0.00  0.00    -0.024 C 
ATOM     15  C   UNL     1       6.970   0.900   0.451  0.00  0.00    +0.023 C 
ATOM     16  C   UNL     1       5.902  -0.990  -1.271  0.00  0.00    -0.002 C 
ATOM     17  C   UNL     1       7.769  -0.056  -0.143  0.00  0.00    +0.075 C 
ATOM     18  C   UNL     1       7.272  -1.014  -1.007  0.00  0.00    +0.006 C 
ATOM     19  C   UNL     1       7.790   1.770   1.313  0.00  0.00    +0.235 C 
ATOM     20  C   UNL     1       4.747   1.967   0.836  0.00  0.00    +0.031 C 
ATOM     21  C   UNL     1       9.141   0.141   0.298  0.00  0.00    +0.341 C 
ENDBRANCH  10  13
BRANCH  10  22
ATOM     22  O   UNL     1       3.435  -0.467  -2.342  0.00  0.00    -0.382 OA
ATOM     23  H   UNL     1       2.492  -0.481  -2.566  0.00  0.00    +0.211 HD
ENDBRANCH  10  22
ENDBRANCH   9  10
ENDBRANCH   1   9
BRANCH   2  24
ATOM     24  C   UNL     1      -2.826  -0.958   0.043  0.00  0.00    -0.043 C 
BRANCH  24  25
ATOM     25  C   UNL     1      -3.596  -0.028   0.989  0.00  0.00    +0.112 C 
BRANCH  25  28
ATOM     26  O   UNL     1      -9.121   1.209  -1.149  0.00  0.00    -0.440 OA
ATOM     27  O   UNL     1     -10.110  -0.517   0.034  0.00  0.00    -0.245 OA
ATOM     28  C   UNL     1      -5.076  -0.018   0.673  0.00  0.00    -0.002 C 
ATOM     29  C   UNL     1      -5.612   0.933  -0.201  0.00  0.00    -0.024 C 
ATOM     30  C   UNL     1      -6.971   0.897  -0.454  0.00  0.00    +0.023 C 
ATOM     31  C   UNL     1      -5.901  -0.983   1.278  0.00  0.00    -0.002 C 
ATOM     32  C   UNL     1      -7.769  -0.055   0.146  0.00  0.00    +0.075 C 
ATOM     33  C   UNL     1      -7.271  -1.008   1.015  0.00  0.00    +0.006 C 
ATOM     34  C   UNL     1      -7.792   1.762  -1.319  0.00  0.00    +0.235 C 
ATOM     35  C   UNL     1      -4.749   1.962  -0.848  0.00  0.00    +0.031 C 
ATOM     36  C   UNL     1      -9.142   0.139  -0.293  0.00  0.00    +0.341 C 
ENDBRANCH  25  28
BRANCH  25  37
ATOM     37  O   UNL     1      -3.432  -0.453   2.342  0.00  0.00    -0.382 OA
ATOM     38  H   UNL     1      -2.488  -0.466   2.564  0.00  0.00    +0.211 HD
ENDBRANCH  25  37
ENDBRANCH  24  25
ENDBRANCH   2  24
TORSDOF 8
