REMARK  Name = 708857
REMARK  2 active torsions:
REMARK  status: ('A' for Active; 'I' for Inactive)
REMARK    1  A    between atoms: C_6  and  C_8
REMARK    2  A    between atoms: C_9  and  C_11
REMARK                            x       y       z     vdW  Elec       q    Type
REMARK                         _______ _______ _______ _____ _____    ______ ____
ROOT
ATOM      1  N   UNL     1      -2.444   0.968  -0.164  0.00  0.00    -0.292 N 
ATOM      2  N   UNL     1      -1.640  -1.270   0.173  0.00  0.00    -0.256 NA
ATOM      3  C   UNL     1      -3.841   0.558  -0.277  0.00  0.00    +0.094 C 
ATOM      4  C   UNL     1      -4.041  -0.753   0.466  0.00  0.00    +0.048 C 
ATOM      5  C   UNL     1      -3.009  -1.762  -0.008  0.00  0.00    +0.129 C 
ATOM      6  C   UNL     1      -1.446   0.016   0.073  0.00  0.00    +0.127 C 
ATOM      7  C   UNL     1      -2.168   2.379  -0.400  0.00  0.00    +0.114 C 
ENDROOT
BRANCH   6   8
ATOM      8  C   UNL     1      -0.021   0.418   0.246  0.00  0.00    +0.034 C 
ATOM      9  C   UNL     1       0.906  -0.449  -0.140  0.00  0.00    +0.009 C 
BRANCH   9  11
ATOM     10  S   UNL     1       3.411  -1.344  -0.611  0.00  0.00    -0.086 S 
ATOM     11  C   UNL     1       2.310  -0.177  -0.042  0.00  0.00    +0.030 C 
ATOM     12  C   UNL     1       2.913   0.935   0.467  0.00  0.00    +0.007 C 
ATOM     13  C   UNL     1       4.332   0.835   0.391  0.00  0.00    +0.007 C 
ATOM     14  C   UNL     1       4.738  -0.353  -0.174  0.00  0.00    +0.035 C 
ENDBRANCH   9  11
ENDBRANCH   6   8
TORSDOF 2
