REMARK  Name = 38081
REMARK  4 active torsions:
REMARK  status: ('A' for Active; 'I' for Inactive)
REMARK    1  A    between atoms: N_1  and  C_4
REMARK    2  A    between atoms: C_5  and  C_13
REMARK    3  A    between atoms: C_16  and  C_21
REMARK    4  A    between atoms: C_21  and  O_22
REMARK                            x       y       z     vdW  Elec       q    Type
REMARK                         _______ _______ _______ _____ _____    ______ ____
ROOT
ATOM      1  N   UNL     1       0.788  -0.234  -0.072  0.00  0.00    -0.298 N 
ATOM      2  H   UNL     1       0.786  -1.210  -0.200  0.00  0.00    +0.154 HD
ATOM      3  N   UNL     1       2.100   1.636  -0.709  0.00  0.00    -0.229 NA
ATOM      4  C   UNL     1       2.052   0.358  -0.253  0.00  0.00    +0.138 C 
ATOM      5  C   UNL     1       3.187  -0.389   0.042  0.00  0.00    +0.107 C 
ATOM      6  C   UNL     1       4.432   0.203  -0.140  0.00  0.00    +0.011 C 
ATOM      7  C   UNL     1       4.512   1.511  -0.605  0.00  0.00    +0.021 C 
ATOM      8  C   UNL     1       3.327   2.178  -0.872  0.00  0.00    +0.100 C 
ENDROOT
BRANCH   1  10
ATOM      9  C   UNL     1      -1.649  -0.306  -0.196  0.00  0.00    -0.005 C 
ATOM     10  C   UNL     1      -0.477   0.299   0.259  0.00  0.00    +0.045 C 
ATOM     11  C   UNL     1      -2.890   0.234   0.143  0.00  0.00    +0.069 C 
ATOM     12  C   UNL     1      -0.547   1.444   1.053  0.00  0.00    +0.014 C 
ATOM     13  C   UNL     1      -2.959   1.378   0.937  0.00  0.00    +0.004 C 
ATOM     14  C   UNL     1      -1.579  -1.536  -1.046  0.00  0.00    +0.032 C 
ATOM     15  C   UNL     1      -1.788   1.983   1.392  0.00  0.00    +0.001 C 
BRANCH  11  19
ATOM     16  F   UNL     1      -5.282   0.257   0.093  0.00  0.00    -0.166 F 
ATOM     17  F   UNL     1      -4.267  -0.450  -1.689  0.00  0.00    -0.166 F 
ATOM     18  F   UNL     1      -4.298  -1.682   0.102  0.00  0.00    -0.166 F 
ATOM     19  C   UNL     1      -4.159  -0.396  -0.329  0.00  0.00    +0.418 C 
ENDBRANCH  11  19
ENDBRANCH   1  10
BRANCH   5  21
ATOM     20  O   UNL     1       2.195  -2.228   1.208  0.00  0.00    -0.245 OA
ATOM     21  C   UNL     1       3.113  -1.760   0.529  0.00  0.00    +0.341 C 
BRANCH  21  22
ATOM     22  O   UNL     1       4.189  -2.503   0.151  0.00  0.00    -0.477 OA
ATOM     23  H   UNL     1       4.868  -2.115  -0.364  0.00  0.00    +0.295 HD
ENDBRANCH  21  22
ENDBRANCH   5  21
TORSDOF 4
