REMARK  Name = 2999413
REMARK  3 active torsions:
REMARK  status: ('A' for Active; 'I' for Inactive)
REMARK    1  A    between atoms: C_3  and  O_21
REMARK    2  A    between atoms: C_18  and  O_23
REMARK    3  A    between atoms: C_19  and  O_25
REMARK                            x       y       z     vdW  Elec       q    Type
REMARK                         _______ _______ _______ _____ _____    ______ ____
ROOT
ATOM      1  O   UNL     1       0.057   1.716  -0.114  0.00  0.00    -0.449 OA
ATOM      2  O   UNL     1       0.400   1.188   2.119  0.00  0.00    -0.245 OA
ATOM      3  C   UNL     1      -4.266  -0.618  -0.629  0.00  0.00    +0.111 C 
ATOM      4  C   UNL     1      -3.302  -1.807  -0.750  0.00  0.00    +0.029 C 
ATOM      5  C   UNL     1      -3.600   0.721  -0.274  0.00  0.00    +0.029 C 
ATOM      6  C   UNL     1      -2.628  -2.209   0.571  0.00  0.00    +0.002 C 
ATOM      7  C   UNL     1      -2.595   1.195  -1.327  0.00  0.00    +0.006 C 
ATOM      8  C   UNL     1      -1.496  -3.222   0.360  0.00  0.00    +0.000 C 
ATOM      9  C   UNL     1      -2.007   2.579  -1.019  0.00  0.00    +0.044 C 
ATOM     10  C   UNL     1      -0.192  -2.585  -0.136  0.00  0.00    +0.005 C 
ATOM     11  C   UNL     1      -1.053   2.590   0.183  0.00  0.00    +0.169 C 
ATOM     12  C   UNL     1       0.590  -1.894   0.991  0.00  0.00    +0.027 C 
ATOM     13  C   UNL     1       1.760  -1.098   0.461  0.00  0.00    -0.010 C 
ATOM     14  C   UNL     1      -0.509   3.995   0.426  0.00  0.00    +0.047 C 
ATOM     15  C   UNL     1       1.774   0.306   0.400  0.00  0.00    +0.105 C 
ATOM     16  C   UNL     1       0.669   1.113   0.933  0.00  0.00    +0.344 C 
ATOM     17  C   UNL     1       2.881  -1.789  -0.029  0.00  0.00    +0.033 C 
ATOM     18  C   UNL     1       2.870   0.997  -0.134  0.00  0.00    +0.143 C 
ATOM     19  C   UNL     1       3.974  -1.103  -0.564  0.00  0.00    +0.136 C 
ATOM     20  C   UNL     1       3.967   0.288  -0.618  0.00  0.00    +0.073 C 
ENDROOT
BRANCH   3  21
ATOM     21  O   UNL     1      -5.246  -0.925   0.361  0.00  0.00    -0.384 OA
ATOM     22  H   UNL     1      -5.672  -1.769   0.144  0.00  0.00    +0.210 HD
ENDBRANCH   3  21
BRANCH  18  23
ATOM     23  O   UNL     1       2.904   2.359  -0.177  0.00  0.00    -0.505 OA
ATOM     24  H   UNL     1       2.177   2.856   0.143  0.00  0.00    +0.292 HD
ENDBRANCH  18  23
BRANCH  19  25
ATOM     25  O   UNL     1       5.047  -1.797  -1.034  0.00  0.00    -0.505 OA
ATOM     26  H   UNL     1       5.052  -2.733  -0.998  0.00  0.00    +0.292 HD
ENDBRANCH  19  25
TORSDOF 3
