REMARK  Name = 10288191
REMARK  7 active torsions:
REMARK  status: ('A' for Active; 'I' for Inactive)
REMARK    1  A    between atoms: C_6  and  N_21
REMARK    2  A    between atoms: C_7  and  C_14
REMARK    3  A    between atoms: N_13  and  O_16
REMARK    4  A    between atoms: O_16  and  C_17
REMARK    5  A    between atoms: C_17  and  C_18
REMARK    6  A    between atoms: C_18  and  O_19
REMARK    7  A    between atoms: N_21  and  C_25
REMARK                            x       y       z     vdW  Elec       q    Type
REMARK                         _______ _______ _______ _____ _____    ______ ____
ROOT
ATOM      1  F   UNL     1       2.066   1.811   0.709  0.00  0.00    -0.202 F 
ATOM      2  N   UNL     1      -1.863   3.998  -0.064  0.00  0.00    -0.285 N 
ATOM      3  N   UNL     1       0.288   4.182   0.464  0.00  0.00    -0.245 NA
ATOM      4  C   UNL     1      -1.380   2.714  -0.045  0.00  0.00    +0.066 C 
ATOM      5  C   UNL     1      -0.035   2.856   0.286  0.00  0.00    +0.119 C 
ATOM      6  C   UNL     1       0.182   0.458   0.158  0.00  0.00    +0.067 C 
ATOM      7  C   UNL     1      -1.170   0.348  -0.173  0.00  0.00    +0.140 C 
ATOM      8  C   UNL     1      -1.985   1.480  -0.282  0.00  0.00    +0.005 C 
ATOM      9  C   UNL     1       0.768   1.708   0.392  0.00  0.00    +0.168 C 
ATOM     10  C   UNL     1      -0.830   4.837   0.246  0.00  0.00    +0.220 C 
ATOM     11  C   UNL     1      -3.218   4.404  -0.356  0.00  0.00    +0.114 C 
ENDROOT
BRANCH   7  14
ATOM     12  O   UNL     1      -1.108  -1.887  -0.892  0.00  0.00    -0.272 OA
ATOM     13  N   UNL     1      -3.124  -1.086  -0.108  0.00  0.00    -0.193 N 
ATOM     14  C   UNL     1      -1.778  -0.956  -0.416  0.00  0.00    +0.254 C 
ATOM     15  H   UNL     1      -3.650  -0.338   0.257  0.00  0.00    +0.183 HD
BRANCH  13  16
ATOM     16  O   UNL     1      -3.692  -2.352  -0.349  0.00  0.00    -0.264 OA
BRANCH  16  17
ATOM     17  C   UNL     1      -5.064  -2.305   0.020  0.00  0.00    +0.203 C 
BRANCH  17  18
ATOM     18  C   UNL     1      -5.691  -3.663  -0.234  0.00  0.00    +0.172 C 
BRANCH  18  19
ATOM     19  O   UNL     1      -5.000  -4.643   0.530  0.00  0.00    -0.379 OA
ATOM     20  H   UNL     1      -5.396  -5.514   0.373  0.00  0.00    +0.211 HD
ENDBRANCH  18  19
ENDBRANCH  17  18
ENDBRANCH  16  17
ENDBRANCH  13  16
ENDBRANCH   7  14
BRANCH   6  21
ATOM     21  N   UNL     1       0.990  -0.700   0.263  0.00  0.00    -0.312 N 
ATOM     22  H   UNL     1       0.497  -1.503   0.549  0.00  0.00    +0.152 HD
BRANCH  21  25
ATOM     23 BR   UNL     1       6.923  -1.670  -0.713  0.00  0.00    -0.049 Br
ATOM     24  F   UNL     1       2.391  -2.646   1.676  0.00  0.00    -0.203 F 
ATOM     25  C   UNL     1       2.358  -0.925   0.040  0.00  0.00    +0.076 C 
ATOM     26  C   UNL     1       3.039  -1.909   0.762  0.00  0.00    +0.154 C 
ATOM     27  C   UNL     1       3.048  -0.165  -0.909  0.00  0.00    +0.017 C 
ATOM     28  C   UNL     1       4.397  -2.131   0.538  0.00  0.00    +0.038 C 
ATOM     29  C   UNL     1       4.406  -0.387  -1.133  0.00  0.00    +0.008 C 
ATOM     30  C   UNL     1       5.081  -1.371  -0.410  0.00  0.00    +0.037 C 
ENDBRANCH  21  25
ENDBRANCH   6  21
TORSDOF 7
