REMARK  Name = 10624
REMARK  7 active torsions:
REMARK  status: ('A' for Active; 'I' for Inactive)
REMARK    1  A    between atoms: C_2  and  C_18
REMARK    2  A    between atoms: C_6  and  O_11
REMARK    3  A    between atoms: O_11  and  P_12
REMARK    4  A    between atoms: P_12  and  O_14
REMARK    5  A    between atoms: P_12  and  O_16
REMARK    6  A    between atoms: C_18  and  C_19
REMARK    7  A    between atoms: C_19  and  N_20
REMARK                            x       y       z     vdW  Elec       q    Type
REMARK                         _______ _______ _______ _____ _____    ______ ____
ROOT
ATOM      1  N   UNL     1      -1.391   3.199  -0.145  0.00  0.00    -0.312 N 
ATOM      2  C   UNL     1       0.267   1.765  -0.497  0.00  0.00    -0.006 C 
ATOM      3  C   UNL     1      -0.896   1.023  -0.145  0.00  0.00    +0.045 C 
ATOM      4  C   UNL     1      -1.921   1.946   0.071  0.00  0.00    +0.051 C 
ATOM      5  C   UNL     1      -0.069   3.099  -0.488  0.00  0.00    +0.058 C 
ATOM      6  C   UNL     1      -1.175  -0.349   0.011  0.00  0.00    +0.150 C 
ATOM      7  C   UNL     1      -3.217   1.565   0.436  0.00  0.00    +0.015 C 
ATOM      8  C   UNL     1      -2.466  -0.746   0.376  0.00  0.00    +0.037 C 
ATOM      9  C   UNL     1      -3.470   0.198   0.585  0.00  0.00    +0.004 C 
ATOM     10  H   UNL     1      -1.889   4.043  -0.064  0.00  0.00    +0.152 HD
ENDROOT
BRANCH   6  11
ATOM     11  O   UNL     1      -0.214  -1.306  -0.186  0.00  0.00    -0.403 OA
BRANCH  11  12
ATOM     12  P   UNL     1      -0.446  -2.895  -0.030  0.00  0.00    +0.528 P 
ATOM     13  O   UNL     1      -0.887  -3.351   1.330  0.00  0.00    -0.216 OA
BRANCH  12  14
ATOM     14  O   UNL     1      -1.437  -3.274  -1.252  0.00  0.00    -0.293 OA
ATOM     15  H   UNL     1      -1.067  -2.939  -2.083  0.00  0.00    +0.223 HD
ENDBRANCH  12  14
BRANCH  12  16
ATOM     16  O   UNL     1       0.973  -3.505  -0.513  0.00  0.00    -0.293 OA
ATOM     17  H   UNL     1       1.187  -3.166  -1.396  0.00  0.00    +0.223 HD
ENDBRANCH  12  16
ENDBRANCH  11  12
ENDBRANCH   6  11
BRANCH   2  18
ATOM     18  C   UNL     1       1.602   1.219  -0.815  0.00  0.00    +0.005 C 
BRANCH  18  19
ATOM     19  C   UNL     1       2.505   1.078   0.424  0.00  0.00    -0.073 C 
BRANCH  19  20
ATOM     20  N   UNL     1       3.826   0.565   0.080  0.00  0.00    +0.384 N 
ATOM     21  C   UNL     1       3.723  -0.774  -0.502  0.00  0.00    -0.101 C 
ATOM     22  C   UNL     1       4.693   0.542   1.259  0.00  0.00    -0.101 C 
ATOM     23  H   UNL     1       4.240   1.189  -0.613  0.00  0.00    -0.080 HD
ENDBRANCH  19  20
ENDBRANCH  18  19
ENDBRANCH   2  18
TORSDOF 7
