REMARK  Name = 12901
REMARK  5 active torsions:
REMARK  status: ('A' for Active; 'I' for Inactive)
REMARK    1  A    between atoms: N_3  and  C_12
REMARK    2  A    between atoms: C_12  and  S_13
REMARK    3  A    between atoms: S_13  and  P_15
REMARK    4  A    between atoms: P_15  and  O_16
REMARK    5  A    between atoms: P_15  and  O_18
REMARK                            x       y       z     vdW  Elec       q    Type
REMARK                         _______ _______ _______ _____ _____    ______ ____
ROOT
ATOM      1  O   UNL     1       0.975  -2.338   0.220  0.00  0.00    -0.269 OA
ATOM      2  O   UNL     1       0.937   2.290   0.437  0.00  0.00    -0.269 OA
ATOM      3  N   UNL     1       0.532  -0.031   0.397  0.00  0.00    -0.212 N 
ATOM      4  C   UNL     1       2.661  -0.687  -0.014  0.00  0.00    +0.058 C 
ATOM      5  C   UNL     1       2.648   0.698   0.051  0.00  0.00    +0.058 C 
ATOM      6  C   UNL     1       1.297  -1.164   0.212  0.00  0.00    +0.256 C 
ATOM      7  C   UNL     1       1.276   1.127   0.320  0.00  0.00    +0.256 C 
ATOM      8  C   UNL     1       3.819  -1.397  -0.256  0.00  0.00    +0.005 C 
ATOM      9  C   UNL     1       3.794   1.448  -0.122  0.00  0.00    +0.005 C 
ATOM     10  C   UNL     1       4.992  -0.658  -0.435  0.00  0.00    +0.000 C 
ATOM     11  C   UNL     1       4.980   0.750  -0.368  0.00  0.00    +0.000 C 
ENDROOT
BRANCH   3  12
ATOM     12  C   UNL     1      -0.896  -0.056   0.644  0.00  0.00    +0.168 C 
BRANCH  12  13
ATOM     13  S   UNL     1      -1.813   0.037  -0.906  0.00  0.00    -0.041 S 
BRANCH  13  15
ATOM     14  S   UNL     1      -5.219  -0.171  -1.759  0.00  0.00    +0.003 S 
ATOM     15  P   UNL     1      -3.865  -0.011  -0.348  0.00  0.00    +0.233 P 
BRANCH  15  16
ATOM     16  O   UNL     1      -4.125   1.284   0.616  0.00  0.00    -0.307 OA
ATOM     17  C   UNL     1      -4.092   2.596   0.078  0.00  0.00    +0.182 C 
ENDBRANCH  15  16
BRANCH  15  18
ATOM     18  O   UNL     1      -4.023  -1.175   0.790  0.00  0.00    -0.307 OA
ATOM     19  C   UNL     1      -3.880  -2.542   0.443  0.00  0.00    +0.182 C 
ENDBRANCH  15  18
ENDBRANCH  13  15
ENDBRANCH  12  13
ENDBRANCH   3  12
TORSDOF 5
