REMARK  Name = 11511120
REMARK  6 active torsions:
REMARK  status: ('A' for Active; 'I' for Inactive)
REMARK    1  A    between atoms: N_1  and  C_15
REMARK    2  A    between atoms: C_4  and  N_22
REMARK    3  A    between atoms: C_7  and  O_35
REMARK    4  A    between atoms: C_23  and  C_26
REMARK    5  A    between atoms: C_25  and  C_27
REMARK    6  A    between atoms: C_27  and  N_28
REMARK                            x       y       z     vdW  Elec       q    Type
REMARK                         _______ _______ _______ _____ _____    ______ ____
ROOT
ATOM      1  N   UNL     1       2.930  -0.362   0.731  0.00  0.00    -0.298 N 
ATOM      2  N   UNL     1       3.761   3.466  -0.603  0.00  0.00    -0.248 NA
ATOM      3  N   UNL     1       4.491   1.276   0.088  0.00  0.00    -0.230 NA
ATOM      4  C   UNL     1      -0.201   2.389  -0.004  0.00  0.00    +0.081 C 
ATOM      5  C   UNL     1       2.137   1.825   0.046  0.00  0.00    +0.046 C 
ATOM      6  C   UNL     1       0.793   1.463   0.247  0.00  0.00    +0.021 C 
ATOM      7  C   UNL     1       0.107   3.659  -0.448  0.00  0.00    +0.135 C 
ATOM      8  C   UNL     1       2.479   3.110  -0.406  0.00  0.00    +0.066 C 
ATOM      9  C   UNL     1       3.197   0.952   0.275  0.00  0.00    +0.131 C 
ATOM     10  C   UNL     1       1.445   4.011  -0.646  0.00  0.00    +0.111 C 
ATOM     11  C   UNL     1       4.697   2.531  -0.344  0.00  0.00    +0.252 C 
ATOM     12  H   UNL     1       2.115  -0.434   1.279  0.00  0.00    +0.154 HD
ENDROOT
BRANCH   1  15
ATOM     13 CL   UNL     1       5.910  -3.306  -2.227  0.00  0.00    -0.080 Cl
ATOM     14  F   UNL     1       5.577  -5.181   0.045  0.00  0.00    -0.203 F 
ATOM     15  C   UNL     1       3.602  -1.582   0.553  0.00  0.00    +0.050 C 
ATOM     16  C   UNL     1       4.338  -1.817  -0.612  0.00  0.00    +0.028 C 
ATOM     17  C   UNL     1       3.539  -2.570   1.540  0.00  0.00    +0.017 C 
ATOM     18  C   UNL     1       5.006  -3.029  -0.788  0.00  0.00    +0.086 C 
ATOM     19  C   UNL     1       4.206  -3.782   1.363  0.00  0.00    +0.032 C 
ATOM     20  C   UNL     1       4.940  -4.012   0.199  0.00  0.00    +0.151 C 
ENDBRANCH   1  15
BRANCH   4  22
ATOM     21  O   UNL     1      -1.377  -0.208   0.938  0.00  0.00    -0.270 OA
ATOM     22  N   UNL     1      -1.552   2.015   0.202  0.00  0.00    -0.278 N 
ATOM     23  C   UNL     1      -2.028   0.788   0.643  0.00  0.00    +0.249 C 
ATOM     24  H   UNL     1      -2.229   2.704   0.012  0.00  0.00    +0.155 HD
BRANCH  23  26
ATOM     25  C   UNL     1      -4.181  -0.299   1.135  0.00  0.00    -0.044 C 
ATOM     26  C   UNL     1      -3.519   0.793   0.730  0.00  0.00    +0.051 C 
BRANCH  25  27
ATOM     27  C   UNL     1      -5.675  -0.358   1.253  0.00  0.00    -0.050 C 
BRANCH  27  28
ATOM     28  N   UNL     1      -6.237  -1.433   0.436  0.00  0.00    +0.390 N 
ATOM     29  C   UNL     1      -7.945  -2.547  -1.658  0.00  0.00    -0.004 C 
ATOM     30  C   UNL     1      -6.442  -2.372  -1.844  0.00  0.00    -0.023 C 
ATOM     31  C   UNL     1      -8.287  -2.674  -0.177  0.00  0.00    -0.023 C 
ATOM     32  C   UNL     1      -5.904  -1.230  -0.981  0.00  0.00    -0.077 C 
ATOM     33  C   UNL     1      -7.690  -1.522   0.633  0.00  0.00    -0.077 C 
ATOM     34  H   UNL     1      -5.824  -2.318   0.732  0.00  0.00    -0.079 HD
ENDBRANCH  27  28
ENDBRANCH  25  27
ENDBRANCH  23  26
ENDBRANCH   4  22
BRANCH   7  35
ATOM     35  O   UNL     1      -0.864   4.583  -0.700  0.00  0.00    -0.474 OA
ATOM     36  C   UNL     1      -1.253   5.425   0.382  0.00  0.00    +0.252 C 
ENDBRANCH   7  35
TORSDOF 6
