REMARK  Name = 16720766
REMARK  7 active torsions:
REMARK  status: ('A' for Active; 'I' for Inactive)
REMARK    1  A    between atoms: N_1  and  C_10
REMARK    2  A    between atoms: C_11  and  C_17
REMARK    3  A    between atoms: C_13  and  O_15
REMARK    4  A    between atoms: C_17  and  O_18
REMARK    5  A    between atoms: O_18  and  S_19
REMARK    6  A    between atoms: S_19  and  N_22
REMARK    7  A    between atoms: N_25  and  C_27
REMARK                            x       y       z     vdW  Elec       q    Type
REMARK                         _______ _______ _______ _____ _____    ______ ____
ROOT
ATOM      1  N   UNL     1      -0.976   0.524  -0.289  0.00  0.00    -0.276 N 
ATOM      2  N   UNL     1       0.190   2.563   0.256  0.00  0.00    -0.233 NA
ATOM      3  N   UNL     1       2.602   2.269   0.398  0.00  0.00    -0.233 NA
ATOM      4  C   UNL     1       0.156   1.250  -0.034  0.00  0.00    +0.120 C 
ATOM      5  C   UNL     1      -0.635  -0.780  -0.544  0.00  0.00    +0.062 C 
ATOM      6  C   UNL     1       1.246   0.393  -0.127  0.00  0.00    +0.131 C 
ATOM      7  C   UNL     1       0.736  -0.890  -0.451  0.00  0.00    +0.004 C 
ATOM      8  C   UNL     1       2.519   0.941   0.101  0.00  0.00    +0.113 C 
ATOM      9  C   UNL     1       1.455   2.983   0.456  0.00  0.00    +0.252 C 
ATOM     10  N   UNL     1       3.664   0.163   0.028  0.00  0.00    -0.319 N 
ATOM     11  H   UNL     1       3.563  -0.792  -0.190  0.00  0.00    +0.148 HD
ENDROOT
BRANCH  10  12
ATOM     12  C   UNL     1       4.995   0.672   0.253  0.00  0.00    +0.093 C 
ATOM     13  C   UNL     1       5.324   0.709   1.757  0.00  0.00    +0.029 C 
ATOM     14  C   UNL     1       6.024  -0.297  -0.246  0.00  0.00    -0.008 C 
ATOM     15  C   UNL     1       5.945  -0.653   2.113  0.00  0.00    +0.028 C 
ATOM     16  C   UNL     1       6.567  -1.041   0.809  0.00  0.00    -0.025 C 
ATOM     17  C   UNL     1       6.427  -0.515  -1.554  0.00  0.00    -0.003 C 
ATOM     18  C   UNL     1       7.516  -2.022   0.577  0.00  0.00    -0.005 C 
ATOM     19  C   UNL     1       7.393  -1.494  -1.795  0.00  0.00    -0.000 C 
ATOM     20  C   UNL     1       7.933  -2.243  -0.737  0.00  0.00    -0.000 C 
ENDBRANCH  10  12
BRANCH   1  21
ATOM     21  C   UNL     1      -2.341   1.044  -0.291  0.00  0.00    +0.081 C 
ATOM     22  C   UNL     1      -4.395  -0.264  -0.062  0.00  0.00    +0.061 C 
ATOM     23  C   UNL     1      -3.275   0.395   0.753  0.00  0.00    +0.025 C 
ATOM     24  C   UNL     1      -4.507   0.626  -1.301  0.00  0.00    +0.115 C 
ATOM     25  C   UNL     1      -3.048   0.899  -1.654  0.00  0.00    +0.049 C 
BRANCH  24  26
ATOM     26  O   UNL     1      -5.165   1.848  -0.991  0.00  0.00    -0.384 OA
ATOM     27  H   UNL     1      -6.092   1.668  -0.767  0.00  0.00    +0.210 HD
ENDBRANCH  24  26
BRANCH  22  28
ATOM     28  C   UNL     1      -5.685  -0.413   0.730  0.00  0.00    +0.176 C 
BRANCH  28  29
ATOM     29  O   UNL     1      -6.662  -1.018  -0.100  0.00  0.00    -0.230 OA
BRANCH  29  30
ATOM     30  S   UNL     1      -8.163  -1.307   0.485  0.00  0.00    +0.045 S 
ATOM     31  O   UNL     1      -8.062  -2.289   1.550  0.00  0.00    -0.056 OA
ATOM     32  O   UNL     1      -8.784  -0.020   0.741  0.00  0.00    -0.056 OA
BRANCH  30  33
ATOM     33  N   UNL     1      -8.991  -2.031  -0.830  0.00  0.00    -0.204 NA
ATOM     34  H   UNL     1      -8.576  -2.940  -1.034  0.00  0.00    +0.144 HD
ATOM     35  H   UNL     1      -8.915  -1.431  -1.651  0.00  0.00    +0.144 HD
ENDBRANCH  30  33
ENDBRANCH  29  30
ENDBRANCH  28  29
ENDBRANCH  22  28
ENDBRANCH   1  21
TORSDOF 7
