REMARK  Name = 9913767
REMARK  11 active torsions:
REMARK  status: ('A' for Active; 'I' for Inactive)
REMARK    1  A    between atoms: N_1  and  C_20
REMARK    2  A    between atoms: N_1  and  C_23
REMARK    3  A    between atoms: C_6  and  C_8
REMARK    4  A    between atoms: C_7  and  C_14
REMARK    5  A    between atoms: C_23  and  C_24
REMARK    6  A    between atoms: C_24  and  C_25
REMARK    7  A    between atoms: C_25  and  C_26
REMARK    8  A    between atoms: C_26  and  O_27
REMARK    9  A    between atoms: O_27  and  C_28
REMARK   10  A    between atoms: C_28  and  C_31
REMARK   11  A    between atoms: N_30  and  S_33
REMARK                            x       y       z     vdW  Elec       q    Type
REMARK                         _______ _______ _______ _____ _____    ______ ____
ROOT
ATOM      1  N   UNL     1       2.559  -2.983   0.093  0.00  0.00    -0.287 N 
ATOM      2  N   UNL     1       1.892  -0.833  -0.672  0.00  0.00    -0.388 NA
ATOM      3  N   UNL     1       2.930   0.268   1.689  0.00  0.00    -0.259 NA
ATOM      4  C   UNL     1       2.468  -1.596   0.277  0.00  0.00    +0.185 C 
ATOM      5  C   UNL     1       2.978  -1.056   1.437  0.00  0.00    +0.200 C 
ATOM      6  C   UNL     1       1.843   0.490  -0.420  0.00  0.00    +0.150 C 
ATOM      7  C   UNL     1       2.353   1.031   0.740  0.00  0.00    +0.106 C 
ENDROOT
BRANCH   6   8
ATOM      8  C   UNL     1       1.220   1.278  -1.458  0.00  0.00    +0.031 C 
ATOM      9  C   UNL     1       1.991   1.800  -2.497  0.00  0.00    +0.003 C 
ATOM     10  C   UNL     1      -0.154   1.517  -1.423  0.00  0.00    +0.003 C 
ATOM     11  C   UNL     1       1.389   2.560  -3.499  0.00  0.00    +0.000 C 
ATOM     12  C   UNL     1      -0.757   2.277  -2.425  0.00  0.00    +0.000 C 
ATOM     13  C   UNL     1       0.015   2.799  -3.463  0.00  0.00    +0.000 C 
ENDBRANCH   6   8
BRANCH   7  14
ATOM     14  C   UNL     1       2.319   2.443   1.042  0.00  0.00    +0.020 C 
ATOM     15  C   UNL     1       1.229   2.983   1.726  0.00  0.00    +0.002 C 
ATOM     16  C   UNL     1       3.375   3.267   0.652  0.00  0.00    +0.002 C 
ATOM     17  C   UNL     1       1.195   4.347   2.018  0.00  0.00    +0.000 C 
ATOM     18  C   UNL     1       3.341   4.630   0.944  0.00  0.00    +0.000 C 
ATOM     19  C   UNL     1       2.251   5.170   1.628  0.00  0.00    +0.000 C 
ENDBRANCH   7  14
BRANCH   1  20
ATOM     20  C   UNL     1       3.677  -3.727   0.676  0.00  0.00    +0.075 C 
ATOM     21  C   UNL     1       3.143  -4.756   1.663  0.00  0.00    +0.021 C 
ATOM     22  C   UNL     1       4.476  -4.388  -0.439  0.00  0.00    +0.021 C 
ENDBRANCH   1  20
BRANCH   1  23
ATOM     23  C   UNL     1       1.575  -3.706  -0.677  0.00  0.00    +0.093 C 
BRANCH  23  24
ATOM     24  C   UNL     1       0.182  -3.543  -0.075  0.00  0.00    +0.024 C 
BRANCH  24  25
ATOM     25  C   UNL     1      -0.890  -4.298  -0.861  0.00  0.00    +0.034 C 
BRANCH  25  26
ATOM     26  C   UNL     1      -2.275  -4.088  -0.264  0.00  0.00    +0.143 C 
BRANCH  26  27
ATOM     27  O   UNL     1      -2.575  -2.699  -0.277  0.00  0.00    -0.344 OA
BRANCH  27  28
ATOM     28  C   UNL     1      -3.868  -2.439   0.254  0.00  0.00    +0.228 C 
BRANCH  28  31
ATOM     29  O   UNL     1      -3.368  -0.120  -0.180  0.00  0.00    -0.271 OA
ATOM     30  N   UNL     1      -5.463  -0.640   0.739  0.00  0.00    -0.187 N 
ATOM     31  C   UNL     1      -4.164  -0.957   0.229  0.00  0.00    +0.271 C 
ATOM     32  H   UNL     1      -6.023  -1.389   1.047  0.00  0.00    +0.176 HD
BRANCH  30  33
ATOM     33  S   UNL     1      -6.121   0.932   0.856  0.00  0.00    +0.058 S 
ATOM     34  O   UNL     1      -7.510   0.863   1.266  0.00  0.00    -0.154 OA
ATOM     35  O   UNL     1      -5.178   1.779   1.559  0.00  0.00    -0.154 OA
ATOM     36  C   UNL     1      -6.080   1.395  -0.858  0.00  0.00    +0.200 C 
ENDBRANCH  30  33
ENDBRANCH  28  31
ENDBRANCH  27  28
ENDBRANCH  26  27
ENDBRANCH  25  26
ENDBRANCH  24  25
ENDBRANCH  23  24
ENDBRANCH   1  23
TORSDOF 11
