REMARK  Name = 114811
REMARK  7 active torsions:
REMARK  status: ('A' for Active; 'I' for Inactive)
REMARK    1  A    between atoms: C_1  and  C_2
REMARK    2  A    between atoms: C_1  and  O_12
REMARK    3  A    between atoms: C_1  and  C_14
REMARK    4  A    between atoms: C_5  and  S_8
REMARK    5  A    between atoms: C_14  and  N_16
REMARK    6  A    between atoms: C_14  and  C_23
REMARK    7  A    between atoms: C_17  and  C_21
REMARK                            x       y       z     vdW  Elec       q    Type
REMARK                         _______ _______ _______ _____ _____    ______ ____
ROOT
ATOM      1  C   UNL     1       0.658   0.039  -1.102  0.00  0.00    +0.153 C 
ENDROOT
BRANCH   1   2
ATOM      2  C   UNL     1      -0.805   0.086  -0.724  0.00  0.00    +0.006 C 
ATOM      3  C   UNL     1      -1.701  -0.743  -1.378  0.00  0.00    -0.001 C 
ATOM      4  C   UNL     1      -1.220   0.959   0.269  0.00  0.00    -0.001 C 
ATOM      5  C   UNL     1      -3.485   0.174  -0.031  0.00  0.00    +0.106 C 
ATOM      6  C   UNL     1      -3.051  -0.698  -1.029  0.00  0.00    +0.018 C 
ATOM      7  C   UNL     1      -2.569   1.003   0.618  0.00  0.00    +0.018 C 
BRANCH   5   8
ATOM      8  S   UNL     1      -5.174   0.228   0.406  0.00  0.00    +0.010 S 
ATOM      9  O   UNL     1      -5.448   1.538   0.980  0.00  0.00    -0.169 OA
ATOM     10  O   UNL     1      -5.968  -0.247  -0.719  0.00  0.00    -0.169 OA
ATOM     11  C   UNL     1      -5.335  -0.980   1.701  0.00  0.00    +0.182 C 
ENDBRANCH   5   8
ENDBRANCH   1   2
BRANCH   1  12
ATOM     12  O   UNL     1       0.988   1.314  -1.663  0.00  0.00    -0.378 OA
ATOM     13  H   UNL     1       1.924   1.321  -1.919  0.00  0.00    +0.211 HD
ENDBRANCH   1  12
BRANCH   1  14
ATOM     14  C   UNL     1       1.602  -0.263   0.080  0.00  0.00    +0.138 C 
BRANCH  14  16
ATOM     15  O   UNL     1       3.851   0.552   1.661  0.00  0.00    -0.272 OA
ATOM     16  N   UNL     1       2.980  -0.179  -0.359  0.00  0.00    -0.299 N 
ATOM     17  C   UNL     1       3.999   0.227   0.483  0.00  0.00    +0.253 C 
ATOM     18  H   UNL     1       3.199  -0.420  -1.289  0.00  0.00    +0.150 HD
BRANCH  17  21
ATOM     19 CL   UNL     1       5.984   1.883  -0.150  0.00  0.00    -0.087 Cl
ATOM     20 CL   UNL     1       6.407  -0.888   0.670  0.00  0.00    -0.087 Cl
ATOM     21  C   UNL     1       5.347   0.231  -0.200  0.00  0.00    +0.234 C 
ENDBRANCH  17  21
ENDBRANCH  14  16
BRANCH  14  23
ATOM     22  F   UNL     1       1.578  -2.603  -0.221  0.00  0.00    -0.232 F 
ATOM     23  C   UNL     1       1.361  -1.633   0.708  0.00  0.00    +0.215 C 
ENDBRANCH  14  23
ENDBRANCH   1  14
TORSDOF 7
