REMARK  Name = 24788740
REMARK  6 active torsions:
REMARK  status: ('A' for Active; 'I' for Inactive)
REMARK    1  A    between atoms: C_9  and  O_19
REMARK    2  A    between atoms: C_17  and  C_21
REMARK    3  A    between atoms: C_21  and  C_23
REMARK    4  A    between atoms: C_21  and  C_29
REMARK    5  A    between atoms: C_29  and  N_30
REMARK    6  A    between atoms: N_30  and  C_33
REMARK                            x       y       z     vdW  Elec       q    Type
REMARK                         _______ _______ _______ _____ _____    ______ ____
ROOT
ATOM      1  O   UNL     1      -2.095  -0.605   2.110  0.00  0.00    -0.275 OA
ATOM      2  N   UNL     1       2.278  -0.351  -0.028  0.00  0.00    -0.293 N 
ATOM      3  N   UNL     1      -0.349   0.225   0.824  0.00  0.00    -0.276 N 
ATOM      4  N   UNL     1       6.106  -1.416  -1.282  0.00  0.00    -0.250 NA
ATOM      5  N   UNL     1       3.707  -1.780  -1.266  0.00  0.00    -0.234 NA
ATOM      6  C   UNL     1       4.705   1.232   0.854  0.00  0.00    +0.015 C 
ATOM      7  C   UNL     1       4.635   0.022  -0.018  0.00  0.00    +0.092 C 
ATOM      8  C   UNL     1       6.207   1.228   1.217  0.00  0.00    +0.036 C 
ATOM      9  C   UNL     1       6.948   0.554   0.048  0.00  0.00    +0.146 C 
ATOM     10  C   UNL     1       5.885  -0.379  -0.462  0.00  0.00    +0.067 C 
ATOM     11  C   UNL     1       3.563  -0.713  -0.450  0.00  0.00    +0.111 C 
ATOM     12  C   UNL     1       1.771  -0.957   1.214  0.00  0.00    +0.113 C 
ATOM     13  C   UNL     1       1.264   0.020  -1.024  0.00  0.00    +0.113 C 
ATOM     14  C   UNL     1       0.673  -0.085   1.820  0.00  0.00    +0.115 C 
ATOM     15  C   UNL     1       0.172   0.873  -0.380  0.00  0.00    +0.115 C 
ATOM     16  C   UNL     1       4.285   2.497   0.117  0.00  0.00    +0.001 C 
ATOM     17  C   UNL     1      -1.686  -0.076   1.073  0.00  0.00    +0.227 C 
ATOM     18  C   UNL     1       4.979  -2.069  -1.635  0.00  0.00    +0.251 C 
ENDROOT
BRANCH   9  19
ATOM     19  O   UNL     1       8.087  -0.149   0.499  0.00  0.00    -0.379 OA
ATOM     20  H   UNL     1       8.750   0.482   0.819  0.00  0.00    +0.211 HD
ENDBRANCH   9  19
BRANCH  17  21
ATOM     21  C   UNL     1      -2.670   0.278  -0.013  0.00  0.00    +0.078 C 
BRANCH  21  23
ATOM     22 CL   UNL     1      -7.208  -3.683  -0.060  0.00  0.00    -0.082 Cl
ATOM     23  C   UNL     1      -3.811  -0.717  -0.026  0.00  0.00    -0.016 C 
ATOM     24  C   UNL     1      -3.724  -1.867  -0.809  0.00  0.00    -0.003 C 
ATOM     25  C   UNL     1      -4.948  -0.483   0.748  0.00  0.00    -0.003 C 
ATOM     26  C   UNL     1      -4.774  -2.785  -0.819  0.00  0.00    +0.011 C 
ATOM     27  C   UNL     1      -5.998  -1.401   0.738  0.00  0.00    +0.011 C 
ATOM     28  C   UNL     1      -5.912  -2.552  -0.046  0.00  0.00    +0.058 C 
ENDBRANCH  21  23
BRANCH  21  29
ATOM     29  C   UNL     1      -3.108   1.736   0.180  0.00  0.00    -0.068 C 
BRANCH  29  30
ATOM     30  N   UNL     1      -4.038   2.152  -0.866  0.00  0.00    +0.386 N 
ATOM     31  H   UNL     1      -4.860   1.548  -0.842  0.00  0.00    -0.084 HD
ATOM     32  H   UNL     1      -3.570   2.079  -1.769  0.00  0.00    -0.084 HD
BRANCH  30  33
ATOM     33  C   UNL     1      -4.455   3.532  -0.668  0.00  0.00    -0.062 C 
ATOM     34  C   UNL     1      -5.543   3.609   0.400  0.00  0.00    -0.023 C 
ATOM     35  C   UNL     1      -4.946   4.110  -1.992  0.00  0.00    -0.023 C 
ENDBRANCH  30  33
ENDBRANCH  29  30
ENDBRANCH  21  29
ENDBRANCH  17  21
TORSDOF 6
