REMARK  Name = 71481097
REMARK  6 active torsions:
REMARK  status: ('A' for Active; 'I' for Inactive)
REMARK    1  A    between atoms: N_1  and  C_20
REMARK    2  A    between atoms: C_4  and  C_6
REMARK    3  A    between atoms: C_7  and  C_15
REMARK    4  A    between atoms: C_8  and  C_19
REMARK    5  A    between atoms: C_21  and  C_24
REMARK    6  A    between atoms: N_23  and  N_26
REMARK                            x       y       z     vdW  Elec       q    Type
REMARK                         _______ _______ _______ _____ _____    ______ ____
ROOT
ATOM      1  N   UNL     1       2.681  -2.511   0.207  0.00  0.00    -0.176 N 
ATOM      2  N   UNL     1       1.778  -1.530   0.354  0.00  0.00    -0.122 NA
ATOM      3  N   UNL     1       0.543  -3.302   0.019  0.00  0.00    -0.194 NA
ATOM      4  C   UNL     1       0.509  -2.008   0.241  0.00  0.00    +0.050 C 
ATOM      5  C   UNL     1       1.883  -3.562   0.007  0.00  0.00    +0.252 C 
ENDROOT
BRANCH   4   6
ATOM      6  C   UNL     1      -0.682  -1.214   0.350  0.00  0.00    +0.063 C 
ATOM      7  C   UNL     1      -3.042  -0.913  -0.071  0.00  0.00    +0.072 C 
ATOM      8  C   UNL     1      -1.794   0.799   1.091  0.00  0.00    +0.072 C 
ATOM      9  C   UNL     1      -0.637   0.028   0.984  0.00  0.00    +0.014 C 
ATOM     10  C   UNL     1      -1.885  -1.684  -0.177  0.00  0.00    +0.014 C 
ATOM     11  C   UNL     1      -2.997   0.329   0.563  0.00  0.00    +0.008 C 
BRANCH   7  15
ATOM     12  F   UNL     1      -5.317  -1.554   0.300  0.00  0.00    -0.166 F 
ATOM     13  F   UNL     1      -4.859  -0.605  -1.596  0.00  0.00    -0.166 F 
ATOM     14  F   UNL     1      -4.202  -2.643  -1.217  0.00  0.00    -0.166 F 
ATOM     15  C   UNL     1      -4.329  -1.416  -0.633  0.00  0.00    +0.419 C 
ENDBRANCH   7  15
BRANCH   8  19
ATOM     16  F   UNL     1      -0.500   2.437   2.229  0.00  0.00    -0.166 F 
ATOM     17  F   UNL     1      -2.110   3.167   0.963  0.00  0.00    -0.166 F 
ATOM     18  F   UNL     1      -2.570   2.214   2.856  0.00  0.00    -0.166 F 
ATOM     19  C   UNL     1      -1.747   2.126   1.770  0.00  0.00    +0.419 C 
ENDBRANCH   8  19
ENDBRANCH   4   6
BRANCH   1  20
ATOM     20  C   UNL     1       4.054  -2.468   0.246  0.00  0.00    +0.092 C 
ATOM     21  C   UNL     1       4.774  -1.360   0.478  0.00  0.00    +0.077 C 
BRANCH  21  24
ATOM     22  O   UNL     1       3.756   0.320   1.835  0.00  0.00    -0.269 OA
ATOM     23  N   UNL     1       3.878   0.624  -0.464  0.00  0.00    -0.231 N 
ATOM     24  C   UNL     1       4.084  -0.061   0.716  0.00  0.00    +0.263 C 
ATOM     25  H   UNL     1       4.171   0.249  -1.325  0.00  0.00    +0.173 HD
BRANCH  23  26
ATOM     26  N   UNL     1       3.255   1.838  -0.403  0.00  0.00    -0.246 N 
ATOM     27  N   UNL     1       1.296   3.116  -0.825  0.00  0.00    -0.225 NA
ATOM     28  N   UNL     1       0.529   1.202  -2.725  0.00  0.00    -0.238 NA
ATOM     29  C   UNL     1       2.050   2.030  -1.089  0.00  0.00    +0.164 C 
ATOM     30  C   UNL     1       1.673   1.090  -2.023  0.00  0.00    +0.134 C 
ATOM     31  C   UNL     1       0.152   3.227  -1.528  0.00  0.00    +0.121 C 
ATOM     32  C   UNL     1      -0.225   2.287  -2.461  0.00  0.00    +0.120 C 
ATOM     33  H   UNL     1       3.651   2.573   0.120  0.00  0.00    +0.172 HD
ENDBRANCH  23  26
ENDBRANCH  21  24
ENDBRANCH   1  20
TORSDOF 6
