REMARK  Name = 9299
REMARK  5 active torsions:
REMARK  status: ('A' for Active; 'I' for Inactive)
REMARK    1  A    between atoms: P_2  and  O_3
REMARK    2  A    between atoms: P_2  and  N_5
REMARK    3  A    between atoms: P_2  and  O_10
REMARK    4  A    between atoms: N_5  and  C_7
REMARK    5  A    between atoms: O_10  and  C_13
REMARK                            x       y       z     vdW  Elec       q    Type
REMARK                         _______ _______ _______ _____ _____    ______ ____
ROOT
ATOM      1  S   UNL     1       1.620   0.125   2.643  0.00  0.00    +0.022 S 
ATOM      2  P   UNL     1       1.551   0.513   0.723  0.00  0.00    +0.296 P 
ENDROOT
BRANCH   2   3
ATOM      3  O   UNL     1       2.514   1.767   0.305  0.00  0.00    -0.295 OA
ATOM      4  C   UNL     1       2.429   2.336  -0.991  0.00  0.00    +0.184 C 
ENDBRANCH   2   3
BRANCH   2   5
ATOM      5  N   UNL     1       1.924  -0.705  -0.352  0.00  0.00    -0.230 NA
ATOM      6  H   UNL     1       1.961  -0.277  -1.278  0.00  0.00    +0.133 HD
BRANCH   5   7
ATOM      7  C   UNL     1       3.152  -1.470  -0.196  0.00  0.00    +0.062 C 
ATOM      8  C   UNL     1       4.352  -0.644  -0.649  0.00  0.00    +0.018 C 
ATOM      9  C   UNL     1       3.047  -2.766  -0.994  0.00  0.00    +0.018 C 
ENDBRANCH   5   7
ENDBRANCH   2   5
BRANCH   2  10
ATOM     10  O   UNL     1       0.127   1.139   0.244  0.00  0.00    -0.432 OA
BRANCH  10  13
ATOM     11 CL   UNL     1      -2.187   2.814  -0.695  0.00  0.00    -0.079 Cl
ATOM     12 CL   UNL     1      -4.947  -1.785  -0.205  0.00  0.00    -0.082 Cl
ATOM     13  C   UNL     1      -1.067   0.477   0.132  0.00  0.00    +0.156 C 
ATOM     14  C   UNL     1      -2.216   1.137  -0.293  0.00  0.00    +0.093 C 
ATOM     15  C   UNL     1      -1.108  -0.876   0.453  0.00  0.00    +0.039 C 
ATOM     16  C   UNL     1      -3.418   0.436  -0.397  0.00  0.00    +0.026 C 
ATOM     17  C   UNL     1      -2.309  -1.577   0.349  0.00  0.00    +0.015 C 
ATOM     18  C   UNL     1      -3.465  -0.920  -0.076  0.00  0.00    +0.059 C 
ENDBRANCH  10  13
ENDBRANCH   2  10
TORSDOF 5
