REMARK  Name = 54676478
REMARK  3 active torsions:
REMARK  status: ('A' for Active; 'I' for Inactive)
REMARK    1  A    between atoms: C_5  and  C_15
REMARK    2  A    between atoms: C_6  and  O_23
REMARK    3  A    between atoms: N_14  and  C_17
REMARK                            x       y       z     vdW  Elec       q    Type
REMARK                         _______ _______ _______ _____ _____    ______ ____
ROOT
ATOM      1  O   UNL     1       0.341   2.542  -0.009  0.00  0.00    -0.267 OA
ATOM      2  N   UNL     1       2.441   1.577   0.177  0.00  0.00    -0.293 N 
ATOM      3  C   UNL     1       3.250   0.401   0.116  0.00  0.00    +0.065 A 
ATOM      4  C   UNL     1       2.647  -0.831  -0.182  0.00  0.00    +0.050 A 
ATOM      5  C   UNL     1       0.441   0.219  -0.373  0.00  0.00    +0.143 A 
ATOM      6  C   UNL     1       1.195  -0.894  -0.427  0.00  0.00    +0.144 A 
ATOM      7  C   UNL     1       1.065   1.546  -0.053  0.00  0.00    +0.268 A 
ATOM      8  C   UNL     1       4.638   0.446   0.347  0.00  0.00    +0.017 C 
ATOM      9  C   UNL     1       3.447  -1.988  -0.241  0.00  0.00    +0.004 C 
ATOM     10  C   UNL     1       3.075   2.857   0.491  0.00  0.00    +0.134 C 
ATOM     11  C   UNL     1       5.415  -0.711   0.285  0.00  0.00    +0.001 C 
ATOM     12  C   UNL     1       4.820  -1.928  -0.009  0.00  0.00    +0.000 C 
ENDROOT
BRANCH   5  15
ATOM     13  O   UNL     1      -1.383   0.308  -1.795  0.00  0.00    -0.269 OA
ATOM     14  N   UNL     1      -1.843  -0.064   0.485  0.00  0.00    -0.253 N 
ATOM     15  C   UNL     1      -1.013   0.161  -0.628  0.00  0.00    +0.260 C 
ATOM     16  C   UNL     1      -1.285  -0.225   1.838  0.00  0.00    +0.120 C 
BRANCH  14  17
ATOM     17  C   UNL     1      -3.282  -0.138   0.295  0.00  0.00    +0.054 C 
ATOM     18  C   UNL     1      -3.888   0.584  -0.733  0.00  0.00    +0.015 C 
ATOM     19  C   UNL     1      -4.057  -0.931   1.142  0.00  0.00    +0.015 C 
ATOM     20  C   UNL     1      -5.269   0.513  -0.915  0.00  0.00    +0.001 C 
ATOM     21  C   UNL     1      -5.438  -1.002   0.960  0.00  0.00    +0.001 C 
ATOM     22  C   UNL     1      -6.044  -0.280  -0.069  0.00  0.00    +0.000 C 
ENDBRANCH  14  17
ENDBRANCH   5  15
BRANCH   6  23
ATOM     23  O   UNL     1       0.725  -2.162  -0.701  0.00  0.00    -0.505 OA
ATOM     24  H   UNL     1       1.317  -2.888  -0.720  0.00  0.00    +0.292 HD
ENDBRANCH   6  23
TORSDOF 3
