REMARK  Name = 56032
REMARK  2 active torsions:
REMARK  status: ('A' for Active; 'I' for Inactive)
REMARK    1  A    between atoms: C_1  and  C_9
REMARK    2  A    between atoms: C_9  and  C_12
REMARK                            x       y       z     vdW  Elec       q    Type
REMARK                         _______ _______ _______ _____ _____    ______ ____
ROOT
ATOM      1  C   UNL     1      -0.560   0.371  -0.698  0.00  0.00    -0.021 C 
ATOM      2  C   UNL     1      -1.332  -0.705  -0.258  0.00  0.00    -0.029 C 
ATOM      3  C   UNL     1      -2.552  -0.474   0.377  0.00  0.00    -0.026 C 
ATOM      4  C   UNL     1      -1.009   1.677  -0.504  0.00  0.00    -0.004 C 
ATOM      5  C   UNL     1      -0.851  -2.105  -0.468  0.00  0.00    +0.030 C 
ATOM      6  C   UNL     1      -3.001   0.833   0.571  0.00  0.00    -0.005 C 
ATOM      7  C   UNL     1      -2.229   1.908   0.131  0.00  0.00    -0.001 C 
ATOM      8  C   UNL     1      -3.398  -1.607   0.858  0.00  0.00    +0.031 C 
ENDROOT
BRANCH   1   9
ATOM      9  C   UNL     1       0.751   0.151  -1.380  0.00  0.00    +0.068 C 
BRANCH   9  12
ATOM     10  N   UNL     1       2.743  -0.963  -0.384  0.00  0.00    -0.318 N 
ATOM     11  N   UNL     1       3.475   0.500   1.120  0.00  0.00    -0.315 N 
ATOM     12  C   UNL     1       1.925   0.101  -0.424  0.00  0.00    +0.042 C 
ATOM     13  C   UNL     1       2.362   0.992   0.485  0.00  0.00    +0.069 C 
ATOM     14  C   UNL     1       3.677  -0.679   0.574  0.00  0.00    +0.182 C 
ATOM     15  H   UNL     1       2.683  -1.779  -0.931  0.00  0.00    +0.148 HD
ATOM     16  H   UNL     1       4.004   0.933   1.827  0.00  0.00    +0.148 HD
ENDBRANCH   9  12
ENDBRANCH   1   9
TORSDOF 2
