REMARK  Name = 23649245
REMARK  7 active torsions:
REMARK  status: ('A' for Active; 'I' for Inactive)
REMARK    1  A    between atoms: C_2  and  C_19
REMARK    2  A    between atoms: C_3  and  N_30
REMARK    3  A    between atoms: C_5  and  C_11
REMARK    4  A    between atoms: N_18  and  C_21
REMARK    5  A    between atoms: C_21  and  C_22
REMARK    6  A    between atoms: C_21  and  C_28
REMARK    7  A    between atoms: N_30  and  S_32
REMARK                            x       y       z     vdW  Elec       q    Type
REMARK                         _______ _______ _______ _____ _____    ______ ____
ROOT
ATOM      1  N   UNL     1       3.048   1.278  -0.272  0.00  0.00    -0.404 NA
ATOM      2  C   UNL     1       0.328   1.148   0.299  0.00  0.00    +0.059 C 
ATOM      3  C   UNL     1       1.034  -0.018   0.037  0.00  0.00    +0.095 C 
ATOM      4  C   UNL     1       0.981   2.388   0.277  0.00  0.00    +0.102 C 
ATOM      5  C   UNL     1       2.381   0.102  -0.241  0.00  0.00    +0.145 C 
ATOM      6  C   UNL     1       2.360   2.407  -0.017  0.00  0.00    +0.117 C 
ATOM      7  C   UNL     1       0.294   3.586   0.538  0.00  0.00    -0.015 C 
ATOM      8  C   UNL     1       3.008   3.639  -0.039  0.00  0.00    +0.028 C 
ATOM      9  C   UNL     1       0.967   4.804   0.509  0.00  0.00    -0.004 C 
ATOM     10  C   UNL     1       2.326   4.830   0.221  0.00  0.00    +0.002 C 
ENDROOT
BRANCH   5  11
ATOM     11  C   UNL     1       3.213  -1.047  -0.528  0.00  0.00    +0.031 C 
ATOM     12  C   UNL     1       3.362  -1.489  -1.842  0.00  0.00    +0.003 C 
ATOM     13  C   UNL     1       3.867  -1.711   0.510  0.00  0.00    +0.003 C 
ATOM     14  C   UNL     1       4.165  -2.596  -2.119  0.00  0.00    +0.000 C 
ATOM     15  C   UNL     1       4.669  -2.818   0.233  0.00  0.00    +0.000 C 
ATOM     16  C   UNL     1       4.818  -3.260  -1.082  0.00  0.00    +0.000 C 
ENDBRANCH   5  11
BRANCH   2  19
ATOM     17  O   UNL     1      -1.485   0.924   1.770  0.00  0.00    -0.270 OA
ATOM     18  N   UNL     1      -1.974   1.119  -0.488  0.00  0.00    -0.299 N 
ATOM     19  C   UNL     1      -1.101   1.047   0.598  0.00  0.00    +0.244 C 
ATOM     20  H   UNL     1      -1.592   1.217  -1.390  0.00  0.00    +0.150 HD
BRANCH  18  21
ATOM     21  C   UNL     1      -3.412   1.059  -0.354  0.00  0.00    +0.094 C 
BRANCH  21  22
ATOM     22  C   UNL     1      -3.893  -0.378  -0.380  0.00  0.00    -0.005 C 
ATOM     23  C   UNL     1      -3.234  -1.294  -1.180  0.00  0.00    -0.003 C 
ATOM     24  C   UNL     1      -4.979  -0.739   0.396  0.00  0.00    -0.003 C 
ATOM     25  C   UNL     1      -3.676  -2.616  -1.204  0.00  0.00    -0.000 C 
ATOM     26  C   UNL     1      -5.421  -2.062   0.372  0.00  0.00    -0.000 C 
ATOM     27  C   UNL     1      -4.770  -3.000  -0.428  0.00  0.00    -0.000 C 
ENDBRANCH  21  22
BRANCH  21  28
ATOM     28  C   UNL     1      -4.110   1.913  -1.427  0.00  0.00    +0.024 C 
ATOM     29  C   UNL     1      -3.609   3.352  -1.446  0.00  0.00    +0.002 C 
ENDBRANCH  21  28
ENDBRANCH  18  21
ENDBRANCH   2  19
BRANCH   3  30
ATOM     30  N   UNL     1       0.389  -1.296   0.052  0.00  0.00    -0.216 N 
ATOM     31  H   UNL     1       0.123  -1.739  -0.786  0.00  0.00    +0.173 HD
BRANCH  30  32
ATOM     32  S   UNL     1       0.090  -2.034   1.577  0.00  0.00    +0.056 S 
ATOM     33  O   UNL     1       0.960  -1.416   2.561  0.00  0.00    -0.154 OA
ATOM     34  O   UNL     1      -1.332  -2.157   1.826  0.00  0.00    -0.154 OA
ATOM     35  C   UNL     1       0.734  -3.663   1.270  0.00  0.00    +0.200 C 
ENDBRANCH  30  32
ENDBRANCH   3  30
TORSDOF 7
