REMARK  Name = 25273623
REMARK  3 active torsions:
REMARK  status: ('A' for Active; 'I' for Inactive)
REMARK    1  A    between atoms: N_3  and  C_25
REMARK    2  A    between atoms: C_4  and  N_14
REMARK    3  A    between atoms: C_12  and  C_24
REMARK                            x       y       z     vdW  Elec       q    Type
REMARK                         _______ _______ _______ _____ _____    ______ ____
ROOT
ATOM      1  F   UNL     1       1.638  -3.156   0.030  0.00  0.00    -0.203 F 
ATOM      2  O   UNL     1      -3.313  -2.391  -0.492  0.00  0.00    -0.286 OA
ATOM      3  N   UNL     1      -1.757   1.263   0.429  0.00  0.00    -0.287 N 
ATOM      4  C   UNL     1       1.358  -0.836   0.444  0.00  0.00    +0.077 C 
ATOM      5  C   UNL     1       0.516   0.275   0.546  0.00  0.00    +0.032 C 
ATOM      6  C   UNL     1      -0.867   0.155   0.335  0.00  0.00    +0.056 C 
ATOM      7  C   UNL     1       0.835  -2.087   0.130  0.00  0.00    +0.153 C 
ATOM      8  C   UNL     1      -1.377  -1.123   0.017  0.00  0.00    +0.055 C 
ATOM      9  C   UNL     1      -0.533  -2.235  -0.085  0.00  0.00    +0.035 C 
ATOM     10  C   UNL     1      -3.107   1.074   0.208  0.00  0.00    +0.075 C 
ATOM     11  C   UNL     1      -2.836  -1.298  -0.215  0.00  0.00    +0.204 C 
ATOM     12  C   UNL     1      -3.689  -0.090  -0.097  0.00  0.00    +0.133 C 
ENDROOT
BRANCH   4  14
ATOM     13  N   UNL     1       4.415   0.504  -1.174  0.00  0.00    +0.389 N 
ATOM     14  N   UNL     1       2.745  -0.686   0.661  0.00  0.00    -0.312 N 
ATOM     15  C   UNL     1       4.865  -0.564  -0.160  0.00  0.00    -0.036 C 
ATOM     16  C   UNL     1       3.327   0.606   0.936  0.00  0.00    +0.050 C 
ATOM     17  C   UNL     1       4.788   0.197   1.156  0.00  0.00    -0.002 C 
ATOM     18  C   UNL     1       3.423   1.372  -0.386  0.00  0.00    -0.057 C 
ATOM     19  C   UNL     1       3.683  -1.546  -0.020  0.00  0.00    +0.070 C 
ATOM     20  C   UNL     1       5.540   1.270  -1.793  0.00  0.00    -0.100 C 
ATOM     21  H   UNL     1       3.983   0.086  -1.998  0.00  0.00    -0.080 HD
ENDBRANCH   4  14
BRANCH  12  24
ATOM     22  O   UNL     1      -5.567   0.080  -1.495  0.00  0.00    -0.240 OA
ATOM     23  O   UNL     1      -5.870  -0.351   0.731  0.00  0.00    -0.240 OA
ATOM     24  C   UNL     1      -5.185  -0.123  -0.307  0.00  0.00    +0.392 C 
ENDBRANCH  12  24
BRANCH   3  25
ATOM     25  C   UNL     1      -1.274   2.622   0.759  0.00  0.00    +0.077 C 
ATOM     26  C   UNL     1      -1.582   3.796  -0.124  0.00  0.00    +0.022 C 
ATOM     27  C   UNL     1      -0.178   3.273  -0.034  0.00  0.00    +0.022 C 
ENDBRANCH   3  25
TORSDOF 3
