7077
  -OEChem-10061700113D

 40 41  0     0  0  0  0  0  0999 V2000
   -1.1170    0.1811    0.5581 O   0  0  0  0  0  0  0  0  0  0  0  0
   -4.4148   -1.1258   -0.4434 N   0  0  0  0  0  0  0  0  0  0  0  0
    0.6897    1.2595   -0.5904 C   0  0  0  0  0  0  0  0  0  0  0  0
    1.0531   -0.0082   -1.2904 C   0  0  0  0  0  0  0  0  0  0  0  0
   -2.9840   -1.1409   -0.1403 C   0  0  0  0  0  0  0  0  0  0  0  0
   -0.3759    1.3051    0.3023 C   0  0  0  0  0  0  0  0  0  0  0  0
   -2.5048    0.2462    0.2568 C   0  0  0  0  0  0  0  0  0  0  0  0
    2.0582   -0.8569   -0.5392 C   0  0  0  0  0  0  0  0  0  0  0  0
    1.4334    2.4131   -0.8389 C   0  0  0  0  0  0  0  0  0  0  0  0
   -0.7063    2.4913    0.9495 C   0  0  0  0  0  0  0  0  0  0  0  0
    1.1072    3.6058   -0.1933 C   0  0  0  0  0  0  0  0  0  0  0  0
    1.6025   -1.8049    0.3593 C   0  0  0  0  0  0  0  0  0  0  0  0
    3.4087   -0.6638   -0.7687 C   0  0  0  0  0  0  0  0  0  0  0  0
    0.0375    3.6449    0.7009 C   0  0  0  0  0  0  0  0  0  0  0  0
   -5.1767   -0.6509    0.7110 C   0  0  0  0  0  0  0  0  0  0  0  0
   -4.8670   -2.4584   -0.8414 C   0  0  0  0  0  0  0  0  0  0  0  0
    2.5281   -2.5861    1.0513 C   0  0  0  0  0  0  0  0  0  0  0  0
    4.3343   -1.4450   -0.0767 C   0  0  0  0  0  0  0  0  0  0  0  0
    3.8939   -2.4060    0.8334 C   0  0  0  0  0  0  0  0  0  0  0  0
    1.4498    0.2211   -2.2898 H   0  0  0  0  0  0  0  0  0  0  0  0
    0.1553   -0.6037   -1.5047 H   0  0  0  0  0  0  0  0  0  0  0  0
   -2.4146   -1.4665   -1.0206 H   0  0  0  0  0  0  0  0  0  0  0  0
   -2.7438   -1.8568    0.6575 H   0  0  0  0  0  0  0  0  0  0  0  0
   -2.9970    0.6090    1.1638 H   0  0  0  0  0  0  0  0  0  0  0  0
   -2.6973    0.9554   -0.5594 H   0  0  0  0  0  0  0  0  0  0  0  0
    2.2693    2.3989   -1.5333 H   0  0  0  0  0  0  0  0  0  0  0  0
   -1.5309    2.5346    1.6553 H   0  0  0  0  0  0  0  0  0  0  0  0
    1.6864    4.5040   -0.3864 H   0  0  0  0  0  0  0  0  0  0  0  0
    0.5423   -1.9612    0.5323 H   0  0  0  0  0  0  0  0  0  0  0  0
    3.7618    0.0811   -1.4755 H   0  0  0  0  0  0  0  0  0  0  0  0
   -0.2150    4.5731    1.2051 H   0  0  0  0  0  0  0  0  0  0  0  0
   -5.0605    0.4267    0.8623 H   0  0  0  0  0  0  0  0  0  0  0  0
   -4.9140   -1.1793    1.6349 H   0  0  0  0  0  0  0  0  0  0  0  0
   -6.2513   -0.7945    0.5431 H   0  0  0  0  0  0  0  0  0  0  0  0
   -5.9251   -2.4379   -1.1256 H   0  0  0  0  0  0  0  0  0  0  0  0
   -4.7387   -3.1956   -0.0405 H   0  0  0  0  0  0  0  0  0  0  0  0
   -4.3146   -2.8056   -1.7217 H   0  0  0  0  0  0  0  0  0  0  0  0
    2.1852   -3.3357    1.7585 H   0  0  0  0  0  0  0  0  0  0  0  0
    5.3979   -1.3051   -0.2465 H   0  0  0  0  0  0  0  0  0  0  0  0
    4.6146   -3.0145    1.3718 H   0  0  0  0  0  0  0  0  0  0  0  0
  1  6  1  0  0  0  0
  1  7  1  0  0  0  0
  2  5  1  0  0  0  0
  2 15  1  0  0  0  0
  2 16  1  0  0  0  0
  3  4  1  0  0  0  0
  3  6  1  0  0  0  0
  3  9  2  0  0  0  0
  4  8  1  0  0  0  0
  4 20  1  0  0  0  0
  4 21  1  0  0  0  0
  5  7  1  0  0  0  0
  5 22  1  0  0  0  0
  5 23  1  0  0  0  0
  6 10  2  0  0  0  0
  7 24  1  0  0  0  0
  7 25  1  0  0  0  0
  8 12  2  0  0  0  0
  8 13  1  0  0  0  0
  9 11  1  0  0  0  0
  9 26  1  0  0  0  0
 10 14  1  0  0  0  0
 10 27  1  0  0  0  0
 11 14  2  0  0  0  0
 11 28  1  0  0  0  0
 12 17  1  0  0  0  0
 12 29  1  0  0  0  0
 13 18  2  0  0  0  0
 13 30  1  0  0  0  0
 14 31  1  0  0  0  0
 15 32  1  0  0  0  0
 15 33  1  0  0  0  0
 15 34  1  0  0  0  0
 16 35  1  0  0  0  0
 16 36  1  0  0  0  0
 16 37  1  0  0  0  0
 17 19  2  0  0  0  0
 17 38  1  0  0  0  0
 18 19  1  0  0  0  0
 18 39  1  0  0  0  0
 19 40  1  0  0  0  0
M  END
> <DATABASE_ID>
DB11160

> <DATABASE_NAME>
drugbank

> <ORIGINAL_SOURCE>
PUBCHEM

> <ORIGINAL_SOURCE_URL>
https://pubchem.ncbi.nlm.nih.gov/rest/pug/compound/inchikey/IZRPKIZLIFYYKR-UHFFFAOYSA-N/SDF?record_type=3d

> <SMILES>
CN(C)CCOC1=CC=CC=C1CC1=CC=CC=C1

> <INCHI_IDENTIFIER>
InChI=1S/C17H21NO/c1-18(2)12-13-19-17-11-7-6-10-16(17)14-15-8-4-3-5-9-15/h3-11H,12-14H2,1-2H3

> <INCHI_KEY>
IZRPKIZLIFYYKR-UHFFFAOYSA-N

> <FORMULA>
C17H21NO

> <MOLECULAR_WEIGHT>
255.361

> <EXACT_MASS>
255.1623143

> <JCHEM_ACCEPTOR_COUNT>
2

> <JCHEM_ATOM_COUNT>
40

> <JCHEM_AVERAGE_POLARIZABILITY>
29.98657142462516

> <JCHEM_BIOAVAILABILITY>
1

> <JCHEM_DONOR_COUNT>
0

> <JCHEM_FORMAL_CHARGE>
0

> <JCHEM_GHOSE_FILTER>
1

> <JCHEM_IUPAC>
[2-(2-benzylphenoxy)ethyl]dimethylamine

> <ALOGPS_LOGP>
3.51

> <JCHEM_LOGP>
3.9260130996666667

> <ALOGPS_LOGS>
-3.78

> <JCHEM_MDDR_LIKE_RULE>
0

> <JCHEM_NUMBER_OF_RINGS>
2

> <JCHEM_PHYSIOLOGICAL_CHARGE>
1

> <JCHEM_PKA_STRONGEST_BASIC>
8.777292809551982

> <JCHEM_POLAR_SURFACE_AREA>
12.47

> <JCHEM_REFRACTIVITY>
80.2775

> <JCHEM_ROTATABLE_BOND_COUNT>
6

> <JCHEM_RULE_OF_FIVE>
1

> <ALOGPS_SOLUBILITY>
4.23e-02 g/l

> <JCHEM_TRADITIONAL_IUPAC>
phenyltoloxamine

> <JCHEM_VEBER_RULE>
1

> <DRUGBANK_ID>
DB11160

> <DRUG_GROUPS>
approved

> <GENERIC_NAME>
Phenyltoloxamine

> <SYNONYMS>
Feniltoloxamina; Phenyltoloxamine; Phenyltoloxaminum

> <PRODUCTS>
Ali-flex; BE-FLEX Plus; Be Flex Plus; Dologesic; Dologesic DF; Flextra-650; Norel SR; Relagesic; Rhinoflex-650; Sinutab Sa Tab; Trital SR; Tussionex; Zegesic; Zflex

> <SALTS>
Phenyltoloxamine citrate; Phenyltoloxamine hydrochloride

$$$$
