REMARK  Name = 11508736
REMARK  6 active torsions:
REMARK  status: ('A' for Active; 'I' for Inactive)
REMARK    1  A    between atoms: N_1  and  C_11
REMARK    2  A    between atoms: C_4  and  C_22
REMARK    3  A    between atoms: C_11  and  C_12
REMARK    4  A    between atoms: C_15  and  S_18
REMARK    5  A    between atoms: C_22  and  C_24
REMARK    6  A    between atoms: C_24  and  O_25
REMARK                            x       y       z     vdW  Elec       q    Type
REMARK                         _______ _______ _______ _____ _____    ______ ____
ROOT
ATOM      1  N   UNL     1       1.009  -0.064  -0.947  0.00  0.00    -0.312 N 
ATOM      2  N   UNL     1       1.105  -2.458  -0.694  0.00  0.00    -0.227 NA
ATOM      3  C   UNL     1       1.676   1.022  -0.443  0.00  0.00    +0.036 A 
ATOM      4  C   UNL     1       2.641   0.566   0.429  0.00  0.00    +0.004 A 
ATOM      5  C   UNL     1       2.558  -0.852   0.457  0.00  0.00    +0.032 A 
ATOM      6  C   UNL     1       1.531  -1.212  -0.411  0.00  0.00    +0.143 A 
ATOM      7  C   UNL     1       1.331   2.405  -0.839  0.00  0.00    +0.050 C 
ATOM      8  C   UNL     1       3.237  -1.887   1.120  0.00  0.00    +0.004 C 
ATOM      9  C   UNL     1       2.836  -3.197   0.863  0.00  0.00    +0.021 C 
ATOM     10  C   UNL     1       1.794  -3.414  -0.028  0.00  0.00    +0.101 C 
ENDROOT
BRANCH   1  11
ATOM     11  C   UNL     1      -0.083  -0.012  -1.895  0.00  0.00    +0.134 C 
BRANCH  11  12
ATOM     12  C   UNL     1      -1.413   0.079  -1.198  0.00  0.00    +0.000 C 
ATOM     13  C   UNL     1      -1.944   1.326  -0.899  0.00  0.00    -0.001 C 
ATOM     14  C   UNL     1      -2.091  -1.085  -0.863  0.00  0.00    -0.001 C 
ATOM     15  C   UNL     1      -3.868   0.248   0.087  0.00  0.00    +0.106 C 
ATOM     16  C   UNL     1      -3.178   1.411  -0.253  0.00  0.00    +0.018 C 
ATOM     17  C   UNL     1      -3.325  -1.000  -0.218  0.00  0.00    +0.018 C 
BRANCH  15  18
ATOM     18  S   UNL     1      -5.413   0.354   0.894  0.00  0.00    +0.010 S 
ATOM     19  O   UNL     1      -5.620  -0.884   1.632  0.00  0.00    -0.169 OA
ATOM     20  O   UNL     1      -5.496   1.632   1.589  0.00  0.00    -0.169 OA
ATOM     21  C   UNL     1      -6.600   0.406  -0.430  0.00  0.00    +0.182 C 
ENDBRANCH  15  18
ENDBRANCH  11  12
ENDBRANCH   1  11
BRANCH   4  22
ATOM     22  C   UNL     1       3.589   1.400   1.196  0.00  0.00    +0.137 C 
BRANCH  22  24
ATOM     23  O   UNL     1       5.122   1.123  -0.656  0.00  0.00    -0.250 OA
ATOM     24  C   UNL     1       4.869   1.639   0.425  0.00  0.00    +0.318 C 
BRANCH  24  25
ATOM     25  O   UNL     1       5.733   2.455   1.080  0.00  0.00    -0.480 OA
ATOM     26  H   UNL     1       5.492   2.826   1.906  0.00  0.00    +0.295 HD
ENDBRANCH  24  25
ENDBRANCH  22  24
ENDBRANCH   4  22
TORSDOF 6
