REMARK  Name = 6918483
REMARK  1 active torsions:
REMARK  status: ('A' for Active; 'I' for Inactive)
REMARK    1  A    between atoms: C_16  and  O_20
REMARK                            x       y       z     vdW  Elec       q    Type
REMARK                         _______ _______ _______ _____ _____    ______ ____
ROOT
ATOM      1  O   UNL     1       0.361   0.620  -1.515  0.00  0.00    -0.218 OA
ATOM      2  O   UNL     1       1.193   1.353   1.171  0.00  0.00    -0.306 OA
ATOM      3  O   UNL     1      -1.113   1.537   0.886  0.00  0.00    -0.304 OA
ATOM      4  O   UNL     1       0.788   1.945  -1.077  0.00  0.00    -0.197 OA
ATOM      5  C   UNL     1       0.083  -0.220  -0.363  0.00  0.00    +0.178 C 
ATOM      6  C   UNL     1       1.251  -1.257  -0.353  0.00  0.00    +0.033 C 
ATOM      7  C   UNL     1      -1.278  -0.902  -0.671  0.00  0.00    +0.038 C 
ATOM      8  C   UNL     1       0.950  -2.488   0.543  0.00  0.00    +0.003 C 
ATOM      9  C   UNL     1      -0.016   0.618   0.938  0.00  0.00    +0.268 C 
ATOM     10  C   UNL     1      -1.531  -2.119   0.234  0.00  0.00    +0.003 C 
ATOM     11  C   UNL     1      -2.423   0.144  -0.604  0.00  0.00    +0.059 C 
ATOM     12  C   UNL     1       2.625  -0.643   0.005  0.00  0.00    +0.008 C 
ATOM     13  C   UNL     1      -0.390  -3.122   0.160  0.00  0.00    +0.000 C 
ATOM     14  C   UNL     1       1.781   1.777  -0.062  0.00  0.00    +0.221 C 
ATOM     15  C   UNL     1       2.876   0.784  -0.493  0.00  0.00    +0.059 C 
ATOM     16  C   UNL     1      -2.383   0.914   0.724  0.00  0.00    +0.234 C 
ATOM     17  C   UNL     1       2.046  -3.558   0.467  0.00  0.00    +0.000 C 
ATOM     18  C   UNL     1      -3.805  -0.458  -0.873  0.00  0.00    +0.005 C 
ATOM     19  C   UNL     1       2.385   3.160   0.176  0.00  0.00    +0.064 C 
ENDROOT
BRANCH  16  20
ATOM     20  O   UNL     1      -3.400   1.915   0.707  0.00  0.00    -0.360 OA
ATOM     21  H   UNL     1      -3.383   2.407   1.542  0.00  0.00    +0.213 HD
ENDBRANCH  16  20
TORSDOF 1
