REMARK  Name = 9298
REMARK  4 active torsions:
REMARK  status: ('A' for Active; 'I' for Inactive)
REMARK    1  A    between atoms: C_4  and  O_10
REMARK    2  A    between atoms: O_10  and  P_12
REMARK    3  A    between atoms: P_12  and  O_13
REMARK    4  A    between atoms: P_12  and  O_15
REMARK                            x       y       z     vdW  Elec       q    Type
REMARK                         _______ _______ _______ _____ _____    ______ ____
ROOT
ATOM      1 CL   UNL     1      -0.627  -3.198   0.253  0.00  0.00    -0.079 Cl
ATOM      2 CL   UNL     1      -2.672   2.691  -0.081  0.00  0.00    -0.081 Cl
ATOM      3 CL   UNL     1      -4.742   0.206  -0.201  0.00  0.00    -0.081 Cl
ATOM      4  C   UNL     1      -0.303  -0.498   0.212  0.00  0.00    +0.158 C 
ATOM      5  C   UNL     1      -1.190  -1.570   0.161  0.00  0.00    +0.093 C 
ATOM      6  C   UNL     1      -0.775   0.810   0.136  0.00  0.00    +0.050 C 
ATOM      7  C   UNL     1      -2.143   1.048   0.008  0.00  0.00    +0.071 C 
ATOM      8  C   UNL     1      -2.558  -1.332   0.033  0.00  0.00    +0.027 C 
ATOM      9  C   UNL     1      -3.035  -0.024  -0.043  0.00  0.00    +0.069 C 
ENDROOT
BRANCH   4  10
ATOM     10  O   UNL     1       1.044  -0.702   0.338  0.00  0.00    -0.424 OA
BRANCH  10  12
ATOM     11  S   UNL     1       2.151   0.702  -2.133  0.00  0.00    +0.036 S 
ATOM     12  P   UNL     1       2.221   0.254  -0.236  0.00  0.00    +0.363 P 
BRANCH  12  13
ATOM     13  O   UNL     1       3.547  -0.555   0.254  0.00  0.00    -0.286 OA
ATOM     14  C   UNL     1       3.766  -1.885  -0.187  0.00  0.00    +0.185 C 
ENDBRANCH  12  13
BRANCH  12  15
ATOM     15  O   UNL     1       2.204   1.488   0.823  0.00  0.00    -0.286 OA
ATOM     16  C   UNL     1       3.112   2.565   0.665  0.00  0.00    +0.185 C 
ENDBRANCH  12  15
ENDBRANCH  10  12
ENDBRANCH   4  10
TORSDOF 4
