REMARK  Name = 10160238
REMARK  3 active torsions:
REMARK  status: ('A' for Active; 'I' for Inactive)
REMARK    1  A    between atoms: N_2  and  S_13
REMARK    2  A    between atoms: C_3  and  C_7
REMARK    3  A    between atoms: S_13  and  C_18
REMARK                            x       y       z     vdW  Elec       q    Type
REMARK                         _______ _______ _______ _____ _____    ______ ____
ROOT
ATOM      1  O   UNL     1      -0.090   0.472   1.688  0.00  0.00    -0.269 OA
ATOM      2  N   UNL     1       0.109   1.347  -0.475  0.00  0.00    -0.181 N 
ATOM      3  C   UNL     1      -0.606   0.670   0.580  0.00  0.00    +0.265 C 
ATOM      4  H   UNL     1      -0.359   1.475  -1.332  0.00  0.00    +0.177 HD
ENDROOT
BRANCH   3   7
ATOM      5 CL   UNL     1      -1.221  -2.338   0.782  0.00  0.00    -0.082 Cl
ATOM      6 CL   UNL     1      -6.205  -0.954  -0.697  0.00  0.00    -0.082 Cl
ATOM      7  C   UNL     1      -1.964   0.237   0.274  0.00  0.00    +0.065 C 
ATOM      8  C   UNL     1      -2.344  -1.104   0.337  0.00  0.00    +0.063 C 
ATOM      9  C   UNL     1      -2.896   1.210  -0.088  0.00  0.00    +0.006 C 
ATOM     10  C   UNL     1      -3.656  -1.472   0.037  0.00  0.00    +0.023 C 
ATOM     11  C   UNL     1      -4.208   0.842  -0.388  0.00  0.00    +0.012 C 
ATOM     12  C   UNL     1      -4.587  -0.499  -0.325  0.00  0.00    +0.059 C 
ENDBRANCH   3   7
BRANCH   2  13
ATOM     13  S   UNL     1       1.711   1.945  -0.351  0.00  0.00    +0.082 S 
ATOM     14  O   UNL     1       1.819   2.770   0.835  0.00  0.00    -0.149 OA
ATOM     15  O   UNL     1       2.148   2.422  -1.648  0.00  0.00    -0.149 OA
BRANCH  13  18
ATOM     16 BR   UNL     1       4.735  -3.148  -0.995  0.00  0.00    -0.042 Br
ATOM     17  S   UNL     1       2.935  -0.540  -1.285  0.00  0.00    -0.060 S 
ATOM     18  C   UNL     1       2.764   0.540   0.014  0.00  0.00    +0.155 C 
ATOM     19  C   UNL     1       3.446   0.182   1.127  0.00  0.00    +0.028 C 
ATOM     20  C   UNL     1       4.150  -1.040   0.923  0.00  0.00    +0.015 C 
ATOM     21  C   UNL     1       3.960  -1.541  -0.346  0.00  0.00    +0.065 C 
ENDBRANCH  13  18
ENDBRANCH   2  13
TORSDOF 3
