REMARK  Name = 10127622
REMARK  7 active torsions:
REMARK  status: ('A' for Active; 'I' for Inactive)
REMARK    1  A    between atoms: C_6  and  N_21
REMARK    2  A    between atoms: C_7  and  C_14
REMARK    3  A    between atoms: N_13  and  O_16
REMARK    4  A    between atoms: O_16  and  C_17
REMARK    5  A    between atoms: C_17  and  C_18
REMARK    6  A    between atoms: C_18  and  O_19
REMARK    7  A    between atoms: N_21  and  C_25
REMARK                            x       y       z     vdW  Elec       q    Type
REMARK                         _______ _______ _______ _____ _____    ______ ____
ROOT
ATOM      1  F   UNL     1       2.083   1.794   0.720  0.00  0.00    -0.202 F 
ATOM      2  N   UNL     1      -1.831   4.012  -0.047  0.00  0.00    -0.285 N 
ATOM      3  N   UNL     1       0.322   4.178   0.481  0.00  0.00    -0.245 NA
ATOM      4  C   UNL     1      -1.357   2.725  -0.032  0.00  0.00    +0.066 C 
ATOM      5  C   UNL     1      -0.011   2.856   0.300  0.00  0.00    +0.119 C 
ATOM      6  C   UNL     1       0.188   0.457   0.164  0.00  0.00    +0.067 C 
ATOM      7  C   UNL     1      -1.165   0.358  -0.167  0.00  0.00    +0.140 C 
ATOM      8  C   UNL     1      -1.971   1.496  -0.274  0.00  0.00    +0.005 C 
ATOM      9  C   UNL     1       0.784   1.702   0.402  0.00  0.00    +0.168 C 
ATOM     10  C   UNL     1      -0.791   4.843   0.265  0.00  0.00    +0.220 C 
ATOM     11  C   UNL     1      -3.181   4.430  -0.341  0.00  0.00    +0.114 C 
ENDROOT
BRANCH   7  14
ATOM     12  O   UNL     1      -1.115  -1.873  -0.900  0.00  0.00    -0.272 OA
ATOM     13  N   UNL     1      -3.129  -1.062  -0.121  0.00  0.00    -0.193 N 
ATOM     14  C   UNL     1      -1.781  -0.940  -0.421  0.00  0.00    +0.254 C 
ATOM     15  H   UNL     1      -3.652  -0.313   0.246  0.00  0.00    +0.183 HD
BRANCH  13  16
ATOM     16  O   UNL     1      -3.706  -2.322  -0.373  0.00  0.00    -0.264 OA
BRANCH  16  17
ATOM     17  C   UNL     1      -5.079  -2.268  -0.011  0.00  0.00    +0.203 C 
BRANCH  17  18
ATOM     18  C   UNL     1      -5.715  -3.619  -0.277  0.00  0.00    +0.172 C 
BRANCH  18  19
ATOM     19  O   UNL     1      -5.035  -4.609   0.485  0.00  0.00    -0.379 OA
ATOM     20  H   UNL     1      -5.437  -5.476   0.320  0.00  0.00    +0.211 HD
ENDBRANCH  18  19
ENDBRANCH  17  18
ENDBRANCH  16  17
ENDBRANCH  13  16
ENDBRANCH   7  14
BRANCH   6  21
ATOM     21  N   UNL     1       0.988  -0.707   0.263  0.00  0.00    -0.313 N 
ATOM     22  H   UNL     1       0.490  -1.508   0.544  0.00  0.00    +0.152 HD
BRANCH  21  25
ATOM     23 BR   UNL     1       6.916  -1.641  -0.789  0.00  0.00    -0.049 Br
ATOM     24 CL   UNL     1       2.272  -2.911   1.924  0.00  0.00    -0.081 Cl
ATOM     25  C   UNL     1       2.355  -0.941   0.038  0.00  0.00    +0.059 C 
ATOM     26  C   UNL     1       3.056  -1.927   0.741  0.00  0.00    +0.072 C 
ATOM     27  C   UNL     1       3.027  -0.165  -0.912  0.00  0.00    +0.016 C 
ATOM     28  C   UNL     1       4.413  -2.136   0.495  0.00  0.00    +0.019 C 
ATOM     29  C   UNL     1       4.385  -0.374  -1.158  0.00  0.00    +0.008 C 
ATOM     30  C   UNL     1       5.077  -1.359  -0.455  0.00  0.00    +0.035 C 
ENDBRANCH  21  25
ENDBRANCH   6  21
TORSDOF 7
