REMARK  Name = 44205240
REMARK  6 active torsions:
REMARK  status: ('A' for Active; 'I' for Inactive)
REMARK    1  A    between atoms: N_1  and  C_17
REMARK    2  A    between atoms: C_4  and  C_9
REMARK    3  A    between atoms: N_16  and  S_20
REMARK    4  A    between atoms: C_17  and  C_25
REMARK    5  A    between atoms: S_20  and  C_23
REMARK    6  A    between atoms: C_25  and  C_27
REMARK                            x       y       z     vdW  Elec       q    Type
REMARK                         _______ _______ _______ _____ _____    ______ ____
ROOT
ATOM      1  N   UNL     1       0.511  -0.549   0.125  0.00  0.00    -0.210 N 
ATOM      2  N   UNL     1       0.203  -0.950  -1.121  0.00  0.00    -0.176 NA
ATOM      3  C   UNL     1      -0.520   0.059   0.779  0.00  0.00    +0.087 C 
ATOM      4  C   UNL     1      -1.576   0.056  -0.100  0.00  0.00    +0.051 C 
ATOM      5  C   UNL     1      -1.073  -0.578  -1.252  0.00  0.00    +0.120 C 
ENDROOT
BRANCH   4   9
ATOM      6  N   UNL     1      -2.951   1.647   1.045  0.00  0.00    -0.248 NA
ATOM      7  N   UNL     1      -6.232   0.055  -0.694  0.00  0.00    -0.300 N 
ATOM      8  N   UNL     1      -5.373   1.734   0.807  0.00  0.00    -0.233 NA
ATOM      9  C   UNL     1      -2.863   0.602   0.190  0.00  0.00    +0.069 C 
ATOM     10  C   UNL     1      -4.022   0.085  -0.386  0.00  0.00    +0.117 C 
ATOM     11  C   UNL     1      -5.219   0.697  -0.033  0.00  0.00    +0.115 C 
ATOM     12  C   UNL     1      -4.343  -0.958  -1.292  0.00  0.00    +0.003 C 
ATOM     13  C   UNL     1      -4.184   2.142   1.297  0.00  0.00    +0.251 C 
ATOM     14  C   UNL     1      -5.711  -0.953  -1.463  0.00  0.00    +0.059 C 
ATOM     15  H   UNL     1      -7.188   0.283  -0.628  0.00  0.00    +0.153 HD
ENDBRANCH   4   9
BRANCH   1  17
ATOM     16  N   UNL     1       3.729   0.224   0.486  0.00  0.00    -0.156 NA
ATOM     17  C   UNL     1       1.825  -0.748   0.707  0.00  0.00    +0.126 C 
ATOM     18  C   UNL     1       2.938  -0.746  -0.353  0.00  0.00    +0.118 C 
ATOM     19  C   UNL     1       2.448   0.566   1.204  0.00  0.00    +0.118 C 
BRANCH  16  20
ATOM     20  S   UNL     1       4.816   1.386  -0.153  0.00  0.00    +0.044 S 
ATOM     21  O   UNL     1       5.516   2.016   0.944  0.00  0.00    -0.157 OA
ATOM     22  O   UNL     1       4.128   2.157  -1.163  0.00  0.00    -0.157 OA
BRANCH  20  23
ATOM     23  C   UNL     1       5.947   0.291  -0.971  0.00  0.00    +0.169 C 
ATOM     24  C   UNL     1       7.061   1.054  -1.654  0.00  0.00    +0.029 C 
ENDBRANCH  20  23
ENDBRANCH  16  20
BRANCH  17  25
ATOM     25  C   UNL     1       1.799  -1.902   1.670  0.00  0.00    +0.128 C 
BRANCH  25  27
ATOM     26  N   UNL     1       1.509  -4.198   0.410  0.00  0.00    -0.196 NA
ATOM     27  C   UNL     1       1.637  -3.190   0.971  0.00  0.00    +0.075 C 
ENDBRANCH  25  27
ENDBRANCH  17  25
ENDBRANCH   1  17
TORSDOF 6
