REMARK  Name = 71188
REMARK  5 active torsions:
REMARK  status: ('A' for Active; 'I' for Inactive)
REMARK    1  A    between atoms: N_3  and  C_22
REMARK    2  A    between atoms: C_7  and  N_13
REMARK    3  A    between atoms: C_9  and  C_26
REMARK    4  A    between atoms: N_14  and  C_20
REMARK    5  A    between atoms: C_26  and  O_27
REMARK                            x       y       z     vdW  Elec       q    Type
REMARK                         _______ _______ _______ _____ _____    ______ ____
ROOT
ATOM      1  F   UNL     1      -1.469   2.963   0.352  0.00  0.00    -0.203 F 
ATOM      2  O   UNL     1       3.534   2.414   0.266  0.00  0.00    -0.286 OA
ATOM      3  N   UNL     1       2.038  -1.337  -0.300  0.00  0.00    -0.287 N 
ATOM      4  C   UNL     1       1.120  -0.261  -0.136  0.00  0.00    +0.056 C 
ATOM      5  C   UNL     1       3.396  -1.086  -0.263  0.00  0.00    +0.075 C 
ATOM      6  C   UNL     1       1.611   1.049   0.062  0.00  0.00    +0.055 C 
ATOM      7  C   UNL     1      -1.142   0.639   0.002  0.00  0.00    +0.077 C 
ATOM      8  C   UNL     1      -0.272  -0.443  -0.162  0.00  0.00    +0.032 C 
ATOM      9  C   UNL     1       3.965   0.113  -0.082  0.00  0.00    +0.129 C 
ATOM     10  C   UNL     1       3.077   1.290   0.098  0.00  0.00    +0.204 C 
ATOM     11  C   UNL     1      -0.638   1.922   0.196  0.00  0.00    +0.153 C 
ATOM     12  C   UNL     1       0.738   2.131   0.226  0.00  0.00    +0.035 C 
ENDROOT
BRANCH   7  13
ATOM     13  N   UNL     1      -2.525   0.428  -0.027  0.00  0.00    -0.310 N 
ATOM     14  N   UNL     1      -5.314  -0.114  -0.319  0.00  0.00    +0.389 N 
ATOM     15  C   UNL     1      -3.075  -0.854   0.424  0.00  0.00    +0.068 C 
ATOM     16  C   UNL     1      -3.308   1.130  -1.052  0.00  0.00    +0.068 C 
ATOM     17  C   UNL     1      -4.554  -0.705   0.789  0.00  0.00    -0.055 C 
ATOM     18  C   UNL     1      -4.779   1.215  -0.639  0.00  0.00    -0.055 C 
ATOM     19  H   UNL     1      -5.220  -0.713  -1.139  0.00  0.00    -0.080 HD
BRANCH  14  20
ATOM     20  C   UNL     1      -6.734  -0.027   0.022  0.00  0.00    -0.077 C 
ATOM     21  C   UNL     1      -7.329  -1.397   0.273  0.00  0.00    -0.025 C 
ENDBRANCH  14  20
ENDBRANCH   7  13
BRANCH   3  22
ATOM     22  C   UNL     1       1.577  -2.726  -0.511  0.00  0.00    +0.077 C 
ATOM     23  C   UNL     1       2.051  -3.831   0.373  0.00  0.00    +0.022 C 
ATOM     24  C   UNL     1       0.625  -3.369   0.443  0.00  0.00    +0.022 C 
ENDBRANCH   3  22
BRANCH   9  26
ATOM     25  O   UNL     1       6.165  -0.550  -0.691  0.00  0.00    -0.245 OA
ATOM     26  C   UNL     1       5.426   0.194  -0.070  0.00  0.00    +0.342 C 
BRANCH  26  27
ATOM     27  O   UNL     1       5.818   1.211   0.727  0.00  0.00    -0.477 OA
ATOM     28  H   UNL     1       5.178   1.734   1.167  0.00  0.00    +0.295 HD
ENDBRANCH  26  27
ENDBRANCH   9  26
TORSDOF 5
