REMARK  Name = 11340891
REMARK  6 active torsions:
REMARK  status: ('A' for Active; 'I' for Inactive)
REMARK    1  A    between atoms: N_3  and  C_23
REMARK    2  A    between atoms: C_5  and  C_10
REMARK    3  A    between atoms: CA_6  and  CB_19
REMARK    4  A    between atoms: CB_19  and  CG1_21
REMARK    5  A    between atoms: C_23  and  C_27
REMARK    6  A    between atoms: C_23  and  C_34
REMARK                            x       y       z     vdW  Elec       q    Type
REMARK                         _______ _______ _______ _____ _____    ______ ____
ROOT
ATOM      1  O   UNK A   2       0.362  -1.161   0.854  0.00  0.00    -0.273 OA
ATOM      2  O   ILE A   1       1.185   3.835  -0.668  0.00  0.00    -0.273 OA
ATOM      3  N   ILE A   1      -0.500   0.971   0.442  0.00  0.00    -0.260 N 
ATOM      4  N   UNK A   2       1.995   1.805   0.046  0.00  0.00    -0.297 N 
ATOM      5  C   UNK A   2       1.869   0.719   1.001  0.00  0.00    +0.149 C 
ATOM      6  CA  ILE A   1      -0.271   2.412   0.665  0.00  0.00    +0.152 C 
ATOM      7  C   UNK A   2       0.525   0.051   0.726  0.00  0.00    +0.244 C 
ATOM      8  C   ILE A   1       1.006   2.764  -0.092  0.00  0.00    +0.241 C 
ATOM      9  H   UNK A   2       2.801   1.860  -0.517  0.00  0.00    +0.150 HD
ENDROOT
BRANCH   5  10
ATOM     10  C   UNK A   2       3.028  -0.258   0.878  0.00  0.00    +0.036 C 
ATOM     11  C   UNK A   2       4.395   0.403   1.158  0.00  0.00    +0.028 C 
ATOM     12  C   UNK A   2       3.129  -0.887  -0.528  0.00  0.00    +0.028 C 
ATOM     13  C   UNK A   2       5.309  -0.452   0.339  0.00  0.00    -0.026 C 
ATOM     14  C   UNK A   2       4.593  -1.182  -0.615  0.00  0.00    -0.026 C 
ATOM     15  C   UNK A   2       6.690  -0.537   0.415  0.00  0.00    -0.005 C 
ATOM     16  C   UNK A   2       5.242  -2.012  -1.514  0.00  0.00    -0.005 C 
ATOM     17  C   UNK A   2       7.352  -1.380  -0.479  0.00  0.00    -0.000 C 
ATOM     18  C   UNK A   2       6.633  -2.113  -1.437  0.00  0.00    -0.000 C 
ENDBRANCH   5  10
BRANCH   6  19
ATOM     19  CB  ILE A   1      -1.414   3.336   0.252  0.00  0.00    +0.027 C 
ATOM     20  CG2 ILE A   1      -1.072   4.782   0.622  0.00  0.00    +0.002 C 
BRANCH  19  21
ATOM     21  CG1 ILE A   1      -1.732   3.244  -1.251  0.00  0.00    +0.002 C 
ATOM     22  CD1 ILE A   1      -2.869   4.156  -1.689  0.00  0.00    +0.000 C 
ENDBRANCH  19  21
ENDBRANCH   6  19
BRANCH   3  23
ATOM     23  C   UNK A   0      -1.849   0.479   0.192  0.00  0.00    +0.205 C 
BRANCH  23  27
ATOM     24  O   UNK A   0      -0.705  -0.552  -1.609  0.00  0.00    -0.273 OA
ATOM     25  O   UNK A   0      -5.250  -2.427  -2.150  0.00  0.00    -0.350 OA
ATOM     26  N   UNK A   0      -3.010  -0.825  -1.551  0.00  0.00    -0.273 N 
ATOM     27  C   UNK A   0      -1.794  -0.343  -1.071  0.00  0.00    +0.251 C 
ATOM     28  C   UNK A   0      -4.332  -0.491  -1.011  0.00  0.00    +0.126 C 
ATOM     29  C   UNK A   0      -3.046  -1.635  -2.769  0.00  0.00    +0.126 C 
ATOM     30  C   UNK A   0      -5.186  -1.748  -0.893  0.00  0.00    +0.164 C 
ATOM     31  C   UNK A   0      -3.950  -2.845  -2.574  0.00  0.00    +0.164 C 
ENDBRANCH  23  27
BRANCH  23  34
ATOM     32  O   UNK A   0      -3.270  -0.953   3.265  0.00  0.00    -0.447 OA
ATOM     33  N   UNK A   0      -2.151  -1.668   1.434  0.00  0.00    -0.374 NA
ATOM     34  C   UNK A   0      -2.346  -0.313   1.360  0.00  0.00    +0.161 C 
ATOM     35  C   UNK A   0      -3.025   0.126   2.470  0.00  0.00    +0.264 C 
ATOM     36  C   UNK A   0      -2.716  -1.988   2.577  0.00  0.00    +0.253 C 
ATOM     37  C   UNK A   0      -2.827  -3.313   3.205  0.00  0.00    +0.110 C 
ENDBRANCH  23  34
ENDBRANCH   3  23
TORSDOF 6
