REMARK  Name = 6918612
REMARK  7 active torsions:
REMARK  status: ('A' for Active; 'I' for Inactive)
REMARK    1  A    between atoms: O_1  and  C_9
REMARK    2  A    between atoms: O_1  and  C_15
REMARK    3  A    between atoms: C_5  and  O_12
REMARK    4  A    between atoms: C_15  and  C_16
REMARK    5  A    between atoms: C_16  and  C_17
REMARK    6  A    between atoms: C_16  and  C_23
REMARK    7  A    between atoms: C_23  and  O_24
REMARK                            x       y       z     vdW  Elec       q    Type
REMARK                         _______ _______ _______ _____ _____    ______ ____
ROOT
ATOM      1  O   UNL     1       0.610  -1.277  -0.485  0.00  0.00    -0.452 OA
ENDROOT
BRANCH   1   9
ATOM      2  N   UNL     1       3.641   1.142  -0.162  0.00  0.00    +0.390 N 
ATOM      3  C   UNL     1       3.598  -0.264   0.261  0.00  0.00    -0.027 C 
ATOM      4  C   UNL     1       2.230   1.534  -0.220  0.00  0.00    -0.052 C 
ATOM      5  C   UNL     1       2.672  -0.139   1.482  0.00  0.00    +0.090 C 
ATOM      6  C   UNL     1       1.774   1.068   1.170  0.00  0.00    +0.006 C 
ATOM      7  C   UNL     1       2.991  -1.175  -0.828  0.00  0.00    +0.025 C 
ATOM      8  C   UNL     1       1.467   0.819  -1.355  0.00  0.00    +0.023 C 
ATOM      9  C   UNL     1       1.615  -0.711  -1.327  0.00  0.00    +0.165 C 
ATOM     10  C   UNL     1       4.432   1.429  -1.344  0.00  0.00    -0.100 C 
ATOM     11  H   UNL     1       4.163   1.717   0.499  0.00  0.00    -0.080 HD
BRANCH   5  12
ATOM     12  O   UNL     1       3.456   0.132   2.641  0.00  0.00    -0.387 OA
ATOM     13  H   UNL     1       4.021  -0.632   2.835  0.00  0.00    +0.210 HD
ENDBRANCH   5  12
ENDBRANCH   1   9
BRANCH   1  15
ATOM     14  O   UNL     1      -1.081  -0.790  -1.972  0.00  0.00    -0.250 OA
ATOM     15  C   UNL     1      -0.683  -0.995  -0.832  0.00  0.00    +0.323 C 
BRANCH  15  16
ATOM     16  C   UNL     1      -1.555  -0.968   0.420  0.00  0.00    +0.150 C 
BRANCH  16  17
ATOM     17  C   UNL     1      -2.674   0.054   0.285  0.00  0.00    -0.010 C 
ATOM     18  C   UNL     1      -2.450   1.350   0.705  0.00  0.00    -0.004 C 
ATOM     19  C   UNL     1      -3.881  -0.344  -0.255  0.00  0.00    -0.004 C 
ATOM     20  C   UNL     1      -3.475   2.287   0.580  0.00  0.00    -0.000 C 
ATOM     21  C   UNL     1      -4.906   0.593  -0.379  0.00  0.00    -0.000 C 
ATOM     22  C   UNL     1      -4.704   1.909   0.038  0.00  0.00    -0.000 C 
ENDBRANCH  16  17
BRANCH  16  23
ATOM     23  C   UNL     1      -2.085  -2.375   0.732  0.00  0.00    +0.153 C 
BRANCH  23  24
ATOM     24  O   UNL     1      -0.992  -3.281   0.845  0.00  0.00    -0.381 OA
ATOM     25  H   UNL     1      -1.328  -4.169   1.042  0.00  0.00    +0.210 HD
ENDBRANCH  23  24
ENDBRANCH  16  23
ENDBRANCH  15  16
ENDBRANCH   1  15
TORSDOF 7
