REMARK  Name = 3149
REMARK  15 active torsions:
REMARK  status: ('A' for Active; 'I' for Inactive)
REMARK    1  A    between atoms: N_1  and  C_4
REMARK    2  A    between atoms: N_1  and  C_16
REMARK    3  A    between atoms: C_4  and  C_5
REMARK    4  A    between atoms: C_5  and  C_6
REMARK    5  A    between atoms: C_6  and  C_7
REMARK    6  A    between atoms: C_7  and  C_8
REMARK    7  A    between atoms: C_8  and  C_9
REMARK    8  A    between atoms: C_9  and  C_10
REMARK    9  A    between atoms: C_10  and  C_11
REMARK   10  A    between atoms: C_11  and  C_12
REMARK   11  A    between atoms: C_12  and  C_13
REMARK   12  A    between atoms: C_13  and  C_14
REMARK   13  A    between atoms: C_16  and  C_17
REMARK   14  A    between atoms: C_17  and  O_18
REMARK   15  A    between atoms: O_18  and  C_19
REMARK                            x       y       z     vdW  Elec       q    Type
REMARK                         _______ _______ _______ _____ _____    ______ ____
ROOT
ATOM      1  N   UNL     1       3.414   1.808   0.427  0.00  0.00    +0.390 N 
ATOM      2  C   UNL     1       3.333   2.949  -0.598  0.00  0.00    -0.096 C 
ATOM      3  C   UNL     1       4.457   2.194   1.486  0.00  0.00    -0.096 C 
ENDROOT
BRANCH   1   4
ATOM      4  C   UNL     1       3.777   0.531  -0.232  0.00  0.00    -0.073 C 
BRANCH   4   5
ATOM      5  C   UNL     1       3.849  -0.598   0.788  0.00  0.00    -0.022 C 
BRANCH   5   6
ATOM      6  C   UNL     1       4.269  -1.967   0.239  0.00  0.00    -0.002 C 
BRANCH   6   7
ATOM      7  C   UNL     1       3.329  -2.584  -0.801  0.00  0.00    -0.000 C 
BRANCH   7   8
ATOM      8  C   UNL     1       1.933  -2.892  -0.254  0.00  0.00    -0.000 C 
BRANCH   8   9
ATOM      9  C   UNL     1       1.012  -3.421  -1.357  0.00  0.00    -0.000 C 
BRANCH   9  10
ATOM     10  C   UNL     1      -0.409  -3.721  -0.872  0.00  0.00    +0.000 C 
BRANCH  10  11
ATOM     11  C   UNL     1      -1.136  -2.493  -0.323  0.00  0.00    +0.000 C 
BRANCH  11  12
ATOM     12  C   UNL     1      -2.521  -2.863   0.214  0.00  0.00    +0.000 C 
BRANCH  12  13
ATOM     13  C   UNL     1      -3.235  -1.643   0.799  0.00  0.00    +0.000 C 
BRANCH  13  14
ATOM     14  C   UNL     1      -4.631  -2.006   1.306  0.00  0.00    +0.000 C 
ATOM     15  C   UNL     1      -5.331  -0.803   1.918  0.00  0.00    +0.000 C 
ENDBRANCH  13  14
ENDBRANCH  12  13
ENDBRANCH  11  12
ENDBRANCH  10  11
ENDBRANCH   9  10
ENDBRANCH   8   9
ENDBRANCH   7   8
ENDBRANCH   6   7
ENDBRANCH   5   6
ENDBRANCH   4   5
ENDBRANCH   1   4
BRANCH   1  16
ATOM     16  C   UNL     1       2.050   1.697   1.123  0.00  0.00    -0.025 C 
BRANCH  16  17
ATOM     17  C   UNL     1       0.978   1.430   0.083  0.00  0.00    +0.183 C 
BRANCH  17  18
ATOM     18  O   UNL     1      -0.292   1.361   0.717  0.00  0.00    -0.478 OA
BRANCH  18  19
ATOM     19  C   UNL     1      -1.374   1.762  -0.024  0.00  0.00    +0.138 C 
ATOM     20  C   UNL     1      -1.364   1.612  -1.411  0.00  0.00    +0.037 C 
ATOM     21  C   UNL     1      -2.484   2.320   0.610  0.00  0.00    +0.037 C 
ATOM     22  C   UNL     1      -2.465   2.020  -2.164  0.00  0.00    +0.003 C 
ATOM     23  C   UNL     1      -3.585   2.729  -0.144  0.00  0.00    +0.003 C 
ATOM     24  C   UNL     1      -3.575   2.578  -1.531  0.00  0.00    +0.000 C 
ENDBRANCH  18  19
ENDBRANCH  17  18
ENDBRANCH  16  17
ENDBRANCH   1  16
TORSDOF 15
