REMARK  Name = 5460407
REMARK  7 active torsions:
REMARK  status: ('A' for Active; 'I' for Inactive)
REMARK    1  A    between atoms: C_1  and  O_2
REMARK    2  A    between atoms: C_1  and  C_5
REMARK    3  A    between atoms: C_1  and  C_8
REMARK    4  A    between atoms: C_5  and  O_6
REMARK    5  A    between atoms: C_8  and  O_9
REMARK    6  A    between atoms: C_8  and  C_11
REMARK    7  A    between atoms: C_11  and  O_12
REMARK                            x       y       z     vdW  Elec       q    Type
REMARK                         _______ _______ _______ _____ _____    ______ ____
ROOT
ATOM      1  C   UNL     1       0.586   0.386  -0.821  0.00  0.00    +0.239 C 
ENDROOT
BRANCH   1   2
ATOM      2  O   UNL     1       0.738   1.797  -0.686  0.00  0.00    -0.373 OA
ATOM      3  H   UNL     1       0.184   2.246  -1.344  0.00  0.00    +0.211 HD
ENDBRANCH   1   2
BRANCH   1   5
ATOM      4  O   UNL     1       2.112   0.365   1.072  0.00  0.00    -0.248 OA
ATOM      5  C   UNL     1       1.473  -0.253   0.231  0.00  0.00    +0.344 C 
BRANCH   5   6
ATOM      6  O   UNL     1       1.475  -1.608   0.152  0.00  0.00    -0.478 OA
ATOM      7  H   UNL     1       0.971  -2.040  -0.509  0.00  0.00    +0.295 HD
ENDBRANCH   5   6
ENDBRANCH   1   5
BRANCH   1   8
ATOM      8  C   UNL     1      -0.903   0.060  -0.643  0.00  0.00    +0.178 C 
BRANCH   8   9
ATOM      9  O   UNL     1      -1.127  -1.340  -0.802  0.00  0.00    -0.379 OA
ATOM     10  H   UNL     1      -0.758  -1.633  -1.650  0.00  0.00    +0.211 HD
ENDBRANCH   8   9
BRANCH   8  11
ATOM     11  C   UNL     1      -1.495   0.482   0.698  0.00  0.00    +0.169 C 
BRANCH  11  12
ATOM     12  O   UNL     1      -2.859   0.110   0.798  0.00  0.00    -0.379 OA
ATOM     13  H   UNL     1      -3.208   0.391   1.659  0.00  0.00    +0.211 HD
ENDBRANCH  11  12
ENDBRANCH   8  11
ENDBRANCH   1   8
TORSDOF 7
