REMARK  Name = 49853967
REMARK  7 active torsions:
REMARK  status: ('A' for Active; 'I' for Inactive)
REMARK    1  A    between atoms: O_1  and  C_2
REMARK    2  A    between atoms: O_1  and  C_17
REMARK    3  A    between atoms: C_7  and  C_9
REMARK    4  A    between atoms: C_12  and  C_14
REMARK    5  A    between atoms: C_16  and  N_20
REMARK    6  A    between atoms: N_20  and  S_22
REMARK    7  A    between atoms: S_22  and  C_25
REMARK                            x       y       z     vdW  Elec       q    Type
REMARK                         _______ _______ _______ _____ _____    ______ ____
ROOT
ATOM      1  O   UNL     1       1.690  -1.853   0.502  0.00  0.00    -0.475 OA
ENDROOT
BRANCH   1   2
ATOM      2  C   UNL     1       0.355  -1.533   0.418  0.00  0.00    +0.139 C 
ATOM      3  C   UNL     1      -0.449  -2.143  -0.545  0.00  0.00    +0.037 C 
ATOM      4  C   UNL     1      -0.194  -0.596   1.292  0.00  0.00    +0.037 C 
ATOM      5  C   UNL     1      -1.802  -1.816  -0.633  0.00  0.00    +0.004 C 
ATOM      6  C   UNL     1      -1.547  -0.269   1.205  0.00  0.00    +0.004 C 
ATOM      7  C   UNL     1      -2.351  -0.879   0.242  0.00  0.00    +0.006 C 
BRANCH   7   9
ATOM      8  S   UNL     1      -4.191   1.083  -0.169  0.00  0.00    -0.077 S 
ATOM      9  C   UNL     1      -3.750  -0.540   0.151  0.00  0.00    +0.030 C 
ATOM     10  C   UNL     1      -4.851  -1.357   0.288  0.00  0.00    +0.008 C 
ATOM     11  C   UNL     1      -6.072  -0.641   0.128  0.00  0.00    +0.017 C 
ATOM     12  C   UNL     1      -5.858   0.696  -0.125  0.00  0.00    +0.098 C 
BRANCH  12  14
ATOM     13  N   UNL     1      -7.724   2.446  -0.497  0.00  0.00    -0.190 NA
ATOM     14  C   UNL     1      -6.886   1.660  -0.330  0.00  0.00    +0.107 C 
ENDBRANCH  12  14
ENDBRANCH   7   9
ENDBRANCH   1   2
BRANCH   1  17
ATOM     15  O   UNL     1       4.341  -3.024  -0.231  0.00  0.00    -0.348 OA
ATOM     16  C   UNL     1       3.690  -0.751  -0.294  0.00  0.00    +0.147 C 
ATOM     17  C   UNL     1       2.494  -1.606  -0.649  0.00  0.00    +0.214 C 
ATOM     18  C   UNL     1       4.612  -1.750   0.375  0.00  0.00    +0.163 C 
ATOM     19  C   UNL     1       3.169  -2.900  -1.059  0.00  0.00    +0.187 C 
BRANCH  16  20
ATOM     20  N   UNL     1       3.347   0.363   0.605  0.00  0.00    -0.179 NA
ATOM     21  H   UNL     1       2.540   0.068   1.155  0.00  0.00    +0.149 HD
BRANCH  20  22
ATOM     22  S   UNL     1       2.962   1.876  -0.073  0.00  0.00    +0.039 S 
ATOM     23  O   UNL     1       2.230   2.679   0.887  0.00  0.00    -0.158 OA
ATOM     24  O   UNL     1       2.438   1.653  -1.407  0.00  0.00    -0.158 OA
BRANCH  22  25
ATOM     25  C   UNL     1       4.585   2.581  -0.251  0.00  0.00    +0.146 C 
ATOM     26  C   UNL     1       4.498   3.938  -0.934  0.00  0.00    +0.027 C 
ATOM     27  C   UNL     1       5.266   2.683   1.105  0.00  0.00    +0.027 C 
ENDBRANCH  22  25
ENDBRANCH  20  22
ENDBRANCH  16  20
ENDBRANCH   1  17
TORSDOF 7
