24261
  -OEChem-06221816553D

  3  2  0     0  0  0  0  0  0999 V2000
    0.0000   -0.5548    0.0000 Si  0  0  0  0  0  0  0  0  0  0  0  0
    1.2172    0.2774    0.0000 O   0  0  0  0  0  0  0  0  0  0  0  0
   -1.2171    0.2774    0.0000 O   0  0  0  0  0  0  0  0  0  0  0  0
  1  2  2  0  0  0  0
  1  3  2  0  0  0  0
M  END
> <DATABASE_ID>
DB11132

> <DATABASE_NAME>
drugbank

> <ORIGINAL_SOURCE>
PUBCHEM

> <ORIGINAL_SOURCE_URL>
https://pubchem.ncbi.nlm.nih.gov/rest/pug/compound/inchikey/VYPSYNLAJGMNEJ-UHFFFAOYSA-N/SDF?record_type=3d

> <SMILES>
O=[Si]=O

> <INCHI_IDENTIFIER>
InChI=1S/O2Si/c1-3-2

> <INCHI_KEY>
VYPSYNLAJGMNEJ-UHFFFAOYSA-N

> <FORMULA>
O2Si

> <MOLECULAR_WEIGHT>
60.0843

> <EXACT_MASS>
59.966755777

> <JCHEM_ACCEPTOR_COUNT>
2

> <JCHEM_ATOM_COUNT>
3

> <JCHEM_AVERAGE_POLARIZABILITY>
3.2811468900078617

> <JCHEM_BIOAVAILABILITY>
1

> <JCHEM_DONOR_COUNT>
0

> <JCHEM_FORMAL_CHARGE>
0

> <JCHEM_GHOSE_FILTER>
0

> <JCHEM_IUPAC>
silanedione

> <JCHEM_LOGP>
-0.6577999999999999

> <JCHEM_MDDR_LIKE_RULE>
0

> <JCHEM_NUMBER_OF_RINGS>
0

> <JCHEM_PHYSIOLOGICAL_CHARGE>
0

> <JCHEM_PKA_STRONGEST_BASIC>
-8.532702804224158

> <JCHEM_POLAR_SURFACE_AREA>
34.14

> <JCHEM_REFRACTIVITY>
2.8858

> <JCHEM_ROTATABLE_BOND_COUNT>
0

> <JCHEM_RULE_OF_FIVE>
1

> <JCHEM_TRADITIONAL_IUPAC>
silica

> <JCHEM_VEBER_RULE>
1

> <DRUGBANK_ID>
DB11132

> <DRUG_GROUPS>
approved

> <GENERIC_NAME>
Silicon dioxide

> <SYNONYMS>
Colloidal silica; Colloidal silicon dioxide; Diatomaceous earth; Diatomaceous silica; Diatomite; Infusorial earth; KieselsÃ¤ureanhydrid; Silica; Silica gel; Silica, colloidal; Siliceous earth; Siliceous earth, purified; Silicon dioxide (amorphous); Silicon dioxide, colloidal; Silicon dioxide, fumed; Silicon oxide; Siliziumdioxid

> <PRODUCTS>
2080 Dentistry Night Fresh; 2080 Dentistry Night Repair; 28tak Clair Tooth; 28tak Doux Tooth; Alegria Neo; BAMBOO SALT Eunganggo Jook Yeom; BAMBOO SALT Eunganggo Jook Yeom Toothpaste; Calcium and Magnesium 1:1 Plus Tablets; Chunzam Silk Amino Acid Tooth; Colgate Total Advanced Health Daily Repair; Colgate Total Advanced Health Sensitive; Colgate Total Gum Defense; DIO Enamel Coating Pen Pro Tooth; DR.EL Very Good Tooth; Dio Whitening; Divinetree Ssak Shark Kids Tooth; Dr. Zenni Kids tooth (Baby); Dr. Zenni Tooth for Sensitive Tooth; Dr.EL BERRYGOOD TOOTH; Dr.EL CHARCOR PARTY TOOTH; Dr.EL CLAIR TOOTH; Dr.EL DOUX TOOTH; Dr.EL ORTHO CARE TOOTH; Dr.EL TOOTH WHITE TOOTH; Dr.Pauhls TOOTHPAST E LIME MANDARIN FLAVOR; Dr.Pauhls TOOTHPAST E PATCHOULI MUSK FLAVOR; Dr.Pauhls TOOTHPAST E VANILLE BLACK TEA FLAVOR; E-Z-gas II; Evertox Special Bath Preparations; Exoden White Tooth; Finefra Black Tooth; Finefra Kids Tooth; Finefra Tooth; Gelusil; Good Night/pm Formula Tab; Infants Simethicone; K-MOM Kids Tooth; L'ECLAT Blanc Toothpaste; L'ECLAT Imperial Toothpaste; L'ECLAT Rose Toothpaste; LACSIAN new perfect all care tooth; LACSISN perfect all care; LACSISN perfect sensitive; Lubas; Medi Megaton 2080; Medi Peel Herb Denti Clinic Toothpas Te; Medi Peel Herbpirin Salt Toothpas Te; MediF Tooth; Medique Alamag Plus; Men's Biomultiple Vitamin and Mineral Supplement; Mineral Support; Mineralex; NAVI MAXON Sirin Doctor; NAVI Mate Gold; NAVI Mate Silver; Nano Silver Toothpaste; Olea Olidental; Onetoothclinic Tooth; Oprecare 12; Oprecare 24; Oprecare 3set (07,12,21); PediaCare Gas Relief Drops Dye Free; PediaCare Gas Relief Original; PediaCare Infants Gas Relief; PediaCare Infants Gas Relief Dye Free; Pediacare SIMETHICONE ANTIGAS; Purigo; SUNSIL-Tin50AS; SiO2SAN; Silica Gel; Simethicone; Sonatural All Kill Blackhead Clear; Supplements De Vitamines Et Mineraux; Tooth Note Aqua Mint; Tooth Note Pineapple Mint; Unique Propoli Toothpas te; Unpa Cha Cha Premium Whitening Tooth; Unpa Cha Cha Premium Whitening Toothpaste; Women's Biomultiple Vitamin and Mineral Supplement; Women's Support Tablets; the naked object DeBlack PackToothpaste

$$$$
