REMARK  Name = 24352
REMARK  6 active torsions:
REMARK  status: ('A' for Active; 'I' for Inactive)
REMARK    1  A    between atoms: N_2  and  C_19
REMARK    2  A    between atoms: C_8  and  C_16
REMARK    3  A    between atoms: C_16  and  C_17
REMARK    4  A    between atoms: C_19  and  C_20
REMARK    5  A    between atoms: C_20  and  C_21
REMARK    6  A    between atoms: C_21  and  N_22
REMARK                            x       y       z     vdW  Elec       q    Type
REMARK                         _______ _______ _______ _____ _____    ______ ____
ROOT
ATOM      1  S   UNL     1       2.297  -2.871   0.129  0.00  0.00    -0.084 S 
ATOM      2  N   UNL     1       1.063  -0.050   0.559  0.00  0.00    -0.286 N 
ATOM      3  C   UNL     1       0.138  -1.093   0.298  0.00  0.00    +0.058 C 
ATOM      4  C   UNL     1       2.437  -0.074   0.212  0.00  0.00    +0.058 C 
ATOM      5  C   UNL     1       0.577  -2.411   0.063  0.00  0.00    +0.043 C 
ATOM      6  C   UNL     1       3.104  -1.290  -0.032  0.00  0.00    +0.043 C 
ATOM      7  C   UNL     1      -1.252  -0.859   0.226  0.00  0.00    +0.018 C 
ATOM      8  C   UNL     1      -2.163  -1.884  -0.043  0.00  0.00    +0.036 C 
ATOM      9  C   UNL     1       3.190   1.111   0.059  0.00  0.00    +0.015 C 
ATOM     10  C   UNL     1      -0.344  -3.440  -0.202  0.00  0.00    +0.008 C 
ATOM     11  C   UNL     1      -1.708  -3.177  -0.254  0.00  0.00    +0.003 C 
ATOM     12  C   UNL     1       4.466  -1.307  -0.383  0.00  0.00    +0.008 C 
ATOM     13  C   UNL     1       4.542   1.089  -0.296  0.00  0.00    +0.001 C 
ATOM     14  C   UNL     1       5.181  -0.122  -0.513  0.00  0.00    +0.001 C 
ENDROOT
BRANCH   8  16
ATOM     15  O   UNL     1      -4.414  -2.505  -0.324  0.00  0.00    -0.291 OA
ATOM     16  C   UNL     1      -3.588  -1.598  -0.093  0.00  0.00    +0.173 C 
BRANCH  16  17
ATOM     17  C   UNL     1      -4.092  -0.163   0.141  0.00  0.00    +0.069 C 
ATOM     18  C   UNL     1      -5.603  -0.026   0.038  0.00  0.00    +0.009 C 
ENDBRANCH  16  17
ENDBRANCH   8  16
BRANCH   2  19
ATOM     19  C   UNL     1       0.542   1.177   1.176  0.00  0.00    +0.093 C 
BRANCH  19  20
ATOM     20  C   UNL     1       0.106   2.177   0.106  0.00  0.00    -0.001 C 
BRANCH  20  21
ATOM     21  C   UNL     1      -0.401   3.515   0.652  0.00  0.00    -0.076 C 
BRANCH  21  22
ATOM     22  N   UNL     1      -0.845   4.406  -0.413  0.00  0.00    +0.384 N 
ATOM     23  C   UNL     1      -1.850   3.748  -1.250  0.00  0.00    -0.101 C 
ATOM     24  C   UNL     1      -1.383   5.648   0.145  0.00  0.00    -0.101 C 
ATOM     25  H   UNL     1      -0.038   4.633  -0.994  0.00  0.00    -0.080 HD
ENDBRANCH  21  22
ENDBRANCH  20  21
ENDBRANCH  19  20
ENDBRANCH   2  19
TORSDOF 6
