REMARK  Name = 5311053
REMARK  15 active torsions:
REMARK  status: ('A' for Active; 'I' for Inactive)
REMARK    1  A    between atoms: C_1  and  C_24
REMARK    2  A    between atoms: C_2  and  C_10
REMARK    3  A    between atoms: C_3  and  O_6
REMARK    4  A    between atoms: C_4  and  O_8
REMARK    5  A    between atoms: C_11  and  C_12
REMARK    6  A    between atoms: C_12  and  O_13
REMARK    7  A    between atoms: C_12  and  C_15
REMARK    8  A    between atoms: C_15  and  O_16
REMARK    9  A    between atoms: O_16  and  C_18
REMARK   10  A    between atoms: C_24  and  C_25
REMARK   11  A    between atoms: C_26  and  C_27
REMARK   12  A    between atoms: C_27  and  C_28
REMARK   13  A    between atoms: C_28  and  C_29
REMARK   14  A    between atoms: C_29  and  C_31
REMARK   15  A    between atoms: C_31  and  O_32
REMARK                            x       y       z     vdW  Elec       q    Type
REMARK                         _______ _______ _______ _____ _____    ______ ____
ROOT
ATOM      1  C   UNL     1      -2.481  -0.086   0.805  0.00  0.00    +0.038 C 
ATOM      2  C   UNL     1      -2.407   1.391   0.385  0.00  0.00    +0.051 C 
ATOM      3  C   UNL     1      -3.815  -0.146   1.555  0.00  0.00    +0.114 C 
ATOM      4  C   UNL     1      -3.857   1.738   0.003  0.00  0.00    +0.117 C 
ATOM      5  C   UNL     1      -4.751   0.690   0.683  0.00  0.00    +0.059 C 
ENDROOT
BRANCH   3   6
ATOM      6  O   UNL     1      -3.732   0.409   2.862  0.00  0.00    -0.384 OA
ATOM      7  H   UNL     1      -3.136  -0.130   3.405  0.00  0.00    +0.210 HD
ENDBRANCH   3   6
BRANCH   4   8
ATOM      8  O   UNL     1      -4.192   3.035   0.481  0.00  0.00    -0.384 OA
ATOM      9  H   UNL     1      -3.626   3.695   0.051  0.00  0.00    +0.210 HD
ENDBRANCH   4   8
BRANCH   2  10
ATOM     10  C   UNL     1      -1.450   1.647  -0.738  0.00  0.00    -0.026 C 
ATOM     11  C   UNL     1      -0.413   2.492  -0.656  0.00  0.00    +0.002 C 
BRANCH  11  12
ATOM     12  C   UNL     1       0.545   2.749  -1.786  0.00  0.00    +0.176 C 
BRANCH  12  13
ATOM     13  O   UNL     1       0.438   4.126  -2.137  0.00  0.00    -0.376 OA
ATOM     14  H   UNL     1      -0.476   4.323  -2.396  0.00  0.00    +0.211 HD
ENDBRANCH  12  13
BRANCH  12  15
ATOM     15  C   UNL     1       1.986   2.448  -1.380  0.00  0.00    +0.239 C 
BRANCH  15  16
ATOM     16  O   UNL     1       2.105   1.089  -0.988  0.00  0.00    -0.472 OA
BRANCH  16  18
ATOM     17 CL   UNL     1       3.631  -1.884   2.849  0.00  0.00    -0.082 Cl
ATOM     18  C   UNL     1       3.068   0.794  -0.058  0.00  0.00    +0.140 C 
ATOM     19  C   UNL     1       2.877  -0.270   0.816  0.00  0.00    +0.048 C 
ATOM     20  C   UNL     1       4.224   1.563   0.002  0.00  0.00    +0.037 C 
ATOM     21  C   UNL     1       3.857  -0.569   1.763  0.00  0.00    +0.061 C 
ATOM     22  C   UNL     1       5.204   1.263   0.948  0.00  0.00    +0.004 C 
ATOM     23  C   UNL     1       5.021   0.197   1.828  0.00  0.00    +0.012 C 
ENDBRANCH  16  18
ENDBRANCH  15  16
ENDBRANCH  12  15
ENDBRANCH  11  12
ENDBRANCH   2  10
BRANCH   1  24
ATOM     24  C   UNL     1      -1.292  -0.540   1.641  0.00  0.00    +0.028 C 
BRANCH  24  25
ATOM     25  C   UNL     1      -1.315  -1.958   2.141  0.00  0.00    -0.031 C 
ATOM     26  C   UNL     1      -0.871  -3.051   1.501  0.00  0.00    -0.031 C 
BRANCH  26  27
ATOM     27  C   UNL     1      -0.259  -3.021   0.131  0.00  0.00    +0.026 C 
BRANCH  27  28
ATOM     28  C   UNL     1      -1.023  -3.857  -0.904  0.00  0.00    +0.016 C 
BRANCH  28  29
ATOM     29  C   UNL     1      -0.392  -3.848  -2.300  0.00  0.00    +0.110 C 
BRANCH  29  31
ATOM     30  O   UNL     1      -1.106  -1.558  -2.722  0.00  0.00    -0.250 OA
ATOM     31  C   UNL     1      -0.319  -2.472  -2.926  0.00  0.00    +0.314 C 
BRANCH  31  32
ATOM     32  O   UNL     1       0.719  -2.372  -3.798  0.00  0.00    -0.480 OA
ATOM     33  H   UNL     1       1.297  -3.098  -3.923  0.00  0.00    +0.295 HD
ENDBRANCH  31  32
ENDBRANCH  29  31
ENDBRANCH  28  29
ENDBRANCH  27  28
ENDBRANCH  26  27
ENDBRANCH  24  25
ENDBRANCH   1  24
TORSDOF 15
