5284595
  -OEChem-05071818423D

 44 48  0     1  0  0  0  0  0999 V2000
   -2.3508   -0.1248    1.4191 O   0  0  0  0  0  0  0  0  0  0  0  0
   -3.6349   -2.0958    0.2851 O   0  0  0  0  0  0  0  0  0  0  0  0
   -3.6928    2.3791    0.8189 O   0  0  0  0  0  0  0  0  0  0  0  0
    2.6653   -0.5327   -0.0611 N   0  0  2  0  0  0  0  0  0  0  0  0
   -0.1544   -0.7689    0.5867 C   0  0  1  0  0  0  0  0  0  0  0  0
    0.5014   -1.5593   -0.5558 C   0  0  2  0  0  0  0  0  0  0  0  0
    1.6446   -0.6603   -1.1293 C   0  0  1  0  0  0  0  0  0  0  0  0
   -1.4992   -1.2916    1.1437 C   0  0  2  0  0  0  0  0  0  0  0  0
    0.8883   -0.5076    1.6914 C   0  0  0  0  0  0  0  0  0  0  0  0
   -0.6558    0.5254    0.0365 C   0  0  0  0  0  0  0  0  0  0  0  0
    1.1159    0.6995   -1.7025 C   0  0  0  0  0  0  0  0  0  0  0  0
    2.1780    0.1323    1.1515 C   0  0  0  0  0  0  0  0  0  0  0  0
   -0.0714    1.2685   -0.9733 C   0  0  0  0  0  0  0  0  0  0  0  0
   -2.2262   -2.3037    0.2201 C   0  0  2  0  0  0  0  0  0  0  0  0
   -0.5149   -2.0099   -1.5739 C   0  0  0  0  0  0  0  0  0  0  0  0
   -1.8701    0.8562    0.5945 C   0  0  0  0  0  0  0  0  0  0  0  0
   -1.7666   -2.3300   -1.2133 C   0  0  0  0  0  0  0  0  0  0  0  0
    3.9191    0.0537   -0.5231 C   0  0  0  0  0  0  0  0  0  0  0  0
   -0.7012    2.4615   -1.3319 C   0  0  0  0  0  0  0  0  0  0  0  0
   -2.5060    2.0324    0.2631 C   0  0  0  0  0  0  0  0  0  0  0  0
   -1.9006    2.8485   -0.7011 C   0  0  0  0  0  0  0  0  0  0  0  0
    4.9957   -0.0600    0.5120 C   0  0  0  0  0  0  0  0  0  0  0  0
    5.6365    0.9877    1.0428 C   0  0  0  0  0  0  0  0  0  0  0  0
    0.9555   -2.4797   -0.1582 H   0  0  0  0  0  0  0  0  0  0  0  0
    2.1143   -1.2064   -1.9592 H   0  0  0  0  0  0  0  0  0  0  0  0
   -1.3497   -1.7808    2.1150 H   0  0  0  0  0  0  0  0  0  0  0  0
    1.1435   -1.4644    2.1671 H   0  0  0  0  0  0  0  0  0  0  0  0
    0.4786    0.1344    2.4820 H   0  0  0  0  0  0  0  0  0  0  0  0
    0.7966    0.5136   -2.7371 H   0  0  0  0  0  0  0  0  0  0  0  0
    1.9070    1.4529   -1.7587 H   0  0  0  0  0  0  0  0  0  0  0  0
    2.0148    1.2027    0.9735 H   0  0  0  0  0  0  0  0  0  0  0  0
    2.9105    0.0644    1.9641 H   0  0  0  0  0  0  0  0  0  0  0  0
   -2.0442   -3.3141    0.6091 H   0  0  0  0  0  0  0  0  0  0  0  0
   -0.2118   -2.1161   -2.6108 H   0  0  0  0  0  0  0  0  0  0  0  0
   -2.4563   -2.6945   -1.9691 H   0  0  0  0  0  0  0  0  0  0  0  0
    3.7912    1.1021   -0.8159 H   0  0  0  0  0  0  0  0  0  0  0  0
    4.2718   -0.4832   -1.4125 H   0  0  0  0  0  0  0  0  0  0  0  0
   -0.2870    3.0867   -2.1183 H   0  0  0  0  0  0  0  0  0  0  0  0
   -2.3776    3.7791   -0.9998 H   0  0  0  0  0  0  0  0  0  0  0  0
   -3.8890   -2.1105    1.2237 H   0  0  0  0  0  0  0  0  0  0  0  0
    5.2763   -1.0588    0.8379 H   0  0  0  0  0  0  0  0  0  0  0  0
   -3.9497    1.6845    1.4500 H   0  0  0  0  0  0  0  0  0  0  0  0
    6.4122    0.8379    1.7856 H   0  0  0  0  0  0  0  0  0  0  0  0
    5.4007    2.0050    0.7508 H   0  0  0  0  0  0  0  0  0  0  0  0
  1  8  1  0  0  0  0
  1 16  1  0  0  0  0
  2 14  1  0  0  0  0
  2 40  1  0  0  0  0
  3 20  1  0  0  0  0
  3 42  1  0  0  0  0
  4  7  1  0  0  0  0
  4 12  1  0  0  0  0
  4 18  1  0  0  0  0
  5  6  1  0  0  0  0
  5  8  1  0  0  0  0
  5  9  1  0  0  0  0
  5 10  1  0  0  0  0
  6  7  1  0  0  0  0
  6 15  1  0  0  0  0
  6 24  1  0  0  0  0
  7 11  1  0  0  0  0
  7 25  1  0  0  0  0
  8 14  1  0  0  0  0
  8 26  1  0  0  0  0
  9 12  1  0  0  0  0
  9 27  1  0  0  0  0
  9 28  1  0  0  0  0
 10 13  2  0  0  0  0
 10 16  1  0  0  0  0
 11 13  1  0  0  0  0
 11 29  1  0  0  0  0
 11 30  1  0  0  0  0
 12 31  1  0  0  0  0
 12 32  1  0  0  0  0
 13 19  1  0  0  0  0
 14 17  1  0  0  0  0
 14 33  1  0  0  0  0
 15 17  2  0  0  0  0
 15 34  1  0  0  0  0
 16 20  2  0  0  0  0
 17 35  1  0  0  0  0
 18 22  1  0  0  0  0
 18 36  1  0  0  0  0
 18 37  1  0  0  0  0
 19 21  2  0  0  0  0
 19 38  1  0  0  0  0
 20 21  1  0  0  0  0
 21 39  1  0  0  0  0
 22 23  2  0  0  0  0
 22 41  1  0  0  0  0
 23 43  1  0  0  0  0
 23 44  1  0  0  0  0
M  END
> <DATABASE_ID>
DB11490

> <DATABASE_NAME>
drugbank

> <ORIGINAL_SOURCE>
PUBCHEM

> <ORIGINAL_SOURCE_URL>
https://pubchem.ncbi.nlm.nih.gov/rest/pug/compound/inchikey/UIQMVEYFGZJHCZ-SSTWWWIQSA-N/SDF?record_type=3d

> <SMILES>
[H][C@@]12OC3=C(O)C=CC4=C3[C@@]11CCN(CC=C)[C@]([H])(C4)[C@]1([H])C=C[C@@H]2O

> <INCHI_IDENTIFIER>
InChI=1S/C19H21NO3/c1-2-8-20-9-7-19-12-4-6-15(22)18(19)23-17-14(21)5-3-11(16(17)19)10-13(12)20/h2-6,12-13,15,18,21-22H,1,7-10H2/t12-,13+,15-,18-,19-/m0/s1

> <INCHI_KEY>
UIQMVEYFGZJHCZ-SSTWWWIQSA-N

> <FORMULA>
C19H21NO3

> <MOLECULAR_WEIGHT>
311.381

> <EXACT_MASS>
311.15214354

> <JCHEM_ACCEPTOR_COUNT>
4

> <JCHEM_ATOM_COUNT>
44

> <JCHEM_AVERAGE_POLARIZABILITY>
33.29892781864536

> <JCHEM_BIOAVAILABILITY>
1

> <JCHEM_DONOR_COUNT>
2

> <JCHEM_FORMAL_CHARGE>
0

> <JCHEM_GHOSE_FILTER>
1

> <JCHEM_IUPAC>
(1S,5R,13R,14S,17R)-4-(prop-2-en-1-yl)-12-oxa-4-azapentacyclo[9.6.1.0^{1,13}.0^{5,17}.0^{7,18}]octadeca-7(18),8,10,15-tetraene-10,14-diol

> <ALOGPS_LOGP>
1.55

> <JCHEM_LOGP>
1.675260432701913

> <ALOGPS_LOGS>
-2.36

> <JCHEM_MDDR_LIKE_RULE>
0

> <JCHEM_NUMBER_OF_RINGS>
5

> <JCHEM_PHYSIOLOGICAL_CHARGE>
1

> <JCHEM_PKA>
13.783094950352542

> <JCHEM_PKA_STRONGEST_ACIDIC>
10.204004409255173

> <JCHEM_PKA_STRONGEST_BASIC>
8.805023536658458

> <JCHEM_POLAR_SURFACE_AREA>
52.93000000000001

> <JCHEM_REFRACTIVITY>
89.28510000000001

> <JCHEM_ROTATABLE_BOND_COUNT>
2

> <JCHEM_RULE_OF_FIVE>
1

> <ALOGPS_SOLUBILITY>
1.36e+00 g/l

> <JCHEM_TRADITIONAL_IUPAC>
(1S,5R,13R,14S,17R)-4-(prop-2-en-1-yl)-12-oxa-4-azapentacyclo[9.6.1.0^{1,13}.0^{5,17}.0^{7,18}]octadeca-7(18),8,10,15-tetraene-10,14-diol

> <JCHEM_VEBER_RULE>
0

> <DRUGBANK_ID>
DB11490

> <DRUG_GROUPS>
experimental; vet_approved

> <GENERIC_NAME>
Nalorphine

> <SYNONYMS>
Nalorfina; Nalorphinum

> <SALTS>
Nalorphine hydrochloride

$$$$
