REMARK  Name = 11205997
REMARK  4 active torsions:
REMARK  status: ('A' for Active; 'I' for Inactive)
REMARK    1  A    between atoms: C_3  and  C_9
REMARK    2  A    between atoms: C_4  and  C_14
REMARK    3  A    between atoms: C_9  and  N_10
REMARK    4  A    between atoms: C_14  and  O_15
REMARK                            x       y       z     vdW  Elec       q    Type
REMARK                         _______ _______ _______ _____ _____    ______ ____
ROOT
ATOM      1  O   UNL     1       1.544   1.845  -0.509  0.00  0.00    -0.290 OA
ATOM      2  N   UNL     1       1.390  -1.629   0.327  0.00  0.00    -0.246 NA
ATOM      3  C   UNL     1      -0.334   0.527  -0.114  0.00  0.00    +0.064 C 
ATOM      4  C   UNL     1      -0.849  -0.724   0.207  0.00  0.00    +0.009 C 
ATOM      5  C   UNL     1       1.042   0.701  -0.215  0.00  0.00    +0.188 C 
ATOM      6  C   UNL     1       1.853  -0.399   0.013  0.00  0.00    +0.094 C 
ATOM      7  C   UNL     1       0.047  -1.760   0.416  0.00  0.00    +0.093 C 
ATOM      8  C   UNL     1       3.346  -0.307  -0.073  0.00  0.00    +0.055 C 
ENDROOT
BRANCH   3   9
ATOM      9  C   UNL     1      -1.290   1.661  -0.343  0.00  0.00    -0.074 C 
BRANCH   9  10
ATOM     10  N   UNL     1      -1.603   2.418   0.896  0.00  0.00    +0.381 N 
ATOM     11  H   UNL     1      -2.254   3.173   0.678  0.00  0.00    -0.089 HD
ATOM     12  H   UNL     1      -0.744   2.811   1.281  0.00  0.00    -0.089 HD
ATOM     13  H   UNL     1      -2.026   1.791   1.580  0.00  0.00    -0.089 HD
ENDBRANCH   9  10
ENDBRANCH   3   9
BRANCH   4  14
ATOM     14  C   UNL     1      -2.313  -0.972   0.330  0.00  0.00    +0.161 C 
BRANCH  14  15
ATOM     15  O   UNL     1      -2.835  -1.363  -0.935  0.00  0.00    -0.377 OA
ATOM     16  H   UNL     1      -3.788  -1.525  -0.855  0.00  0.00    +0.211 HD
ENDBRANCH  14  15
ENDBRANCH   4  14
TORSDOF 4
