REMARK  Name = 19395
REMARK  10 active torsions:
REMARK  status: ('A' for Active; 'I' for Inactive)
REMARK    1  A    between atoms: O_1  and  P_3
REMARK    2  A    between atoms: O_1  and  P_11
REMARK    3  A    between atoms: P_3  and  O_4
REMARK    4  A    between atoms: P_3  and  O_7
REMARK    5  A    between atoms: O_4  and  C_5
REMARK    6  A    between atoms: O_7  and  C_8
REMARK    7  A    between atoms: P_11  and  O_12
REMARK    8  A    between atoms: P_11  and  O_15
REMARK    9  A    between atoms: O_12  and  C_13
REMARK   10  A    between atoms: O_15  and  C_16
REMARK                            x       y       z     vdW  Elec       q    Type
REMARK                         _______ _______ _______ _____ _____    ______ ____
ROOT
ATOM      1  O   UNL     1       0.000   0.000  -1.468  0.00  0.00    -0.236 OA
ENDROOT
BRANCH   1   3
ATOM      2  S   UNL     1       1.527  -2.505  -2.132  0.00  0.00    +0.023 S 
ATOM      3  P   UNL     1       0.884  -1.204  -0.838  0.00  0.00    +0.316 P 
BRANCH   3   4
ATOM      4  O   UNL     1       2.001  -0.402   0.029  0.00  0.00    -0.297 OA
BRANCH   4   5
ATOM      5  C   UNL     1       3.071   0.250  -0.633  0.00  0.00    +0.151 C 
ATOM      6  C   UNL     1       3.958   0.914   0.399  0.00  0.00    +0.035 C 
ENDBRANCH   4   5
ENDBRANCH   3   4
BRANCH   3   7
ATOM      7  O   UNL     1      -0.106  -1.765   0.321  0.00  0.00    -0.297 OA
BRANCH   7   8
ATOM      8  C   UNL     1       0.399  -2.632   1.322  0.00  0.00    +0.151 C 
ATOM      9  C   UNL     1      -0.724  -3.002   2.267  0.00  0.00    +0.035 C 
ENDBRANCH   7   8
ENDBRANCH   3   7
ENDBRANCH   1   3
BRANCH   1  11
ATOM     10  S   UNL     1      -1.527   2.506  -2.132  0.00  0.00    +0.023 S 
ATOM     11  P   UNL     1      -0.885   1.204  -0.838  0.00  0.00    +0.316 P 
BRANCH  11  12
ATOM     12  O   UNL     1      -2.000   0.402   0.029  0.00  0.00    -0.297 OA
BRANCH  12  13
ATOM     13  C   UNL     1      -3.071  -0.250  -0.633  0.00  0.00    +0.151 C 
ATOM     14  C   UNL     1      -3.958  -0.914   0.399  0.00  0.00    +0.035 C 
ENDBRANCH  12  13
ENDBRANCH  11  12
BRANCH  11  15
ATOM     15  O   UNL     1       0.107   1.765   0.321  0.00  0.00    -0.297 OA
BRANCH  15  16
ATOM     16  C   UNL     1      -0.399   2.631   1.322  0.00  0.00    +0.151 C 
ATOM     17  C   UNL     1       0.724   3.002   2.267  0.00  0.00    +0.035 C 
ENDBRANCH  15  16
ENDBRANCH  11  15
ENDBRANCH   1  11
TORSDOF 10
