REMARK  Name = 23582824
REMARK  2 active torsions:
REMARK  status: ('A' for Active; 'I' for Inactive)
REMARK    1  A    between atoms: C_3  and  C_21
REMARK    2  A    between atoms: C_6  and  C_15
REMARK                            x       y       z     vdW  Elec       q    Type
REMARK                         _______ _______ _______ _____ _____    ______ ____
ROOT
ATOM      1  N   UNL     1       2.681   3.100   0.505  0.00  0.00    -0.244 NA
ATOM      2  C   UNL     1       1.505   1.079  -0.075  0.00  0.00    +0.018 C 
ATOM      3  C   UNL     1       2.658   0.334   0.206  0.00  0.00    +0.003 C 
ATOM      4  C   UNL     1       1.561   2.478   0.090  0.00  0.00    +0.081 C 
ATOM      5  C   UNL     1       0.319   0.463  -0.510  0.00  0.00    +0.002 C 
ATOM      6  C   UNL     1      -0.813   1.227  -0.782  0.00  0.00    +0.001 C 
ATOM      7  C   UNL     1       0.415   3.218  -0.189  0.00  0.00    +0.019 C 
ATOM      8  C   UNL     1      -0.764   2.606  -0.621  0.00  0.00    +0.002 C 
ATOM      9  C   UNL     1       3.814   0.972   0.634  0.00  0.00    +0.021 C 
ATOM     10  C   UNL     1       3.773   2.345   0.766  0.00  0.00    +0.099 C 
ENDROOT
BRANCH   6  15
ATOM     11  S   UNL     1      -3.047   0.150   1.277  0.00  0.00    -0.025 S 
ATOM     12  O   UNL     1      -4.498  -0.694  -2.159  0.00  0.00    -0.269 OA
ATOM     13  O   UNL     1      -5.178  -0.904   2.420  0.00  0.00    -0.262 OA
ATOM     14  N   UNL     1      -5.051  -0.906   0.092  0.00  0.00    -0.243 N 
ATOM     15  C   UNL     1      -2.039   0.588  -1.231  0.00  0.00    +0.011 C 
ATOM     16  C   UNL     1      -3.026   0.109  -0.444  0.00  0.00    +0.087 C 
ATOM     17  C   UNL     1      -4.252  -0.533  -0.973  0.00  0.00    +0.258 C 
ATOM     18  C   UNL     1      -4.612  -0.646   1.369  0.00  0.00    +0.283 C 
ATOM     19  H   UNL     1      -5.916  -1.351  -0.061  0.00  0.00    +0.159 HD
ENDBRANCH   6  15
BRANCH   3  21
ATOM     20  N   UNL     1       2.809  -3.893  -0.195  0.00  0.00    -0.242 NA
ATOM     21  C   UNL     1       2.710  -1.112   0.069  0.00  0.00    +0.003 C 
ATOM     22  C   UNL     1       2.379  -1.927   1.145  0.00  0.00    +0.021 C 
ATOM     23  C   UNL     1       3.090  -1.685  -1.139  0.00  0.00    +0.021 C 
ATOM     24  C   UNL     1       2.443  -3.299   0.964  0.00  0.00    +0.099 C 
ATOM     25  C   UNL     1       3.123  -3.068  -1.219  0.00  0.00    +0.099 C 
ENDBRANCH   3  21
TORSDOF 2
