REMARK  Name = 90311989
REMARK  4 active torsions:
REMARK  status: ('A' for Active; 'I' for Inactive)
REMARK    1  A    between atoms: C_16  and  O_33
REMARK    2  A    between atoms: C_17  and  C_21
REMARK    3  A    between atoms: N_20  and  C_23
REMARK    4  A    between atoms: C_23  and  C_27
REMARK                            x       y       z     vdW  Elec       q    Type
REMARK                         _______ _______ _______ _____ _____    ______ ____
ROOT
ATOM      1  O   UNL     1      -5.393   1.933  -0.179  0.00  0.00    -0.339 OA
ATOM      2  O   UNL     1      -3.689  -2.441  -0.793  0.00  0.00    -0.268 OA
ATOM      3  O   UNL     1       1.192  -1.797   0.511  0.00  0.00    -0.283 OA
ATOM      4  N   UNL     1      -4.559  -0.339  -0.381  0.00  0.00    -0.253 N 
ATOM      5  N   UNL     1      -1.947   0.671  -0.191  0.00  0.00    -0.275 N 
ATOM      6  C   UNL     1      -5.956  -0.781  -0.510  0.00  0.00    +0.080 C 
ATOM      7  C   UNL     1      -6.713   1.381  -0.206  0.00  0.00    +0.119 C 
ATOM      8  C   UNL     1      -6.741   0.286  -1.258  0.00  0.00    +0.049 C 
ATOM      9  C   UNL     1      -6.629  -0.795   0.869  0.00  0.00    +0.022 C 
ATOM     10  C   UNL     1      -7.066   0.660   1.101  0.00  0.00    +0.031 C 
ATOM     11  C   UNL     1      -4.329   1.017   0.128  0.00  0.00    +0.215 C 
ATOM     12  C   UNL     1      -3.054   1.579  -0.474  0.00  0.00    +0.147 C 
ATOM     13  C   UNL     1      -3.517  -1.262  -0.485  0.00  0.00    +0.267 C 
ATOM     14  C   UNL     1      -2.133  -0.718  -0.205  0.00  0.00    +0.143 C 
ATOM     15  C   UNL     1      -0.672   1.173   0.028  0.00  0.00    +0.074 C 
ATOM     16  C   UNL     1      -1.125  -1.589   0.021  0.00  0.00    +0.191 C 
ATOM     17  C   UNL     1       0.415   0.429   0.263  0.00  0.00    +0.110 C 
ATOM     18  C   UNL     1       0.247  -1.048   0.287  0.00  0.00    +0.236 C 
ENDROOT
BRANCH  17  21
ATOM     19  O   UNL     1       1.940   2.187  -0.055  0.00  0.00    -0.270 OA
ATOM     20  N   UNL     1       2.545   0.401   1.317  0.00  0.00    -0.297 N 
ATOM     21  C   UNL     1       1.695   1.104   0.479  0.00  0.00    +0.251 C 
ATOM     22  H   UNL     1       2.233  -0.458   1.683  0.00  0.00    +0.150 HD
BRANCH  20  23
ATOM     23  C   UNL     1       3.866   0.862   1.681  0.00  0.00    +0.121 C 
BRANCH  23  27
ATOM     24  F   UNL     1       4.844  -1.790   1.567  0.00  0.00    -0.204 F 
ATOM     25  F   UNL     1       5.021   2.603  -0.224  0.00  0.00    -0.204 F 
ATOM     26  F   UNL     1       7.776  -0.802  -2.012  0.00  0.00    -0.204 F 
ATOM     27  C   UNL     1       4.907   0.418   0.696  0.00  0.00    +0.053 C 
ATOM     28  C   UNL     1       5.347  -0.906   0.694  0.00  0.00    +0.142 C 
ATOM     29  C   UNL     1       5.437   1.329  -0.218  0.00  0.00    +0.142 C 
ATOM     30  C   UNL     1       6.316  -1.318  -0.221  0.00  0.00    +0.059 C 
ATOM     31  C   UNL     1       6.405   0.917  -1.133  0.00  0.00    +0.059 C 
ATOM     32  C   UNL     1       6.845  -0.406  -1.134  0.00  0.00    +0.145 C 
ENDBRANCH  23  27
ENDBRANCH  20  23
ENDBRANCH  17  21
BRANCH  16  33
ATOM     33  O   UNL     1      -1.274  -2.958   0.037  0.00  0.00    -0.502 OA
ATOM     34  H   UNL     1      -2.115  -3.339  -0.124  0.00  0.00    +0.292 HD
ENDBRANCH  16  33
TORSDOF 4
