REMARK  Name = 12675
REMARK  4 active torsions:
REMARK  status: ('A' for Active; 'I' for Inactive)
REMARK    1  A    between atoms: C_3  and  C_6
REMARK    2  A    between atoms: C_3  and  C_13
REMARK    3  A    between atoms: C_6  and  C_10
REMARK    4  A    between atoms: C_13  and  C_17
REMARK                            x       y       z     vdW  Elec       q    Type
REMARK                         _______ _______ _______ _____ _____    ______ ____
ROOT
ATOM      1  F   UNL     1      -0.504  -1.880   0.956  0.00  0.00    -0.192 F 
ATOM      2  F   UNL     1       0.514  -1.869  -0.967  0.00  0.00    -0.192 F 
ATOM      3  C   UNL     1       0.003  -1.051  -0.002  0.00  0.00    +0.390 C 
ENDROOT
BRANCH   3   6
ATOM      4  F   UNL     1       0.715   0.419   1.696  0.00  0.00    -0.189 F 
ATOM      5  F   UNL     1       2.041  -1.197   1.112  0.00  0.00    -0.189 F 
ATOM      6  C   UNL     1       1.156  -0.282   0.622  0.00  0.00    +0.409 C 
BRANCH   6  10
ATOM      7  F   UNL     1       1.110   1.596  -0.810  0.00  0.00    -0.165 F 
ATOM      8  F   UNL     1       2.932   1.264   0.345  0.00  0.00    -0.165 F 
ATOM      9  F   UNL     1       2.451  -0.045  -1.324  0.00  0.00    -0.165 F 
ATOM     10  C   UNL     1       1.917   0.646  -0.292  0.00  0.00    +0.460 C 
ENDBRANCH   6  10
ENDBRANCH   3   6
BRANCH   3  13
ATOM     11  F   UNL     1      -0.714   0.432  -1.686  0.00  0.00    -0.189 F 
ATOM     12  F   UNL     1      -2.034  -1.195  -1.117  0.00  0.00    -0.189 F 
ATOM     13  C   UNL     1      -1.153  -0.281  -0.618  0.00  0.00    +0.409 C 
BRANCH  13  17
ATOM     14  F   UNL     1      -1.127   1.590   0.838  0.00  0.00    -0.165 F 
ATOM     15  F   UNL     1      -2.487  -0.049   1.317  0.00  0.00    -0.165 F 
ATOM     16  F   UNL     1      -2.905   1.265  -0.372  0.00  0.00    -0.165 F 
ATOM     17  C   UNL     1      -1.917   0.636   0.304  0.00  0.00    +0.460 C 
ENDBRANCH  13  17
ENDBRANCH   3  13
TORSDOF 4
