REMARK  Name = 21743
REMARK  7 active torsions:
REMARK  status: ('A' for Active; 'I' for Inactive)
REMARK    1  A    between atoms: CA_5  and  N_11
REMARK    2  A    between atoms: CA_7  and  C_22
REMARK    3  A    between atoms: C_8  and  C_23
REMARK    4  A    between atoms: C_12  and  C_14
REMARK    5  A    between atoms: C_14  and  C_16
REMARK    6  A    between atoms: C_23  and  N_24
REMARK    7  A    between atoms: C_29  and  C_32
REMARK                            x       y       z     vdW  Elec       q    Type
REMARK                         _______ _______ _______ _____ _____    ______ ____
ROOT
ATOM      1  S   UNL     1      -0.320  -2.012  -0.625  0.00  0.00    -0.114 S 
ATOM      2  O   UNL     1      -2.337   1.339   1.891  0.00  0.00    -0.273 OA
ATOM      3  N   UNL     1      -0.569   0.165   0.870  0.00  0.00    -0.242 N 
ATOM      4  C   UNL     1      -0.509  -1.277   1.015  0.00  0.00    +0.155 C 
ATOM      5  CA  UNL     1      -1.950  -1.182   1.567  0.00  0.00    +0.178 C 
ATOM      6  C   UNL     1      -1.722   0.358   1.542  0.00  0.00    +0.251 C 
ATOM      7  CA  UNL     1       0.357   0.907   0.211  0.00  0.00    +0.129 C 
ATOM      8  C   UNL     1       1.262   0.326  -0.611  0.00  0.00    +0.007 C 
ATOM      9  C   UNL     1       1.265  -1.164  -0.944  0.00  0.00    +0.084 C 
ENDROOT
BRANCH   5  11
ATOM     10  O   UNL     1      -4.763  -0.670   1.966  0.00  0.00    -0.275 OA
ATOM     11  N   UNL     1      -3.055  -1.623   0.717  0.00  0.00    -0.296 N 
ATOM     12  C   UNL     1      -4.387  -1.324   0.994  0.00  0.00    +0.228 C 
ATOM     13  H   UNL     1      -2.849  -2.154  -0.086  0.00  0.00    +0.150 HD
BRANCH  12  14
ATOM     14  C   UNL     1      -5.359  -1.869  -0.032  0.00  0.00    +0.118 C 
BRANCH  14  16
ATOM     15  S   UNL     1      -7.788  -0.651  -0.509  0.00  0.00    -0.090 S 
ATOM     16  C   UNL     1      -6.097  -0.724  -0.668  0.00  0.00    +0.016 C 
ATOM     17  C   UNL     1      -5.572   0.309  -1.386  0.00  0.00    +0.003 C 
ATOM     18  C   UNL     1      -6.591   1.201  -1.827  0.00  0.00    +0.007 C 
ATOM     19  C   UNL     1      -7.844   0.798  -1.420  0.00  0.00    +0.035 C 
ENDBRANCH  14  16
ENDBRANCH  12  14
ENDBRANCH   5  11
BRANCH   7  22
ATOM     20  O   UNL     1      -0.412   3.031  -0.425  0.00  0.00    -0.239 OA
ATOM     21  OXT UNL     1       1.058   2.854   1.319  0.00  0.00    -0.239 OA
ATOM     22  C   UNL     1       0.332   2.421   0.386  0.00  0.00    +0.401 C 
ENDBRANCH   7  22
BRANCH   8  23
ATOM     23  C   UNL     1       2.342   1.067  -1.365  0.00  0.00    +0.116 C 
BRANCH  23  24
ATOM     24  N   UNL     1       3.666   0.574  -0.956  0.00  0.00    -0.299 N 
ATOM     25  C   UNL     1       4.199  -0.448  -1.630  0.00  0.00    +0.118 C 
ATOM     26  C   UNL     1       4.277   1.170   0.070  0.00  0.00    +0.062 C 
ATOM     27  C   UNL     1       5.447  -0.933  -1.268  0.00  0.00    -0.000 C 
ATOM     28  C   UNL     1       5.527   0.726   0.476  0.00  0.00    +0.020 C 
ATOM     29  C   UNL     1       6.115  -0.337  -0.203  0.00  0.00    +0.052 C 
BRANCH  29  32
ATOM     30  O   UNL     1       8.037  -0.321   1.158  0.00  0.00    -0.270 OA
ATOM     31  N   UNL     1       7.967  -1.889  -0.513  0.00  0.00    -0.325 N 
ATOM     32  C   UNL     1       7.425  -0.824   0.200  0.00  0.00    +0.243 C 
ATOM     33  H   UNL     1       8.852  -2.245  -0.269  0.00  0.00    +0.145 HD
ATOM     34  H   UNL     1       7.466  -2.286  -1.262  0.00  0.00    +0.145 HD
ENDBRANCH  29  32
ENDBRANCH  23  24
ENDBRANCH   8  23
TORSDOF 7
