REMARK  Name = 2562
REMARK  11 active torsions:
REMARK  status: ('A' for Active; 'I' for Inactive)
REMARK    1  A    between atoms: C_2  and  C_3
REMARK    2  A    between atoms: C_2  and  O_14
REMARK    3  A    between atoms: C_3  and  C_8
REMARK    4  A    between atoms: O_14  and  C_15
REMARK    5  A    between atoms: C_15  and  C_16
REMARK    6  A    between atoms: C_16  and  O_17
REMARK    7  A    between atoms: O_17  and  C_18
REMARK    8  A    between atoms: C_18  and  C_19
REMARK    9  A    between atoms: C_19  and  N_20
REMARK   10  A    between atoms: N_20  and  C_22
REMARK   11  A    between atoms: N_20  and  C_24
REMARK                            x       y       z     vdW  Elec       q    Type
REMARK                         _______ _______ _______ _____ _____    ______ ____
ROOT
ATOM      1  O   UNL     1       3.090  -1.804   1.473  0.00  0.00    -0.250 OA
ATOM      2  C   UNL     1       2.498  -1.196   0.591  0.00  0.00    +0.320 C 
ENDROOT
BRANCH   2   3
ATOM      3  C   UNL     1       3.102  -0.067  -0.212  0.00  0.00    +0.108 C 
ATOM      4  C   UNL     1       3.222  -0.490  -1.689  0.00  0.00    +0.015 C 
ATOM      5  C   UNL     1       4.587   0.099   0.166  0.00  0.00    +0.015 C 
ATOM      6  C   UNL     1       4.451  -1.392  -1.760  0.00  0.00    +0.001 C 
ATOM      7  C   UNL     1       5.329  -1.011  -0.575  0.00  0.00    +0.001 C 
BRANCH   3   8
ATOM      8  C   UNL     1       2.255   1.178   0.017  0.00  0.00    -0.013 C 
ATOM      9  C   UNL     1       1.173   1.451  -0.821  0.00  0.00    -0.004 C 
ATOM     10  C   UNL     1       2.561   2.048   1.064  0.00  0.00    -0.004 C 
ATOM     11  C   UNL     1       0.398   2.592  -0.612  0.00  0.00    -0.000 C 
ATOM     12  C   UNL     1       1.786   3.189   1.274  0.00  0.00    -0.000 C 
ATOM     13  C   UNL     1       0.705   3.461   0.436  0.00  0.00    -0.000 C 
ENDBRANCH   3   8
ENDBRANCH   2   3
BRANCH   2  14
ATOM     14  O   UNL     1       1.217  -1.416   0.177  0.00  0.00    -0.446 OA
BRANCH  14  15
ATOM     15  C   UNL     1       0.522  -2.466   0.858  0.00  0.00    +0.240 C 
BRANCH  15  16
ATOM     16  C   UNL     1      -0.877  -2.584   0.286  0.00  0.00    +0.189 C 
BRANCH  16  17
ATOM     17  O   UNL     1      -1.568  -1.357   0.491  0.00  0.00    -0.352 OA
BRANCH  17  18
ATOM     18  C   UNL     1      -2.882  -1.403  -0.046  0.00  0.00    +0.120 C 
BRANCH  18  19
ATOM     19  C   UNL     1      -3.561  -0.067   0.206  0.00  0.00    -0.045 C 
BRANCH  19  20
ATOM     20  N   UNL     1      -4.908  -0.062  -0.344  0.00  0.00    +0.389 N 
ATOM     21  H   UNL     1      -4.839  -0.235  -1.347  0.00  0.00    -0.080 HD
BRANCH  20  22
ATOM     22  C   UNL     1      -5.547   1.240  -0.138  0.00  0.00    -0.077 C 
ATOM     23  C   UNL     1      -4.733   2.361  -0.750  0.00  0.00    -0.025 C 
ENDBRANCH  20  22
BRANCH  20  24
ATOM     24  C   UNL     1      -5.718  -1.123   0.258  0.00  0.00    -0.077 C 
ATOM     25  C   UNL     1      -7.103  -1.178  -0.351  0.00  0.00    -0.025 C 
ENDBRANCH  20  24
ENDBRANCH  19  20
ENDBRANCH  18  19
ENDBRANCH  17  18
ENDBRANCH  16  17
ENDBRANCH  15  16
ENDBRANCH  14  15
ENDBRANCH   2  14
TORSDOF 11
