REMARK  Name = 9867642
REMARK  6 active torsions:
REMARK  status: ('A' for Active; 'I' for Inactive)
REMARK    1  A    between atoms: N_2  and  C_23
REMARK    2  A    between atoms: C_3  and  C_18
REMARK    3  A    between atoms: C_10  and  S_14
REMARK    4  A    between atoms: C_18  and  C_20
REMARK    5  A    between atoms: C_20  and  O_21
REMARK    6  A    between atoms: C_23  and  C_25
REMARK                            x       y       z     vdW  Elec       q    Type
REMARK                         _______ _______ _______ _____ _____    ______ ____
ROOT
ATOM      1  F   UNL     1      -5.604   1.542   1.083  0.00  0.00    -0.204 F 
ATOM      2  N   UNL     1      -0.523   0.045  -0.321  0.00  0.00    -0.326 N 
ATOM      3  C   UNL     1       1.589   1.516   0.121  0.00  0.00    +0.049 C 
ATOM      4  C   UNL     1       0.163   1.126   0.112  0.00  0.00    +0.034 A 
ATOM      5  C   UNL     1      -0.695   2.029   0.671  0.00  0.00    -0.009 A 
ATOM      6  C   UNL     1       1.521   2.746   1.104  0.00  0.00    +0.011 C 
ATOM      7  C   UNL     1       0.024   3.222   1.160  0.00  0.00    +0.028 C 
ATOM      8  C   UNL     1      -1.995   1.505   0.587  0.00  0.00    +0.016 A 
ATOM      9  C   UNL     1      -1.867   0.252  -0.043  0.00  0.00    +0.077 A 
ATOM     10  C   UNL     1      -2.971  -0.570  -0.300  0.00  0.00    +0.124 C 
ATOM     11  C   UNL     1      -3.275   1.947   0.972  0.00  0.00    +0.031 C 
ATOM     12  C   UNL     1      -4.231  -0.107   0.093  0.00  0.00    +0.049 C 
ATOM     13  C   UNL     1      -4.382   1.130   0.718  0.00  0.00    +0.142 C 
ENDROOT
BRANCH  10  14
ATOM     14  S   UNL     1      -2.908  -2.142  -1.077  0.00  0.00    +0.012 S 
ATOM     15  O   UNL     1      -4.275  -2.603  -1.247  0.00  0.00    -0.169 OA
ATOM     16  O   UNL     1      -2.019  -2.056  -2.224  0.00  0.00    -0.169 OA
ATOM     17  C   UNL     1      -2.117  -3.186   0.123  0.00  0.00    +0.182 C 
ENDBRANCH  10  14
BRANCH   3  18
ATOM     18  C   UNL     1       2.081   1.923  -1.260  0.00  0.00    +0.115 C 
BRANCH  18  20
ATOM     19  O   UNL     1       4.394   1.892  -0.495  0.00  0.00    -0.250 OA
ATOM     20  C   UNL     1       3.532   2.326  -1.244  0.00  0.00    +0.314 C 
BRANCH  20  21
ATOM     21  O   UNL     1       3.763   3.263  -2.199  0.00  0.00    -0.480 OA
ATOM     22  H   UNL     1       3.061   3.558  -2.745  0.00  0.00    +0.295 HD
ENDBRANCH  20  21
ENDBRANCH  18  20
ENDBRANCH   3  18
BRANCH   2  23
ATOM     23  C   UNL     1       0.072  -1.111  -0.952  0.00  0.00    +0.132 C 
BRANCH  23  25
ATOM     24 CL   UNL     1       5.017  -2.886   1.950  0.00  0.00    -0.082 Cl
ATOM     25  C   UNL     1       1.311  -1.558  -0.224  0.00  0.00    +0.000 C 
ATOM     26  C   UNL     1       1.299  -1.639   1.161  0.00  0.00    -0.002 C 
ATOM     27  C   UNL     1       2.450  -1.881  -0.949  0.00  0.00    -0.002 C 
ATOM     28  C   UNL     1       2.448  -2.051   1.836  0.00  0.00    +0.011 C 
ATOM     29  C   UNL     1       3.600  -2.294  -0.274  0.00  0.00    +0.011 C 
ATOM     30  C   UNL     1       3.599  -2.379   1.118  0.00  0.00    +0.058 C 
ENDBRANCH  23  25
ENDBRANCH   2  23
TORSDOF 6
