REMARK  Name = 449093
REMARK  4 active torsions:
REMARK  status: ('A' for Active; 'I' for Inactive)
REMARK    1  A    between atoms: N_1  and  C_14
REMARK    2  A    between atoms: C_14  and  C_15
REMARK    3  A    between atoms: C_16  and  C_18
REMARK    4  A    between atoms: C_18  and  O_19
REMARK                            x       y       z     vdW  Elec       q    Type
REMARK                         _______ _______ _______ _____ _____    ______ ____
ROOT
ATOM      1  N   UNL     1       0.419   0.124   0.416  0.00  0.00    -0.317 N 
ATOM      2  N   UNL     1      -1.957  -1.816   0.176  0.00  0.00    -0.270 NA
ATOM      3  N   UNL     1      -1.262   1.793   0.050  0.00  0.00    -0.232 NA
ATOM      4  N   UNL     1      -4.059  -1.171  -0.188  0.00  0.00    -0.307 N 
ATOM      5  N   UNL     1      -3.611   1.217  -0.273  0.00  0.00    -0.232 NA
ATOM      6  C   UNL     1      -1.917  -0.454   0.095  0.00  0.00    +0.164 C 
ATOM      7  C   UNL     1      -0.899   0.489   0.190  0.00  0.00    +0.124 C 
ATOM      8  C   UNL     1      -3.234  -0.076  -0.132  0.00  0.00    +0.125 C 
ATOM      9  C   UNL     1      -3.261  -2.199   0.001  0.00  0.00    +0.163 C 
ATOM     10  C   UNL     1      -2.570   2.071  -0.168  0.00  0.00    +0.252 C 
ATOM     11  H   UNL     1       0.626  -0.834   0.509  0.00  0.00    +0.148 HD
ATOM     12  H   UNL     1      -1.190  -2.413   0.332  0.00  0.00    +0.126 HD
ATOM     13  H   UNL     1      -5.032  -1.184  -0.336  0.00  0.00    +0.149 HD
ENDROOT
BRANCH   1  14
ATOM     14  C   UNL     1       1.505   1.067   0.521  0.00  0.00    +0.114 C 
BRANCH  14  15
ATOM     15  C   UNL     1       2.776   0.321   0.789  0.00  0.00    -0.011 C 
ATOM     16  C   UNL     1       3.653  -0.160  -0.114  0.00  0.00    -0.018 C 
ATOM     17  C   UNL     1       3.504  -0.028  -1.605  0.00  0.00    +0.029 C 
BRANCH  16  18
ATOM     18  C   UNL     1       4.871  -0.922   0.344  0.00  0.00    +0.159 C 
BRANCH  18  19
ATOM     19  O   UNL     1       6.044  -0.256  -0.104  0.00  0.00    -0.378 OA
ATOM     20  H   UNL     1       6.827  -0.747   0.191  0.00  0.00    +0.211 HD
ENDBRANCH  18  19
ENDBRANCH  16  18
ENDBRANCH  14  15
ENDBRANCH   1  14
TORSDOF 4
