REMARK  Name = 8573
REMARK  7 active torsions:
REMARK  status: ('A' for Active; 'I' for Inactive)
REMARK    1  A    between atoms: C_1  and  C_8
REMARK    2  A    between atoms: C_2  and  C_17
REMARK    3  A    between atoms: C_8  and  O_9
REMARK    4  A    between atoms: O_9  and  C_10
REMARK    5  A    between atoms: C_10  and  C_12
REMARK    6  A    between atoms: C_10  and  C_14
REMARK    7  A    between atoms: C_17  and  O_18
REMARK                            x       y       z     vdW  Elec       q    Type
REMARK                         _______ _______ _______ _____ _____    ______ ____
ROOT
ATOM      1  C   UNL     1      -1.090  -0.606   0.273  0.00  0.00    +0.082 C 
ATOM      2  C   UNL     1      -2.072   0.324  -0.005  0.00  0.00    +0.082 C 
ATOM      3  C   UNL     1      -1.329  -1.965   0.204  0.00  0.00    +0.007 C 
ATOM      4  C   UNL     1      -3.344  -0.121  -0.365  0.00  0.00    +0.007 C 
ATOM      5  C   UNL     1      -2.601  -2.411  -0.156  0.00  0.00    +0.000 C 
ATOM      6  C   UNL     1      -3.608  -1.488  -0.441  0.00  0.00    +0.000 C 
ENDROOT
BRANCH   1   8
ATOM      7  O   UNL     1       0.611   0.035   1.816  0.00  0.00    -0.245 OA
ATOM      8  C   UNL     1       0.274  -0.164   0.659  0.00  0.00    +0.342 C 
BRANCH   8   9
ATOM      9  O   UNL     1       1.053  -0.024  -0.443  0.00  0.00    -0.440 OA
BRANCH   9  10
ATOM     10  C   UNL     1       2.400   0.399  -0.199  0.00  0.00    +0.190 C 
ATOM     11  C   UNL     1       2.308   1.744   0.524  0.00  0.00    +0.058 C 
BRANCH  10  12
ATOM     12  C   UNL     1       3.104   0.513  -1.565  0.00  0.00    +0.053 C 
ATOM     13  C   UNL     1       3.088  -0.750  -2.416  0.00  0.00    +0.005 C 
ENDBRANCH  10  12
BRANCH  10  14
ATOM     14  C   UNL     1       3.058  -0.599   0.666  0.00  0.00    -0.040 C 
ATOM     15  C   UNL     1       3.591  -1.413   1.370  0.00  0.00    -0.011 C 
ENDBRANCH  10  14
ENDBRANCH   9  10
ENDBRANCH   8   9
ENDBRANCH   1   8
BRANCH   2  17
ATOM     16  O   UNL     1      -1.018   2.308   0.818  0.00  0.00    -0.245 OA
ATOM     17  C   UNL     1      -1.827   1.759   0.066  0.00  0.00    +0.338 C 
BRANCH  17  18
ATOM     18  O   UNL     1      -2.599   2.460  -0.807  0.00  0.00    -0.477 OA
ATOM     19  H   UNL     1      -3.203   2.009  -1.364  0.00  0.00    +0.295 HD
ENDBRANCH  17  18
ENDBRANCH   2  17
TORSDOF 7
