REMARK  Name = 8633
REMARK  5 active torsions:
REMARK  status: ('A' for Active; 'I' for Inactive)
REMARK    1  A    between atoms: O_1  and  C_3
REMARK    2  A    between atoms: O_1  and  C_13
REMARK    3  A    between atoms: C_2  and  C_9
REMARK    4  A    between atoms: C_13  and  C_14
REMARK    5  A    between atoms: C_15  and  N_20
REMARK                            x       y       z     vdW  Elec       q    Type
REMARK                         _______ _______ _______ _____ _____    ______ ____
ROOT
ATOM      1  O   UNL     1       0.384  -0.561  -0.398  0.00  0.00    -0.449 OA
ENDROOT
BRANCH   1   3
ATOM      2  C   UNL     1       2.744  -0.142  -0.008  0.00  0.00    +0.040 C 
ATOM      3  C   UNL     1       1.516   0.156  -0.886  0.00  0.00    +0.169 C 
ATOM      4  C   UNL     1       2.565   0.426   1.408  0.00  0.00    +0.004 C 
ATOM      5  C   UNL     1       1.022   2.227   0.509  0.00  0.00    +0.004 C 
ATOM      6  C   UNL     1       1.198   1.654  -0.906  0.00  0.00    +0.044 C 
ATOM      7  C   UNL     1       2.248   1.920   1.378  0.00  0.00    +0.000 C 
ATOM      8  C   UNL     1       0.766   3.732   0.452  0.00  0.00    +0.000 C 
BRANCH   2   9
ATOM      9  C   UNL     1       3.041  -1.641   0.059  0.00  0.00    +0.003 C 
ATOM     10  C   UNL     1       3.185  -2.220  -1.346  0.00  0.00    +0.000 C 
ATOM     11  C   UNL     1       4.300  -1.900   0.881  0.00  0.00    +0.000 C 
ENDBRANCH   2   9
ENDBRANCH   1   3
BRANCH   1  13
ATOM     12  O   UNL     1      -0.860  -0.167  -2.294  0.00  0.00    -0.245 OA
ATOM     13  C   UNL     1      -0.769  -0.397  -1.098  0.00  0.00    +0.342 C 
BRANCH  13  14
ATOM     14  C   UNL     1      -1.947  -0.535  -0.204  0.00  0.00    +0.088 C 
ATOM     15  C   UNL     1      -3.112   0.155  -0.473  0.00  0.00    +0.048 C 
ATOM     16  C   UNL     1      -1.827  -1.370   0.891  0.00  0.00    +0.008 C 
ATOM     17  C   UNL     1      -4.201   0.005   0.385  0.00  0.00    +0.014 C 
ATOM     18  C   UNL     1      -2.917  -1.520   1.749  0.00  0.00    +0.000 C 
ATOM     19  C   UNL     1      -4.104  -0.832   1.496  0.00  0.00    +0.001 C 
BRANCH  15  20
ATOM     20  N   UNL     1      -3.232   1.008  -1.593  0.00  0.00    -0.357 N 
ATOM     21  H   UNL     1      -2.472   1.123  -2.208  0.00  0.00    +0.142 HD
ATOM     22  H   UNL     1      -4.077   1.486  -1.759  0.00  0.00    +0.142 HD
ENDBRANCH  15  20
ENDBRANCH  13  14
ENDBRANCH   1  13
TORSDOF 5
