REMARK  Name = 5311100
REMARK  16 active torsions:
REMARK  status: ('A' for Active; 'I' for Inactive)
REMARK    1  A    between atoms: C_1  and  C_27
REMARK    2  A    between atoms: C_2  and  C_10
REMARK    3  A    between atoms: C_3  and  O_6
REMARK    4  A    between atoms: C_4  and  O_8
REMARK    5  A    between atoms: C_11  and  C_12
REMARK    6  A    between atoms: C_12  and  O_13
REMARK    7  A    between atoms: C_12  and  C_15
REMARK    8  A    between atoms: C_15  and  O_16
REMARK    9  A    between atoms: O_16  and  C_17
REMARK   10  A    between atoms: C_20  and  C_26
REMARK   11  A    between atoms: C_27  and  C_28
REMARK   12  A    between atoms: C_29  and  C_30
REMARK   13  A    between atoms: C_30  and  C_31
REMARK   14  A    between atoms: C_31  and  C_32
REMARK   15  A    between atoms: C_32  and  C_34
REMARK   16  A    between atoms: C_34  and  O_35
REMARK                            x       y       z     vdW  Elec       q    Type
REMARK                         _______ _______ _______ _____ _____    ______ ____
ROOT
ATOM      1  C   UNL     1      -2.799  -0.819   0.710  0.00  0.00    +0.038 C 
ATOM      2  C   UNL     1      -3.223   0.656   0.616  0.00  0.00    +0.051 C 
ATOM      3  C   UNL     1      -4.028  -1.473   1.348  0.00  0.00    +0.114 C 
ATOM      4  C   UNL     1      -4.711   0.587   0.228  0.00  0.00    +0.117 C 
ATOM      5  C   UNL     1      -5.199  -0.818   0.616  0.00  0.00    +0.059 C 
ENDROOT
BRANCH   3   6
ATOM      6  O   UNL     1      -4.117  -1.220   2.745  0.00  0.00    -0.384 OA
ATOM      7  H   UNL     1      -3.369  -1.641   3.198  0.00  0.00    +0.210 HD
ENDBRANCH   3   6
BRANCH   4   8
ATOM      8  O   UNL     1      -5.452   1.565   0.947  0.00  0.00    -0.384 OA
ATOM      9  H   UNL     1      -5.142   2.451   0.700  0.00  0.00    +0.210 HD
ENDBRANCH   4   8
BRANCH   2  10
ATOM     10  C   UNL     1      -2.420   1.448  -0.367  0.00  0.00    -0.026 C 
ATOM     11  C   UNL     1      -1.720   2.547  -0.047  0.00  0.00    +0.002 C 
BRANCH  11  12
ATOM     12  C   UNL     1      -0.915   3.342  -1.037  0.00  0.00    +0.176 C 
BRANCH  12  13
ATOM     13  O   UNL     1      -1.477   4.650  -1.097  0.00  0.00    -0.376 OA
ATOM     14  H   UNL     1      -2.408   4.590  -1.363  0.00  0.00    +0.211 HD
ENDBRANCH  12  13
BRANCH  12  15
ATOM     15  C   UNL     1       0.548   3.446  -0.617  0.00  0.00    +0.239 C 
BRANCH  15  16
ATOM     16  O   UNL     1       1.234   2.249  -0.950  0.00  0.00    -0.472 OA
BRANCH  16  17
ATOM     17  C   UNL     1       2.297   1.902  -0.156  0.00  0.00    +0.139 C 
ATOM     18  C   UNL     1       2.623   0.558   0.027  0.00  0.00    +0.041 C 
ATOM     19  C   UNL     1       3.053   2.894   0.470  0.00  0.00    +0.037 C 
ATOM     20  C   UNL     1       3.703   0.206   0.835  0.00  0.00    +0.074 C 
ATOM     21  C   UNL     1       4.133   2.542   1.278  0.00  0.00    +0.003 C 
ATOM     22  C   UNL     1       4.459   1.198   1.461  0.00  0.00    +0.004 C 
BRANCH  20  26
ATOM     23  F   UNL     1       5.130  -1.427   1.846  0.00  0.00    -0.166 F 
ATOM     24  F   UNL     1       3.045  -1.966   1.591  0.00  0.00    -0.166 F 
ATOM     25  F   UNL     1       4.358  -1.861  -0.140  0.00  0.00    -0.166 F 
ATOM     26  C   UNL     1       4.051  -1.231   1.031  0.00  0.00    +0.419 C 
ENDBRANCH  20  26
ENDBRANCH  16  17
ENDBRANCH  15  16
ENDBRANCH  12  15
ENDBRANCH  11  12
ENDBRANCH   2  10
BRANCH   1  27
ATOM     27  C   UNL     1      -1.516  -1.031   1.503  0.00  0.00    +0.028 C 
BRANCH  27  28
ATOM     28  C   UNL     1      -1.062  -2.452   1.691  0.00  0.00    -0.031 C 
ATOM     29  C   UNL     1      -0.289  -3.173   0.864  0.00  0.00    -0.031 C 
BRANCH  29  30
ATOM     30  C   UNL     1       0.262  -2.646  -0.429  0.00  0.00    +0.026 C 
BRANCH  30  31
ATOM     31  C   UNL     1      -0.195  -3.438  -1.662  0.00  0.00    +0.016 C 
BRANCH  31  32
ATOM     32  C   UNL     1       0.380  -2.918  -2.983  0.00  0.00    +0.110 C 
BRANCH  32  34
ATOM     33  O   UNL     1      -1.058  -0.953  -2.957  0.00  0.00    -0.250 OA
ATOM     34  C   UNL     1      -0.015  -1.492  -3.300  0.00  0.00    +0.314 C 
BRANCH  34  35
ATOM     35  O   UNL     1       0.920  -0.871  -4.066  0.00  0.00    -0.480 OA
ATOM     36  H   UNL     1       1.705  -1.324  -4.306  0.00  0.00    +0.295 HD
ENDBRANCH  34  35
ENDBRANCH  32  34
ENDBRANCH  31  32
ENDBRANCH  30  31
ENDBRANCH  29  30
ENDBRANCH  27  28
ENDBRANCH   1  27
TORSDOF 16
