REMARK  Name = 56949517
REMARK  6 active torsions:
REMARK  status: ('A' for Active; 'I' for Inactive)
REMARK    1  A    between atoms: N_1  and  C_21
REMARK    2  A    between atoms: C_4  and  N_12
REMARK    3  A    between atoms: C_8  and  C_18
REMARK    4  A    between atoms: C_18  and  O_19
REMARK    5  A    between atoms: C_21  and  C_22
REMARK    6  A    between atoms: C_25  and  C_32
REMARK                            x       y       z     vdW  Elec       q    Type
REMARK                         _______ _______ _______ _____ _____    ______ ____
ROOT
ATOM      1  N   UNL     1      -0.023  -1.833  -0.863  0.00  0.00    -0.260 N 
ATOM      2  N   UNL     1      -1.667  -3.184  -0.220  0.00  0.00    -0.393 NA
ATOM      3  C   UNL     1      -1.063  -1.008  -0.521  0.00  0.00    +0.081 C 
ATOM      4  C   UNL     1      -2.432   0.894  -0.104  0.00  0.00    +0.046 C 
ATOM      5  C   UNL     1      -2.077  -1.875  -0.123  0.00  0.00    +0.138 C 
ATOM      6  C   UNL     1      -1.200   0.381  -0.526  0.00  0.00    +0.031 C 
ATOM      7  C   UNL     1      -0.432  -3.123  -0.665  0.00  0.00    +0.164 C 
ATOM      8  C   UNL     1      -3.307  -1.342   0.298  0.00  0.00    +0.175 C 
ATOM      9  C   UNL     1      -3.468   0.049   0.301  0.00  0.00    +0.006 C 
ATOM     10  C   UNL     1       0.449  -4.277  -0.936  0.00  0.00    +0.084 C 
ENDROOT
BRANCH   4  12
ATOM     11  O   UNL     1      -2.942   5.061  -0.326  0.00  0.00    -0.350 OA
ATOM     12  N   UNL     1      -2.627   2.279  -0.089  0.00  0.00    -0.303 N 
ATOM     13  C   UNL     1      -1.489   3.175   0.141  0.00  0.00    +0.123 C 
ATOM     14  C   UNL     1      -3.705   2.836  -0.916  0.00  0.00    +0.123 C 
ATOM     15  C   UNL     1      -1.992   4.539   0.602  0.00  0.00    +0.164 C 
ATOM     16  C   UNL     1      -4.091   4.217  -0.398  0.00  0.00    +0.164 C 
ENDBRANCH   4  12
BRANCH   8  18
ATOM     17  O   UNL     1      -4.348  -3.447   0.755  0.00  0.00    -0.249 OA
ATOM     18  C   UNL     1      -4.390  -2.212   0.722  0.00  0.00    +0.324 C 
BRANCH  18  19
ATOM     19  O   UNL     1      -5.502  -1.519   1.095  0.00  0.00    -0.480 OA
ATOM     20  H   UNL     1      -5.505  -0.582   1.059  0.00  0.00    +0.295 HD
ENDBRANCH  18  19
ENDBRANCH   8  18
BRANCH   1  21
ATOM     21  C   UNL     1       1.273  -1.411  -1.344  0.00  0.00    +0.124 C 
BRANCH  21  22
ATOM     22  C   UNL     1       2.183  -0.911  -0.250  0.00  0.00    -0.006 C 
ATOM     23  C   UNL     1       3.366  -0.237  -0.551  0.00  0.00    -0.020 C 
ATOM     24  C   UNL     1       1.825  -1.132   1.080  0.00  0.00    -0.003 C 
ATOM     25  C   UNL     1       4.192   0.216   0.478  0.00  0.00    +0.067 C 
ATOM     26  C   UNL     1       3.750   0.000  -1.978  0.00  0.00    +0.031 C 
ATOM     27  C   UNL     1       2.651  -0.679   2.109  0.00  0.00    -0.000 C 
ATOM     28  C   UNL     1       3.834  -0.005   1.808  0.00  0.00    +0.004 C 
BRANCH  25  32
ATOM     29  F   UNL     1       6.134   1.304   1.314  0.00  0.00    -0.166 F 
ATOM     30  F   UNL     1       6.352   0.208  -0.551  0.00  0.00    -0.166 F 
ATOM     31  F   UNL     1       5.283   2.095  -0.524  0.00  0.00    -0.166 F 
ATOM     32  C   UNL     1       5.465   0.941   0.182  0.00  0.00    +0.418 C 
ENDBRANCH  25  32
ENDBRANCH  21  22
ENDBRANCH   1  21
TORSDOF 6
