REMARK  Name = 11949652
REMARK  4 active torsions:
REMARK  status: ('A' for Active; 'I' for Inactive)
REMARK    1  A    between atoms: N_1  and  C_9
REMARK    2  A    between atoms: N_2  and  C_24
REMARK    3  A    between atoms: C_11  and  C_18
REMARK    4  A    between atoms: N_22  and  C_28
REMARK                            x       y       z     vdW  Elec       q    Type
REMARK                         _______ _______ _______ _____ _____    ______ ____
ROOT
ATOM      1  N   UNL     1       0.568  -0.051  -0.522  0.00  0.00    +0.389 N 
ATOM      2  N   UNL     1      -2.100  -1.046  -0.313  0.00  0.00    -0.299 N 
ATOM      3  C   UNL     1      -0.517   0.548  -1.310  0.00  0.00    -0.055 C 
ATOM      4  C   UNL     1       0.051  -0.539   0.763  0.00  0.00    -0.055 C 
ATOM      5  C   UNL     1      -1.635  -0.465  -1.575  0.00  0.00    +0.069 C 
ATOM      6  C   UNL     1      -1.040  -1.589   0.544  0.00  0.00    +0.069 C 
ATOM      7  H   UNL     1       0.949  -0.842  -1.042  0.00  0.00    -0.080 HD
ENDROOT
BRANCH   1   9
ATOM      8  N   UNL     1       3.509   1.997  -1.131  0.00  0.00    +0.389 N 
ATOM      9  C   UNL     1       1.637   0.911  -0.310  0.00  0.00    -0.081 C 
ATOM     10  C   UNL     1       2.828   0.341   0.457  0.00  0.00    -0.035 C 
ATOM     11  C   UNL     1       4.031   1.112  -0.086  0.00  0.00    +0.015 C 
ATOM     12  C   UNL     1       2.261   1.401  -1.605  0.00  0.00    -0.102 C 
ATOM     13  H   UNL     1       4.178   2.067  -1.898  0.00  0.00    -0.084 HD
ATOM     14  H   UNL     1       3.351   2.937  -0.769  0.00  0.00    -0.084 HD
BRANCH  11  18
ATOM     15  S   UNL     1       7.673  -0.699   2.162  0.00  0.00    -0.117 S 
ATOM     16  O   UNL     1       4.925  -0.132  -1.894  0.00  0.00    -0.277 OA
ATOM     17  N   UNL     1       6.060  -0.234   0.125  0.00  0.00    -0.271 N 
ATOM     18  C   UNL     1       5.038   0.197  -0.711  0.00  0.00    +0.206 C 
ATOM     19  C   UNL     1       7.101  -1.134  -0.360  0.00  0.00    +0.106 C 
ATOM     20  C   UNL     1       6.285   0.242   1.484  0.00  0.00    +0.152 C 
ATOM     21  C   UNL     1       7.658  -1.908   0.820  0.00  0.00    +0.081 C 
ENDBRANCH  11  18
ENDBRANCH   1   9
BRANCH   2  24
ATOM     22  N   UNL     1      -4.413  -0.593   0.161  0.00  0.00    -0.177 N 
ATOM     23  N   UNL     1      -5.616  -1.180   0.278  0.00  0.00    -0.177 NA
ATOM     24  C   UNL     1      -3.405  -1.458  -0.150  0.00  0.00    +0.125 C 
ATOM     25  C   UNL     1      -3.989  -2.697  -0.243  0.00  0.00    +0.048 C 
ATOM     26  C   UNL     1      -5.351  -2.466   0.030  0.00  0.00    +0.080 C 
ATOM     27  C   UNL     1      -6.440  -3.457   0.065  0.00  0.00    +0.054 C 
BRANCH  22  28
ATOM     28  C   UNL     1      -4.299   0.785   0.359  0.00  0.00    +0.075 C 
ATOM     29  C   UNL     1      -3.114   1.309   0.857  0.00  0.00    +0.017 C 
ATOM     30  C   UNL     1      -5.373   1.610   0.054  0.00  0.00    +0.017 C 
ATOM     31  C   UNL     1      -3.001   2.685   1.054  0.00  0.00    +0.001 C 
ATOM     32  C   UNL     1      -5.259   2.987   0.251  0.00  0.00    +0.001 C 
ATOM     33  C   UNL     1      -4.073   3.524   0.751  0.00  0.00    +0.000 C 
ENDBRANCH  22  28
ENDBRANCH   2  24
TORSDOF 4
