REMARK  Name = 6433107
REMARK  6 active torsions:
REMARK  status: ('A' for Active; 'I' for Inactive)
REMARK    1  A    between atoms: C_1  and  C_21
REMARK    2  A    between atoms: C_2  and  N_7
REMARK    3  A    between atoms: C_3  and  C_19
REMARK    4  A    between atoms: N_7  and  C_13
REMARK    5  A    between atoms: C_21  and  C_23
REMARK    6  A    between atoms: C_23  and  O_24
REMARK                            x       y       z     vdW  Elec       q    Type
REMARK                         _______ _______ _______ _____ _____    ______ ____
ROOT
ATOM      1  C   UNL     1      -1.974  -0.394   0.591  0.00  0.00    +0.002 C 
ATOM      2  C   UNL     1      -0.835   0.130  -0.022  0.00  0.00    +0.045 C 
ATOM      3  C   UNL     1      -3.240   1.543  -0.105  0.00  0.00    -0.022 C 
ATOM      4  C   UNL     1      -3.176   0.312   0.549  0.00  0.00    -0.007 C 
ATOM      5  C   UNL     1      -0.899   1.360  -0.676  0.00  0.00    +0.014 C 
ATOM      6  C   UNL     1      -2.101   2.067  -0.717  0.00  0.00    -0.003 C 
ENDROOT
BRANCH   2   7
ATOM      7  N   UNL     1       0.390  -0.571   0.010  0.00  0.00    -0.309 N 
ATOM      8  H   UNL     1       0.286  -1.550   0.046  0.00  0.00    +0.152 HD
BRANCH   7  13
ATOM      9  F   UNL     1       1.142   1.869   1.113  0.00  0.00    -0.200 F 
ATOM     10  F   UNL     1       2.398  -2.135  -1.111  0.00  0.00    -0.200 F 
ATOM     11  F   UNL     1       4.993  -1.303  -1.128  0.00  0.00    -0.202 F 
ATOM     12  F   UNL     1       3.740   2.690   1.089  0.00  0.00    -0.202 F 
ATOM     13  C   UNL     1       1.731  -0.145   0.001  0.00  0.00    +0.108 C 
ATOM     14  C   UNL     1       2.079   1.085   0.562  0.00  0.00    +0.183 C 
ATOM     15  C   UNL     1       2.718  -0.951  -0.569  0.00  0.00    +0.183 C 
ATOM     16  C   UNL     1       4.048  -0.529  -0.580  0.00  0.00    +0.171 C 
ATOM     17  C   UNL     1       3.409   1.508   0.551  0.00  0.00    +0.171 C 
ATOM     18  C   UNL     1       4.393   0.701  -0.019  0.00  0.00    +0.064 C 
ENDBRANCH   7  13
ENDBRANCH   2   7
BRANCH   3  19
ATOM     19  C   UNL     1      -4.524   2.298  -0.149  0.00  0.00    +0.026 C 
ATOM     20  C   UNL     1      -5.369   1.936  -1.368  0.00  0.00    +0.005 C 
ENDBRANCH   3  19
BRANCH   1  21
ATOM     21  C   UNL     1      -1.934  -1.710   1.298  0.00  0.00    +0.137 C 
BRANCH  21  23
ATOM     22  O   UNL     1      -2.566  -2.808  -0.782  0.00  0.00    -0.250 OA
ATOM     23  C   UNL     1      -2.257  -2.886   0.399  0.00  0.00    +0.318 C 
BRANCH  23  24
ATOM     24  O   UNL     1      -2.166  -4.068   1.063  0.00  0.00    -0.480 OA
ATOM     25  H   UNL     1      -1.925  -4.079   1.969  0.00  0.00    +0.295 HD
ENDBRANCH  23  24
ENDBRANCH  21  23
ENDBRANCH   1  21
TORSDOF 6
