REMARK  Name = 440936
REMARK  8 active torsions:
REMARK  status: ('A' for Active; 'I' for Inactive)
REMARK    1  A    between atoms: C_2  and  O_7
REMARK    2  A    between atoms: C_3  and  O_9
REMARK    3  A    between atoms: C_4  and  O_11
REMARK    4  A    between atoms: C_5  and  C_22
REMARK    5  A    between atoms: C_6  and  O_13
REMARK    6  A    between atoms: O_13  and  C_14
REMARK    7  A    between atoms: C_19  and  O_20
REMARK    8  A    between atoms: C_22  and  O_23
REMARK                            x       y       z     vdW  Elec       q    Type
REMARK                         _______ _______ _______ _____ _____    ______ ____
ROOT
ATOM      1  O   UNL     1       0.702   0.572  -0.354  0.00  0.00    -0.316 OA
ATOM      2  C   UNL     1       3.158  -0.782   0.267  0.00  0.00    +0.173 C 
ATOM      3  C   UNL     1       3.116   0.686  -0.158  0.00  0.00    +0.169 C 
ATOM      4  C   UNL     1       1.909  -1.530  -0.201  0.00  0.00    +0.210 C 
ATOM      5  C   UNL     1       1.775   1.321   0.218  0.00  0.00    +0.177 C 
ATOM      6  C   UNL     1       0.636  -0.760   0.150  0.00  0.00    +0.318 C 
ENDROOT
BRANCH   2   7
ATOM      7  O   UNL     1       4.317  -1.378  -0.318  0.00  0.00    -0.379 OA
ATOM      8  H   UNL     1       5.109  -0.904  -0.021  0.00  0.00    +0.211 HD
ENDBRANCH   2   7
BRANCH   3   9
ATOM      9  O   UNL     1       4.170   1.394   0.488  0.00  0.00    -0.379 OA
ATOM     10  H   UNL     1       5.021   0.993   0.252  0.00  0.00    +0.211 HD
ENDBRANCH   3   9
BRANCH   4  11
ATOM     11  O   UNL     1       1.852  -2.804   0.440  0.00  0.00    -0.377 OA
ATOM     12  H   UNL     1       2.654  -3.309   0.229  0.00  0.00    +0.211 HD
ENDBRANCH   4  11
BRANCH   6  13
ATOM     13  O   UNL     1      -0.468  -1.445  -0.441  0.00  0.00    -0.451 OA
BRANCH  13  14
ATOM     14  C   UNL     1      -1.706  -0.898  -0.241  0.00  0.00    +0.142 C 
ATOM     15  C   UNL     1      -2.194  -0.748   1.053  0.00  0.00    +0.040 C 
ATOM     16  C   UNL     1      -2.468  -0.496  -1.334  0.00  0.00    +0.040 C 
ATOM     17  C   UNL     1      -3.456  -0.189   1.257  0.00  0.00    +0.040 C 
ATOM     18  C   UNL     1      -3.730   0.062  -1.130  0.00  0.00    +0.040 C 
ATOM     19  C   UNL     1      -4.224   0.215   0.165  0.00  0.00    +0.134 C 
BRANCH  19  20
ATOM     20  O   UNL     1      -5.455   0.760   0.364  0.00  0.00    -0.506 OA
ATOM     21  H   UNL     1      -5.787   0.863   1.235  0.00  0.00    +0.292 HD
ENDBRANCH  19  20
ENDBRANCH  13  14
ENDBRANCH   6  13
BRANCH   5  22
ATOM     22  C   UNL     1       1.664   2.752  -0.299  0.00  0.00    +0.169 C 
BRANCH  22  23
ATOM     23  O   UNL     1       0.400   3.270   0.074  0.00  0.00    -0.379 OA
ATOM     24  H   UNL     1       0.315   4.180  -0.249  0.00  0.00    +0.211 HD
ENDBRANCH  22  23
ENDBRANCH   5  22
TORSDOF 8
