REMARK  Name = 6918485
REMARK  8 active torsions:
REMARK  status: ('A' for Active; 'I' for Inactive)
REMARK    1  A    between atoms: C_1  and  C_4
REMARK    2  A    between atoms: C_1  and  O_10
REMARK    3  A    between atoms: C_1  and  C_12
REMARK    4  A    between atoms: C_1  and  C_27
REMARK    5  A    between atoms: C_12  and  C_16
REMARK    6  A    between atoms: C_17  and  C_19
REMARK    7  A    between atoms: C_24  and  C_26
REMARK    8  A    between atoms: C_27  and  N_28
REMARK                            x       y       z     vdW  Elec       q    Type
REMARK                         _______ _______ _______ _____ _____    ______ ____
ROOT
ATOM      1  C   UNL     1      -1.650  -0.335  -0.016  0.00  0.00    +0.136 C 
ENDROOT
BRANCH   1   4
ATOM      2  F   UNL     1      -3.590  -1.625   1.583  0.00  0.00    -0.204 F 
ATOM      3  F   UNL     1      -5.208   0.296  -3.275  0.00  0.00    -0.204 F 
ATOM      4  C   UNL     1      -3.112  -0.510  -0.457  0.00  0.00    +0.034 C 
ATOM      5  C   UNL     1      -3.980  -1.152   0.391  0.00  0.00    +0.138 C 
ATOM      6  C   UNL     1      -3.484  -0.016  -1.683  0.00  0.00    +0.030 C 
ATOM      7  C   UNL     1      -4.810  -0.174  -2.086  0.00  0.00    +0.140 C 
ATOM      8  C   UNL     1      -5.306  -1.310  -0.012  0.00  0.00    +0.032 C 
ATOM      9  C   UNL     1      -5.721  -0.821  -1.251  0.00  0.00    +0.032 C 
ENDBRANCH   1   4
BRANCH   1  10
ATOM     10  O   UNL     1      -0.924   0.399  -1.012  0.00  0.00    -0.380 OA
ATOM     11  H   UNL     1      -0.003   0.506  -0.727  0.00  0.00    +0.211 HD
ENDBRANCH   1  10
BRANCH   1  12
ATOM     12  C   UNL     1      -0.945  -1.736   0.175  0.00  0.00    +0.089 C 
ATOM     13  C   UNL     1      -0.998  -2.638  -1.071  0.00  0.00    +0.011 C 
BRANCH  12  16
ATOM     14  S   UNL     1       0.870  -2.302   2.172  0.00  0.00    -0.079 S 
ATOM     15  N   UNL     1       1.419  -1.032  -0.012  0.00  0.00    -0.403 NA
ATOM     16  C   UNL     1       0.506  -1.620   0.671  0.00  0.00    +0.137 C 
ATOM     17  C   UNL     1       2.583  -1.115   0.728  0.00  0.00    +0.120 C 
ATOM     18  C   UNL     1       2.483  -1.767   1.939  0.00  0.00    +0.123 C 
BRANCH  17  19
ATOM     19  C   UNL     1       3.815  -0.553   0.254  0.00  0.00    +0.026 C 
ATOM     20  C   UNL     1       5.033  -1.127   0.623  0.00  0.00    +0.003 C 
ATOM     21  C   UNL     1       3.798   0.569  -0.576  0.00  0.00    +0.003 C 
ATOM     22  C   UNL     1       6.230  -0.581   0.162  0.00  0.00    +0.010 C 
ATOM     23  C   UNL     1       4.996   1.115  -1.037  0.00  0.00    +0.010 C 
ATOM     24  C   UNL     1       6.212   0.540  -0.668  0.00  0.00    +0.068 C 
BRANCH  24  26
ATOM     25  N   UNL     1       8.437   1.555  -1.523  0.00  0.00    -0.191 NA
ATOM     26  C   UNL     1       7.439   1.100  -1.140  0.00  0.00    +0.100 C 
ENDBRANCH  24  26
ENDBRANCH  17  19
ENDBRANCH  12  16
ENDBRANCH   1  12
BRANCH   1  27
ATOM     27  C   UNL     1      -1.572   0.493   1.307  0.00  0.00    +0.149 C 
BRANCH  27  28
ATOM     28  N   UNL     1      -2.119   1.852   1.228  0.00  0.00    -0.188 N 
ATOM     29  N   UNL     1      -1.332   2.864   0.881  0.00  0.00    -0.154 NA
ATOM     30  N   UNL     1      -3.481   3.528   1.295  0.00  0.00    -0.203 NA
ATOM     31  C   UNL     1      -3.385   2.231   1.475  0.00  0.00    +0.186 C 
ATOM     32  C   UNL     1      -2.209   3.869   0.935  0.00  0.00    +0.218 C 
ENDBRANCH  27  28
ENDBRANCH   1  27
TORSDOF 8
