46239015
  -OEChem-10051722363D

 41 44  0     1  0  0  0  0  0999 V2000
   -4.0406    1.9830   -0.2096 Br  0  0  0  0  0  0  0  0  0  0  0  0
   -2.7387   -3.1811   -1.0691 N   0  0  0  0  0  0  0  0  0  0  0  0
   -0.3587    0.0281   -0.1073 N   0  0  0  0  0  0  0  0  0  0  0  0
    0.0692    2.3897    0.0055 N   0  0  0  0  0  0  0  0  0  0  0  0
    1.1236    3.2513    0.0909 N   0  0  0  0  0  0  0  0  0  0  0  0
   -1.6094    4.0445   -0.0122 N   0  0  0  0  0  0  0  0  0  0  0  0
    3.8166   -1.9307    0.0177 N   0  0  0  0  0  0  0  0  0  0  0  0
    4.8396   -1.0631    0.1009 N   0  0  0  0  0  0  0  0  0  0  0  0
   -2.5666   -0.8471   -0.2463 C   0  0  2  0  0  0  0  0  0  0  0  0
   -2.9785   -1.2934    1.1567 C   0  0  0  0  0  0  0  0  0  0  0  0
   -1.8900   -1.9881   -1.0109 C   0  0  0  0  0  0  0  0  0  0  0  0
   -3.7943   -2.5816    1.0918 C   0  0  0  0  0  0  0  0  0  0  0  0
   -3.0712   -3.6529    0.2772 C   0  0  0  0  0  0  0  0  0  0  0  0
   -1.6268    0.3156   -0.1578 C   0  0  0  0  0  0  0  0  0  0  0  0
   -2.1980    1.7110   -0.1307 C   0  0  0  0  0  0  0  0  0  0  0  0
    0.5095    1.0684   -0.0248 C   0  0  0  0  0  0  0  0  0  0  0  0
   -1.2979    2.7123   -0.0482 C   0  0  0  0  0  0  0  0  0  0  0  0
    1.8833    1.1078    0.0428 C   0  0  0  0  0  0  0  0  0  0  0  0
    2.8274    0.0166    0.0458 C   0  0  0  0  0  0  0  0  0  0  0  0
    2.2004    2.4687    0.1113 C   0  0  0  0  0  0  0  0  0  0  0  0
    2.5902   -1.3348   -0.0184 C   0  0  0  0  0  0  0  0  0  0  0  0
    4.2291    0.1248    0.1178 C   0  0  0  0  0  0  0  0  0  0  0  0
    4.0816   -3.3489   -0.0230 C   0  0  0  0  0  0  0  0  0  0  0  0
   -3.4599   -0.5820   -0.8205 H   0  0  0  0  0  0  0  0  0  0  0  0
   -2.0875   -1.4620    1.7761 H   0  0  0  0  0  0  0  0  0  0  0  0
   -3.5601   -0.5153    1.6632 H   0  0  0  0  0  0  0  0  0  0  0  0
   -0.9309   -2.2772   -0.5627 H   0  0  0  0  0  0  0  0  0  0  0  0
   -1.6716   -1.6662   -2.0365 H   0  0  0  0  0  0  0  0  0  0  0  0
   -4.7715   -2.3716    0.6386 H   0  0  0  0  0  0  0  0  0  0  0  0
   -3.9843   -2.9512    2.1057 H   0  0  0  0  0  0  0  0  0  0  0  0
   -2.1610   -3.9744    0.7984 H   0  0  0  0  0  0  0  0  0  0  0  0
   -3.7174   -4.5333    0.1916 H   0  0  0  0  0  0  0  0  0  0  0  0
   -2.2478   -3.9195   -1.5727 H   0  0  0  0  0  0  0  0  0  0  0  0
    3.1702    2.9417    0.1764 H   0  0  0  0  0  0  0  0  0  0  0  0
   -0.8731    4.7366    0.0501 H   0  0  0  0  0  0  0  0  0  0  0  0
   -2.5787    4.3346   -0.0481 H   0  0  0  0  0  0  0  0  0  0  0  0
    1.6797   -1.9146   -0.0846 H   0  0  0  0  0  0  0  0  0  0  0  0
    4.8428    1.0125    0.1821 H   0  0  0  0  0  0  0  0  0  0  0  0
    3.1376   -3.8952   -0.0903 H   0  0  0  0  0  0  0  0  0  0  0  0
    4.6093   -3.6265    0.8928 H   0  0  0  0  0  0  0  0  0  0  0  0
    4.6977   -3.5584   -0.9010 H   0  0  0  0  0  0  0  0  0  0  0  0
  1 15  1  0  0  0  0
  2 11  1  0  0  0  0
  2 13  1  0  0  0  0
  2 33  1  0  0  0  0
  3 14  2  0  0  0  0
  3 16  1  0  0  0  0
  4  5  1  0  0  0  0
  4 16  1  0  0  0  0
  4 17  1  0  0  0  0
  5 20  2  0  0  0  0
  6 17  1  0  0  0  0
  6 35  1  0  0  0  0
  6 36  1  0  0  0  0
  7  8  1  0  0  0  0
  7 21  1  0  0  0  0
  7 23  1  0  0  0  0
  8 22  2  0  0  0  0
  9 10  1  0  0  0  0
  9 11  1  0  0  0  0
  9 14  1  0  0  0  0
  9 24  1  0  0  0  0
 10 12  1  0  0  0  0
 10 25  1  0  0  0  0
 10 26  1  0  0  0  0
 11 27  1  0  0  0  0
 11 28  1  0  0  0  0
 12 13  1  0  0  0  0
 12 29  1  0  0  0  0
 12 30  1  0  0  0  0
 13 31  1  0  0  0  0
 13 32  1  0  0  0  0
 14 15  1  0  0  0  0
 15 17  2  0  0  0  0
 16 18  2  0  0  0  0
 18 19  1  0  0  0  0
 18 20  1  0  0  0  0
 19 21  2  0  0  0  0
 19 22  1  0  0  0  0
 20 34  1  0  0  0  0
 21 37  1  0  0  0  0
 22 38  1  0  0  0  0
 23 39  1  0  0  0  0
 23 40  1  0  0  0  0
 23 41  1  0  0  0  0
M  END
> <DATABASE_ID>
DB11899

> <DATABASE_NAME>
drugbank

> <ORIGINAL_SOURCE>
PUBCHEM

> <ORIGINAL_SOURCE_URL>
https://pubchem.ncbi.nlm.nih.gov/rest/pug/compound/inchikey/GMIZZEXBPRLVIV-SECBINFHSA-N/SDF?record_type=3d

> <SMILES>
CN1C=C(C=N1)C1=C2N=C([C@@H]3CCCNC3)C(Br)=C(N)N2N=C1

> <INCHI_IDENTIFIER>
InChI=1S/C15H18BrN7/c1-22-8-10(6-19-22)11-7-20-23-14(17)12(16)13(21-15(11)23)9-3-2-4-18-5-9/h6-9,18H,2-5,17H2,1H3/t9-/m1/s1

> <INCHI_KEY>
GMIZZEXBPRLVIV-SECBINFHSA-N

> <FORMULA>
C15H18BrN7

> <MOLECULAR_WEIGHT>
376.262

> <EXACT_MASS>
375.080707

> <JCHEM_ACCEPTOR_COUNT>
5

> <JCHEM_ATOM_COUNT>
41

> <JCHEM_AVERAGE_POLARIZABILITY>
35.95049486734574

> <JCHEM_BIOAVAILABILITY>
1

> <JCHEM_DONOR_COUNT>
2

> <JCHEM_FORMAL_CHARGE>
0

> <JCHEM_GHOSE_FILTER>
1

> <JCHEM_IUPAC>
6-bromo-3-(1-methyl-1H-pyrazol-4-yl)-5-[(3R)-piperidin-3-yl]pyrazolo[1,5-a]pyrimidin-7-amine

> <ALOGPS_LOGP>
1.59

> <JCHEM_LOGP>
1.1480312373333337

> <ALOGPS_LOGS>
-3.59

> <JCHEM_MDDR_LIKE_RULE>
0

> <JCHEM_NUMBER_OF_RINGS>
4

> <JCHEM_PHYSIOLOGICAL_CHARGE>
1

> <JCHEM_PKA_STRONGEST_BASIC>
9.573037710472

> <JCHEM_POLAR_SURFACE_AREA>
86.06

> <JCHEM_REFRACTIVITY>
114.2588

> <JCHEM_ROTATABLE_BOND_COUNT>
2

> <JCHEM_RULE_OF_FIVE>
1

> <ALOGPS_SOLUBILITY>
9.71e-02 g/l

> <JCHEM_TRADITIONAL_IUPAC>
6-bromo-3-(1-methylpyrazol-4-yl)-5-[(3R)-piperidin-3-yl]pyrazolo[1,5-a]pyrimidin-7-amine

> <JCHEM_VEBER_RULE>
0

> <DRUGBANK_ID>
DB11899

> <DRUG_GROUPS>
investigational

> <GENERIC_NAME>
MK-8776

$$$$
