REMARK  Name = 123935
REMARK  8 active torsions:
REMARK  status: ('A' for Active; 'I' for Inactive)
REMARK    1  A    between atoms: CA_1  and  N_3
REMARK    2  A    between atoms: CA_1  and  C_13
REMARK    3  A    between atoms: CA_1  and  CB_16
REMARK    4  A    between atoms: C_4  and  CA_6
REMARK    5  A    between atoms: CA_6  and  N_8
REMARK    6  A    between atoms: C_13  and  O_14
REMARK    7  A    between atoms: CB_16  and  CG_17
REMARK    8  A    between atoms: CG_17  and  CD_20
REMARK                            x       y       z     vdW  Elec       q    Type
REMARK                         _______ _______ _______ _____ _____    ______ ____
ROOT
ATOM      1  CA  GLN A   2       0.086   0.923   0.611  0.00  0.00    +0.172 C 
ENDROOT
BRANCH   1   3
ATOM      2  O   ALA A   1      -2.139  -0.603   1.614  0.00  0.00    -0.277 OA
ATOM      3  N   GLN A   2      -0.982   0.341  -0.162  0.00  0.00    -0.298 N 
ATOM      4  C   ALA A   1      -2.021  -0.384   0.410  0.00  0.00    +0.202 C 
ATOM      5  H   GLN A   2      -0.976   0.462  -1.139  0.00  0.00    +0.150 HD
BRANCH   4   6
ATOM      6  CA  ALA A   1      -3.006  -0.898  -0.632  0.00  0.00    +0.013 C 
ATOM      7  CB  ALA A   1      -4.130   0.109  -0.838  0.00  0.00    -0.015 C 
BRANCH   6   8
ATOM      8  N   ALA A   1      -3.546  -2.172  -0.164  0.00  0.00    +0.387 N 
ATOM      9  H1  ALA A   1      -2.784  -2.836  -0.031  0.00  0.00    -0.089 HD
ATOM     10  H2  ALA A   1      -4.200  -2.538  -0.856  0.00  0.00    -0.089 HD
ATOM     11  H3  ALA A   1      -4.033  -2.030   0.721  0.00  0.00    -0.089 HD
ENDBRANCH   6   8
ENDBRANCH   4   6
ENDBRANCH   1   3
BRANCH   1  13
ATOM     12  OXT GLN A   2       1.427   2.933   0.580  0.00  0.00    -0.248 OA
ATOM     13  C   GLN A   2       0.582   2.237   0.028  0.00  0.00    +0.332 C 
BRANCH  13  14
ATOM     14  O   GLN A   2      -0.019   2.605  -1.129  0.00  0.00    -0.479 OA
ATOM     15  H   GLN A   2      -0.661   2.047  -1.522  0.00  0.00    +0.295 HD
ENDBRANCH  13  14
ENDBRANCH   1  13
BRANCH   1  16
ATOM     16  CB  GLN A   2       1.244  -0.065   0.798  0.00  0.00    +0.041 C 
BRANCH  16  17
ATOM     17  CG  GLN A   2       2.014  -0.371  -0.490  0.00  0.00    +0.087 C 
BRANCH  17  20
ATOM     18  OE1 GLN A   2       3.410  -1.737   0.914  0.00  0.00    -0.275 OA
ATOM     19  NE2 GLN A   2       3.907  -1.617  -1.330  0.00  0.00    -0.329 N 
ATOM     20  CD  GLN A   2       3.173  -1.302  -0.210  0.00  0.00    +0.219 C 
ATOM     21 HE21 GLN A   2       4.684  -2.217  -1.257  0.00  0.00    +0.145 HD
ATOM     22 HE22 GLN A   2       3.656  -1.242  -2.205  0.00  0.00    +0.145 HD
ENDBRANCH  17  20
ENDBRANCH  16  17
ENDBRANCH   1  16
TORSDOF 8
