REMARK  Name = 46209133
REMARK  4 active torsions:
REMARK  status: ('A' for Active; 'I' for Inactive)
REMARK    1  A    between atoms: C_2  and  N_7
REMARK    2  A    between atoms: C_4  and  N_28
REMARK    3  A    between atoms: C_6  and  C_22
REMARK    4  A    between atoms: N_8  and  S_16
REMARK                            x       y       z     vdW  Elec       q    Type
REMARK                         _______ _______ _______ _____ _____    ______ ____
ROOT
ATOM      1  O   UNL     1       2.165  -0.298  -1.075  0.00  0.00    -0.356 OA
ATOM      2  C   UNL     1       0.073   0.189   0.051  0.00  0.00    -0.029 C 
ATOM      3  C   UNL     1       0.792   1.162   0.989  0.00  0.00    -0.038 C 
ATOM      4  C   UNL     1       2.275   0.783   1.118  0.00  0.00    -0.036 C 
ATOM      5  C   UNL     1       0.811   0.106  -1.282  0.00  0.00    +0.122 C 
ATOM      6  C   UNL     1       2.912   0.639  -0.282  0.00  0.00    +0.120 C 
ENDROOT
BRANCH   2   7
ATOM      7  N   UNL     1      -1.304   0.609  -0.158  0.00  0.00    +0.396 N 
ATOM      8  N   UNL     1      -5.387  -0.262  -0.042  0.00  0.00    -0.092 N 
ATOM      9  N   UNL     1      -4.572  -0.585  -1.081  0.00  0.00    -0.165 NA
ATOM     10  C   UNL     1      -2.083   0.694   1.122  0.00  0.00    -0.047 C 
ATOM     11  C   UNL     1      -2.027  -0.253  -1.149  0.00  0.00    -0.028 C 
ATOM     12  C   UNL     1      -3.424   0.317   0.669  0.00  0.00    -0.012 C 
ATOM     13  C   UNL     1      -3.389  -0.216  -0.610  0.00  0.00    +0.053 C 
ATOM     14  C   UNL     1      -4.734   0.287   1.041  0.00  0.00    +0.104 C 
ATOM     15  H   UNL     1      -1.241   1.549  -0.548  0.00  0.00    -0.078 HD
BRANCH   8  16
ATOM     16  S   UNL     1      -7.049  -0.491  -0.046  0.00  0.00    +0.077 S 
ATOM     17  O   UNL     1      -7.527  -0.956  -1.367  0.00  0.00    -0.153 OA
ATOM     18  O   UNL     1      -7.464  -1.285   1.130  0.00  0.00    -0.153 OA
ATOM     19  C   UNL     1      -7.788   1.133   0.169  0.00  0.00    +0.202 C 
ENDBRANCH   8  16
ENDBRANCH   2   7
BRANCH   6  22
ATOM     20  F   UNL     1       5.147   1.980  -1.373  0.00  0.00    -0.204 F 
ATOM     21  F   UNL     1       6.052  -2.820   1.088  0.00  0.00    -0.204 F 
ATOM     22  C   UNL     1       4.299   0.092  -0.210  0.00  0.00    +0.032 C 
ATOM     23  C   UNL     1       5.362   0.803  -0.768  0.00  0.00    +0.138 C 
ATOM     24  C   UNL     1       4.532  -1.132   0.417  0.00  0.00    +0.030 C 
ATOM     25  C   UNL     1       5.828  -1.645   0.486  0.00  0.00    +0.140 C 
ATOM     26  C   UNL     1       6.657   0.290  -0.699  0.00  0.00    +0.032 C 
ATOM     27  C   UNL     1       6.890  -0.933  -0.072  0.00  0.00    +0.032 C 
ENDBRANCH   6  22
BRANCH   4  28
ATOM     28  N   UNL     1       2.954   1.791   1.934  0.00  0.00    +0.384 N 
ATOM     29  H   UNL     1       2.501   1.851   2.846  0.00  0.00    -0.089 HD
ATOM     30  H   UNL     1       2.903   2.697   1.468  0.00  0.00    -0.089 HD
ATOM     31  H   UNL     1       3.931   1.526   2.056  0.00  0.00    -0.089 HD
ENDBRANCH   4  28
TORSDOF 4
