1140
  -OEChem-10051722163D

 15 15  0     0  0  0  0  0  0999 V2000
   -0.9825    0.0000    0.0001 C   0  0  0  0  0  0  0  0  0  0  0  0
   -0.2850    1.2079    0.0001 C   0  0  0  0  0  0  0  0  0  0  0  0
   -0.2852   -1.2079    0.0000 C   0  0  0  0  0  0  0  0  0  0  0  0
   -2.4741    0.0001   -0.0002 C   0  0  0  0  0  0  0  0  0  0  0  0
    1.1099    1.2080   -0.0001 C   0  0  0  0  0  0  0  0  0  0  0  0
    1.1097   -1.2080    0.0000 C   0  0  0  0  0  0  0  0  0  0  0  0
    1.8072    0.0000   -0.0001 C   0  0  0  0  0  0  0  0  0  0  0  0
   -0.8169    2.1557   -0.0017 H   0  0  0  0  0  0  0  0  0  0  0  0
   -0.8172   -2.1556   -0.0018 H   0  0  0  0  0  0  0  0  0  0  0  0
   -2.8694   -0.8801    0.5183 H   0  0  0  0  0  0  0  0  0  0  0  0
   -2.8694    0.8808    0.5175 H   0  0  0  0  0  0  0  0  0  0  0  0
   -2.8495   -0.0004   -1.0283 H   0  0  0  0  0  0  0  0  0  0  0  0
    1.6531    2.1484   -0.0007 H   0  0  0  0  0  0  0  0  0  0  0  0
    1.6529   -2.1485   -0.0005 H   0  0  0  0  0  0  0  0  0  0  0  0
    2.8933   -0.0001   -0.0004 H   0  0  0  0  0  0  0  0  0  0  0  0
  1  2  2  0  0  0  0
  1  3  1  0  0  0  0
  1  4  1  0  0  0  0
  2  5  1  0  0  0  0
  2  8  1  0  0  0  0
  3  6  2  0  0  0  0
  3  9  1  0  0  0  0
  4 10  1  0  0  0  0
  4 11  1  0  0  0  0
  4 12  1  0  0  0  0
  5  7  2  0  0  0  0
  5 13  1  0  0  0  0
  6  7  1  0  0  0  0
  6 14  1  0  0  0  0
  7 15  1  0  0  0  0
M  END
> <DATABASE_ID>
DB11558

> <DATABASE_NAME>
drugbank

> <ORIGINAL_SOURCE>
PUBCHEM

> <ORIGINAL_SOURCE_URL>
https://pubchem.ncbi.nlm.nih.gov/rest/pug/compound/inchikey/YXFVVABEGXRONW-UHFFFAOYSA-N/SDF?record_type=3d

> <SMILES>
CC1=CC=CC=C1

> <INCHI_IDENTIFIER>
InChI=1S/C7H8/c1-7-5-3-2-4-6-7/h2-6H,1H3

> <INCHI_KEY>
YXFVVABEGXRONW-UHFFFAOYSA-N

> <FORMULA>
C7H8

> <MOLECULAR_WEIGHT>
92.1384

> <EXACT_MASS>
92.062600256

> <JCHEM_ACCEPTOR_COUNT>
0

> <JCHEM_AVERAGE_POLARIZABILITY>
10.974244489174936

> <JCHEM_BIOAVAILABILITY>
1

> <JCHEM_DONOR_COUNT>
0

> <JCHEM_FORMAL_CHARGE>
0

> <JCHEM_GHOSE_FILTER>
0

> <JCHEM_IUPAC>
toluene

> <ALOGPS_LOGP>
2.56

> <JCHEM_LOGP>
2.486667205333333

> <ALOGPS_LOGS>
-2.26

> <JCHEM_MDDR_LIKE_RULE>
0

> <JCHEM_NUMBER_OF_RINGS>
1

> <JCHEM_PHYSIOLOGICAL_CHARGE>
0

> <JCHEM_POLAR_SURFACE_AREA>
0

> <JCHEM_REFRACTIVITY>
31.0992

> <JCHEM_ROTATABLE_BOND_COUNT>
0

> <JCHEM_RULE_OF_FIVE>
1

> <ALOGPS_SOLUBILITY>
5.08e-01 g/l

> <JCHEM_TRADITIONAL_IUPAC>
toluene

> <JCHEM_VEBER_RULE>
1

> <DRUGBANK_ID>
DB11558

> <SECONDARY_ACCESSION_NUMBERS>
DB01900; EXPT02123

> <DRUG_GROUPS>
vet_approved

> <GENERIC_NAME>
Toluene

$$$$
