REMARK  Name = 2480
REMARK  13 active torsions:
REMARK  status: ('A' for Active; 'I' for Inactive)
REMARK    1  A    between atoms: C_1  and  O_2
REMARK    2  A    between atoms: C_1  and  C_14
REMARK    3  A    between atoms: O_2  and  C_4
REMARK    4  A    between atoms: C_4  and  C_5
REMARK    5  A    between atoms: C_10  and  N_11
REMARK    6  A    between atoms: C_14  and  C_15
REMARK    7  A    between atoms: C_15  and  N_16
REMARK    8  A    between atoms: N_16  and  C_18
REMARK    9  A    between atoms: N_16  and  C_22
REMARK   10  A    between atoms: C_18  and  C_19
REMARK   11  A    between atoms: C_19  and  C_20
REMARK   12  A    between atoms: C_22  and  C_23
REMARK   13  A    between atoms: C_23  and  C_24
REMARK                            x       y       z     vdW  Elec       q    Type
REMARK                         _______ _______ _______ _____ _____    ______ ____
ROOT
ATOM      1  C   UNL     1       0.947   1.968  -0.824  0.00  0.00    +0.207 C 
ENDROOT
BRANCH   1   2
ATOM      2  O   UNL     1      -0.310   1.308  -0.762  0.00  0.00    -0.446 OA
BRANCH   2   4
ATOM      3  O   UNL     1      -0.834   2.430   1.179  0.00  0.00    -0.245 OA
ATOM      4  C   UNL     1      -1.106   1.633   0.294  0.00  0.00    +0.341 C 
BRANCH   4   5
ATOM      5  C   UNL     1      -2.384   0.878   0.243  0.00  0.00    +0.076 C 
ATOM      6  C   UNL     1      -3.019   0.562   1.427  0.00  0.00    +0.008 C 
ATOM      7  C   UNL     1      -2.895   0.515  -0.986  0.00  0.00    +0.008 C 
ATOM      8  C   UNL     1      -4.219  -0.148   1.379  0.00  0.00    +0.014 C 
ATOM      9  C   UNL     1      -4.095  -0.195  -1.034  0.00  0.00    +0.014 C 
ATOM     10  C   UNL     1      -4.757  -0.526   0.149  0.00  0.00    +0.042 C 
BRANCH  10  11
ATOM     11  N   UNL     1      -5.970  -1.244   0.100  0.00  0.00    -0.357 N 
ATOM     12  H   UNL     1      -6.437  -1.478   0.935  0.00  0.00    +0.142 HD
ATOM     13  H   UNL     1      -6.350  -1.511  -0.768  0.00  0.00    +0.142 HD
ENDBRANCH  10  11
ENDBRANCH   4   5
ENDBRANCH   2   4
ENDBRANCH   1   2
BRANCH   1  14
ATOM     14  C   UNL     1       1.696   1.486  -2.059  0.00  0.00    +0.025 C 
BRANCH  14  15
ATOM     15  C   UNL     1       1.948  -0.017  -2.011  0.00  0.00    -0.074 C 
BRANCH  15  16
ATOM     16  N   UNL     1       2.730  -0.363  -0.823  0.00  0.00    +0.387 N 
ATOM     17  H   UNL     1       2.218  -0.057   0.004  0.00  0.00    -0.080 HD
BRANCH  16  18
ATOM     18  C   UNL     1       4.018   0.320  -0.840  0.00  0.00    -0.077 C 
BRANCH  18  19
ATOM     19  C   UNL     1       4.804   0.003   0.432  0.00  0.00    -0.023 C 
BRANCH  19  20
ATOM     20  C   UNL     1       4.051   0.472   1.678  0.00  0.00    -0.002 C 
ATOM     21  C   UNL     1       4.810   0.129   2.949  0.00  0.00    -0.000 C 
ENDBRANCH  19  20
ENDBRANCH  18  19
ENDBRANCH  16  18
BRANCH  16  22
ATOM     22  C   UNL     1       2.917  -1.813  -0.743  0.00  0.00    -0.077 C 
BRANCH  22  23
ATOM     23  C   UNL     1       1.564  -2.522  -0.726  0.00  0.00    -0.023 C 
BRANCH  23  24
ATOM     24  C   UNL     1       0.734  -2.099   0.486  0.00  0.00    -0.002 C 
ATOM     25  C   UNL     1      -0.629  -2.774   0.492  0.00  0.00    -0.000 C 
ENDBRANCH  23  24
ENDBRANCH  22  23
ENDBRANCH  16  22
ENDBRANCH  15  16
ENDBRANCH  14  15
ENDBRANCH   1  14
TORSDOF 13
