REMARK  Name = 59509752
REMARK  6 active torsions:
REMARK  status: ('A' for Active; 'I' for Inactive)
REMARK    1  A    between atoms: C_1  and  C_10
REMARK    2  A    between atoms: C_1  and  C_15
REMARK    3  A    between atoms: C_7  and  C_8
REMARK    4  A    between atoms: C_10  and  C_12
REMARK    5  A    between atoms: C_12  and  O_13
REMARK    6  A    between atoms: C_15  and  N_16
REMARK                            x       y       z     vdW  Elec       q    Type
REMARK                         _______ _______ _______ _____ _____    ______ ____
ROOT
ATOM      1  C   UNL     1      -0.853   0.641   0.002  0.00  0.00    -0.009 C 
ATOM      2  C   UNL     1       0.472   1.242  -0.494  0.00  0.00    -0.001 C 
ATOM      3  C   UNL     1       0.912   1.433   0.981  0.00  0.00    -0.000 C 
ATOM      4  C   UNL     1      -0.248   0.496   1.409  0.00  0.00    -0.002 C 
ATOM      5  C   UNL     1       2.330   0.861   1.048  0.00  0.00    -0.000 C 
ATOM      6  C   UNL     1       1.460   0.321  -1.096  0.00  0.00    -0.000 C 
ATOM      7  C   UNL     1       2.484   0.125  -0.256  0.00  0.00    -0.000 C 
ENDROOT
BRANCH   7   8
ATOM      8  C   UNL     1       3.682  -0.719  -0.509  0.00  0.00    -0.000 C 
ATOM      9  C   UNL     1       3.477  -2.156  -0.054  0.00  0.00    +0.000 C 
ENDBRANCH   7   8
BRANCH   1  10
ATOM     10  C   UNL     1      -1.295  -0.669  -0.611  0.00  0.00    +0.107 C 
BRANCH  10  12
ATOM     11  O   UNL     1      -2.864  -0.992   1.218  0.00  0.00    -0.250 OA
ATOM     12  C   UNL     1      -2.351  -1.396   0.185  0.00  0.00    +0.314 C 
BRANCH  12  13
ATOM     13  O   UNL     1      -2.667  -2.578  -0.404  0.00  0.00    -0.480 OA
ATOM     14  H   UNL     1      -2.239  -2.835  -1.197  0.00  0.00    +0.295 HD
ENDBRANCH  12  13
ENDBRANCH  10  12
ENDBRANCH   1  10
BRANCH   1  15
ATOM     15  C   UNL     1      -1.987   1.647  -0.039  0.00  0.00    -0.085 C 
BRANCH  15  16
ATOM     16  N   UNL     1      -2.553   1.745  -1.381  0.00  0.00    +0.380 N 
ATOM     17  H   UNL     1      -3.312   2.427  -1.381  0.00  0.00    -0.089 HD
ATOM     18  H   UNL     1      -2.914   0.834  -1.666  0.00  0.00    -0.089 HD
ATOM     19  H   UNL     1      -1.829   2.043  -2.035  0.00  0.00    -0.089 HD
ENDBRANCH  15  16
ENDBRANCH   1  15
TORSDOF 6
