8573
  -OEChem-10051722123D

 32 32  0     1  0  0  0  0  0999 V2000
    1.0532   -0.0243   -0.4426 O   0  0  0  0  0  0  0  0  0  0  0  0
    0.6109    0.0348    1.8157 O   0  0  0  0  0  0  0  0  0  0  0  0
   -2.5993    2.4596   -0.8074 O   0  0  0  0  0  0  0  0  0  0  0  0
   -1.0179    2.3080    0.8184 O   0  0  0  0  0  0  0  0  0  0  0  0
    2.4004    0.3992   -0.1985 C   0  0  1  0  0  0  0  0  0  0  0  0
    3.1044    0.5133   -1.5649 C   0  0  0  0  0  0  0  0  0  0  0  0
    2.3084    1.7438    0.5237 C   0  0  0  0  0  0  0  0  0  0  0  0
    3.0879   -0.7500   -2.4162 C   0  0  0  0  0  0  0  0  0  0  0  0
   -1.0902   -0.6061    0.2729 C   0  0  0  0  0  0  0  0  0  0  0  0
    0.2736   -0.1641    0.6590 C   0  0  0  0  0  0  0  0  0  0  0  0
    3.0585   -0.5989    0.6663 C   0  0  0  0  0  0  0  0  0  0  0  0
   -2.0719    0.3242   -0.0048 C   0  0  0  0  0  0  0  0  0  0  0  0
   -1.3295   -1.9653    0.2045 C   0  0  0  0  0  0  0  0  0  0  0  0
   -3.3436   -0.1212   -0.3653 C   0  0  0  0  0  0  0  0  0  0  0  0
   -2.6012   -2.4106   -0.1560 C   0  0  0  0  0  0  0  0  0  0  0  0
   -3.6083   -1.4885   -0.4409 C   0  0  0  0  0  0  0  0  0  0  0  0
   -1.8267    1.7588    0.0657 C   0  0  0  0  0  0  0  0  0  0  0  0
    3.5912   -1.4128    1.3703 C   0  0  0  0  0  0  0  0  0  0  0  0
    4.1465    0.8266   -1.4224 H   0  0  0  0  0  0  0  0  0  0  0  0
    2.6124    1.3024   -2.1488 H   0  0  0  0  0  0  0  0  0  0  0  0
    2.0723    1.6923    1.5899 H   0  0  0  0  0  0  0  0  0  0  0  0
    3.2788    2.2553    0.4785 H   0  0  0  0  0  0  0  0  0  0  0  0
    1.5742    2.4025    0.0466 H   0  0  0  0  0  0  0  0  0  0  0  0
    3.6154   -1.5725   -1.9241 H   0  0  0  0  0  0  0  0  0  0  0  0
    2.0646   -1.0743   -2.6292 H   0  0  0  0  0  0  0  0  0  0  0  0
    3.5845   -0.5621   -3.3737 H   0  0  0  0  0  0  0  0  0  0  0  0
   -0.5498   -2.6887    0.4249 H   0  0  0  0  0  0  0  0  0  0  0  0
   -4.1537    0.5708   -0.5803 H   0  0  0  0  0  0  0  0  0  0  0  0
   -2.8076   -3.4753   -0.2142 H   0  0  0  0  0  0  0  0  0  0  0  0
   -4.5992   -1.8358   -0.7184 H   0  0  0  0  0  0  0  0  0  0  0  0
    4.0631   -2.1348    1.9947 H   0  0  0  0  0  0  0  0  0  0  0  0
   -2.4277    3.4240   -0.7539 H   0  0  0  0  0  0  0  0  0  0  0  0
  1  5  1  0  0  0  0
  1 10  1  0  0  0  0
  2 10  2  0  0  0  0
  3 17  1  0  0  0  0
  3 32  1  0  0  0  0
  4 17  2  0  0  0  0
  5  6  1  0  0  0  0
  5  7  1  0  0  0  0
  5 11  1  0  0  0  0
  6  8  1  0  0  0  0
  6 19  1  0  0  0  0
  6 20  1  0  0  0  0
  7 21  1  0  0  0  0
  7 22  1  0  0  0  0
  7 23  1  0  0  0  0
  8 24  1  0  0  0  0
  8 25  1  0  0  0  0
  8 26  1  0  0  0  0
  9 10  1  0  0  0  0
  9 12  1  0  0  0  0
  9 13  2  0  0  0  0
 11 18  3  0  0  0  0
 12 14  2  0  0  0  0
 12 17  1  0  0  0  0
 13 15  1  0  0  0  0
 13 27  1  0  0  0  0
 14 16  1  0  0  0  0
 14 28  1  0  0  0  0
 15 16  2  0  0  0  0
 15 29  1  0  0  0  0
 16 30  1  0  0  0  0
 18 31  1  0  0  0  0
M  END
> <DATABASE_ID>
DB11449

> <DATABASE_NAME>
drugbank

> <ORIGINAL_SOURCE>
PUBCHEM

> <ORIGINAL_SOURCE_URL>
https://pubchem.ncbi.nlm.nih.gov/rest/pug/compound/inchikey/CZGIRAWWWHPJHM-UHFFFAOYSA-N/SDF?record_type=3d

> <SMILES>
CCC(C)(OC(=O)C1=CC=CC=C1C(O)=O)C#C

> <INCHI_IDENTIFIER>
InChI=1S/C14H14O4/c1-4-14(3,5-2)18-13(17)11-9-7-6-8-10(11)12(15)16/h1,6-9H,5H2,2-3H3,(H,15,16)

> <INCHI_KEY>
CZGIRAWWWHPJHM-UHFFFAOYSA-N

> <FORMULA>
C14H14O4

> <MOLECULAR_WEIGHT>
246.262

> <EXACT_MASS>
246.089208931

> <JCHEM_ACCEPTOR_COUNT>
3

> <JCHEM_ATOM_COUNT>
32

> <JCHEM_AVERAGE_POLARIZABILITY>
25.388151960778735

> <JCHEM_BIOAVAILABILITY>
1

> <JCHEM_DONOR_COUNT>
1

> <JCHEM_FORMAL_CHARGE>
0

> <JCHEM_GHOSE_FILTER>
1

> <JCHEM_IUPAC>
2-{[(3-methylpent-1-yn-3-yl)oxy]carbonyl}benzoic acid

> <ALOGPS_LOGP>
2.42

> <JCHEM_LOGP>
3.0820628219999993

> <ALOGPS_LOGS>
-4.03

> <JCHEM_MDDR_LIKE_RULE>
0

> <JCHEM_NUMBER_OF_RINGS>
1

> <JCHEM_PHYSIOLOGICAL_CHARGE>
-1

> <JCHEM_PKA_STRONGEST_ACIDIC>
3.0795698990208606

> <JCHEM_PKA_STRONGEST_BASIC>
-6.999954905497152

> <JCHEM_POLAR_SURFACE_AREA>
63.599999999999994

> <JCHEM_REFRACTIVITY>
66.50070000000001

> <JCHEM_ROTATABLE_BOND_COUNT>
5

> <JCHEM_RULE_OF_FIVE>
1

> <ALOGPS_SOLUBILITY>
2.32e-02 g/l

> <JCHEM_TRADITIONAL_IUPAC>
phthalofyne

> <JCHEM_VEBER_RULE>
0

> <DRUGBANK_ID>
DB11449

> <DRUG_GROUPS>
experimental; vet_approved

> <GENERIC_NAME>
Phthalofyne

> <SYNONYMS>
Ftalofino; Ftalofyne; Ftalofynum; Phthalofyne

$$$$
