2320
  -OEChem-10051722343D

 54 55  0     0  0  0  0  0  0999 V2000
    1.3957    2.1802    1.1539 S   0  0  0  0  0  0  0  0  0  0  0  0
    0.3576   -3.4271    1.6890 P   0  0  0  0  0  0  0  0  0  0  0  0
   -0.2332   -2.0045    2.1807 O   0  0  0  0  0  0  0  0  0  0  0  0
   -4.3891    1.6732    2.1805 O   0  0  0  0  0  0  0  0  0  0  0  0
    1.1985    1.0784   -1.2355 O   0  0  0  0  0  0  0  0  0  0  0  0
   -0.1357   -3.5070    0.1511 O   0  0  0  0  0  0  0  0  0  0  0  0
    1.9468   -3.1587    1.5562 O   0  0  0  0  0  0  0  0  0  0  0  0
   -0.0257   -4.6026    2.5394 O   0  0  0  0  0  0  0  0  0  0  0  0
   -2.5844    2.0444    0.7298 N   0  0  0  0  0  0  0  0  0  0  0  0
   -2.6190   -1.7836   -1.6772 N   0  0  0  0  0  0  0  0  0  0  0  0
   -1.1702   -0.2634   -2.8594 N   0  0  0  0  0  0  0  0  0  0  0  0
   -4.1574   -0.9620   -0.0702 N   0  0  0  0  0  0  0  0  0  0  0  0
   -1.2586    2.3917    0.6353 C   0  0  0  0  0  0  0  0  0  0  0  0
   -3.3078    1.7563   -0.4999 C   0  0  0  0  0  0  0  0  0  0  0  0
   -0.2859    1.6626    1.2327 C   0  0  0  0  0  0  0  0  0  0  0  0
   -0.5557    0.4010    2.0367 C   0  0  0  0  0  0  0  0  0  0  0  0
   -2.7287    0.5790   -1.2298 C   0  0  0  0  0  0  0  0  0  0  0  0
    0.0864   -0.8435    1.4259 C   0  0  0  0  0  0  0  0  0  0  0  0
   -1.0283    3.6439   -0.1672 C   0  0  0  0  0  0  0  0  0  0  0  0
   -3.1366   -0.7230   -1.0232 C   0  0  0  0  0  0  0  0  0  0  0  0
   -3.2192    1.9693    1.9621 C   0  0  0  0  0  0  0  0  0  0  0  0
   -1.7323    0.7504   -2.1690 C   0  0  0  0  0  0  0  0  0  0  0  0
    1.9409    1.3787   -0.3085 C   0  0  0  0  0  0  0  0  0  0  0  0
   -1.6538   -1.4860   -2.5681 C   0  0  0  0  0  0  0  0  0  0  0  0
    3.3767    1.0016   -0.3514 C   0  0  0  0  0  0  0  0  0  0  0  0
   -1.0571   -2.6327   -3.3112 C   0  0  0  0  0  0  0  0  0  0  0  0
    3.7756   -0.1491   -1.0317 C   0  0  0  0  0  0  0  0  0  0  0  0
    4.3268    1.7984    0.2878 C   0  0  0  0  0  0  0  0  0  0  0  0
    5.1241   -0.5033   -1.0725 C   0  0  0  0  0  0  0  0  0  0  0  0
    5.6753    1.4441    0.2468 C   0  0  0  0  0  0  0  0  0  0  0  0
    6.0739    0.2933   -0.4333 C   0  0  0  0  0  0  0  0  0  0  0  0
   -4.3715    1.5966   -0.2887 H   0  0  0  0  0  0  0  0  0  0  0  0
   -3.2917    2.6431   -1.1463 H   0  0  0  0  0  0  0  0  0  0  0  0
   -0.1869    0.5347    3.0625 H   0  0  0  0  0  0  0  0  0  0  0  0
   -1.6163    0.1701    2.1556 H   0  0  0  0  0  0  0  0  0  0  0  0
    1.1753   -0.7464    1.4104 H   0  0  0  0  0  0  0  0  0  0  0  0
   -0.2628   -0.9793    0.3978 H   0  0  0  0  0  0  0  0  0  0  0  0
   -0.2690    4.2861    0.2915 H   0  0  0  0  0  0  0  0  0  0  0  0
   -1.9304    4.2649   -0.2187 H   0  0  0  0  0  0  0  0  0  0  0  0
   -0.7111    3.4186   -1.1877 H   0  0  0  0  0  0  0  0  0  0  0  0
   -2.5558    2.2526    2.7975 H   0  0  0  0  0  0  0  0  0  0  0  0
   -1.3563    1.7301   -2.4376 H   0  0  0  0  0  0  0  0  0  0  0  0
   -4.4420   -1.9276    0.0450 H   0  0  0  0  0  0  0  0  0  0  0  0
   -4.1991   -0.3702    0.7499 H   0  0  0  0  0  0  0  0  0  0  0  0
    0.0205   -2.6776   -3.1261 H   0  0  0  0  0  0  0  0  0  0  0  0
   -1.4987   -3.5838   -2.9977 H   0  0  0  0  0  0  0  0  0  0  0  0
   -1.2265   -2.5115   -4.3854 H   0  0  0  0  0  0  0  0  0  0  0  0
    3.0483   -0.7841   -1.5309 H   0  0  0  0  0  0  0  0  0  0  0  0
    4.0675    2.7185    0.8026 H   0  0  0  0  0  0  0  0  0  0  0  0
    5.4345   -1.3998   -1.6011 H   0  0  0  0  0  0  0  0  0  0  0  0
    6.4164    2.0677    0.7384 H   0  0  0  0  0  0  0  0  0  0  0  0
    7.1241    0.0184   -0.4662 H   0  0  0  0  0  0  0  0  0  0  0  0
    0.0213   -4.3314   -0.3567 H   0  0  0  0  0  0  0  0  0  0  0  0
    2.5372   -3.9075    1.3262 H   0  0  0  0  0  0  0  0  0  0  0  0
  1 15  1  0  0  0  0
  1 23  1  0  0  0  0
  2  3  1  0  0  0  0
  2  6  1  0  0  0  0
  2  7  1  0  0  0  0
  2  8  2  0  0  0  0
  3 18  1  0  0  0  0
  4 21  2  0  0  0  0
  5 23  2  0  0  0  0
  6 53  1  0  0  0  0
  7 54  1  0  0  0  0
  9 13  1  0  0  0  0
  9 14  1  0  0  0  0
  9 21  1  0  0  0  0
 10 20  2  0  0  0  0
 10 24  1  0  0  0  0
 11 22  1  0  0  0  0
 11 24  2  0  0  0  0
 12 20  1  0  0  0  0
 12 43  1  0  0  0  0
 12 44  1  0  0  0  0
 13 15  2  0  0  0  0
 13 19  1  0  0  0  0
 14 17  1  0  0  0  0
 14 32  1  0  0  0  0
 14 33  1  0  0  0  0
 15 16  1  0  0  0  0
 16 18  1  0  0  0  0
 16 34  1  0  0  0  0
 16 35  1  0  0  0  0
 17 20  1  0  0  0  0
 17 22  2  0  0  0  0
 18 36  1  0  0  0  0
 18 37  1  0  0  0  0
 19 38  1  0  0  0  0
 19 39  1  0  0  0  0
 19 40  1  0  0  0  0
 21 41  1  0  0  0  0
 22 42  1  0  0  0  0
 23 25  1  0  0  0  0
 24 26  1  0  0  0  0
 25 27  2  0  0  0  0
 25 28  1  0  0  0  0
 26 45  1  0  0  0  0
 26 46  1  0  0  0  0
 26 47  1  0  0  0  0
 27 29  1  0  0  0  0
 27 48  1  0  0  0  0
 28 30  2  0  0  0  0
 28 49  1  0  0  0  0
 29 31  2  0  0  0  0
 29 50  1  0  0  0  0
 30 31  1  0  0  0  0
 30 51  1  0  0  0  0
 31 52  1  0  0  0  0
M  END
> <DATABASE_ID>
DB11748

> <DATABASE_NAME>
drugbank

> <ORIGINAL_SOURCE>
PUBCHEM

> <ORIGINAL_SOURCE_URL>
https://pubchem.ncbi.nlm.nih.gov/rest/pug/compound/inchikey/BTNNPSLJPBRMLZ-UHFFFAOYSA-N/SDF?record_type=3d

> <SMILES>
CC(N(CC1=CN=C(C)NC1=N)C=O)=C(CCOP(O)(O)=O)SC(=O)C1=CC=CC=C1

> <INCHI_IDENTIFIER>
InChI=1S/C19H23N4O6PS/c1-13(23(12-24)11-16-10-21-14(2)22-18(16)20)17(8-9-29-30(26,27)28)31-19(25)15-6-4-3-5-7-15/h3-7,10,12H,8-9,11H2,1-2H3,(H2,20,21,22)(H2,26,27,28)

> <INCHI_KEY>
BTNNPSLJPBRMLZ-UHFFFAOYSA-N

> <FORMULA>
C19H23N4O6PS

> <MOLECULAR_WEIGHT>
466.45

> <EXACT_MASS>
466.107592649

> <JCHEM_ACCEPTOR_COUNT>
8

> <JCHEM_ATOM_COUNT>
54

> <JCHEM_AVERAGE_POLARIZABILITY>
45.12917970391715

> <JCHEM_BIOAVAILABILITY>
1

> <JCHEM_DONOR_COUNT>
4

> <JCHEM_FORMAL_CHARGE>
0

> <JCHEM_GHOSE_FILTER>
0

> <JCHEM_IUPAC>
{[3-(benzoylsulfanyl)-4-{N-[(6-imino-2-methyl-1,6-dihydropyrimidin-5-yl)methyl]formamido}pent-3-en-1-yl]oxy}phosphonic acid

> <ALOGPS_LOGP>
0.95

> <JCHEM_LOGP>
-0.5792801977243431

> <ALOGPS_LOGS>
-4.08

> <JCHEM_MDDR_LIKE_RULE>
0

> <JCHEM_NUMBER_OF_RINGS>
2

> <JCHEM_PHYSIOLOGICAL_CHARGE>
-2

> <JCHEM_PKA>
6.701777774041556

> <JCHEM_PKA_STRONGEST_ACIDIC>
1.6589694459537223

> <JCHEM_PKA_STRONGEST_BASIC>
2.913603530194382

> <JCHEM_POLAR_SURFACE_AREA>
152.38

> <JCHEM_REFRACTIVITY>
130.31639999999996

> <JCHEM_ROTATABLE_BOND_COUNT>
10

> <JCHEM_RULE_OF_FIVE>
1

> <ALOGPS_SOLUBILITY>
3.90e-02 g/l

> <JCHEM_TRADITIONAL_IUPAC>
[3-(benzoylsulfanyl)-4-{N-[(4-imino-2-methyl-3H-pyrimidin-5-yl)methyl]formamido}pent-3-en-1-yl]oxyphosphonic acid

> <JCHEM_VEBER_RULE>
0

> <DRUGBANK_ID>
DB11748

> <DRUG_GROUPS>
approved; experimental

> <GENERIC_NAME>
Benfotiamine

> <SYNONYMS>
benfotiamina

$$$$
