REMARK  Name = 9795739
REMARK  4 active torsions:
REMARK  status: ('A' for Active; 'I' for Inactive)
REMARK    1  A    between atoms: N_1  and  C_18
REMARK    2  A    between atoms: C_2  and  C_8
REMARK    3  A    between atoms: C_11  and  S_14
REMARK    4  A    between atoms: C_18  and  C_19
REMARK                            x       y       z     vdW  Elec       q    Type
REMARK                         _______ _______ _______ _____ _____    ______ ____
ROOT
ATOM      1  N   UNL     1      -3.287   0.166   0.376  0.00  0.00    +0.387 N 
ATOM      2  C   UNL     1      -0.708  -1.171  -0.001  0.00  0.00    +0.018 C 
ATOM      3  C   UNL     1      -1.354  -0.307  -1.095  0.00  0.00    -0.019 C 
ATOM      4  C   UNL     1      -1.211  -0.731   1.382  0.00  0.00    -0.019 C 
ATOM      5  C   UNL     1      -2.878  -0.294  -0.958  0.00  0.00    -0.077 C 
ATOM      6  C   UNL     1      -2.741  -0.702   1.429  0.00  0.00    -0.077 C 
ATOM      7  H   UNL     1      -2.910   1.104   0.515  0.00  0.00    -0.080 HD
ENDROOT
BRANCH   2   8
ATOM      8  C   UNL     1       0.810  -1.170  -0.088  0.00  0.00    -0.021 C 
ATOM      9  C   UNL     1       1.515   0.020   0.075  0.00  0.00    +0.014 C 
ATOM     10  C   UNL     1       1.491  -2.361  -0.332  0.00  0.00    -0.004 C 
ATOM     11  C   UNL     1       2.908   0.019  -0.004  0.00  0.00    +0.105 C 
ATOM     12  C   UNL     1       2.884  -2.362  -0.411  0.00  0.00    +0.001 C 
ATOM     13  C   UNL     1       3.592  -1.171  -0.248  0.00  0.00    +0.018 C 
BRANCH  11  14
ATOM     14  S   UNL     1       3.795   1.508   0.204  0.00  0.00    +0.010 S 
ATOM     15  O   UNL     1       2.972   2.415   0.992  0.00  0.00    -0.169 OA
ATOM     16  O   UNL     1       5.148   1.194   0.643  0.00  0.00    -0.169 OA
ATOM     17  C   UNL     1       3.926   2.178  -1.438  0.00  0.00    +0.182 C 
ENDBRANCH  11  14
ENDBRANCH   2   8
BRANCH   1  18
ATOM     18  C   UNL     1      -4.746   0.227   0.471  0.00  0.00    -0.077 C 
BRANCH  18  19
ATOM     19  C   UNL     1      -5.301   1.222  -0.545  0.00  0.00    -0.023 C 
ATOM     20  C   UNL     1      -6.816   1.320  -0.453  0.00  0.00    -0.002 C 
ENDBRANCH  18  19
ENDBRANCH   1  18
TORSDOF 4
