REMARK  Name = 736681
REMARK  6 active torsions:
REMARK  status: ('A' for Active; 'I' for Inactive)
REMARK    1  A    between atoms: C_1  and  C_11
REMARK    2  A    between atoms: C_3  and  O_7
REMARK    3  A    between atoms: C_5  and  O_9
REMARK    4  A    between atoms: C_12  and  C_14
REMARK    5  A    between atoms: C_14  and  O_15
REMARK    6  A    between atoms: O_15  and  C_16
REMARK                            x       y       z     vdW  Elec       q    Type
REMARK                         _______ _______ _______ _____ _____    ______ ____
ROOT
ATOM      1  C   UNL     1      -0.745  -0.866  -0.051  0.00  0.00    +0.003 C 
ATOM      2  C   UNL     1      -1.240   0.409  -0.325  0.00  0.00    +0.040 C 
ATOM      3  C   UNL     1      -2.614   0.648  -0.282  0.00  0.00    +0.172 C 
ATOM      4  C   UNL     1      -1.623  -1.902   0.266  0.00  0.00    +0.003 C 
ATOM      5  C   UNL     1      -3.492  -0.389   0.035  0.00  0.00    +0.168 C 
ATOM      6  C   UNL     1      -2.997  -1.664   0.309  0.00  0.00    +0.040 C 
ENDROOT
BRANCH   3   7
ATOM      7  O   UNL     1      -3.086   1.897  -0.552  0.00  0.00    -0.468 OA
ATOM      8  C   UNL     1      -3.221   2.791   0.550  0.00  0.00    +0.253 C 
ENDBRANCH   3   7
BRANCH   5   9
ATOM      9  O   UNL     1      -4.836  -0.169   0.078  0.00  0.00    -0.503 OA
ATOM     10  H   UNL     1      -5.177   0.685  -0.105  0.00  0.00    +0.292 HD
ENDBRANCH   5   9
BRANCH   1  11
ATOM     11  C   UNL     1       0.687  -1.115  -0.094  0.00  0.00    +0.007 C 
ATOM     12  C   UNL     1       1.647  -0.167  -0.006  0.00  0.00    +0.082 C 
BRANCH  12  14
ATOM     13  O   UNL     1       3.502  -1.687  -0.179  0.00  0.00    -0.245 OA
ATOM     14  C   UNL     1       3.077  -0.549  -0.052  0.00  0.00    +0.341 C 
BRANCH  14  15
ATOM     15  O   UNL     1       3.811   0.590   0.070  0.00  0.00    -0.445 OA
BRANCH  15  16
ATOM     16  C   UNL     1       5.231   0.411   0.044  0.00  0.00    +0.209 C 
ATOM     17  C   UNL     1       5.900   1.761   0.189  0.00  0.00    +0.051 C 
ENDBRANCH  15  16
ENDBRANCH  14  15
ENDBRANCH  12  14
ENDBRANCH   1  11
TORSDOF 6
