REMARK  Name = 44814423
REMARK  10 active torsions:
REMARK  status: ('A' for Active; 'I' for Inactive)
REMARK    1  A    between atoms: C_3  and  C_32
REMARK    2  A    between atoms: C_4  and  C_10
REMARK    3  A    between atoms: C_5  and  O_26
REMARK    4  A    between atoms: C_6  and  O_28
REMARK    5  A    between atoms: C_7  and  O_30
REMARK    6  A    between atoms: C_13  and  C_16
REMARK    7  A    between atoms: C_16  and  C_17
REMARK    8  A    between atoms: C_22  and  O_23
REMARK    9  A    between atoms: O_23  and  C_24
REMARK   10  A    between atoms: C_32  and  O_33
REMARK                            x       y       z     vdW  Elec       q    Type
REMARK                         _______ _______ _______ _____ _____    ______ ____
ROOT
ATOM      1  O   UNL     1      -3.131  -0.394  -0.720  0.00  0.00    -0.326 OA
ATOM      2  O   UNL     1      -3.338  -0.543   1.591  0.00  0.00    -0.326 OA
ATOM      3  C   UNL     1      -4.446   0.068  -0.378  0.00  0.00    +0.176 C 
ATOM      4  C   UNL     1      -2.413  -0.237   0.525  0.00  0.00    +0.235 C 
ATOM      5  C   UNL     1      -4.373   1.612  -0.320  0.00  0.00    +0.169 C 
ATOM      6  C   UNL     1      -2.048   1.259   0.640  0.00  0.00    +0.196 C 
ATOM      7  C   UNL     1      -3.327   2.112   0.689  0.00  0.00    +0.172 C 
ATOM      8  C   UNL     1      -4.631  -0.611   0.971  0.00  0.00    +0.177 C 
ENDROOT
BRANCH   4  10
ATOM      9 CL   UNL     1       2.382  -3.894   0.561  0.00  0.00    -0.083 Cl
ATOM     10  C   UNL     1      -1.206  -1.152   0.526  0.00  0.00    +0.031 C 
ATOM     11  C   UNL     1      -0.234  -1.026  -0.468  0.00  0.00    -0.003 C 
ATOM     12  C   UNL     1      -1.065  -2.120   1.520  0.00  0.00    +0.001 C 
ATOM     13  C   UNL     1       0.877  -1.868  -0.467  0.00  0.00    -0.007 C 
ATOM     14  C   UNL     1       0.047  -2.962   1.521  0.00  0.00    +0.011 C 
ATOM     15  C   UNL     1       1.018  -2.836   0.527  0.00  0.00    +0.054 C 
BRANCH  13  16
ATOM     16  C   UNL     1       1.896  -1.700  -1.548  0.00  0.00    +0.053 C 
BRANCH  16  17
ATOM     17  C   UNL     1       3.000  -0.723  -1.201  0.00  0.00    -0.018 C 
ATOM     18  C   UNL     1       2.771   0.650  -1.293  0.00  0.00    -0.001 C 
ATOM     19  C   UNL     1       4.246  -1.196  -0.790  0.00  0.00    -0.001 C 
ATOM     20  C   UNL     1       3.788   1.550  -0.974  0.00  0.00    +0.037 C 
ATOM     21  C   UNL     1       5.263  -0.297  -0.471  0.00  0.00    +0.037 C 
ATOM     22  C   UNL     1       5.034   1.076  -0.563  0.00  0.00    +0.139 C 
BRANCH  22  23
ATOM     23  O   UNL     1       6.026   1.954  -0.251  0.00  0.00    -0.475 OA
BRANCH  23  24
ATOM     24  C   UNL     1       6.975   1.539   0.731  0.00  0.00    +0.206 C 
ATOM     25  C   UNL     1       7.497   2.759   1.459  0.00  0.00    +0.051 C 
ENDBRANCH  23  24
ENDBRANCH  22  23
ENDBRANCH  16  17
ENDBRANCH  13  16
ENDBRANCH   4  10
BRANCH   5  26
ATOM     26  O   UNL     1      -5.643   2.176  -0.007  0.00  0.00    -0.379 OA
ATOM     27  H   UNL     1      -6.303   1.860  -0.644  0.00  0.00    +0.211 HD
ENDBRANCH   5  26
BRANCH   6  28
ATOM     28  O   UNL     1      -1.303   1.488   1.835  0.00  0.00    -0.377 OA
ATOM     29  H   UNL     1      -0.493   0.955   1.818  0.00  0.00    +0.211 HD
ENDBRANCH   6  28
BRANCH   7  30
ATOM     30  O   UNL     1      -2.984   3.466   0.391  0.00  0.00    -0.379 OA
ATOM     31  H   UNL     1      -3.783   4.015   0.418  0.00  0.00    +0.211 HD
ENDBRANCH   7  30
BRANCH   3  32
ATOM     32  C   UNL     1      -5.454  -0.417  -1.411  0.00  0.00    +0.169 C 
BRANCH  32  33
ATOM     33  O   UNL     1      -5.221   0.269  -2.628  0.00  0.00    -0.379 OA
ATOM     34  H   UNL     1      -5.858  -0.032  -3.295  0.00  0.00    +0.211 HD
ENDBRANCH  32  33
ENDBRANCH   3  32
TORSDOF 10
