REMARK  Name = 9952884
REMARK  4 active torsions:
REMARK  status: ('A' for Active; 'I' for Inactive)
REMARK    1  A    between atoms: C_7  and  N_22
REMARK    2  A    between atoms: C_8  and  O_26
REMARK    3  A    between atoms: C_18  and  C_29
REMARK    4  A    between atoms: C_29  and  O_30
REMARK                            x       y       z     vdW  Elec       q    Type
REMARK                         _______ _______ _______ _____ _____    ______ ____
ROOT
ATOM      1  S   UNL     1      -2.610  -3.400  -0.775  0.00  0.00    -0.050 S 
ATOM      2  O   UNL     1      -3.392   2.980  -0.021  0.00  0.00    -0.290 OA
ATOM      3  N   UNL     1       2.479   0.697  -0.002  0.00  0.00    -0.283 N 
ATOM      4  N   UNL     1       0.260  -0.073  -0.008  0.00  0.00    -0.375 NA
ATOM      5  N   UNL     1      -2.040  -0.888  -0.014  0.00  0.00    -0.222 N 
ATOM      6  N   UNL     1      -0.483  -2.635   0.479  0.00  0.00    -0.222 NA
ATOM      7  C   UNL     1       4.539  -0.435   0.311  0.00  0.00    -0.012 C 
ATOM      8  C   UNL     1       4.806   0.945  -0.288  0.00  0.00    +0.117 C 
ATOM      9  C   UNL     1       3.046  -0.652   0.012  0.00  0.00    +0.074 C 
ATOM     10  C   UNL     1       3.517   1.729  -0.028  0.00  0.00    +0.120 C 
ATOM     11  C   UNL     1       1.126   0.966  -0.013  0.00  0.00    +0.184 C 
ATOM     12  C   UNL     1       0.744   2.291  -0.026  0.00  0.00    +0.044 C 
ATOM     13  C   UNL     1      -1.077   0.187  -0.025  0.00  0.00    +0.182 C 
ATOM     14  C   UNL     1      -1.534   1.516  -0.025  0.00  0.00    +0.151 C 
ATOM     15  C   UNL     1      -0.614   2.569  -0.029  0.00  0.00    -0.006 C 
ATOM     16  C   UNL     1      -2.983   1.826  -0.004  0.00  0.00    +0.192 C 
ATOM     17  C   UNL     1      -3.391  -0.555   0.038  0.00  0.00    +0.083 C 
ATOM     18  C   UNL     1      -3.913   0.676   0.045  0.00  0.00    +0.126 C 
ATOM     19  C   UNL     1      -1.618  -2.206  -0.036  0.00  0.00    +0.172 C 
ATOM     20  C   UNL     1      -1.438  -4.589  -0.384  0.00  0.00    +0.059 C 
ATOM     21  C   UNL     1      -0.383  -3.998   0.279  0.00  0.00    +0.108 C 
ENDROOT
BRANCH   7  22
ATOM     22  N   UNL     1       4.792  -0.438   1.752  0.00  0.00    +0.386 N 
ATOM     23  C   UNL     1       6.207  -0.243   2.027  0.00  0.00    -0.105 C 
ATOM     24  H   UNL     1       4.496  -1.333   2.142  0.00  0.00    -0.084 HD
ATOM     25  H   UNL     1       4.267   0.325   2.179  0.00  0.00    -0.084 HD
ENDBRANCH   7  22
BRANCH   8  26
ATOM     26  O   UNL     1       4.998   0.830  -1.697  0.00  0.00    -0.354 OA
ATOM     27  C   UNL     1       6.184   0.110  -1.999  0.00  0.00    +0.174 C 
ENDBRANCH   8  26
BRANCH  18  29
ATOM     28  O   UNL     1      -6.156   0.013  -0.384  0.00  0.00    -0.245 OA
ATOM     29  C   UNL     1      -5.370   0.816   0.088  0.00  0.00    +0.342 C 
BRANCH  29  30
ATOM     30  O   UNL     1      -5.697   1.960   0.726  0.00  0.00    -0.477 OA
ATOM     31  H   UNL     1      -5.024   2.520   1.058  0.00  0.00    +0.295 HD
ENDBRANCH  29  30
ENDBRANCH  18  29
TORSDOF 4
