REMARK  Name = 56260
REMARK  3 active torsions:
REMARK  status: ('A' for Active; 'I' for Inactive)
REMARK    1  A    between atoms: N_2  and  C_8
REMARK    2  A    between atoms: C_3  and  C_14
REMARK    3  A    between atoms: C_14  and  C_15
REMARK                            x       y       z     vdW  Elec       q    Type
REMARK                         _______ _______ _______ _____ _____    ______ ____
ROOT
ATOM      1  O   UNL     1       0.665  -0.682   1.775  0.00  0.00    -0.275 OA
ATOM      2  N   UNL     1      -0.533  -0.770  -0.212  0.00  0.00    -0.298 N 
ATOM      3  C   UNL     1       0.607  -0.916   0.571  0.00  0.00    +0.227 C 
ATOM      4  H   UNL     1      -0.477  -0.984  -1.172  0.00  0.00    +0.150 HD
ENDROOT
BRANCH   2   8
ATOM      5  O   UNL     1      -2.770  -2.156  -0.911  0.00  0.00    -0.273 OA
ATOM      6  O   UNL     1      -5.528   1.428  -0.043  0.00  0.00    -0.275 OA
ATOM      7  N   UNL     1      -4.109  -0.334  -0.486  0.00  0.00    -0.254 N 
ATOM      8  C   UNL     1      -1.792  -0.321   0.321  0.00  0.00    +0.149 C 
ATOM      9  C   UNL     1      -1.927   1.190   0.215  0.00  0.00    +0.039 C 
ATOM     10  C   UNL     1      -3.279   1.614   0.758  0.00  0.00    +0.088 C 
ATOM     11  C   UNL     1      -2.900  -1.027  -0.439  0.00  0.00    +0.246 C 
ATOM     12  C   UNL     1      -4.408   0.922   0.032  0.00  0.00    +0.228 C 
ATOM     13  H   UNL     1      -4.848  -0.794  -0.946  0.00  0.00    +0.158 HD
ENDBRANCH   2   8
BRANCH   3  14
ATOM     14  C   UNL     1       1.787  -1.408  -0.245  0.00  0.00    +0.111 C 
BRANCH  14  15
ATOM     15  C   UNL     1       2.957  -0.461  -0.233  0.00  0.00    -0.013 C 
ATOM     16  C   UNL     1       3.046   0.527  -1.204  0.00  0.00    -0.004 C 
ATOM     17  C   UNL     1       3.930  -0.588   0.748  0.00  0.00    -0.004 C 
ATOM     18  C   UNL     1       4.130   1.405  -1.193  0.00  0.00    -0.000 C 
ATOM     19  C   UNL     1       5.014   0.290   0.759  0.00  0.00    -0.000 C 
ATOM     20  C   UNL     1       5.114   1.286  -0.212  0.00  0.00    -0.000 C 
ENDBRANCH  14  15
ENDBRANCH   3  14
TORSDOF 3
