REMARK  Name = 2202
REMARK  2 active torsions:
REMARK  status: ('A' for Active; 'I' for Inactive)
REMARK    1  A    between atoms: C_10  and  O_16
REMARK    2  A    between atoms: C_11  and  O_18
REMARK                            x       y       z     vdW  Elec       q    Type
REMARK                         _______ _______ _______ _____ _____    ______ ____
ROOT
ATOM      1  O   UNL     1       0.000  -2.183   0.001  0.00  0.00    -0.286 OA
ATOM      2  C   UNL     1       0.000   1.988   0.002  0.00  0.00    +0.053 C 
ATOM      3  C   UNL     1      -1.273   1.186   0.001  0.00  0.00    -0.012 C 
ATOM      4  C   UNL     1       1.273   1.186   0.000  0.00  0.00    -0.012 C 
ATOM      5  C   UNL     1      -1.277  -0.213   0.000  0.00  0.00    +0.069 C 
ATOM      6  C   UNL     1       1.277  -0.213   0.001  0.00  0.00    +0.069 C 
ATOM      7  C   UNL     1       0.000  -0.958   0.001  0.00  0.00    +0.201 C 
ATOM      8  C   UNL     1      -2.500   1.867   0.000  0.00  0.00    -0.004 C 
ATOM      9  C   UNL     1       2.500   1.867  -0.001  0.00  0.00    -0.004 C 
ATOM     10  C   UNL     1      -2.487  -0.919   0.000  0.00  0.00    +0.136 C 
ATOM     11  C   UNL     1       2.487  -0.919   0.000  0.00  0.00    +0.136 C 
ATOM     12  C   UNL     1      -3.706   1.164  -0.001  0.00  0.00    +0.003 C 
ATOM     13  C   UNL     1       3.706   1.164  -0.001  0.00  0.00    +0.003 C 
ATOM     14  C   UNL     1      -3.698  -0.228  -0.002  0.00  0.00    +0.037 C 
ATOM     15  C   UNL     1       3.698  -0.228  -0.001  0.00  0.00    +0.037 C 
ENDROOT
BRANCH  10  16
ATOM     16  O   UNL     1      -2.553  -2.281   0.000  0.00  0.00    -0.505 OA
ATOM     17  H   UNL     1      -1.766  -2.788   0.000  0.00  0.00    +0.292 HD
ENDBRANCH  10  16
BRANCH  11  18
ATOM     18  O   UNL     1       2.553  -2.281   0.000  0.00  0.00    -0.505 OA
ATOM     19  H   UNL     1       1.765  -2.788   0.001  0.00  0.00    +0.292 HD
ENDBRANCH  11  18
TORSDOF 2
