REMARK  Name = 24780598
REMARK  5 active torsions:
REMARK  status: ('A' for Active; 'I' for Inactive)
REMARK    1  A    between atoms: C_2  and  S_22
REMARK    2  A    between atoms: C_3  and  O_33
REMARK    3  A    between atoms: C_5  and  N_9
REMARK    4  A    between atoms: N_10  and  C_15
REMARK    5  A    between atoms: S_22  and  C_26
REMARK                            x       y       z     vdW  Elec       q    Type
REMARK                         _______ _______ _______ _____ _____    ______ ____
ROOT
ATOM      1 CL   UNL     1      -4.145   3.197  -0.437  0.00  0.00    -0.081 Cl
ATOM      2  C   UNL     1      -2.622   1.110   0.462  0.00  0.00    +0.151 C 
ATOM      3  C   UNL     1      -1.405   0.447   0.624  0.00  0.00    +0.165 C 
ATOM      4  C   UNL     1      -2.666   2.334  -0.205  0.00  0.00    +0.078 C 
ATOM      5  C   UNL     1      -0.233   1.009   0.118  0.00  0.00    +0.087 C 
ATOM      6  C   UNL     1      -1.494   2.896  -0.711  0.00  0.00    +0.014 C 
ATOM      7  C   UNL     1      -0.277   2.233  -0.549  0.00  0.00    +0.019 C 
ENDROOT
BRANCH   5   9
ATOM      8  O   UNL     1       2.501   1.819  -0.773  0.00  0.00    -0.252 OA
ATOM      9  N   UNL     1       0.995   0.361   0.274  0.00  0.00    -0.266 N 
ATOM     10  N   UNL     1       3.239  -0.174   0.202  0.00  0.00    -0.268 N 
ATOM     11  C   UNL     1       2.275   0.778  -0.164  0.00  0.00    +0.308 C 
ATOM     12  H   UNL     1       0.967  -0.499   0.752  0.00  0.00    +0.157 HD
ATOM     13  H   UNL     1       2.905  -0.962   0.690  0.00  0.00    +0.156 HD
BRANCH  10  15
ATOM     14  F   UNL     1       7.634  -2.119   0.547  0.00  0.00    -0.204 F 
ATOM     15  C   UNL     1       4.632  -0.142  -0.044  0.00  0.00    +0.050 C 
ATOM     16  C   UNL     1       5.460  -1.178   0.389  0.00  0.00    +0.019 C 
ATOM     17  C   UNL     1       5.175   0.945  -0.730  0.00  0.00    +0.015 C 
ATOM     18  C   UNL     1       6.831  -1.127   0.136  0.00  0.00    +0.137 C 
ATOM     19  C   UNL     1       4.901  -2.352   1.126  0.00  0.00    +0.035 C 
ATOM     20  C   UNL     1       6.546   0.995  -0.983  0.00  0.00    +0.004 C 
ATOM     21  C   UNL     1       7.374  -0.041  -0.550  0.00  0.00    +0.029 C 
ENDBRANCH  10  15
ENDBRANCH   5   9
BRANCH   2  22
ATOM     22  S   UNL     1      -4.090   0.371   1.109  0.00  0.00    +0.009 S 
ATOM     23  O   UNL     1      -3.686  -0.508   2.190  0.00  0.00    -0.169 OA
ATOM     24  O   UNL     1      -5.061   1.424   1.339  0.00  0.00    -0.169 OA
BRANCH  22  26
ATOM     25  N   UNL     1      -6.500  -2.168  -0.922  0.00  0.00    +0.385 N 
ATOM     26  C   UNL     1      -4.689  -0.624  -0.230  0.00  0.00    +0.113 C 
ATOM     27  C   UNL     1      -3.633  -1.644  -0.652  0.00  0.00    +0.020 C 
ATOM     28  C   UNL     1      -5.998  -1.313   0.156  0.00  0.00    -0.057 C 
ATOM     29  C   UNL     1      -4.190  -2.582  -1.720  0.00  0.00    -0.022 C 
ATOM     30  C   UNL     1      -5.518  -3.195  -1.277  0.00  0.00    -0.082 C 
ATOM     31  H   UNL     1      -6.693  -1.592  -1.742  0.00  0.00    -0.084 HD
ATOM     32  H   UNL     1      -7.352  -2.629  -0.603  0.00  0.00    -0.084 HD
ENDBRANCH  22  26
ENDBRANCH   2  22
BRANCH   3  33
ATOM     33  O   UNL     1      -1.354  -0.752   1.274  0.00  0.00    -0.503 OA
ATOM     34  H   UNL     1      -2.139  -1.134   1.616  0.00  0.00    +0.292 HD
ENDBRANCH   3  33
TORSDOF 5
