REMARK  Name = 457
REMARK  1 active torsions:
REMARK  status: ('A' for Active; 'I' for Inactive)
REMARK    1  A    between atoms: C_2  and  C_10
REMARK                            x       y       z     vdW  Elec       q    Type
REMARK                         _______ _______ _______ _____ _____    ______ ____
ROOT
ATOM      1  N   UNL     1      -1.679   0.530  -0.001  0.00  0.00    -0.301 N 
ATOM      2  C   UNL     1       0.590  -0.131   0.003  0.00  0.00    +0.051 C 
ATOM      3  C   UNL     1      -0.380   0.861   0.000  0.00  0.00    +0.122 C 
ATOM      4  C   UNL     1      -2.094  -0.744  -0.001  0.00  0.00    +0.062 C 
ATOM      5  C   UNL     1       0.187  -1.463   0.003  0.00  0.00    +0.003 C 
ATOM      6  C   UNL     1      -1.168  -1.778   0.002  0.00  0.00    +0.016 C 
ATOM      7  C   UNL     1      -2.678   1.595  -0.003  0.00  0.00    +0.113 C 
ENDROOT
BRANCH   2  10
ATOM      8  O   UNL     1       2.886  -0.657  -0.010  0.00  0.00    -0.271 OA
ATOM      9  N   UNL     1       2.336   1.569   0.004  0.00  0.00    -0.326 N 
ATOM     10  C   UNL     1       2.001   0.217   0.004  0.00  0.00    +0.240 C 
ATOM     11  H   UNL     1       3.282   1.842   0.005  0.00  0.00    +0.145 HD
ATOM     12  H   UNL     1       1.626   2.252   0.002  0.00  0.00    +0.145 HD
ENDBRANCH   2  10
TORSDOF 1
