REMARK  Name = 10429242
REMARK  7 active torsions:
REMARK  status: ('A' for Active; 'I' for Inactive)
REMARK    1  A    between atoms: C_1  and  C_19
REMARK    2  A    between atoms: C_4  and  O_7
REMARK    3  A    between atoms: O_7  and  C_8
REMARK    4  A    between atoms: C_8  and  C_10
REMARK    5  A    between atoms: C_10  and  C_13
REMARK    6  A    between atoms: C_12  and  C_17
REMARK    7  A    between atoms: C_19  and  C_24
REMARK                            x       y       z     vdW  Elec       q    Type
REMARK                         _______ _______ _______ _____ _____    ______ ____
ROOT
ATOM      1  C   UNL     1       2.772   0.188  -0.495  0.00  0.00    -0.021 C 
ATOM      2  C   UNL     1       1.820   0.966   0.146  0.00  0.00    -0.001 C 
ATOM      3  C   UNL     1       2.516  -1.135  -0.821  0.00  0.00    -0.001 C 
ATOM      4  C   UNL     1       0.313  -0.922   0.149  0.00  0.00    +0.139 C 
ATOM      5  C   UNL     1       0.584   0.408   0.470  0.00  0.00    +0.037 C 
ATOM      6  C   UNL     1       1.279  -1.694  -0.497  0.00  0.00    +0.037 C 
ENDROOT
BRANCH   4   7
ATOM      7  O   UNL     1      -0.893  -1.468   0.465  0.00  0.00    -0.467 OA
BRANCH   7   8
ATOM      8  C   UNL     1      -2.016  -0.589   0.494  0.00  0.00    +0.275 C 
BRANCH   8  10
ATOM      9  O   UNL     1      -3.253  -2.541  -0.159  0.00  0.00    -0.286 OA
ATOM     10  C   UNL     1      -3.279  -1.349   0.136  0.00  0.00    +0.234 C 
BRANCH  10  13
ATOM     11  N   UNL     1      -4.484   0.669   0.480  0.00  0.00    -0.241 NA
ATOM     12  C   UNL     1      -6.881   0.773   0.187  0.00  0.00    -0.003 C 
ATOM     13  C   UNL     1      -4.580  -0.620   0.145  0.00  0.00    +0.120 C 
ATOM     14  C   UNL     1      -6.905  -0.575  -0.153  0.00  0.00    -0.001 C 
ATOM     15  C   UNL     1      -5.720  -1.302  -0.177  0.00  0.00    +0.022 C 
ATOM     16  C   UNL     1      -5.656   1.343   0.492  0.00  0.00    +0.095 C 
BRANCH  12  17
ATOM     17  C   UNL     1      -8.132   1.577   0.221  0.00  0.00    +0.028 C 
ATOM     18  C   UNL     1      -8.443   2.232  -1.125  0.00  0.00    +0.005 C 
ENDBRANCH  12  17
ENDBRANCH  10  13
ENDBRANCH   8  10
ENDBRANCH   7   8
ENDBRANCH   4   7
BRANCH   1  19
ATOM     19  C   UNL     1       4.107   0.792  -0.846  0.00  0.00    +0.047 C 
BRANCH  19  24
ATOM     20  S   UNL     1       5.860  -1.046   0.216  0.00  0.00    -0.048 S 
ATOM     21  O   UNL     1       6.135   2.801   0.085  0.00  0.00    -0.274 OA
ATOM     22  O   UNL     1       8.480  -1.177   0.036  0.00  0.00    -0.263 OA
ATOM     23  N   UNL     1       7.482   0.921   0.060  0.00  0.00    -0.246 N 
ATOM     24  C   UNL     1       5.121   0.615   0.271  0.00  0.00    +0.137 C 
ATOM     25  C   UNL     1       6.273   1.583   0.129  0.00  0.00    +0.239 C 
ATOM     26  C   UNL     1       7.501  -0.449   0.091  0.00  0.00    +0.279 C 
ATOM     27  H   UNL     1       8.323   1.428  -0.009  0.00  0.00    +0.158 HD
ENDBRANCH  19  24
ENDBRANCH   1  19
TORSDOF 7
