REMARK  Name = 16041426
REMARK  5 active torsions:
REMARK  status: ('A' for Active; 'I' for Inactive)
REMARK    1  A    between atoms: C_1  and  C_5
REMARK    2  A    between atoms: C_1  and  O_15
REMARK    3  A    between atoms: C_7  and  C_9
REMARK    4  A    between atoms: O_15  and  C_19
REMARK    5  A    between atoms: C_20  and  C_23
REMARK                            x       y       z     vdW  Elec       q    Type
REMARK                         _______ _______ _______ _____ _____    ______ ____
ROOT
ATOM      1  C   UNL     1      -0.257  -2.706  -0.464  0.00  0.00    +0.212 C 
ATOM      2  C   UNL     1      -0.550  -3.834  -1.467  0.00  0.00    +0.054 C 
ENDROOT
BRANCH   1   5
ATOM      3  O   UNL     1      -3.173  -1.562   1.250  0.00  0.00    -0.354 OA
ATOM      4  N   UNL     1      -2.100  -2.431   1.097  0.00  0.00    -0.078 NA
ATOM      5  C   UNL     1      -1.463  -2.005   0.003  0.00  0.00    +0.140 C 
ATOM      6  C   UNL     1      -2.082  -0.880  -0.571  0.00  0.00    +0.062 C 
ATOM      7  C   UNL     1      -3.145  -0.648   0.251  0.00  0.00    +0.177 C 
BRANCH   7   9
ATOM      8 CL   UNL     1      -5.374   3.482  -1.891  0.00  0.00    -0.082 Cl
ATOM      9  C   UNL     1      -4.206   0.329   0.277  0.00  0.00    +0.038 C 
ATOM     10  C   UNL     1      -4.270   1.317  -0.706  0.00  0.00    +0.015 C 
ATOM     11  C   UNL     1      -5.167   0.288   1.287  0.00  0.00    +0.003 C 
ATOM     12  C   UNL     1      -5.295   2.262  -0.680  0.00  0.00    +0.058 C 
ATOM     13  C   UNL     1      -6.192   1.233   1.314  0.00  0.00    +0.001 C 
ATOM     14  C   UNL     1      -6.256   2.220   0.330  0.00  0.00    +0.011 C 
ENDBRANCH   7   9
ENDBRANCH   1   5
BRANCH   1  15
ATOM     15  O   UNL     1       0.696  -1.842  -1.117  0.00  0.00    -0.444 OA
BRANCH  15  19
ATOM     16  N   UNL     1       2.613  -0.485  -0.783  0.00  0.00    -0.264 N 
ATOM     17  N   UNL     1       1.766  -1.522   0.948  0.00  0.00    -0.092 NA
ATOM     18  N   UNL     1       2.864  -0.797   1.368  0.00  0.00    -0.126 NA
ATOM     19  C   UNL     1       1.661  -1.306  -0.321  0.00  0.00    +0.320 A 
ATOM     20  C   UNL     1       3.357  -0.183   0.317  0.00  0.00    +0.169 A 
ATOM     21  C   UNL     1       2.810  -0.021  -2.136  0.00  0.00    +0.137 C 
BRANCH  20  23
ATOM     22  N   UNL     1       6.750   2.356   0.265  0.00  0.00    -0.242 NA
ATOM     23  C   UNL     1       4.512   0.681   0.300  0.00  0.00    +0.039 C 
ATOM     24  C   UNL     1       5.777   0.151   0.069  0.00  0.00    +0.024 C 
ATOM     25  C   UNL     1       4.365   2.047   0.513  0.00  0.00    +0.024 C 
ATOM     26  C   UNL     1       6.854   1.023   0.062  0.00  0.00    +0.099 C 
ATOM     27  C   UNL     1       5.505   2.834   0.486  0.00  0.00    +0.099 C 
ENDBRANCH  20  23
ENDBRANCH  15  19
ENDBRANCH   1  15
TORSDOF 5
