REMARK  Name = 5282440
REMARK  5 active torsions:
REMARK  status: ('A' for Active; 'I' for Inactive)
REMARK    1  A    between atoms: C_1  and  C_13
REMARK    2  A    between atoms: C_4  and  C_7
REMARK    3  A    between atoms: C_8  and  C_10
REMARK    4  A    between atoms: C_10  and  O_11
REMARK    5  A    between atoms: C_13  and  N_14
REMARK                            x       y       z     vdW  Elec       q    Type
REMARK                         _______ _______ _______ _____ _____    ______ ____
ROOT
ATOM      1  C   UNL     1       1.243   0.869   0.660  0.00  0.00    -0.002 C 
ATOM      2  C   UNL     1       0.439  -0.003   1.395  0.00  0.00    -0.003 C 
ATOM      3  C   UNL     1       0.691   1.619  -0.378  0.00  0.00    -0.003 C 
ATOM      4  C   UNL     1      -1.469   0.626   0.052  0.00  0.00    +0.000 C 
ATOM      5  C   UNL     1      -0.917  -0.124   1.090  0.00  0.00    -0.000 C 
ATOM      6  C   UNL     1      -0.664   1.497  -0.683  0.00  0.00    -0.000 C 
ENDROOT
BRANCH   4   7
ATOM      7  C   UNL     1      -2.882   0.499  -0.266  0.00  0.00    +0.007 C 
ATOM      8  C   UNL     1      -3.613  -0.550   0.102  0.00  0.00    +0.082 C 
BRANCH   8  10
ATOM      9  O   UNL     1      -5.642   0.264  -0.915  0.00  0.00    -0.245 OA
ATOM     10  C   UNL     1      -5.038  -0.589  -0.287  0.00  0.00    +0.338 C 
BRANCH  10  11
ATOM     11  O   UNL     1      -5.580  -1.742   0.171  0.00  0.00    -0.477 OA
ATOM     12  H   UNL     1      -5.052  -2.352   0.647  0.00  0.00    +0.295 HD
ENDBRANCH  10  11
ENDBRANCH   8  10
ENDBRANCH   4   7
BRANCH   1  13
ATOM     13  C   UNL     1       2.693   0.998   0.985  0.00  0.00    +0.124 C 
BRANCH  13  14
ATOM     14  N   UNL     1       3.510   0.044   0.228  0.00  0.00    -0.264 N 
ATOM     15  N   UNL     1       4.737  -0.774  -1.401  0.00  0.00    -0.225 NA
ATOM     16  C   UNL     1       3.832  -1.206   0.631  0.00  0.00    +0.088 C 
ATOM     17  C   UNL     1       4.062   0.274  -0.985  0.00  0.00    +0.168 C 
ATOM     18  C   UNL     1       4.598  -1.701  -0.399  0.00  0.00    +0.117 C 
ENDBRANCH  13  14
ENDBRANCH   1  13
TORSDOF 5
