REMARK  Name = 24812808
REMARK  0 active torsions:
REMARK  status: ('A' for Active; 'I' for Inactive)
REMARK                            x       y       z     vdW  Elec       q    Type
REMARK                         _______ _______ _______ _____ _____    ______ ____
ROOT
ATOM      1  N   UNL     1      -2.074   0.102  -0.012  0.00  0.00    -0.267 N 
ATOM      2  N   UNL     1       0.014   1.070  -0.079  0.00  0.00    -0.238 N 
ATOM      3  N   UNL     1      -0.164  -1.258  -0.192  0.00  0.00    -0.313 NA
ATOM      4  N   UNL     1       2.082  -0.011  -0.217  0.00  0.00    -0.313 NA
ATOM      5  N   UNL     1       1.940   2.332  -0.058  0.00  0.00    -0.320 N 
ATOM      6  C   UNL     1       1.316  -1.280  -0.295  0.00  0.00    +0.121 C 
ATOM      7  C   UNL     1      -0.722  -0.089  -0.101  0.00  0.00    +0.256 C 
ATOM      8  C   UNL     1       1.385   1.082  -0.125  0.00  0.00    +0.249 C 
ATOM      9  C   UNL     1       1.838  -2.198   0.805  0.00  0.00    +0.143 C 
ATOM     10  C   UNL     1      -2.993  -0.832  -0.627  0.00  0.00    +0.116 C 
ATOM     11  C   UNL     1      -2.623   1.082   0.900  0.00  0.00    +0.116 C 
ATOM     12  H   UNL     1      -0.463   1.930  -0.027  0.00  0.00    +0.159 HD
ATOM     13  H   UNL     1       1.361   3.124   0.011  0.00  0.00    +0.146 HD
ATOM     14  H   UNL     1       2.919   2.437  -0.078  0.00  0.00    +0.146 HD
ENDROOT
TORSDOF 0
