REMARK  Name = 9889200
REMARK  5 active torsions:
REMARK  status: ('A' for Active; 'I' for Inactive)
REMARK    1  A    between atoms: C_1  and  C_21
REMARK    2  A    between atoms: C_4  and  O_7
REMARK    3  A    between atoms: O_7  and  C_8
REMARK    4  A    between atoms: C_8  and  C_12
REMARK    5  A    between atoms: C_21  and  C_26
REMARK                            x       y       z     vdW  Elec       q    Type
REMARK                         _______ _______ _______ _____ _____    ______ ____
ROOT
ATOM      1  C   UNL     1      -3.233   1.063  -0.036  0.00  0.00    -0.021 C 
ATOM      2  C   UNL     1      -2.564   1.546   1.088  0.00  0.00    -0.001 C 
ATOM      3  C   UNL     1      -2.526   0.396  -1.036  0.00  0.00    -0.001 C 
ATOM      4  C   UNL     1      -0.492   0.698   0.211  0.00  0.00    +0.139 C 
ATOM      5  C   UNL     1      -1.186   1.363   1.212  0.00  0.00    +0.037 C 
ATOM      6  C   UNL     1      -1.149   0.212  -0.912  0.00  0.00    +0.037 C 
ENDROOT
BRANCH   4   7
ATOM      7  O   UNL     1       0.865   0.516   0.334  0.00  0.00    -0.466 OA
BRANCH   7   8
ATOM      8  C   UNL     1       1.522  -0.166  -0.712  0.00  0.00    +0.279 C 
BRANCH   8  12
ATOM      9  O   UNL     1       5.282  -2.471   1.262  0.00  0.00    -0.274 OA
ATOM     10  N   UNL     1       3.446  -1.371   0.314  0.00  0.00    -0.232 N 
ATOM     11  N   UNL     1       3.763   0.699  -0.813  0.00  0.00    -0.391 NA
ATOM     12  C   UNL     1       2.996  -0.262  -0.399  0.00  0.00    +0.210 C 
ATOM     13  C   UNL     1       5.691  -0.442   0.176  0.00  0.00    +0.151 C 
ATOM     14  C   UNL     1       5.133   0.626  -0.531  0.00  0.00    +0.123 C 
ATOM     15  C   UNL     1       4.802  -1.528   0.640  0.00  0.00    +0.241 C 
ATOM     16  C   UNL     1       2.515  -2.413   0.746  0.00  0.00    +0.122 C 
ATOM     17  C   UNL     1       7.064  -0.485   0.441  0.00  0.00    -0.010 C 
ATOM     18  C   UNL     1       5.971   1.656  -0.972  0.00  0.00    +0.028 C 
ATOM     19  C   UNL     1       7.887   0.548  -0.005  0.00  0.00    -0.004 C 
ATOM     20  C   UNL     1       7.341   1.618  -0.711  0.00  0.00    +0.002 C 
ENDBRANCH   8  12
ENDBRANCH   7   8
ENDBRANCH   4   7
BRANCH   1  21
ATOM     21  C   UNL     1      -4.705   1.260  -0.169  0.00  0.00    +0.047 C 
BRANCH  21  26
ATOM     22  S   UNL     1      -5.590  -1.299  -0.710  0.00  0.00    -0.048 S 
ATOM     23  O   UNL     1      -7.248   1.457   1.423  0.00  0.00    -0.274 OA
ATOM     24  O   UNL     1      -7.990  -2.162  -1.350  0.00  0.00    -0.263 OA
ATOM     25  N   UNL     1      -7.821  -0.331   0.072  0.00  0.00    -0.246 N 
ATOM     26  C   UNL     1      -5.500   0.107   0.440  0.00  0.00    +0.137 C 
ATOM     27  C   UNL     1      -6.933   0.507   0.714  0.00  0.00    +0.239 C 
ATOM     28  C   UNL     1      -7.340  -1.342  -0.718  0.00  0.00    +0.279 C 
ATOM     29  H   UNL     1      -8.791  -0.204   0.182  0.00  0.00    +0.158 HD
ENDBRANCH  21  26
ENDBRANCH   1  21
TORSDOF 5
