REMARK  Name = 73442840
REMARK  6 active torsions:
REMARK  status: ('A' for Active; 'I' for Inactive)
REMARK    1  A    between atoms: C_4  and  C_27
REMARK    2  A    between atoms: C_14  and  O_17
REMARK    3  A    between atoms: C_15  and  O_22
REMARK    4  A    between atoms: O_17  and  C_18
REMARK    5  A    between atoms: O_22  and  C_23
REMARK    6  A    between atoms: C_27  and  C_28
REMARK                            x       y       z     vdW  Elec       q    Type
REMARK                         _______ _______ _______ _____ _____    ______ ____
ROOT
ATOM      1  O   UNL     1      -2.791   2.787  -0.140  0.00  0.00    -0.296 OA
ATOM      2  N   UNL     1      -1.128  -0.920  -0.029  0.00  0.00    +0.392 N 
ATOM      3  C   UNL     1      -0.316   0.245  -0.468  0.00  0.00    -0.027 C 
ATOM      4  C   UNL     1      -3.165   0.442   0.320  0.00  0.00    +0.037 C 
ATOM      5  C   UNL     1      -2.538  -0.750  -0.412  0.00  0.00    -0.069 C 
ATOM      6  C   UNL     1      -0.821   1.494   0.279  0.00  0.00    +0.048 C 
ATOM      7  C   UNL     1      -0.593  -2.167  -0.583  0.00  0.00    -0.072 C 
ATOM      8  C   UNL     1       1.186   0.030  -0.280  0.00  0.00    -0.042 C 
ATOM      9  C   UNL     1      -2.311   1.678   0.088  0.00  0.00    +0.146 C 
ATOM     10  C   UNL     1       0.771  -2.446   0.043  0.00  0.00    +0.003 C 
ATOM     11  C   UNL     1       1.698  -1.265  -0.063  0.00  0.00    -0.027 C 
ATOM     12  C   UNL     1       2.096   1.093  -0.405  0.00  0.00    +0.033 C 
ATOM     13  C   UNL     1       3.078  -1.461   0.096  0.00  0.00    +0.035 C 
ATOM     14  C   UNL     1       3.470   0.887  -0.259  0.00  0.00    +0.170 C 
ATOM     15  C   UNL     1       3.960  -0.388  -0.001  0.00  0.00    +0.170 C 
ATOM     16  H   UNL     1      -1.077  -0.972   0.989  0.00  0.00    -0.079 HD
ENDROOT
BRANCH  14  17
ATOM     17  O   UNL     1       4.321   1.945  -0.375  0.00  0.00    -0.491 OA
ATOM     18  C   UNL     1       4.627   2.663   0.818  0.00  0.00    +0.277 C 
ENDBRANCH  14  17
BRANCH  15  19
ATOM     19  O   UNL     1       5.296  -0.602   0.149  0.00  0.00    -0.491 OA
ATOM     20  C   UNL     1       5.714  -1.941   0.412  0.00  0.00    +0.277 C 
ENDBRANCH  15  19
BRANCH   4  21
ATOM     21  C   UNL     1      -4.605   0.658  -0.133  0.00  0.00    +0.005 C 
BRANCH  21  22
ATOM     22  C   UNL     1      -5.486  -0.594   0.010  0.00  0.00    +0.000 C 
ATOM     23  C   UNL     1      -6.890  -0.301  -0.523  0.00  0.00    +0.000 C 
ATOM     24  C   UNL     1      -5.574  -1.084   1.456  0.00  0.00    +0.000 C 
ENDBRANCH  21  22
ENDBRANCH   4  21
TORSDOF 4
