REMARK  Name = 53354764
REMARK  8 active torsions:
REMARK  status: ('A' for Active; 'I' for Inactive)
REMARK    1  A    between atoms: C_1  and  C_3
REMARK    2  A    between atoms: C_1  and  O_18
REMARK    3  A    between atoms: N_2  and  C_9
REMARK    4  A    between atoms: C_9  and  C_11
REMARK    5  A    between atoms: C_11  and  O_16
REMARK    6  A    between atoms: O_18  and  C_21
REMARK    7  A    between atoms: C_23  and  O_28
REMARK    8  A    between atoms: O_28  and  C_30
REMARK                            x       y       z     vdW  Elec       q    Type
REMARK                         _______ _______ _______ _____ _____    ______ ____
ROOT
ATOM      1  C   UNL     1      -1.350  -2.979  -0.118  0.00  0.00    +0.207 C 
ENDROOT
BRANCH   1   3
ATOM      2  N   UNL     1       2.731  -1.602  -0.452  0.00  0.00    +0.388 N 
ATOM      3  C   UNL     1       0.169  -3.015  -0.257  0.00  0.00    +0.040 C 
ATOM      4  C   UNL     1       2.149  -2.254  -1.634  0.00  0.00    -0.077 C 
ATOM      5  C   UNL     1       2.368  -2.316   0.779  0.00  0.00    -0.077 C 
ATOM      6  C   UNL     1       0.849  -2.373   0.957  0.00  0.00    -0.019 C 
ATOM      7  C   UNL     1       0.623  -2.308  -1.538  0.00  0.00    -0.019 C 
ATOM      8  H   UNL     1       2.348  -0.659  -0.393  0.00  0.00    -0.080 HD
BRANCH   2   9
ATOM      9  C   UNL     1       4.185  -1.512  -0.582  0.00  0.00    -0.050 C 
BRANCH   9  11
ATOM     10  O   UNL     1       5.724   2.358   0.343  0.00  0.00    -0.354 OA
ATOM     11  C   UNL     1       4.743  -0.362   0.257  0.00  0.00    +0.074 C 
ATOM     12  C   UNL     1       6.153   0.031  -0.208  0.00  0.00    +0.057 C 
ATOM     13  C   UNL     1       3.815   0.859   0.198  0.00  0.00    +0.057 C 
ATOM     14  C   UNL     1       6.644   1.282   0.515  0.00  0.00    +0.144 C 
ATOM     15  C   UNL     1       4.442   2.064   0.896  0.00  0.00    +0.144 C 
BRANCH  11  16
ATOM     16  O   UNL     1       4.807  -0.802   1.617  0.00  0.00    -0.389 OA
ATOM     17  H   UNL     1       5.389  -1.575   1.679  0.00  0.00    +0.210 HD
ENDBRANCH  11  16
ENDBRANCH   9  11
ENDBRANCH   2   9
ENDBRANCH   1   3
BRANCH   1  18
ATOM     18  O   UNL     1      -1.759  -1.628  -0.006  0.00  0.00    -0.458 OA
BRANCH  18  21
ATOM     19  O   UNL     1      -5.208  -1.891   0.298  0.00  0.00    -0.350 OA
ATOM     20  N   UNL     1      -3.939  -2.438   0.151  0.00  0.00    -0.039 NA
ATOM     21  C   UNL     1      -3.105  -1.394   0.130  0.00  0.00    +0.267 A 
ATOM     22  C   UNL     1      -3.781  -0.165   0.260  0.00  0.00    +0.127 A 
ATOM     23  C   UNL     1      -3.447   1.196   0.304  0.00  0.00    +0.146 C 
ATOM     24  C   UNL     1      -5.111  -0.535   0.363  0.00  0.00    +0.183 A 
ATOM     25  C   UNL     1      -4.484   2.128   0.451  0.00  0.00    +0.037 C 
ATOM     26  C   UNL     1      -6.165   0.362   0.509  0.00  0.00    +0.041 C 
ATOM     27  C   UNL     1      -5.817   1.716   0.551  0.00  0.00    +0.006 C 
BRANCH  23  28
ATOM     28  O   UNL     1      -2.152   1.626   0.208  0.00  0.00    -0.476 OA
BRANCH  28  30
ATOM     29  O   UNL     1       0.187   3.522  -0.215  0.00  0.00    -0.350 OA
ATOM     30  C   UNL     1      -1.840   2.490  -0.879  0.00  0.00    +0.198 C 
ATOM     31  C   UNL     1      -0.711   1.889  -1.679  0.00  0.00    +0.078 C 
ATOM     32  C   UNL     1      -1.221   3.771  -0.359  0.00  0.00    +0.185 C 
ATOM     33  C   UNL     1       0.503   2.281  -0.860  0.00  0.00    +0.146 C 
ENDBRANCH  28  30
ENDBRANCH  23  28
ENDBRANCH  18  21
ENDBRANCH   1  18
TORSDOF 8
