REMARK  Name = 56649347
REMARK  9 active torsions:
REMARK  status: ('A' for Active; 'I' for Inactive)
REMARK    1  A    between atoms: N_2  and  C_5
REMARK    2  A    between atoms: C_3  and  C_22
REMARK    3  A    between atoms: C_5  and  C_9
REMARK    4  A    between atoms: C_12  and  N_15
REMARK    5  A    between atoms: N_15  and  S_17
REMARK    6  A    between atoms: C_21  and  C_25
REMARK    7  A    between atoms: C_24  and  C_33
REMARK    8  A    between atoms: C_27  and  C_32
REMARK    9  A    between atoms: C_33  and  C_34
REMARK                            x       y       z     vdW  Elec       q    Type
REMARK                         _______ _______ _______ _____ _____    ______ ____
ROOT
ATOM      1  O   UNL     1      -0.449  -3.227  -0.829  0.00  0.00    -0.270 OA
ATOM      2  N   UNL     1       0.890  -1.825   0.454  0.00  0.00    -0.299 N 
ATOM      3  C   UNL     1      -0.302  -2.240  -0.114  0.00  0.00    +0.246 C 
ATOM      4  H   UNL     1       0.888  -1.014   1.012  0.00  0.00    +0.150 HD
ENDROOT
BRANCH   2   5
ATOM      5  C   UNL     1       2.140  -2.529   0.266  0.00  0.00    +0.095 C 
ATOM      6  C   UNL     1       2.251  -3.679   1.264  0.00  0.00    +0.026 C 
BRANCH   5   9
ATOM      7  F   UNL     1       4.961   0.612   2.720  0.00  0.00    -0.203 F 
ATOM      8  F   UNL     1       5.984  -0.356  -1.816  0.00  0.00    -0.203 F 
ATOM      9  C   UNL     1       3.322  -1.586   0.332  0.00  0.00    +0.000 C 
ATOM     10  C   UNL     1       4.127  -1.397  -0.792  0.00  0.00    +0.028 C 
ATOM     11  C   UNL     1       3.607  -0.906   1.516  0.00  0.00    +0.028 C 
ATOM     12  C   UNL     1       5.501   0.151   0.453  0.00  0.00    +0.119 C 
ATOM     13  C   UNL     1       4.697  -0.038   1.577  0.00  0.00    +0.157 C 
ATOM     14  C   UNL     1       5.216  -0.529  -0.731  0.00  0.00    +0.157 C 
BRANCH  12  15
ATOM     15  N   UNL     1       6.617   1.040   0.516  0.00  0.00    -0.214 N 
ATOM     16  H   UNL     1       7.419   0.809   1.038  0.00  0.00    +0.174 HD
BRANCH  15  17
ATOM     17  S   UNL     1       6.522   2.527  -0.348  0.00  0.00    +0.056 S 
ATOM     18  O   UNL     1       7.839   3.137  -0.357  0.00  0.00    -0.154 OA
ATOM     19  O   UNL     1       5.776   2.364  -1.580  0.00  0.00    -0.154 OA
ATOM     20  C   UNL     1       5.521   3.478   0.774  0.00  0.00    +0.200 C 
ENDBRANCH  15  17
ENDBRANCH  12  15
ENDBRANCH   5   9
ENDBRANCH   2   5
BRANCH   3  22
ATOM     21  C   UNL     1      -2.663  -1.586  -0.221  0.00  0.00    +0.007 C 
ATOM     22  C   UNL     1      -1.431  -1.335   0.244  0.00  0.00    +0.058 C 
BRANCH  21  25
ATOM     23  N   UNL     1      -5.699   0.597  -0.682  0.00  0.00    -0.406 NA
ATOM     24  C   UNL     1      -4.604  -0.160  -0.918  0.00  0.00    +0.108 C 
ATOM     25  C   UNL     1      -3.852  -0.766   0.075  0.00  0.00    +0.022 C 
ATOM     26  C   UNL     1      -4.249  -0.585   1.395  0.00  0.00    -0.017 C 
ATOM     27  C   UNL     1      -6.055   0.751   0.613  0.00  0.00    +0.184 C 
ATOM     28  C   UNL     1      -5.371   0.186   1.678  0.00  0.00    +0.089 C 
BRANCH  27  32
ATOM     29  F   UNL     1      -7.549   1.684   2.210  0.00  0.00    -0.164 F 
ATOM     30  F   UNL     1      -7.152   2.869   0.431  0.00  0.00    -0.164 F 
ATOM     31  F   UNL     1      -8.400   1.101   0.296  0.00  0.00    -0.164 F 
ATOM     32  C   UNL     1      -7.264   1.584   0.879  0.00  0.00    +0.442 C 
ENDBRANCH  27  32
BRANCH  24  33
ATOM     33  C   UNL     1      -4.232  -0.312  -2.357  0.00  0.00    +0.059 C 
BRANCH  33  34
ATOM     34  C   UNL     1      -3.047   0.580  -2.746  0.00  0.00    +0.007 C 
ATOM     35  C   UNL     1      -2.652   0.396  -4.202  0.00  0.00    +0.000 C 
ENDBRANCH  33  34
ENDBRANCH  24  33
ENDBRANCH  21  25
ENDBRANCH   3  22
TORSDOF 9
