REMARK  Name = 11646777
REMARK  9 active torsions:
REMARK  status: ('A' for Active; 'I' for Inactive)
REMARK    1  A    between atoms: N_3  and  C_17
REMARK    2  A    between atoms: C_8  and  C_24
REMARK    3  A    between atoms: C_15  and  O_19
REMARK    4  A    between atoms: C_18  and  C_21
REMARK    5  A    between atoms: C_21  and  O_22
REMARK    6  A    between atoms: C_24  and  C_25
REMARK    7  A    between atoms: C_24  and  C_28
REMARK    8  A    between atoms: C_25  and  C_26
REMARK    9  A    between atoms: C_28  and  C_29
REMARK                            x       y       z     vdW  Elec       q    Type
REMARK                         _______ _______ _______ _____ _____    ______ ____
ROOT
ATOM      1  O   UNL     1       1.269   1.886  -2.458  0.00  0.00    -0.193 OA
ATOM      2  O   UNL     1      -2.464  -0.525   1.748  0.00  0.00    -0.275 OA
ATOM      3  N   UNL     1       1.557   0.241  -0.861  0.00  0.00    -0.175 N 
ATOM      4  N   UNL     1      -2.454   0.110  -0.490  0.00  0.00    -0.259 N 
ATOM      5  N   UNL     1      -0.611   1.032  -1.506  0.00  0.00    -0.305 NA
ATOM      6  C   UNL     1       0.981  -0.636   0.035  0.00  0.00    +0.084 C 
ATOM      7  C   UNL     1       0.766   1.098  -1.654  0.00  0.00    +0.276 C 
ATOM      8  C   UNL     1      -3.064  -0.248   0.711  0.00  0.00    +0.227 C 
ATOM      9  C   UNL     1      -1.109   0.197  -0.657  0.00  0.00    +0.201 C 
ATOM     10  C   UNL     1      -0.340  -0.720   0.196  0.00  0.00    +0.066 C 
ATOM     11  H   UNL     1      -3.031   0.312  -1.261  0.00  0.00    +0.157 HD
ENDROOT
BRANCH   3  17
ATOM     12  F   UNL     1       2.857   2.208   0.426  0.00  0.00    -0.197 F 
ATOM     13  F   UNL     1       4.772   1.722  -0.494  0.00  0.00    -0.197 F 
ATOM     14  O   UNL     1       3.501  -1.040  -0.741  0.00  0.00    -0.330 OA
ATOM     15  C   UNL     1       3.971   0.255   1.167  0.00  0.00    +0.206 C 
ATOM     16  C   UNL     1       3.643   1.192   0.034  0.00  0.00    +0.333 C 
ATOM     17  C   UNL     1       2.987   0.283  -0.987  0.00  0.00    +0.272 C 
ATOM     18  C   UNL     1       4.378  -0.989   0.400  0.00  0.00    +0.179 C 
BRANCH  15  19
ATOM     19  O   UNL     1       5.021   0.736   1.978  0.00  0.00    -0.377 OA
ATOM     20  H   UNL     1       4.726   1.530   2.452  0.00  0.00    +0.211 HD
ENDBRANCH  15  19
BRANCH  18  21
ATOM     21  C   UNL     1       4.241  -2.267   1.208  0.00  0.00    +0.169 C 
BRANCH  21  22
ATOM     22  O   UNL     1       4.634  -3.365   0.400  0.00  0.00    -0.379 OA
ATOM     23  H   UNL     1       4.550  -4.186   0.908  0.00  0.00    +0.211 HD
ENDBRANCH  21  22
ENDBRANCH  18  21
ENDBRANCH   3  17
BRANCH   8  24
ATOM     24  C   UNL     1      -4.592  -0.283   0.601  0.00  0.00    +0.077 C 
BRANCH  24  25
ATOM     25  C   UNL     1      -5.137   1.133   0.316  0.00  0.00    +0.009 C 
BRANCH  25  26
ATOM     26  C   UNL     1      -4.750   2.188   1.358  0.00  0.00    +0.000 C 
ATOM     27  C   UNL     1      -5.265   3.566   0.965  0.00  0.00    +0.000 C 
ENDBRANCH  25  26
ENDBRANCH  24  25
BRANCH  24  28
ATOM     28  C   UNL     1      -5.077  -1.309  -0.439  0.00  0.00    +0.009 C 
BRANCH  28  29
ATOM     29  C   UNL     1      -4.622  -2.734  -0.103  0.00  0.00    +0.000 C 
ATOM     30  C   UNL     1      -5.095  -3.729  -1.152  0.00  0.00    +0.000 C 
ENDBRANCH  28  29
ENDBRANCH  24  28
ENDBRANCH   8  24
TORSDOF 9
