REMARK  Name = 9884366
REMARK  4 active torsions:
REMARK  status: ('A' for Active; 'I' for Inactive)
REMARK    1  A    between atoms: N_2  and  C_23
REMARK    2  A    between atoms: C_6  and  C_15
REMARK    3  A    between atoms: C_20  and  O_21
REMARK    4  A    between atoms: C_23  and  C_25
REMARK                            x       y       z     vdW  Elec       q    Type
REMARK                         _______ _______ _______ _____ _____    ______ ____
ROOT
ATOM      1  N   UNL     1      -1.430   0.309  -0.208  0.00  0.00    -0.124 N 
ATOM      2  N   UNL     1      -3.792   0.416  -0.162  0.00  0.00    -0.296 N 
ATOM      3  N   UNL     1      -1.311   1.634  -0.408  0.00  0.00    -0.177 NA
ATOM      4  N   UNL     1      -0.220  -1.695   0.059  0.00  0.00    -0.331 NA
ATOM      5  N   UNL     1      -2.618  -1.626   0.111  0.00  0.00    -0.311 NA
ATOM      6  C   UNL     1       0.731   0.608  -0.310  0.00  0.00    +0.118 C 
ATOM      7  C   UNL     1      -0.237  -0.356  -0.141  0.00  0.00    +0.204 C 
ATOM      8  C   UNL     1      -2.653  -0.338  -0.080  0.00  0.00    +0.274 C 
ATOM      9  C   UNL     1       0.012   1.810  -0.469  0.00  0.00    +0.064 C 
ATOM     10  C   UNL     1      -1.388  -2.260   0.173  0.00  0.00    +0.119 C 
ATOM     11  C   UNL     1       0.552   3.165  -0.685  0.00  0.00    +0.049 C 
ATOM     12  C   UNL     1      -1.468  -3.745   0.396  0.00  0.00    +0.143 C 
ATOM     13  H   UNL     1      -3.709   1.384  -0.324  0.00  0.00    +0.150 HD
ENDROOT
BRANCH   6  15
ATOM     14  N   UNL     1       4.228   0.135   0.896  0.00  0.00    -0.376 NA
ATOM     15  C   UNL     1       2.138   0.343  -0.308  0.00  0.00    +0.084 C 
ATOM     16  C   UNL     1       2.899   0.378   0.852  0.00  0.00    +0.095 C 
ATOM     17  C   UNL     1       2.791   0.037  -1.499  0.00  0.00    -0.013 C 
ATOM     18  C   UNL     1       2.267   0.700   2.168  0.00  0.00    +0.062 C 
ATOM     19  C   UNL     1       4.157  -0.220  -1.494  0.00  0.00    +0.067 C 
ATOM     20  C   UNL     1       4.824  -0.159  -0.281  0.00  0.00    +0.277 C 
BRANCH  20  21
ATOM     21  O   UNL     1       6.171  -0.407  -0.250  0.00  0.00    -0.448 OA
ATOM     22  C   UNL     1       6.807  -0.331   1.021  0.00  0.00    +0.255 C 
ENDBRANCH  20  21
ENDBRANCH   6  15
BRANCH   2  23
ATOM     23  C   UNL     1      -5.098  -0.151  -0.021  0.00  0.00    +0.073 C 
ATOM     24  C   UNL     1      -5.473  -0.841  -1.328  0.00  0.00    +0.021 C 
BRANCH  23  25
ATOM     25  C   UNL     1      -6.115   0.940   0.335  0.00  0.00    +0.020 C 
ATOM     26  C   UNL     1      -5.777   1.656   1.636  0.00  0.00    +0.002 C 
ENDBRANCH  23  25
ENDBRANCH   2  23
TORSDOF 4
