REMARK  Name = 91488
REMARK  6 active torsions:
REMARK  status: ('A' for Active; 'I' for Inactive)
REMARK    1  A    between atoms: C_8  and  O_23
REMARK    2  A    between atoms: C_8  and  C_30
REMARK    3  A    between atoms: C_11  and  O_25
REMARK    4  A    between atoms: C_12  and  O_27
REMARK    5  A    between atoms: C_30  and  C_31
REMARK    6  A    between atoms: C_31  and  O_32
REMARK                            x       y       z     vdW  Elec       q    Type
REMARK                         _______ _______ _______ _____ _____    ______ ____
ROOT
ATOM      1  F   UNL     1       1.181   0.322   1.265  0.00  0.00    -0.237 F 
ATOM      2  F   UNL     1       3.416  -3.004  -0.398  0.00  0.00    -0.233 F 
ATOM      3  O   UNL     1       6.021   0.569   1.725  0.00  0.00    -0.287 OA
ATOM      4  C   UNL     1      -1.945   0.166  -0.327  0.00  0.00    +0.034 C 
ATOM      5  C   UNL     1      -0.977  -0.992   0.007  0.00  0.00    +0.008 C 
ATOM      6  C   UNL     1       0.412  -0.839  -0.634  0.00  0.00    +0.036 C 
ATOM      7  C   UNL     1       1.071   0.483  -0.110  0.00  0.00    +0.165 C 
ATOM      8  C   UNL     1      -3.206  -0.347   0.428  0.00  0.00    +0.166 C 
ATOM      9  C   UNL     1      -1.317   1.466   0.215  0.00  0.00    +0.035 C 
ATOM     10  C   UNL     1      -1.796  -2.251  -0.286  0.00  0.00    +0.032 C 
ATOM     11  C   UNL     1       0.129   1.715  -0.274  0.00  0.00    +0.141 C 
ATOM     12  C   UNL     1      -3.245  -1.855   0.071  0.00  0.00    +0.142 C 
ATOM     13  C   UNL     1       2.554   0.660  -0.627  0.00  0.00    +0.066 C 
ATOM     14  C   UNL     1       1.287  -2.061  -0.308  0.00  0.00    +0.042 C 
ATOM     15  C   UNL     1      -2.241   0.303  -1.845  0.00  0.00    +0.003 C 
ATOM     16  C   UNL     1       2.717  -1.903  -0.804  0.00  0.00    +0.180 C 
ATOM     17  C   UNL     1       3.320  -0.624  -0.278  0.00  0.00    -0.003 C 
ATOM     18  C   UNL     1       2.663   0.883  -2.153  0.00  0.00    +0.011 C 
ATOM     19  C   UNL     1       3.192   1.878   0.026  0.00  0.00    -0.017 C 
ATOM     20  C   UNL     1       4.429  -0.644   0.478  0.00  0.00    +0.036 C 
ATOM     21  C   UNL     1       4.295   1.862   0.781  0.00  0.00    +0.038 C 
ATOM     22  C   UNL     1       4.999   0.595   1.047  0.00  0.00    +0.195 C 
ENDROOT
BRANCH   8  23
ATOM     23  O   UNL     1      -3.074  -0.159   1.832  0.00  0.00    -0.377 OA
ATOM     24  H   UNL     1      -2.268  -0.600   2.143  0.00  0.00    +0.211 HD
ENDBRANCH   8  23
BRANCH  11  25
ATOM     25  O   UNL     1       0.100   2.163  -1.622  0.00  0.00    -0.382 OA
ATOM     26  H   UNL     1       1.007   2.319  -1.930  0.00  0.00    +0.210 HD
ENDBRANCH  11  25
BRANCH  12  27
ATOM     27  O   UNL     1      -3.743  -2.642   1.142  0.00  0.00    -0.382 OA
ATOM     28  H   UNL     1      -4.652  -2.373   1.346  0.00  0.00    +0.210 HD
ENDBRANCH  12  27
BRANCH   8  30
ATOM     29  O   UNL     1      -5.414  -0.223  -0.461  0.00  0.00    -0.291 OA
ATOM     30  C   UNL     1      -4.472   0.370   0.064  0.00  0.00    +0.206 C 
BRANCH  30  31
ATOM     31  C   UNL     1      -4.519   1.850   0.379  0.00  0.00    +0.204 C 
BRANCH  31  32
ATOM     32  O   UNL     1      -5.840   2.258   0.665  0.00  0.00    -0.375 OA
ATOM     33  H   UNL     1      -5.849   3.207   0.864  0.00  0.00    +0.211 HD
ENDBRANCH  31  32
ENDBRANCH  30  31
ENDBRANCH   8  30
TORSDOF 6
