REMARK  Name = 5663
REMARK  4 active torsions:
REMARK  status: ('A' for Active; 'I' for Inactive)
REMARK    1  A    between atoms: N_2  and  C_11
REMARK    2  A    between atoms: C_8  and  C_21
REMARK    3  A    between atoms: C_24  and  O_27
REMARK    4  A    between atoms: C_26  and  O_29
REMARK                            x       y       z     vdW  Elec       q    Type
REMARK                         _______ _______ _______ _____ _____    ______ ____
ROOT
ATOM      1  O   UNL     1       3.176  -2.865   1.208  0.00  0.00    -0.270 OA
ATOM      2  N   UNL     1      -1.411  -0.990   0.127  0.00  0.00    -0.304 N 
ATOM      3  N   UNL     1       1.415  -1.537   0.443  0.00  0.00    -0.273 N 
ATOM      4  C   UNL     1      -0.446   0.106   0.255  0.00  0.00    +0.112 C 
ATOM      5  C   UNL     1      -0.910  -2.365   0.199  0.00  0.00    +0.112 C 
ATOM      6  C   UNL     1       0.934  -0.330  -0.236  0.00  0.00    +0.115 C 
ATOM      7  C   UNL     1       0.393  -2.422   0.994  0.00  0.00    +0.115 C 
ATOM      8  C   UNL     1       2.763  -1.855   0.639  0.00  0.00    +0.249 C 
ENDROOT
BRANCH   2  11
ATOM      9  O   UNL     1      -8.676   1.427  -0.366  0.00  0.00    -0.275 OA
ATOM     10  N   UNL     1      -6.849   0.056  -0.607  0.00  0.00    -0.284 N 
ATOM     11  C   UNL     1      -2.770  -0.733  -0.043  0.00  0.00    +0.048 C 
ATOM     12  C   UNL     1      -4.689   0.705   0.300  0.00  0.00    -0.007 C 
ATOM     13  C   UNL     1      -3.331   0.427   0.493  0.00  0.00    +0.011 C 
ATOM     14  C   UNL     1      -5.337   1.895   0.946  0.00  0.00    +0.037 C 
ATOM     15  C   UNL     1      -5.478  -0.198  -0.424  0.00  0.00    +0.046 C 
ATOM     16  C   UNL     1      -3.563  -1.630  -0.757  0.00  0.00    +0.016 C 
ATOM     17  C   UNL     1      -6.529   2.373   0.130  0.00  0.00    +0.090 C 
ATOM     18  C   UNL     1      -4.921  -1.369  -0.944  0.00  0.00    +0.016 C 
ATOM     19  C   UNL     1      -7.463   1.246  -0.267  0.00  0.00    +0.226 C 
ATOM     20  H   UNL     1      -7.404  -0.656  -1.001  0.00  0.00    +0.155 HD
ENDBRANCH   2  11
BRANCH   8  21
ATOM     21  C   UNL     1       3.780  -0.922   0.130  0.00  0.00    +0.057 C 
ATOM     22  C   UNL     1       4.243   0.109   0.943  0.00  0.00    +0.045 C 
ATOM     23  C   UNL     1       4.272  -1.074  -1.164  0.00  0.00    +0.008 C 
ATOM     24  C   UNL     1       5.206   0.995   0.459  0.00  0.00    +0.173 C 
ATOM     25  C   UNL     1       5.235  -0.189  -1.648  0.00  0.00    +0.040 C 
ATOM     26  C   UNL     1       5.702   0.846  -0.837  0.00  0.00    +0.172 C 
BRANCH  24  27
ATOM     27  O   UNL     1       5.654   2.001   1.260  0.00  0.00    -0.468 OA
ATOM     28  C   UNL     1       4.948   3.239   1.201  0.00  0.00    +0.253 C 
ENDBRANCH  24  27
BRANCH  26  29
ATOM     29  O   UNL     1       6.643   1.704  -1.320  0.00  0.00    -0.468 OA
ATOM     30  C   UNL     1       8.009   1.352  -1.111  0.00  0.00    +0.253 C 
ENDBRANCH  26  29
ENDBRANCH   8  21
TORSDOF 4
