REMARK  Name = 6918525
REMARK  1 active torsions:
REMARK  status: ('A' for Active; 'I' for Inactive)
REMARK    1  A    between atoms: C_4  and  N_12
REMARK                            x       y       z     vdW  Elec       q    Type
REMARK                         _______ _______ _______ _____ _____    ______ ____
ROOT
ATOM      1  O   UNL     1       1.194  -1.426  -0.135  0.00  0.00    -0.406 OA
ATOM      2  O   UNL     1       2.853  -3.031  -0.266  0.00  0.00    -0.223 OA
ATOM      3  N   UNL     1       3.396  -0.771  -0.096  0.00  0.00    -0.287 N 
ATOM      4  C   UNL     1       0.261   0.850   0.044  0.00  0.00    +0.084 C 
ATOM      5  C   UNL     1       1.317  -0.049  -0.030  0.00  0.00    +0.179 A 
ATOM      6  C   UNL     1       0.618   2.210   0.146  0.00  0.00    +0.018 C 
ATOM      7  C   UNL     1       2.632   0.363  -0.005  0.00  0.00    +0.098 A 
ATOM      8  C   UNL     1       1.967   2.620   0.170  0.00  0.00    +0.003 C 
ATOM      9  C   UNL     1       3.002   1.685   0.094  0.00  0.00    +0.020 C 
ATOM     10  C   UNL     1       2.534  -1.852  -0.174  0.00  0.00    +0.419 A 
ATOM     11  H   UNL     1       4.380  -0.810  -0.104  0.00  0.00    +0.172 HD
ENDROOT
BRANCH   4  12
ATOM     12  N   UNL     1      -1.078   0.442   0.019  0.00  0.00    -0.309 N 
ATOM     13  N   UNL     1      -3.841  -0.260   0.191  0.00  0.00    +0.388 N 
ATOM     14  C   UNL     1      -2.098   1.330  -0.547  0.00  0.00    +0.068 C 
ATOM     15  C   UNL     1      -1.542  -0.467   1.075  0.00  0.00    +0.068 C 
ATOM     16  C   UNL     1      -3.345   0.534  -0.939  0.00  0.00    -0.056 C 
ATOM     17  C   UNL     1      -2.807  -1.205   0.630  0.00  0.00    -0.056 C 
ATOM     18  C   UNL     1      -5.063  -0.973  -0.180  0.00  0.00    -0.101 C 
ATOM     19  H   UNL     1      -4.062   0.368   0.964  0.00  0.00    -0.080 HD
ENDBRANCH   4  12
TORSDOF 1
