REMARK  Name = 24831714
REMARK  9 active torsions:
REMARK  status: ('A' for Active; 'I' for Inactive)
REMARK    1  A    between atoms: C_2  and  C_11
REMARK    2  A    between atoms: C_5  and  C_22
REMARK    3  A    between atoms: C_9  and  O_16
REMARK    4  A    between atoms: C_10  and  O_18
REMARK    5  A    between atoms: C_12  and  O_20
REMARK    6  A    between atoms: C_13  and  S_14
REMARK    7  A    between atoms: C_22  and  C_23
REMARK    8  A    between atoms: C_28  and  O_29
REMARK    9  A    between atoms: O_29  and  C_30
REMARK                            x       y       z     vdW  Elec       q    Type
REMARK                         _______ _______ _______ _____ _____    ______ ____
ROOT
ATOM      1 CL   UNL     1       2.028  -3.900   0.738  0.00  0.00    -0.083 Cl
ATOM      2  C   UNL     1      -1.505  -1.089   0.796  0.00  0.00    +0.007 C 
ATOM      3  C   UNL     1      -0.583  -1.012  -0.248  0.00  0.00    -0.005 C 
ATOM      4  C   UNL     1      -1.332  -2.029   1.811  0.00  0.00    -0.001 C 
ATOM      5  C   UNL     1       0.513  -1.875  -0.276  0.00  0.00    -0.007 C 
ATOM      6  C   UNL     1      -0.237  -2.893   1.783  0.00  0.00    +0.011 C 
ATOM      7  C   UNL     1       0.686  -2.816   0.740  0.00  0.00    +0.054 C 
ENDROOT
BRANCH   2  11
ATOM      8  O   UNL     1      -3.496  -0.423  -0.325  0.00  0.00    -0.338 OA
ATOM      9  C   UNL     1      -2.263   1.323   0.843  0.00  0.00    +0.171 C 
ATOM     10  C   UNL     1      -3.478   2.245   0.730  0.00  0.00    +0.170 C 
ATOM     11  C   UNL     1      -2.694  -0.150   0.827  0.00  0.00    +0.168 C 
ATOM     12  C   UNL     1      -4.394   1.833  -0.424  0.00  0.00    +0.177 C 
ATOM     13  C   UNL     1      -4.704   0.334  -0.358  0.00  0.00    +0.192 C 
BRANCH  13  14
ATOM     14  S   UNL     1      -5.704  -0.164  -1.806  0.00  0.00    -0.109 S 
ATOM     15  C   UNL     1      -5.868  -1.916  -1.405  0.00  0.00    +0.072 C 
ENDBRANCH  13  14
BRANCH   9  16
ATOM     16  O   UNL     1      -1.590   1.598   2.071  0.00  0.00    -0.379 OA
ATOM     17  H   UNL     1      -1.314   2.528   2.087  0.00  0.00    +0.211 HD
ENDBRANCH   9  16
BRANCH  10  18
ATOM     18  O   UNL     1      -3.010   3.576   0.506  0.00  0.00    -0.379 OA
ATOM     19  H   UNL     1      -2.428   3.841   1.236  0.00  0.00    +0.211 HD
ENDBRANCH  10  18
BRANCH  12  20
ATOM     20  O   UNL     1      -5.596   2.595  -0.312  0.00  0.00    -0.379 OA
ATOM     21  H   UNL     1      -5.384   3.540  -0.355  0.00  0.00    +0.211 HD
ENDBRANCH  12  20
ENDBRANCH   2  11
BRANCH   5  22
ATOM     22  C   UNL     1       1.478  -1.762  -1.412  0.00  0.00    +0.053 C 
BRANCH  22  23
ATOM     23  C   UNL     1       2.615  -0.797  -1.154  0.00  0.00    -0.018 C 
ATOM     24  C   UNL     1       2.407   0.577  -1.278  0.00  0.00    -0.001 C 
ATOM     25  C   UNL     1       3.872  -1.282  -0.791  0.00  0.00    -0.001 C 
ATOM     26  C   UNL     1       3.455   1.466  -1.040  0.00  0.00    +0.037 C 
ATOM     27  C   UNL     1       4.920  -0.393  -0.553  0.00  0.00    +0.037 C 
ATOM     28  C   UNL     1       4.712   0.981  -0.678  0.00  0.00    +0.139 C 
BRANCH  28  29
ATOM     29  O   UNL     1       5.735   1.848  -0.445  0.00  0.00    -0.475 OA
BRANCH  29  30
ATOM     30  C   UNL     1       6.725   1.446   0.500  0.00  0.00    +0.206 C 
ATOM     31  C   UNL     1       7.306   2.678   1.161  0.00  0.00    +0.051 C 
ENDBRANCH  29  30
ENDBRANCH  28  29
ENDBRANCH  22  23
ENDBRANCH   5  22
TORSDOF 9
