REMARK  Name = 638024
REMARK  3 active torsions:
REMARK  status: ('A' for Active; 'I' for Inactive)
REMARK    1  A    between atoms: C_1  and  C_13
REMARK    2  A    between atoms: C_2  and  C_6
REMARK    3  A    between atoms: C_12  and  C_21
REMARK                            x       y       z     vdW  Elec       q    Type
REMARK                         _______ _______ _______ _____ _____    ______ ____
ROOT
ATOM      1  C   UNL     1       0.276   0.487   0.223  0.00  0.00    +0.000 C 
ATOM      2  C   UNL     1       1.305   1.257  -0.166  0.00  0.00    +0.000 C 
ENDROOT
BRANCH   2   6
ATOM      3  O   UNL     1       5.008  -1.750   0.972  0.00  0.00    -0.435 OA
ATOM      4  O   UNL     1       6.568  -0.520  -0.393  0.00  0.00    -0.435 OA
ATOM      5  C   UNL     1       4.427  -0.685   0.354  0.00  0.00    +0.176 C 
ATOM      6  C   UNL     1       2.707   0.814  -0.249  0.00  0.00    +0.003 C 
ATOM      7  C   UNL     1       5.318   0.017  -0.425  0.00  0.00    +0.176 C 
ATOM      8  C   UNL     1       3.104  -0.309   0.464  0.00  0.00    +0.040 C 
ATOM      9  C   UNL     1       3.600   1.537  -1.044  0.00  0.00    +0.003 C 
ATOM     10  C   UNL     1       4.934   1.134  -1.137  0.00  0.00    +0.040 C 
ATOM     11  C   UNL     1       6.364  -1.639   0.494  0.00  0.00    +0.429 C 
ENDBRANCH   2   6
BRANCH   1  13
ATOM     12  C   UNL     1      -2.098   0.196   0.667  0.00  0.00    +0.058 C 
ATOM     13  C   UNL     1      -1.087   0.971   0.279  0.00  0.00    +0.005 C 
BRANCH  12  21
ATOM     14  O   UNL     1      -3.547   1.989   0.917  0.00  0.00    -0.270 OA
ATOM     15  N   UNL     1      -4.533  -0.069   0.462  0.00  0.00    -0.276 N 
ATOM     16  C   UNL     1      -6.654  -1.381  -1.019  0.00  0.00    +0.004 C 
ATOM     17  C   UNL     1      -6.659   0.126  -0.783  0.00  0.00    +0.022 C 
ATOM     18  C   UNL     1      -5.226  -1.919  -1.029  0.00  0.00    +0.022 C 
ATOM     19  C   UNL     1      -5.891   0.483   0.485  0.00  0.00    +0.094 C 
ATOM     20  C   UNL     1      -4.463  -1.520   0.234  0.00  0.00    +0.094 C 
ATOM     21  C   UNL     1      -3.453   0.782   0.691  0.00  0.00    +0.249 C 
ENDBRANCH  12  21
ENDBRANCH   1  13
TORSDOF 3
