REMARK  Name = 16873
REMARK  1 active torsions:
REMARK  status: ('A' for Active; 'I' for Inactive)
REMARK    1  A    between atoms: C_6  and  S_9
REMARK                            x       y       z     vdW  Elec       q    Type
REMARK                         _______ _______ _______ _____ _____    ______ ____
ROOT
ATOM      1  S   UNL     1      -0.042  -1.328   0.000  0.00  0.00    -0.025 S 
ATOM      2  N   UNL     1      -0.761   1.131   0.000  0.00  0.00    -0.125 NA
ATOM      3  N   UNL     1       0.623   1.147   0.000  0.00  0.00    -0.133 NA
ATOM      4  N   UNL     1      -2.553  -0.423   0.000  0.00  0.00    -0.336 N 
ATOM      5  C   UNL     1      -1.236  -0.096   0.000  0.00  0.00    +0.180 A 
ATOM      6  C   UNL     1       1.124  -0.070   0.000  0.00  0.00    +0.157 A 
ATOM      7  H   UNL     1      -2.826  -1.369   0.000  0.00  0.00    +0.144 HD
ATOM      8  H   UNL     1      -3.236   0.286   0.000  0.00  0.00    +0.144 HD
ENDROOT
BRANCH   6   9
ATOM      9  S   UNL     1       2.845  -0.362   0.000  0.00  0.00    -0.114 S 
ATOM     10  H   UNL     1       3.078  -1.702   0.000  0.00  0.00    +0.109 HD
ENDBRANCH   6   9
TORSDOF 1
