REMARK  Name = 9796590
REMARK  3 active torsions:
REMARK  status: ('A' for Active; 'I' for Inactive)
REMARK    1  A    between atoms: C_1  and  C_13
REMARK    2  A    between atoms: C_9  and  C_23
REMARK    3  A    between atoms: C_13  and  O_19
REMARK                            x       y       z     vdW  Elec       q    Type
REMARK                         _______ _______ _______ _____ _____    ______ ____
ROOT
ATOM      1  C   UNL     1       1.335   0.271  -0.648  0.00  0.00    +0.007 C 
ATOM      2  C   UNL     1       0.385  -0.733  -0.834  0.00  0.00    -0.002 C 
ATOM      3  C   UNL     1       0.954   1.504  -0.128  0.00  0.00    -0.002 C 
ATOM      4  C   UNL     1      -0.962  -0.515  -0.501  0.00  0.00    -0.000 C 
ATOM      5  C   UNL     1      -1.350   0.739   0.028  0.00  0.00    +0.000 C 
ATOM      6  C   UNL     1      -0.380   1.738   0.209  0.00  0.00    -0.000 C 
ATOM      7  C   UNL     1      -1.933  -1.514  -0.681  0.00  0.00    +0.000 C 
ATOM      8  C   UNL     1      -2.697   0.957   0.361  0.00  0.00    +0.005 C 
ATOM      9  C   UNL     1      -3.648  -0.047   0.175  0.00  0.00    +0.053 C 
ATOM     10  C   UNL     1      -3.266  -1.280  -0.345  0.00  0.00    +0.005 C 
ENDROOT
BRANCH   1  13
ATOM     11  N   UNL     1       4.460   0.359   0.612  0.00  0.00    -0.270 N 
ATOM     12  N   UNL     1       4.709  -1.419   1.857  0.00  0.00    -0.225 NA
ATOM     13  C   UNL     1       2.789   0.018  -1.013  0.00  0.00    +0.141 C 
ATOM     14  C   UNL     1       3.660   1.279  -1.365  0.00  0.00    +0.059 C 
ATOM     15  C   UNL     1       3.557  -0.539   0.129  0.00  0.00    +0.078 C 
ATOM     16  C   UNL     1       4.466   1.622  -0.093  0.00  0.00    +0.100 C 
ATOM     17  C   UNL     1       3.717  -1.647   0.915  0.00  0.00    +0.113 C 
ATOM     18  C   UNL     1       5.137  -0.187   1.635  0.00  0.00    +0.167 C 
BRANCH  13  19
ATOM     19  O   UNL     1       2.871  -0.904  -2.100  0.00  0.00    -0.377 OA
ATOM     20  H   UNL     1       3.802  -1.058  -2.324  0.00  0.00    +0.211 HD
ENDBRANCH  13  19
ENDBRANCH   1  13
BRANCH   9  23
ATOM     21  O   UNL     1      -5.335   1.037   1.391  0.00  0.00    -0.270 OA
ATOM     22  N   UNL     1      -6.006  -0.539  -0.172  0.00  0.00    -0.299 N 
ATOM     23  C   UNL     1      -5.038   0.195   0.524  0.00  0.00    +0.246 C 
ATOM     24  C   UNL     1      -7.427  -0.394   0.043  0.00  0.00    +0.111 C 
ATOM     25  H   UNL     1      -5.701  -1.189  -0.846  0.00  0.00    +0.150 HD
ENDBRANCH   9  23
TORSDOF 3
