REMARK  Name = 6918331
REMARK  7 active torsions:
REMARK  status: ('A' for Active; 'I' for Inactive)
REMARK    1  A    between atoms: C_1  and  C_2
REMARK    2  A    between atoms: C_1  and  N_19
REMARK    3  A    between atoms: C_3  and  O_17
REMARK    4  A    between atoms: C_5  and  N_8
REMARK    5  A    between atoms: C_12  and  C_16
REMARK    6  A    between atoms: N_19  and  C_23
REMARK    7  A    between atoms: C_24  and  C_30
REMARK                            x       y       z     vdW  Elec       q    Type
REMARK                         _______ _______ _______ _____ _____    ______ ____
ROOT
ATOM      1  C   UNL     1       0.595   2.070   0.683  0.00  0.00    -0.051 C 
ENDROOT
BRANCH   1   2
ATOM      2  C   UNL     1      -0.791   1.893   0.120  0.00  0.00    -0.008 C 
ATOM      3  C   UNL     1      -1.199   2.637  -0.980  0.00  0.00    +0.133 C 
ATOM      4  C   UNL     1      -1.646   0.978   0.719  0.00  0.00    +0.016 C 
ATOM      5  C   UNL     1      -2.932   0.802   0.209  0.00  0.00    +0.086 C 
ATOM      6  C   UNL     1      -2.486   2.461  -1.489  0.00  0.00    +0.038 C 
ATOM      7  C   UNL     1      -3.352   1.544  -0.895  0.00  0.00    +0.022 C 
BRANCH   5   8
ATOM      8  N   UNL     1      -3.792  -0.107   0.798  0.00  0.00    -0.188 N 
ATOM      9  N   UNL     1      -4.620   0.242   1.798  0.00  0.00    -0.039 NA
ATOM     10  N   UNL     1      -4.878  -1.919   1.312  0.00  0.00    -0.104 NA
ATOM     11  N   UNL     1      -5.279  -0.868   2.106  0.00  0.00    -0.022 NA
ATOM     12  C   UNL     1      -3.960  -1.428   0.512  0.00  0.00    +0.260 A 
BRANCH  12  16
ATOM     13  F   UNL     1      -3.550  -3.463  -0.636  0.00  0.00    -0.163 F 
ATOM     14  F   UNL     1      -3.392  -1.624  -1.784  0.00  0.00    -0.163 F 
ATOM     15  F   UNL     1      -1.863  -2.120  -0.311  0.00  0.00    -0.163 F 
ATOM     16  C   UNL     1      -3.210  -2.144  -0.534  0.00  0.00    +0.454 C 
ENDBRANCH  12  16
ENDBRANCH   5   8
BRANCH   3  17
ATOM     17  O   UNL     1      -0.366   3.537  -1.573  0.00  0.00    -0.472 OA
ATOM     18  C   UNL     1      -0.877   4.252  -2.696  0.00  0.00    +0.252 C 
ENDBRANCH   3  17
ENDBRANCH   1   2
BRANCH   1  19
ATOM     19  N   UNL     1       1.550   1.167   0.062  0.00  0.00    +0.387 N 
ATOM     20  H   UNL     1       1.256   0.204   0.224  0.00  0.00    -0.084 HD
ATOM     21  H   UNL     1       1.585   1.363  -0.938  0.00  0.00    -0.084 HD
BRANCH  19  23
ATOM     22  N   UNL     1       5.298   0.765   0.504  0.00  0.00    +0.386 N 
ATOM     23  C   UNL     1       2.885   1.362   0.627  0.00  0.00    -0.077 C 
ATOM     24  C   UNL     1       3.982   0.574  -0.145  0.00  0.00    -0.058 C 
ATOM     25  C   UNL     1       2.882   1.103   2.140  0.00  0.00    -0.025 C 
ATOM     26  C   UNL     1       4.290   1.226   2.713  0.00  0.00    -0.026 C 
ATOM     27  C   UNL     1       5.287   0.390   1.919  0.00  0.00    -0.081 C 
ATOM     28  H   UNL     1       5.560   1.748   0.429  0.00  0.00    -0.084 HD
ATOM     29  H   UNL     1       5.968   0.161   0.028  0.00  0.00    -0.084 HD
BRANCH  24  30
ATOM     30  C   UNL     1       3.766  -0.890  -0.521  0.00  0.00    -0.044 C 
ATOM     31  C   UNL     1       4.367  -1.404  -1.666  0.00  0.00    -0.006 C 
ATOM     32  C   UNL     1       2.971  -1.699   0.284  0.00  0.00    -0.006 C 
ATOM     33  C   UNL     1       4.170  -2.741  -2.010  0.00  0.00    -0.000 C 
ATOM     34  C   UNL     1       2.775  -3.037  -0.060  0.00  0.00    -0.000 C 
ATOM     35  C   UNL     1       3.374  -3.558  -1.207  0.00  0.00    -0.000 C 
ENDBRANCH  24  30
ENDBRANCH  19  23
ENDBRANCH   1  19
TORSDOF 7
