REMARK  Name = 9331
REMARK  8 active torsions:
REMARK  status: ('A' for Active; 'I' for Inactive)
REMARK    1  A    between atoms: N_1  and  C_20
REMARK    2  A    between atoms: C_2  and  N_8
REMARK    3  A    between atoms: C_2  and  C_17
REMARK    4  A    between atoms: C_20  and  C_21
REMARK    5  A    between atoms: C_21  and  C_22
REMARK    6  A    between atoms: C_22  and  C_23
REMARK    7  A    between atoms: C_22  and  C_29
REMARK    8  A    between atoms: C_22  and  C_36
REMARK                            x       y       z     vdW  Elec       q    Type
REMARK                         _______ _______ _______ _____ _____    ______ ____
ROOT
ATOM      1  N   UNL     1      -0.872  -0.083   1.032  0.00  0.00    +0.387 N 
ATOM      2  C   UNL     1      -3.661  -0.413   0.164  0.00  0.00    +0.024 C 
ATOM      3  C   UNL     1      -3.223  -0.596   1.623  0.00  0.00    -0.033 C 
ATOM      4  C   UNL     1      -2.661   0.475  -0.588  0.00  0.00    -0.033 C 
ATOM      5  C   UNL     1      -1.755  -1.025   1.732  0.00  0.00    -0.079 C 
ATOM      6  C   UNL     1      -1.215   0.004  -0.394  0.00  0.00    -0.079 C 
ATOM      7  H   UNL     1      -1.005   0.840   1.445  0.00  0.00    -0.080 HD
ENDROOT
BRANCH   2   8
ATOM      8  N   UNL     1      -4.993   0.190   0.117  0.00  0.00    +0.395 N 
ATOM      9  C   UNL     1      -5.002   1.474   0.832  0.00  0.00    -0.077 C 
ATOM     10  C   UNL     1      -5.435   0.353  -1.275  0.00  0.00    -0.077 C 
ATOM     11  C   UNL     1      -6.400   2.094   0.834  0.00  0.00    -0.023 C 
ATOM     12  C   UNL     1      -6.847   0.936  -1.341  0.00  0.00    -0.023 C 
ATOM     13  C   UNL     1      -6.938   2.256  -0.583  0.00  0.00    -0.004 C 
ATOM     14  H   UNL     1      -5.651  -0.434   0.585  0.00  0.00    -0.079 HD
ENDBRANCH   2   8
BRANCH   2  17
ATOM     15  O   UNL     1      -3.186  -2.026  -1.546  0.00  0.00    -0.277 OA
ATOM     16  N   UNL     1      -4.685  -2.600   0.103  0.00  0.00    -0.330 N 
ATOM     17  C   UNL     1      -3.802  -1.750  -0.519  0.00  0.00    +0.201 C 
ATOM     18  H   UNL     1      -4.847  -3.498  -0.267  0.00  0.00    +0.145 HD
ATOM     19  H   UNL     1      -5.156  -2.311   0.917  0.00  0.00    +0.145 HD
ENDBRANCH   2  17
BRANCH   1  20
ATOM     20  C   UNL     1       0.528  -0.475   1.198  0.00  0.00    -0.076 C 
BRANCH  20  21
ATOM     21  C   UNL     1       1.445   0.547   0.502  0.00  0.00    -0.000 C 
BRANCH  21  22
ATOM     22  C   UNL     1       2.987   0.246   0.606  0.00  0.00    +0.115 C 
BRANCH  22  23
ATOM     23  C   UNL     1       3.867   1.335  -0.061  0.00  0.00    -0.006 C 
ATOM     24  C   UNL     1       5.223   1.210   0.042  0.00  0.00    -0.003 C 
ATOM     25  C   UNL     1       3.234   2.355  -0.713  0.00  0.00    -0.003 C 
ATOM     26  C   UNL     1       6.015   2.189  -0.558  0.00  0.00    -0.000 C 
ATOM     27  C   UNL     1       4.026   3.334  -1.313  0.00  0.00    -0.000 C 
ATOM     28  C   UNL     1       5.416   3.251  -1.236  0.00  0.00    -0.000 C 
ENDBRANCH  22  23
BRANCH  22  29
ATOM     29  C   UNL     1       3.265  -1.121  -0.067  0.00  0.00    -0.006 C 
ATOM     30  C   UNL     1       3.768  -2.127   0.710  0.00  0.00    -0.003 C 
ATOM     31  C   UNL     1       2.992  -1.245  -1.401  0.00  0.00    -0.003 C 
ATOM     32  C   UNL     1       4.018  -3.358   0.103  0.00  0.00    -0.000 C 
ATOM     33  C   UNL     1       3.242  -2.476  -2.008  0.00  0.00    -0.000 C 
ATOM     34  C   UNL     1       3.755  -3.532  -1.255  0.00  0.00    -0.000 C 
ENDBRANCH  22  29
BRANCH  22  36
ATOM     35  N   UNL     1       3.574   0.306   3.196  0.00  0.00    -0.195 NA
ATOM     36  C   UNL     1       3.319   0.271   2.064  0.00  0.00    +0.079 C 
ENDBRANCH  22  36
ENDBRANCH  21  22
ENDBRANCH  20  21
ENDBRANCH   1  20
TORSDOF 8
