REMARK  Name = 23634441
REMARK  6 active torsions:
REMARK  status: ('A' for Active; 'I' for Inactive)
REMARK    1  A    between atoms: C_2  and  C_8
REMARK    2  A    between atoms: CA_4  and  C_16
REMARK    3  A    between atoms: C_5  and  O_23
REMARK    4  A    between atoms: N_15  and  CA_18
REMARK    5  A    between atoms: CA_18  and  C_20
REMARK    6  A    between atoms: C_20  and  O_21
REMARK                            x       y       z     vdW  Elec       q    Type
REMARK                         _______ _______ _______ _____ _____    ______ ____
ROOT
ATOM      1  N   UNL     1      -0.693  -0.581   0.653  0.00  0.00    -0.236 NA
ATOM      2  C   UNL     1       1.478   0.327   0.098  0.00  0.00    +0.022 C 
ATOM      3  C   UNL     1       0.881   1.504  -0.341  0.00  0.00    +0.040 C 
ATOM      4  CA  UNL     1      -1.237   0.577   0.217  0.00  0.00    +0.168 C 
ATOM      5  C   UNL     1      -0.501   1.639  -0.284  0.00  0.00    +0.156 C 
ATOM      6  C   UNL     1       0.653  -0.677   0.582  0.00  0.00    +0.099 C 
ENDROOT
BRANCH   2   8
ATOM      7 CL   UNL     1       5.518  -2.850  -0.382  0.00  0.00    -0.082 Cl
ATOM      8  C   UNL     1       2.913   0.155   0.051  0.00  0.00    +0.002 C 
ATOM      9  C   UNL     1       3.459  -1.117  -0.123  0.00  0.00    +0.011 C 
ATOM     10  C   UNL     1       3.752   1.262   0.179  0.00  0.00    +0.000 C 
ATOM     11  C   UNL     1       4.844  -1.282  -0.168  0.00  0.00    +0.058 C 
ATOM     12  C   UNL     1       5.136   1.097   0.134  0.00  0.00    +0.001 C 
ATOM     13  C   UNL     1       5.682  -0.174  -0.040  0.00  0.00    +0.011 C 
ENDBRANCH   2   8
BRANCH   4  16
ATOM     14  O   UNL     1      -3.296   1.658  -0.085  0.00  0.00    -0.268 OA
ATOM     15  N   UNL     1      -3.346  -0.473   0.826  0.00  0.00    -0.290 N 
ATOM     16  C   ACE A   1      -2.688   0.647   0.307  0.00  0.00    +0.267 C 
ATOM     17  H   UNL     1      -2.801  -1.240   1.118  0.00  0.00    +0.150 HD
BRANCH  15  18
ATOM     18  CA  UNL     1      -4.782  -0.566   0.957  0.00  0.00    +0.201 C 
BRANCH  18  20
ATOM     19  OXT UNL     1      -6.658  -1.301  -0.360  0.00  0.00    -0.248 OA
ATOM     20  C   UNL     1      -5.447  -1.147  -0.265  0.00  0.00    +0.334 C 
BRANCH  20  21
ATOM     21  O   UNL     1      -4.577  -1.482  -1.246  0.00  0.00    -0.479 OA
ATOM     22  H   UNL     1      -3.658  -1.344  -1.124  0.00  0.00    +0.295 HD
ENDBRANCH  20  21
ENDBRANCH  18  20
ENDBRANCH  15  18
ENDBRANCH   4  16
BRANCH   5  23
ATOM     23  O   UNL     1      -1.093   2.785  -0.711  0.00  0.00    -0.504 OA
ATOM     24  H   UNL     1      -0.569   3.486  -1.045  0.00  0.00    +0.292 HD
ENDBRANCH   5  23
TORSDOF 6
