REMARK  Name = 29566
REMARK  2 active torsions:
REMARK  status: ('A' for Active; 'I' for Inactive)
REMARK    1  A    between atoms: C_1  and  N_5
REMARK    2  A    between atoms: C_1  and  N_15
REMARK                            x       y       z     vdW  Elec       q    Type
REMARK                         _______ _______ _______ _____ _____    ______ ____
ROOT
ATOM      1  C   UNL     1       0.000   1.360   0.004  0.00  0.00    -0.158 C 
ENDROOT
BRANCH   1   5
ATOM      2  S   UNL     1      -4.138  -0.456  -0.094  0.00  0.00    +0.037 S 
ATOM      3  O   UNL     1      -4.537   0.301  -1.264  0.00  0.00    -0.158 OA
ATOM      4  O   UNL     1      -5.049  -1.388   0.540  0.00  0.00    -0.158 OA
ATOM      5  N   UNL     1      -1.164   0.532   0.323  0.00  0.00    +0.387 N 
ATOM      6  N   UNL     1      -3.514   0.612   1.095  0.00  0.00    -0.205 NA
ATOM      7  C   UNL     1      -1.489  -0.351  -0.809  0.00  0.00    -0.051 C 
ATOM      8  C   UNL     1      -2.308   1.382   0.686  0.00  0.00    +0.015 C 
ATOM      9  C   UNL     1      -2.625  -1.317  -0.475  0.00  0.00    +0.146 C 
ATOM     10  H   UNL     1      -0.943  -0.057   1.125  0.00  0.00    -0.081 HD
ATOM     11  H   UNL     1      -3.272   0.061   1.919  0.00  0.00    +0.146 HD
ENDBRANCH   1   5
BRANCH   1  15
ATOM     12  S   UNL     1       4.140  -0.450   0.086  0.00  0.00    +0.037 S 
ATOM     13  O   UNL     1       4.567   0.361   1.209  0.00  0.00    -0.158 OA
ATOM     14  O   UNL     1       5.037  -1.411  -0.526  0.00  0.00    -0.158 OA
ATOM     15  N   UNL     1       1.156   0.518  -0.304  0.00  0.00    +0.387 N 
ATOM     16  N   UNL     1       3.486   0.561  -1.137  0.00  0.00    -0.205 NA
ATOM     17  C   UNL     1       1.510  -0.311   0.860  0.00  0.00    -0.051 C 
ATOM     18  C   UNL     1       2.290   1.349  -0.735  0.00  0.00    +0.015 C 
ATOM     19  C   UNL     1       2.638  -1.292   0.544  0.00  0.00    +0.146 C 
ATOM     20  H   UNL     1       0.916  -0.109  -1.073  0.00  0.00    -0.081 HD
ATOM     21  H   UNL     1       3.225  -0.029  -1.927  0.00  0.00    +0.146 HD
ENDBRANCH   1  15
TORSDOF 2
