REMARK  Name = 11596613
REMARK  6 active torsions:
REMARK  status: ('A' for Active; 'I' for Inactive)
REMARK    1  A    between atoms: C_4  and  N_21
REMARK    2  A    between atoms: C_5  and  C_12
REMARK    3  A    between atoms: C_18  and  O_19
REMARK    4  A    between atoms: N_21  and  C_23
REMARK    5  A    between atoms: C_23  and  C_27
REMARK    6  A    between atoms: C_23  and  C_30
REMARK                            x       y       z     vdW  Elec       q    Type
REMARK                         _______ _______ _______ _____ _____    ______ ____
ROOT
ATOM      1  N   UNL     1      -0.261  -0.843  -0.166  0.00  0.00    -0.152 N 
ATOM      2  N   UNL     1       0.027  -1.988   0.517  0.00  0.00    -0.179 NA
ATOM      3  N   UNL     1       0.858   1.106  -1.034  0.00  0.00    -0.393 NA
ATOM      4  C   UNL     1      -1.514  -0.414  -0.634  0.00  0.00    +0.126 C 
ATOM      5  C   UNL     1       1.931  -0.780   0.202  0.00  0.00    +0.128 C 
ATOM      6  C   UNL     1       0.892  -0.083  -0.373  0.00  0.00    +0.192 C 
ATOM      7  C   UNL     1       1.341  -1.934   0.730  0.00  0.00    +0.067 C 
ATOM      8  C   UNL     1      -1.586   0.755  -1.291  0.00  0.00    +0.059 C 
ATOM      9  C   UNL     1      -0.304   1.500  -1.465  0.00  0.00    +0.113 C 
ATOM     10  C   UNL     1       1.998  -3.035   1.457  0.00  0.00    +0.050 C 
ATOM     11  C   UNL     1      -0.370   2.815  -2.201  0.00  0.00    +0.067 C 
ENDROOT
BRANCH   5  12
ATOM     12  C   UNL     1       3.292  -0.333   0.205  0.00  0.00    -0.013 C 
ATOM     13  C   UNL     1       3.792   0.463   1.240  0.00  0.00    -0.022 C 
ATOM     14  C   UNL     1       4.131  -0.703  -0.849  0.00  0.00    -0.001 C 
ATOM     15  C   UNL     1       5.122   0.884   1.220  0.00  0.00    +0.032 C 
ATOM     16  C   UNL     1       2.929   0.880   2.387  0.00  0.00    +0.031 C 
ATOM     17  C   UNL     1       5.461  -0.281  -0.869  0.00  0.00    +0.037 C 
ATOM     18  C   UNL     1       5.956   0.512   0.166  0.00  0.00    +0.138 C 
BRANCH  18  19
ATOM     19  O   UNL     1       7.253   0.924   0.146  0.00  0.00    -0.471 OA
ATOM     20  C   UNL     1       8.050   0.507  -0.961  0.00  0.00    +0.252 C 
ENDBRANCH  18  19
ENDBRANCH   5  12
BRANCH   4  21
ATOM     21  N   UNL     1      -2.589  -1.220  -0.389  0.00  0.00    -0.313 N 
ATOM     22  H   UNL     1      -2.452  -2.054   0.114  0.00  0.00    +0.148 HD
BRANCH  21  23
ATOM     23  C   UNL     1      -3.910  -0.894  -0.838  0.00  0.00    +0.164 C 
BRANCH  23  27
ATOM     24  O   UNL     1      -4.943   1.264  -0.589  0.00  0.00    -0.314 OA
ATOM     25  N   UNL     1      -4.925   0.017   1.272  0.00  0.00    -0.315 NA
ATOM     26  N   UNL     1      -5.571   2.032   0.400  0.00  0.00    -0.012 NA
ATOM     27  C   UNL     1      -4.618   0.128   0.037  0.00  0.00    +0.311 C 
ATOM     28  C   UNL     1      -5.521   1.229   1.468  0.00  0.00    +0.105 C 
ATOM     29  C   UNL     1      -6.075   1.629   2.766  0.00  0.00    +0.132 C 
ENDBRANCH  23  27
BRANCH  23  30
ATOM     30  C   UNL     1      -4.745  -2.185  -0.950  0.00  0.00    +0.030 C 
ATOM     31  C   UNL     1      -6.102  -1.954  -1.606  0.00  0.00    +0.002 C 
ENDBRANCH  23  30
ENDBRANCH  21  23
ENDBRANCH   4  21
TORSDOF 6
