REMARK  Name = 6419718
REMARK  4 active torsions:
REMARK  status: ('A' for Active; 'I' for Inactive)
REMARK    1  A    between atoms: C_2  and  C_16
REMARK    2  A    between atoms: C_16  and  N_17
REMARK    3  A    between atoms: N_17  and  C_20
REMARK    4  A    between atoms: C_20  and  C_21
REMARK                            x       y       z     vdW  Elec       q    Type
REMARK                         _______ _______ _______ _____ _____    ______ ____
ROOT
ATOM      1  O   UNL     1      -1.419  -0.574   1.307  0.00  0.00    -0.454 OA
ATOM      2  C   UNL     1       0.325   0.660  -0.718  0.00  0.00    -0.040 C 
ATOM      3  C   UNL     1       0.196  -0.805  -0.510  0.00  0.00    +0.029 C 
ATOM      4  C   UNL     1      -0.710   1.514  -0.600  0.00  0.00    -0.003 C 
ATOM      5  C   UNL     1      -0.656  -1.353   0.464  0.00  0.00    +0.145 C 
ATOM      6  C   UNL     1      -2.091   1.167  -0.244  0.00  0.00    +0.034 C 
ATOM      7  C   UNL     1      -2.398   0.158   0.676  0.00  0.00    +0.145 C 
ATOM      8  C   UNL     1       0.963  -1.702  -1.275  0.00  0.00    +0.003 C 
ATOM      9  C   UNL     1      -0.721  -2.735   0.685  0.00  0.00    +0.037 C 
ATOM     10  C   UNL     1      -3.144   1.916  -0.789  0.00  0.00    +0.003 C 
ATOM     11  C   UNL     1      -3.720  -0.097   1.052  0.00  0.00    +0.037 C 
ATOM     12  C   UNL     1       0.885  -3.083  -1.071  0.00  0.00    +0.000 C 
ATOM     13  C   UNL     1       0.046  -3.599  -0.089  0.00  0.00    +0.003 C 
ATOM     14  C   UNL     1      -4.468   1.650  -0.432  0.00  0.00    +0.000 C 
ATOM     15  C   UNL     1      -4.755   0.645   0.489  0.00  0.00    +0.003 C 
ENDROOT
BRANCH   2  16
ATOM     16  C   UNL     1       1.682   1.190  -1.106  0.00  0.00    -0.048 C 
BRANCH  16  17
ATOM     17  N   UNL     1       2.689   0.846  -0.120  0.00  0.00    +0.396 N 
ATOM     18  C   UNL     1       2.350   1.407   1.192  0.00  0.00    -0.099 C 
ATOM     19  H   UNL     1       2.713  -0.171  -0.043  0.00  0.00    -0.078 HD
BRANCH  17  20
ATOM     20  C   UNL     1       4.014   1.315  -0.539  0.00  0.00    +0.003 C 
BRANCH  20  21
ATOM     21  C   UNL     1       5.043   0.906   0.422  0.00  0.00    -0.101 C 
ATOM     22  C   UNL     1       5.889   0.573   1.205  0.00  0.00    -0.016 C 
ENDBRANCH  20  21
ENDBRANCH  17  20
ENDBRANCH  16  17
ENDBRANCH   2  16
TORSDOF 4
