REMARK  Name = 71451950
REMARK  5 active torsions:
REMARK  status: ('A' for Active; 'I' for Inactive)
REMARK    1  A    between atoms: N_4  and  C_18
REMARK    2  A    between atoms: C_18  and  C_20
REMARK    3  A    between atoms: N_19  and  C_26
REMARK    4  A    between atoms: C_26  and  C_28
REMARK    5  A    between atoms: C_28  and  O_33
REMARK                            x       y       z     vdW  Elec       q    Type
REMARK                         _______ _______ _______ _____ _____    ______ ____
ROOT
ATOM      1  F   UNL     1      -6.375  -3.444   0.579  0.00  0.00    -0.204 F 
ATOM      2  O   UNL     1      -2.124  -1.686  -1.119  0.00  0.00    -0.252 OA
ATOM      3  O   UNL     1      -2.656   2.537  -0.583  0.00  0.00    -0.274 OA
ATOM      4  N   UNL     1      -1.142   0.371  -1.375  0.00  0.00    -0.288 N 
ATOM      5  N   UNL     1      -3.313   0.242  -0.470  0.00  0.00    -0.192 N 
ATOM      6  C   UNL     1      -4.844   1.927   0.316  0.00  0.00    +0.090 C 
ATOM      7  C   UNL     1      -5.407   0.542   0.459  0.00  0.00    -0.000 C 
ATOM      8  C   UNL     1      -2.196  -0.462  -0.997  0.00  0.00    +0.314 C 
ATOM      9  C   UNL     1      -3.460   1.657  -0.302  0.00  0.00    +0.239 C 
ATOM     10  C   UNL     1      -4.492  -0.405  -0.007  0.00  0.00    +0.061 C 
ATOM     11  C   UNL     1      -5.673   2.783  -0.643  0.00  0.00    +0.014 C 
ATOM     12  C   UNL     1      -4.673   2.615   1.671  0.00  0.00    +0.014 C 
ATOM     13  C   UNL     1      -6.644   0.166   0.966  0.00  0.00    -0.000 C 
ATOM     14  C   UNL     1      -4.808  -1.756   0.027  0.00  0.00    +0.045 C 
ATOM     15  C   UNL     1      -6.965  -1.190   1.004  0.00  0.00    +0.029 C 
ATOM     16  C   UNL     1      -6.052  -2.144   0.537  0.00  0.00    +0.141 C 
ATOM     17  H   UNL     1      -1.241   1.343  -1.260  0.00  0.00    +0.151 HD
ENDROOT
BRANCH   4  18
ATOM     18  C   UNL     1       0.088  -0.145  -1.928  0.00  0.00    +0.091 C 
BRANCH  18  20
ATOM     19  N   UNL     1       3.756  -0.002   0.348  0.00  0.00    +0.388 N 
ATOM     20  C   UNL     1       1.111  -0.444  -0.835  0.00  0.00    +0.015 C 
ATOM     21  C   UNL     1       1.457   0.823  -0.045  0.00  0.00    -0.021 C 
ATOM     22  C   UNL     1       2.388  -1.051  -1.426  0.00  0.00    -0.021 C 
ATOM     23  C   UNL     1       2.555   0.552   0.986  0.00  0.00    -0.077 C 
ATOM     24  C   UNL     1       3.454  -1.259  -0.349  0.00  0.00    -0.077 C 
ATOM     25  H   UNL     1       4.084   0.671  -0.345  0.00  0.00    -0.080 HD
BRANCH  19  26
ATOM     26  C   UNL     1       4.814  -0.206   1.337  0.00  0.00    -0.050 C 
BRANCH  26  28
ATOM     27  O   UNL     1       8.677   0.916  -0.083  0.00  0.00    -0.354 OA
ATOM     28  C   UNL     1       6.184  -0.342   0.673  0.00  0.00    +0.074 C 
ATOM     29  C   UNL     1       7.309  -0.057   1.676  0.00  0.00    +0.057 C 
ATOM     30  C   UNL     1       6.310   0.598  -0.535  0.00  0.00    +0.057 C 
ATOM     31  C   UNL     1       8.671  -0.029   0.987  0.00  0.00    +0.144 C 
ATOM     32  C   UNL     1       7.729   0.585  -1.097  0.00  0.00    +0.144 C 
BRANCH  28  33
ATOM     33  O   UNL     1       6.323  -1.694   0.228  0.00  0.00    -0.389 OA
ATOM     34  H   UNL     1       6.244  -2.294   0.986  0.00  0.00    +0.210 HD
ENDBRANCH  28  33
ENDBRANCH  26  28
ENDBRANCH  19  26
ENDBRANCH  18  20
ENDBRANCH   4  18
TORSDOF 5
