REMARK  Name = 6918405
REMARK  11 active torsions:
REMARK  status: ('A' for Active; 'I' for Inactive)
REMARK    1  A    between atoms: C_1  and  N_8
REMARK    2  A    between atoms: C_2  and  C_21
REMARK    3  A    between atoms: C_4  and  O_19
REMARK    4  A    between atoms: C_9  and  CA_11
REMARK    5  A    between atoms: CA_11  and  N_12
REMARK    6  A    between atoms: CA_11  and  C_16
REMARK    7  A    between atoms: C_16  and  O_17
REMARK    8  A    between atoms: C_22  and  C_23
REMARK    9  A    between atoms: C_26  and  O_29
REMARK   10  A    between atoms: C_27  and  O_31
REMARK   11  A    between atoms: C_28  and  O_33
REMARK                            x       y       z     vdW  Elec       q    Type
REMARK                         _______ _______ _______ _____ _____    ______ ____
ROOT
ATOM      1  C   UNL     1      -2.255   0.829  -0.286  0.00  0.00    +0.085 C 
ATOM      2  C   UNL     1      -0.761   2.429  -1.310  0.00  0.00    +0.001 C 
ATOM      3  C   UNL     1      -1.219   1.118  -1.174  0.00  0.00    +0.018 C 
ATOM      4  C   UNL     1      -2.834   1.851   0.466  0.00  0.00    +0.152 C 
ATOM      5  C   UNL     1      -1.340   3.451  -0.557  0.00  0.00    +0.003 C 
ATOM      6  C   UNL     1      -2.376   3.162   0.331  0.00  0.00    +0.038 C 
ENDROOT
BRANCH   1   8
ATOM      7  O   UNL     1      -1.316  -1.674  -1.642  0.00  0.00    -0.277 OA
ATOM      8  N   UNL     1      -2.709  -0.505  -0.159  0.00  0.00    -0.283 N 
ATOM      9  C   UNL     1      -2.236  -1.631  -0.830  0.00  0.00    +0.208 C 
ATOM     10  H   UNL     1      -3.445  -0.656   0.477  0.00  0.00    +0.155 HD
BRANCH   9  11
ATOM     11  CA  UNL     1      -2.998  -2.889  -0.407  0.00  0.00    +0.043 C 
BRANCH  11  12
ATOM     12  N   UNL     1      -3.014  -3.796  -1.552  0.00  0.00    +0.389 N 
ATOM     13  H1  UNL     1      -3.480  -3.343  -2.339  0.00  0.00    -0.088 HD
ATOM     14  H2  UNL     1      -3.517  -4.649  -1.304  0.00  0.00    -0.088 HD
ATOM     15  H3  UNL     1      -2.056  -4.031  -1.814  0.00  0.00    -0.088 HD
ENDBRANCH  11  12
BRANCH  11  16
ATOM     16  C   UNL     1      -2.303  -3.551   0.782  0.00  0.00    +0.124 C 
BRANCH  16  17
ATOM     17  O   UNL     1      -2.664  -2.897   1.994  0.00  0.00    -0.384 OA
ATOM     18  H   UNL     1      -2.217  -3.327   2.739  0.00  0.00    +0.210 HD
ENDBRANCH  16  17
ENDBRANCH  11  16
ENDBRANCH   9  11
ENDBRANCH   1   8
BRANCH   4  19
ATOM     19  O   UNL     1      -3.847   1.591   1.340  0.00  0.00    -0.470 OA
ATOM     20  C   UNL     1      -3.481   1.267   2.679  0.00  0.00    +0.253 C 
ENDBRANCH   4  19
BRANCH   2  21
ATOM     21  C   UNL     1       0.319   2.730  -2.236  0.00  0.00    +0.000 C 
ATOM     22  C   UNL     1       1.567   2.207  -2.177  0.00  0.00    +0.000 C 
BRANCH  22  23
ATOM     23  C   UNL     1       2.037   1.245  -1.165  0.00  0.00    +0.006 C 
ATOM     24  C   UNL     1       2.018   1.589   0.187  0.00  0.00    +0.040 C 
ATOM     25  C   UNL     1       2.501  -0.010  -1.558  0.00  0.00    +0.040 C 
ATOM     26  C   UNL     1       2.946  -0.921  -0.600  0.00  0.00    +0.175 C 
ATOM     27  C   UNL     1       2.463   0.678   1.145  0.00  0.00    +0.175 C 
ATOM     28  C   UNL     1       2.927  -0.577   0.752  0.00  0.00    +0.206 C 
BRANCH  26  29
ATOM     29  O   UNL     1       3.397  -2.144  -0.997  0.00  0.00    -0.468 OA
ATOM     30  C   UNL     1       3.383  -2.416  -2.397  0.00  0.00    +0.253 C 
ENDBRANCH  26  29
BRANCH  27  31
ATOM     31  O   UNL     1       2.439   1.027   2.462  0.00  0.00    -0.468 OA
ATOM     32  C   UNL     1       3.605   1.660   2.986  0.00  0.00    +0.253 C 
ENDBRANCH  27  31
BRANCH  28  33
ATOM     33  O   UNL     1       3.362  -1.467   1.688  0.00  0.00    -0.465 OA
ATOM     34  C   UNL     1       2.390  -2.357   2.235  0.00  0.00    +0.253 C 
ENDBRANCH  28  33
ENDBRANCH  22  23
ENDBRANCH   2  21
TORSDOF 11
