REMARK  Name = 90274764
REMARK  5 active torsions:
REMARK  status: ('A' for Active; 'I' for Inactive)
REMARK    1  A    between atoms: C_1  and  N_3
REMARK    2  A    between atoms: C_1  and  C_11
REMARK    3  A    between atoms: N_3  and  C_6
REMARK    4  A    between atoms: C_6  and  C_9
REMARK    5  A    between atoms: C_11  and  C_12
REMARK                            x       y       z     vdW  Elec       q    Type
REMARK                         _______ _______ _______ _____ _____    ______ ____
ROOT
ATOM      1  C   UNL     1       0.710  -0.171   0.802  0.00  0.00    -0.053 C 
ATOM      2  C   UNL     1       0.769  -1.623   1.276  0.00  0.00    -0.023 C 
ENDROOT
BRANCH   1   3
ATOM      3  N   UNL     1       2.082   0.315   0.628  0.00  0.00    +0.392 N 
ATOM      4  C   UNL     1       2.110   1.775   0.642  0.00  0.00    -0.100 C 
ATOM      5  H   UNL     1       2.650  -0.026   1.404  0.00  0.00    -0.079 HD
BRANCH   3   6
ATOM      6  C   UNL     1       2.648  -0.198  -0.618  0.00  0.00    +0.015 C 
BRANCH   6   7
ATOM      7  C   UNL     1       4.113  -0.188  -0.571  0.00  0.00    -0.107 C 
ATOM      8  C   UNL     1       5.314  -0.182  -0.537  0.00  0.00    -0.017 C 
ENDBRANCH   6   7
ENDBRANCH   3   6
ENDBRANCH   1   3
BRANCH   1   9
ATOM      9  C   UNL     1      -0.063  -0.014  -0.521  0.00  0.00    +0.006 C 
BRANCH   9  10
ATOM     10  C   UNL     1      -1.562   0.018  -0.345  0.00  0.00    -0.024 C 
ATOM     11  C   UNL     1      -2.294  -1.169  -0.384  0.00  0.00    -0.004 C 
ATOM     12  C   UNL     1      -2.215   1.234  -0.145  0.00  0.00    -0.004 C 
ATOM     13  C   UNL     1      -3.679  -1.139  -0.222  0.00  0.00    -0.000 C 
ATOM     14  C   UNL     1      -3.600   1.264   0.017  0.00  0.00    -0.000 C 
ATOM     15  C   UNL     1      -4.332   0.077  -0.022  0.00  0.00    -0.000 C 
ENDBRANCH   9  10
ENDBRANCH   1   9
TORSDOF 5
