REMARK  Name = 3006048
REMARK  5 active torsions:
REMARK  status: ('A' for Active; 'I' for Inactive)
REMARK    1  A    between atoms: N_2  and  C_18
REMARK    2  A    between atoms: C_15  and  C_19
REMARK    3  A    between atoms: C_15  and  C_22
REMARK    4  A    between atoms: C_19  and  O_20
REMARK    5  A    between atoms: C_22  and  O_23
REMARK                            x       y       z     vdW  Elec       q    Type
REMARK                         _______ _______ _______ _____ _____    ______ ____
ROOT
ATOM      1  O   UNL     1      -3.857  -2.296   0.286  0.00  0.00    -0.208 OA
ATOM      2  N   UNL     1      -0.086   0.169  -0.084  0.00  0.00    -0.267 N 
ATOM      3  N   UNL     1      -2.194   1.379  -0.172  0.00  0.00    -0.276 N 
ATOM      4  N   UNL     1      -0.939  -1.891   0.171  0.00  0.00    -0.237 NA
ATOM      5  N   UNL     1      -4.142  -0.009   0.032  0.00  0.00    -0.301 NA
ATOM      6  N   UNL     1      -4.301   2.328  -0.227  0.00  0.00    -0.320 N 
ATOM      7  C   UNL     1      -1.434   0.287  -0.065  0.00  0.00    +0.205 C 
ATOM      8  C   UNL     1       0.168  -1.176   0.062  0.00  0.00    +0.222 C 
ATOM      9  C   UNL     1      -1.944  -0.969   0.090  0.00  0.00    +0.187 C 
ATOM     10  C   UNL     1      -3.378  -1.177   0.147  0.00  0.00    +0.224 C 
ATOM     11  C   UNL     1      -3.571   1.172  -0.116  0.00  0.00    +0.245 C 
ATOM     12  H   UNL     1      -1.805   2.277  -0.283  0.00  0.00    +0.152 HD
ATOM     13  H   UNL     1      -3.841   3.192  -0.336  0.00  0.00    +0.146 HD
ATOM     14  H   UNL     1      -5.284   2.294  -0.198  0.00  0.00    +0.146 HD
ENDROOT
BRANCH   2  18
ATOM     15  C   UNL     1       3.290   0.179  -0.163  0.00  0.00    +0.074 C 
ATOM     16  C   UNL     1       3.419   1.727  -0.341  0.00  0.00    +0.032 C 
ATOM     17  C   UNL     1       2.187   1.052  -0.236  0.00  0.00    -0.025 C 
ATOM     18  C   UNL     1       0.854   1.170  -0.219  0.00  0.00    +0.056 C 
BRANCH  15  19
ATOM     19  C   UNL     1       3.643  -0.405   1.157  0.00  0.00    +0.144 C 
BRANCH  19  20
ATOM     20  O   UNL     1       3.960   0.635   2.084  0.00  0.00    -0.382 OA
ATOM     21  H   UNL     1       4.189   0.245   2.942  0.00  0.00    +0.210 HD
ENDBRANCH  19  20
ENDBRANCH  15  19
BRANCH  15  22
ATOM     22  C   UNL     1       3.586  -0.687  -1.334  0.00  0.00    +0.144 C 
BRANCH  22  23
ATOM     23  O   UNL     1       4.740  -1.488  -1.073  0.00  0.00    -0.382 OA
ATOM     24  H   UNL     1       4.925  -2.049  -1.842  0.00  0.00    +0.210 HD
ENDBRANCH  22  23
ENDBRANCH  15  22
ENDBRANCH   2  18
TORSDOF 5
