REMARK  Name = 65954
REMARK  5 active torsions:
REMARK  status: ('A' for Active; 'I' for Inactive)
REMARK    1  A    between atoms: N_2  and  C_24
REMARK    2  A    between atoms: C_19  and  O_22
REMARK    3  A    between atoms: C_24  and  C_25
REMARK    4  A    between atoms: C_25  and  C_26
REMARK    5  A    between atoms: C_26  and  N_27
REMARK                            x       y       z     vdW  Elec       q    Type
REMARK                         _______ _______ _______ _____ _____    ______ ____
ROOT
ATOM      1  N   UNL     1      -1.795   2.784   0.589  0.00  0.00    -0.353 N 
ATOM      2  N   UNL     1      -0.826  -1.493  -1.173  0.00  0.00    -0.318 N 
ATOM      3  N   UNL     1      -3.002  -0.859  -0.831  0.00  0.00    -0.230 NA
ATOM      4  C   UNL     1      -0.088   1.463  -0.010  0.00  0.00    +0.020 A 
ATOM      5  C   UNL     1      -1.336   0.768  -0.241  0.00  0.00    +0.048 A 
ATOM      6  C   UNL     1      -2.370   1.623   0.144  0.00  0.00    +0.057 A 
ATOM      7  C   UNL     1      -0.426   2.717   0.508  0.00  0.00    +0.057 A 
ATOM      8  C   UNL     1       1.308   1.165  -0.185  0.00  0.00    +0.002 C 
ATOM      9  C   UNL     1      -1.699  -0.494  -0.735  0.00  0.00    +0.130 C 
ATOM     10  C   UNL     1      -3.716   1.277   0.058  0.00  0.00    +0.013 C 
ATOM     11  C   UNL     1       2.272   2.148   0.173  0.00  0.00    +0.003 C 
ATOM     12  C   UNL     1       0.516   3.686   0.860  0.00  0.00    +0.017 C 
ATOM     13  C   UNL     1       1.864   3.382   0.685  0.00  0.00    +0.002 C 
ATOM     14  C   UNL     1       1.765  -0.068  -0.699  0.00  0.00    +0.003 C 
ATOM     15  C   UNL     1      -3.956   0.011  -0.442  0.00  0.00    +0.097 C 
ATOM     16  C   UNL     1       3.639   1.871   0.007  0.00  0.00    +0.037 C 
ATOM     17  C   UNL     1      -4.836   2.170   0.463  0.00  0.00    +0.034 C 
ATOM     18  C   UNL     1       3.129  -0.322  -0.854  0.00  0.00    +0.037 C 
ATOM     19  C   UNL     1       4.064   0.645  -0.502  0.00  0.00    +0.134 C 
ATOM     20  H   UNL     1      -2.297   3.563   0.922  0.00  0.00    +0.166 HD
ATOM     21  H   UNL     1       0.090  -1.236  -1.426  0.00  0.00    +0.148 HD
ENDROOT
BRANCH  19  22
ATOM     22  O   UNL     1       5.393   0.394  -0.653  0.00  0.00    -0.506 OA
ATOM     23  H   UNL     1       6.022   1.046  -0.416  0.00  0.00    +0.292 HD
ENDBRANCH  19  22
BRANCH   2  24
ATOM     24  C   UNL     1      -1.197  -2.878  -1.273  0.00  0.00    +0.086 C 
BRANCH  24  25
ATOM     25  C   UNL     1      -1.542  -3.446   0.103  0.00  0.00    -0.002 C 
BRANCH  25  26
ATOM     26  C   UNL     1      -0.419  -3.334   1.139  0.00  0.00    -0.076 C 
BRANCH  26  27
ATOM     27  N   UNL     1       0.799  -4.001   0.696  0.00  0.00    +0.384 N 
ATOM     28  C   UNL     1       0.568  -5.437   0.526  0.00  0.00    -0.101 C 
ATOM     29  C   UNL     1       1.888  -3.772   1.648  0.00  0.00    -0.101 C 
ATOM     30  H   UNL     1       1.069  -3.607  -0.205  0.00  0.00    -0.080 HD
ENDBRANCH  26  27
ENDBRANCH  25  26
ENDBRANCH  24  25
ENDBRANCH   2  24
TORSDOF 5
