REMARK  Name = 76685216
REMARK  0 active torsions:
REMARK  status: ('A' for Active; 'I' for Inactive)
REMARK                            x       y       z     vdW  Elec       q    Type
REMARK                         _______ _______ _______ _____ _____    ______ ____
ROOT
ATOM      1  F   UNL     1       0.114  -3.394  -0.665  0.00  0.00    -0.200 F 
ATOM      2  O   UNL     1      -4.563  -2.100   0.244  0.00  0.00    -0.355 OA
ATOM      3  O   UNL     1      -1.940   0.451  -2.077  0.00  0.00    -0.274 OA
ATOM      4  O   UNL     1      -3.634   1.842   2.144  0.00  0.00    -0.274 OA
ATOM      5  O   UNL     1       2.848  -2.658  -0.637  0.00  0.00    -0.350 OA
ATOM      6  O   UNL     1      -2.933   4.839  -1.248  0.00  0.00    -0.252 OA
ATOM      7  O   UNL     1       6.591   1.393  -0.019  0.00  0.00    -0.432 OA
ATOM      8  O   UNL     1       6.647  -0.869  -0.371  0.00  0.00    -0.226 OA
ATOM      9  N   UNL     1      -1.828  -1.468   0.259  0.00  0.00    -0.302 N 
ATOM     10  N   UNL     1      -3.223   3.327   0.456  0.00  0.00    -0.239 N 
ATOM     11  N   UNL     1      -2.352   2.647  -1.610  0.00  0.00    -0.239 N 
ATOM     12  N   UNL     1       4.634   0.277   0.042  0.00  0.00    -0.205 N 
ATOM     13  N   UNL     1       4.046  -1.958  -0.556  0.00  0.00    -0.061 NA
ATOM     14  C   UNL     1      -2.830  -0.406   0.559  0.00  0.00    +0.117 C 
ATOM     15  C   UNL     1      -2.314   1.035   0.263  0.00  0.00    +0.161 C 
ATOM     16  C   UNL     1      -4.143  -0.793  -0.188  0.00  0.00    +0.134 C 
ATOM     17  C   UNL     1      -0.901   1.198   0.875  0.00  0.00    +0.047 C 
ATOM     18  C   UNL     1      -2.286  -2.828   0.592  0.00  0.00    +0.120 C 
ATOM     19  C   UNL     1      -0.460  -1.197   0.182  0.00  0.00    +0.075 C 
ATOM     20  C   UNL     1       0.040   0.097   0.464  0.00  0.00    -0.005 C 
ATOM     21  C   UNL     1      -3.612  -3.101  -0.117  0.00  0.00    +0.135 C 
ATOM     22  C   UNL     1      -3.143   2.072   1.038  0.00  0.00    +0.239 C 
ATOM     23  C   UNL     1      -2.206   1.319  -1.245  0.00  0.00    +0.239 C 
ATOM     24  C   UNL     1      -5.333   0.123   0.065  0.00  0.00    +0.034 C 
ATOM     25  C   UNL     1       1.421   0.405   0.417  0.00  0.00    +0.003 C 
ATOM     26  C   UNL     1       0.471  -2.181  -0.226  0.00  0.00    +0.190 C 
ATOM     27  C   UNL     1      -4.185  -4.453   0.287  0.00  0.00    +0.034 C 
ATOM     28  C   UNL     1       2.320  -0.593   0.035  0.00  0.00    +0.074 A 
ATOM     29  C   UNL     1       1.822  -1.839  -0.277  0.00  0.00    +0.207 A 
ATOM     30  C   UNL     1      -2.829   3.687  -0.825  0.00  0.00    +0.312 C 
ATOM     31  C   UNL     1       3.708  -0.729  -0.154  0.00  0.00    +0.182 A 
ATOM     32  C   UNL     1       4.327   1.619   0.469  0.00  0.00    +0.128 C 
ATOM     33  C   UNL     1       5.548   2.373  -0.016  0.00  0.00    +0.230 C 
ATOM     34  C   UNL     1       6.008   0.151  -0.144  0.00  0.00    +0.410 C 
ATOM     35  C   UNL     1       4.169   1.710   1.985  0.00  0.00    +0.026 C 
ATOM     36  H   UNL     1      -3.601   4.044   1.014  0.00  0.00    +0.159 HD
ATOM     37  H   UNL     1      -2.089   2.880  -2.529  0.00  0.00    +0.159 HD
ENDROOT
TORSDOF 0
