REMARK  Name = 359
REMARK  3 active torsions:
REMARK  status: ('A' for Active; 'I' for Inactive)
REMARK    1  A    between atoms: C_1  and  O_7
REMARK    2  A    between atoms: C_2  and  O_9
REMARK    3  A    between atoms: C_3  and  O_11
REMARK                            x       y       z     vdW  Elec       q    Type
REMARK                         _______ _______ _______ _____ _____    ______ ____
ROOT
ATOM      1  C   UNL     1      -1.315   0.466   0.000  0.00  0.00    +0.140 C 
ATOM      2  C   UNL     1       0.254  -1.371   0.000  0.00  0.00    +0.140 C 
ATOM      3  C   UNL     1       1.061   0.906   0.000  0.00  0.00    +0.140 C 
ATOM      4  C   UNL     1      -1.061  -0.906   0.000  0.00  0.00    +0.073 C 
ATOM      5  C   UNL     1      -0.254   1.371   0.000  0.00  0.00    +0.073 C 
ATOM      6  C   UNL     1       1.315  -0.466   0.000  0.00  0.00    +0.073 C 
ENDROOT
BRANCH   1   7
ATOM      7  O   UNL     1      -2.598   0.919   0.000  0.00  0.00    -0.505 OA
ATOM      8  H   UNL     1      -3.310   0.311   0.000  0.00  0.00    +0.292 HD
ENDBRANCH   1   7
BRANCH   2   9
ATOM      9  O   UNL     1       0.503  -2.710   0.000  0.00  0.00    -0.505 OA
ATOM     10  H   UNL     1      -0.210  -3.318   0.000  0.00  0.00    +0.292 HD
ENDBRANCH   2   9
BRANCH   3  11
ATOM     11  O   UNL     1       2.095   1.790   0.000  0.00  0.00    -0.505 OA
ATOM     12  H   UNL     1       1.924   2.711   0.000  0.00  0.00    +0.292 HD
ENDBRANCH   3  11
TORSDOF 3
