REMARK  Name = 4031
REMARK  14 active torsions:
REMARK  status: ('A' for Active; 'I' for Inactive)
REMARK    1  A    between atoms: C_1  and  N_2
REMARK    2  A    between atoms: C_1  and  C_17
REMARK    3  A    between atoms: N_2  and  C_4
REMARK    4  A    between atoms: N_2  and  C_15
REMARK    5  A    between atoms: C_4  and  C_6
REMARK    6  A    between atoms: C_6  and  C_7
REMARK    7  A    between atoms: C_12  and  O_13
REMARK    8  A    between atoms: C_17  and  C_18
REMARK    9  A    between atoms: C_18  and  C_19
REMARK   10  A    between atoms: C_19  and  O_20
REMARK   11  A    between atoms: O_20  and  C_22
REMARK   12  A    between atoms: C_22  and  C_23
REMARK   13  A    between atoms: C_26  and  O_29
REMARK   14  A    between atoms: C_28  and  O_31
REMARK                            x       y       z     vdW  Elec       q    Type
REMARK                         _______ _______ _______ _____ _____    ______ ____
ROOT
ATOM      1  C   UNL     1      -1.191  -1.463   0.031  0.00  0.00    -0.077 C 
ENDROOT
BRANCH   1   2
ATOM      2  N   UNL     1      -1.699  -0.512   1.013  0.00  0.00    +0.388 N 
ATOM      3  H   UNL     1      -1.310  -0.756   1.924  0.00  0.00    -0.080 HD
BRANCH   2   4
ATOM      4  C   UNL     1      -3.159  -0.586   1.094  0.00  0.00    -0.054 C 
ATOM      5  C   UNL     1      -3.533  -1.824   1.909  0.00  0.00    -0.023 C 
BRANCH   4   6
ATOM      6  C   UNL     1      -3.752  -0.613  -0.326  0.00  0.00    +0.006 C 
BRANCH   6   7
ATOM      7  C   UNL     1      -5.196  -0.174  -0.386  0.00  0.00    -0.024 C 
ATOM      8  C   UNL     1      -6.217  -1.113  -0.243  0.00  0.00    -0.001 C 
ATOM      9  C   UNL     1      -5.508   1.171  -0.584  0.00  0.00    -0.001 C 
ATOM     10  C   UNL     1      -7.551  -0.707  -0.299  0.00  0.00    +0.037 C 
ATOM     11  C   UNL     1      -6.842   1.577  -0.639  0.00  0.00    +0.037 C 
ATOM     12  C   UNL     1      -7.863   0.638  -0.497  0.00  0.00    +0.139 C 
BRANCH  12  13
ATOM     13  O   UNL     1      -9.164   1.033  -0.551  0.00  0.00    -0.471 OA
ATOM     14  C   UNL     1      -9.412   2.423  -0.756  0.00  0.00    +0.252 C 
ENDBRANCH  12  13
ENDBRANCH   6   7
ENDBRANCH   4   6
ENDBRANCH   2   4
BRANCH   2  15
ATOM     15  C   UNL     1      -1.277   0.849   0.677  0.00  0.00    -0.077 C 
ATOM     16  C   UNL     1      -1.800   1.852   1.692  0.00  0.00    -0.025 C 
ENDBRANCH   2  15
ENDBRANCH   1   2
BRANCH   1  17
ATOM     17  C   UNL     1       0.272  -1.795   0.321  0.00  0.00    -0.019 C 
BRANCH  17  18
ATOM     18  C   UNL     1       0.827  -2.785  -0.702  0.00  0.00    +0.045 C 
BRANCH  18  19
ATOM     19  C   UNL     1       2.273  -3.155  -0.398  0.00  0.00    +0.209 C 
BRANCH  19  20
ATOM     20  O   UNL     1       3.082  -1.987  -0.404  0.00  0.00    -0.445 OA
BRANCH  20  22
ATOM     21  O   UNL     1       4.947  -3.244   0.088  0.00  0.00    -0.245 OA
ATOM     22  C   UNL     1       4.405  -2.174  -0.145  0.00  0.00    +0.341 C 
BRANCH  22  23
ATOM     23  C   UNL     1       5.136  -0.882  -0.179  0.00  0.00    +0.079 C 
ATOM     24  C   UNL     1       4.482   0.299   0.171  0.00  0.00    +0.046 C 
ATOM     25  C   UNL     1       6.477  -0.849  -0.562  0.00  0.00    +0.010 C 
ATOM     26  C   UNL     1       5.169   1.513   0.138  0.00  0.00    +0.173 C 
ATOM     27  C   UNL     1       7.164   0.364  -0.596  0.00  0.00    +0.040 C 
ATOM     28  C   UNL     1       6.510   1.546  -0.246  0.00  0.00    +0.172 C 
BRANCH  26  29
ATOM     29  O   UNL     1       4.519   2.660   0.481  0.00  0.00    -0.468 OA
ATOM     30  C   UNL     1       3.150   2.540   0.861  0.00  0.00    +0.253 C 
ENDBRANCH  26  29
BRANCH  28  31
ATOM     31  O   UNL     1       7.191   2.725  -0.281  0.00  0.00    -0.468 OA
ATOM     32  C   UNL     1       8.558   2.671  -0.684  0.00  0.00    +0.253 C 
ENDBRANCH  28  31
ENDBRANCH  22  23
ENDBRANCH  20  22
ENDBRANCH  19  20
ENDBRANCH  18  19
ENDBRANCH  17  18
ENDBRANCH   1  17
TORSDOF 14
