REMARK  Name = 10221200
REMARK  7 active torsions:
REMARK  status: ('A' for Active; 'I' for Inactive)
REMARK    1  A    between atoms: C_1  and  C_2
REMARK    2  A    between atoms: C_1  and  N_13
REMARK    3  A    between atoms: C_5  and  C_11
REMARK    4  A    between atoms: C_14  and  C_16
REMARK    5  A    between atoms: C_16  and  C_17
REMARK    6  A    between atoms: C_17  and  C_18
REMARK    7  A    between atoms: C_18  and  O_19
REMARK                            x       y       z     vdW  Elec       q    Type
REMARK                         _______ _______ _______ _____ _____    ______ ____
ROOT
ATOM      1  C   UNL     1       0.042  -2.409  -0.024  0.00  0.00    +0.116 C 
ENDROOT
BRANCH   1   2
ATOM      2  C   UNL     1      -1.128  -1.468  -0.007  0.00  0.00    -0.003 C 
ATOM      3  C   UNL     1      -1.367  -0.649  -1.104  0.00  0.00    -0.003 C 
ATOM      4  C   UNL     1      -1.959  -1.425   1.106  0.00  0.00    -0.003 C 
ATOM      5  C   UNL     1      -3.293   0.275   0.025  0.00  0.00    +0.071 C 
ATOM      6  C   UNL     1      -2.453   0.226  -1.088  0.00  0.00    +0.004 C 
ATOM      7  C   UNL     1      -3.045  -0.550   1.123  0.00  0.00    +0.004 C 
BRANCH   5  11
ATOM      8  F   UNL     1      -4.575   1.956  -1.095  0.00  0.00    -0.166 F 
ATOM      9  F   UNL     1      -5.659   0.583   0.186  0.00  0.00    -0.166 F 
ATOM     10  F   UNL     1      -4.387   2.112   1.066  0.00  0.00    -0.166 F 
ATOM     11  C   UNL     1      -4.455   1.210   0.043  0.00  0.00    +0.419 C 
ENDBRANCH   5  11
ENDBRANCH   1   2
BRANCH   1  13
ATOM     12  O   UNL     1       2.037  -0.934  -1.490  0.00  0.00    -0.275 OA
ATOM     13  N   UNL     1       1.236  -1.796   0.511  0.00  0.00    -0.300 N 
ATOM     14  C   UNL     1       2.142  -1.103  -0.279  0.00  0.00    +0.223 C 
ATOM     15  H   UNL     1       1.414  -1.874   1.476  0.00  0.00    +0.150 HD
BRANCH  14  16
ATOM     16  C   UNL     1       3.287  -0.540   0.546  0.00  0.00    +0.088 C 
BRANCH  16  17
ATOM     17  C   UNL     1       4.313   0.233  -0.276  0.00  0.00    +0.042 C 
BRANCH  17  18
ATOM     18  C   UNL     1       5.459   0.774   0.570  0.00  0.00    +0.143 C 
BRANCH  18  19
ATOM     19  O   UNL     1       6.350   1.493  -0.272  0.00  0.00    -0.351 OA
ATOM     20  C   UNL     1       7.453   2.014   0.458  0.00  0.00    +0.174 C 
ENDBRANCH  18  19
ENDBRANCH  17  18
ENDBRANCH  16  17
ENDBRANCH  14  16
ENDBRANCH   1  13
TORSDOF 7
