REMARK  Name = 5806
REMARK  5 active torsions:
REMARK  status: ('A' for Active; 'I' for Inactive)
REMARK    1  A    between atoms: C_1  and  C_4
REMARK    2  A    between atoms: C_1  and  O_10
REMARK    3  A    between atoms: C_1  and  C_12
REMARK    4  A    between atoms: C_12  and  N_13
REMARK    5  A    between atoms: N_13  and  C_16
REMARK                            x       y       z     vdW  Elec       q    Type
REMARK                         _______ _______ _______ _____ _____    ______ ____
ROOT
ATOM      1  C   UNL     1      -0.762   1.070  -0.460  0.00  0.00    +0.112 C 
ENDROOT
BRANCH   1   4
ATOM      2 CL   UNL     1       2.978  -2.503  -0.568  0.00  0.00    -0.081 Cl
ATOM      3 CL   UNL     1       4.971  -0.297   0.710  0.00  0.00    -0.081 Cl
ATOM      4  C   UNL     1       0.679   0.710  -0.170  0.00  0.00    +0.003 C 
ATOM      5  C   UNL     1       1.128  -0.567  -0.460  0.00  0.00    +0.010 C 
ATOM      6  C   UNL     1       1.517   1.666   0.379  0.00  0.00    -0.001 C 
ATOM      7  C   UNL     1       2.457  -0.898  -0.195  0.00  0.00    +0.068 C 
ATOM      8  C   UNL     1       2.845   1.334   0.644  0.00  0.00    +0.012 C 
ATOM      9  C   UNL     1       3.315   0.053   0.358  0.00  0.00    +0.068 C 
ENDBRANCH   1   4
BRANCH   1  10
ATOM     10  O   UNL     1      -0.968   0.984  -1.869  0.00  0.00    -0.382 OA
ATOM     11  H   UNL     1      -1.888   1.211  -2.076  0.00  0.00    +0.211 HD
ENDBRANCH   1  10
BRANCH   1  12
ATOM     12  C   UNL     1      -1.733   0.140   0.278  0.00  0.00    -0.047 C 
BRANCH  12  13
ATOM     13  N   UNL     1      -3.113   0.498  -0.011  0.00  0.00    +0.387 N 
ATOM     14  H   UNL     1      -3.275   0.424  -1.015  0.00  0.00    -0.084 HD
ATOM     15  H   UNL     1      -3.276   1.454   0.305  0.00  0.00    -0.084 HD
BRANCH  13  16
ATOM     16  C   UNL     1      -4.037  -0.392   0.691  0.00  0.00    -0.062 C 
ATOM     17  C   UNL     1      -3.805  -1.838   0.264  0.00  0.00    -0.023 C 
ATOM     18  C   UNL     1      -5.472   0.041   0.409  0.00  0.00    -0.023 C 
ENDBRANCH  13  16
ENDBRANCH  12  13
ENDBRANCH   1  12
TORSDOF 5
