REMARK  Name = 60786
REMARK  5 active torsions:
REMARK  status: ('A' for Active; 'I' for Inactive)
REMARK    1  A    between atoms: N_2  and  C_16
REMARK    2  A    between atoms: C_15  and  C_19
REMARK    3  A    between atoms: C_17  and  C_22
REMARK    4  A    between atoms: C_19  and  O_20
REMARK    5  A    between atoms: C_22  and  O_23
REMARK                            x       y       z     vdW  Elec       q    Type
REMARK                         _______ _______ _______ _____ _____    ______ ____
ROOT
ATOM      1  O   UNL     1       4.330  -1.402  -0.345  0.00  0.00    -0.208 OA
ATOM      2  N   UNL     1      -0.077  -0.604   0.263  0.00  0.00    -0.233 NA
ATOM      3  N   UNL     1       1.489  -2.162  -0.132  0.00  0.00    -0.241 NA
ATOM      4  N   UNL     1       1.405   1.322   0.366  0.00  0.00    -0.279 N 
ATOM      5  N   UNL     1       3.726   0.803   0.032  0.00  0.00    -0.301 NA
ATOM      6  N   UNL     1       2.985   3.007   0.425  0.00  0.00    -0.320 N 
ATOM      7  C   UNL     1       1.119   0.026   0.216  0.00  0.00    +0.189 C 
ATOM      8  C   UNL     1       0.198  -1.935   0.045  0.00  0.00    +0.203 C 
ATOM      9  C   UNL     1       2.065  -0.927  -0.024  0.00  0.00    +0.183 C 
ATOM     10  C   UNL     1       3.464  -0.563  -0.131  0.00  0.00    +0.224 C 
ATOM     11  C   UNL     1       2.752   1.665   0.263  0.00  0.00    +0.245 C 
ATOM     12  H   UNL     1       0.707   1.994   0.539  0.00  0.00    +0.152 HD
ATOM     13  H   UNL     1       2.234   3.620   0.596  0.00  0.00    +0.146 HD
ATOM     14  H   UNL     1       3.904   3.356   0.371  0.00  0.00    +0.146 HD
ENDROOT
BRANCH   2  16
ATOM     15  C   UNL     1      -2.439  -0.471  -0.532  0.00  0.00    +0.047 C 
ATOM     16  C   UNL     1      -1.376  -0.030   0.495  0.00  0.00    +0.064 C 
ATOM     17  C   UNL     1      -3.430  -0.565   0.647  0.00  0.00    +0.034 C 
ATOM     18  C   UNL     1      -2.205  -0.781   1.559  0.00  0.00    +0.019 C 
BRANCH  15  19
ATOM     19  C   UNL     1      -2.742   0.569  -1.598  0.00  0.00    +0.139 C 
BRANCH  19  20
ATOM     20  O   UNL     1      -1.730   0.521  -2.591  0.00  0.00    -0.382 OA
ATOM     21  H   UNL     1      -1.917   1.182  -3.275  0.00  0.00    +0.210 HD
ENDBRANCH  19  20
ENDBRANCH  15  19
BRANCH  17  22
ATOM     22  C   UNL     1      -4.213   0.718   0.964  0.00  0.00    +0.137 C 
BRANCH  22  23
ATOM     23  O   UNL     1      -5.321   0.810   0.080  0.00  0.00    -0.382 OA
ATOM     24  H   UNL     1      -5.822   1.617   0.273  0.00  0.00    +0.210 HD
ENDBRANCH  22  23
ENDBRANCH  17  22
ENDBRANCH   2  16
TORSDOF 5
