REMARK  Name = 5359405
REMARK  0 active torsions:
REMARK  status: ('A' for Active; 'I' for Inactive)
REMARK                            x       y       z     vdW  Elec       q    Type
REMARK                         _______ _______ _______ _____ _____    ______ ____
ROOT
ATOM      1  O   UNL     1      -1.341   2.336   0.000  0.00  0.00    -0.285 OA
ATOM      2  O   UNL     1       0.721   2.853   0.000  0.00  0.00    -0.270 OA
ATOM      3  N   UNL     1      -0.966  -1.139   0.001  0.00  0.00    -0.310 N 
ATOM      4  N   UNL     1       2.805   1.742   0.000  0.00  0.00    -0.280 N 
ATOM      5  C   UNL     1       0.931   0.428   0.001  0.00  0.00    +0.071 C 
ATOM      6  C   UNL     1      -0.360   0.091   0.001  0.00  0.00    +0.092 C 
ATOM      7  C   UNL     1       2.099  -0.446   0.001  0.00  0.00    +0.019 C 
ATOM      8  C   UNL     1       3.209   0.402   0.000  0.00  0.00    +0.051 C 
ATOM      9  C   UNL     1      -2.707   0.358   0.001  0.00  0.00    +0.054 C 
ATOM     10  C   UNL     1      -2.348  -0.996   0.001  0.00  0.00    +0.051 C 
ATOM     11  C   UNL     1      -1.451   1.129   0.001  0.00  0.00    +0.210 C 
ATOM     12  C   UNL     1       1.411   1.851   0.000  0.00  0.00    +0.251 C 
ATOM     13  C   UNL     1       2.259  -1.819   0.000  0.00  0.00    +0.001 C 
ATOM     14  C   UNL     1       4.505  -0.076  -0.001  0.00  0.00    +0.015 C 
ATOM     15  C   UNL     1      -4.016   0.793   0.000  0.00  0.00    +0.004 C 
ATOM     16  C   UNL     1      -3.324  -1.971   0.000  0.00  0.00    +0.015 C 
ATOM     17  C   UNL     1       3.564  -2.325   0.000  0.00  0.00    +0.000 C 
ATOM     18  C   UNL     1       4.676  -1.461  -0.001  0.00  0.00    +0.001 C 
ATOM     19  C   UNL     1      -5.004  -0.192  -0.001  0.00  0.00    +0.000 C 
ATOM     20  C   UNL     1      -4.662  -1.559  -0.001  0.00  0.00    +0.001 C 
ATOM     21  H   UNL     1      -0.490  -2.001   0.000  0.00  0.00    +0.152 HD
ATOM     22  H   UNL     1       3.422   2.509   0.000  0.00  0.00    +0.155 HD
ENDROOT
TORSDOF 0
