REMARK  Name = 10176764
REMARK  0 active torsions:
REMARK  status: ('A' for Active; 'I' for Inactive)
REMARK                            x       y       z     vdW  Elec       q    Type
REMARK                         _______ _______ _______ _____ _____    ______ ____
ROOT
ATOM      1  O   UNL     1       0.304   1.404   0.307  0.00  0.00    -0.478 OA
ATOM      2  N   UNL     1      -2.786   0.009  -1.077  0.00  0.00    +0.387 N 
ATOM      3  N   UNL     1       2.657  -1.400  -0.040  0.00  0.00    -0.245 NA
ATOM      4  C   UNL     1      -0.998  -0.700   0.244  0.00  0.00    +0.022 C 
ATOM      5  C   UNL     1      -0.785   0.683   0.909  0.00  0.00    +0.162 C 
ATOM      6  C   UNL     1      -1.413  -0.512  -1.219  0.00  0.00    -0.073 C 
ATOM      7  C   UNL     1      -2.245  -1.405   0.803  0.00  0.00    -0.021 C 
ATOM      8  C   UNL     1      -3.395  -0.891  -0.073  0.00  0.00    -0.077 C 
ATOM      9  C   UNL     1       0.274  -1.529   0.418  0.00  0.00    +0.050 C 
ATOM     10  C   UNL     1      -2.040   1.560   0.784  0.00  0.00    +0.021 C 
ATOM     11  C   UNL     1      -2.722   1.400  -0.583  0.00  0.00    -0.074 C 
ATOM     12  C   UNL     1       1.505  -0.712   0.155  0.00  0.00    +0.093 C 
ATOM     13  C   UNL     1       1.448   0.679   0.132  0.00  0.00    +0.152 C 
ATOM     14  C   UNL     1       2.615   1.389  -0.134  0.00  0.00    +0.040 C 
ATOM     15  C   UNL     1       3.774  -0.678  -0.283  0.00  0.00    +0.099 C 
ATOM     16  C   UNL     1       3.805   0.704  -0.343  0.00  0.00    +0.024 C 
ATOM     17  H   UNL     1      -3.319   0.027  -1.946  0.00  0.00    -0.080 HD
ENDROOT
TORSDOF 0
