REMARK  Name = 46940575
REMARK  8 active torsions:
REMARK  status: ('A' for Active; 'I' for Inactive)
REMARK    1  A    between atoms: C_3  and  C_10
REMARK    2  A    between atoms: C_4  and  C_23
REMARK    3  A    between atoms: N_9  and  C_15
REMARK    4  A    between atoms: C_16  and  C_17
REMARK    5  A    between atoms: C_23  and  C_24
REMARK    6  A    between atoms: C_23  and  N_31
REMARK    7  A    between atoms: C_32  and  C_34
REMARK    8  A    between atoms: C_34  and  N_36
REMARK                            x       y       z     vdW  Elec       q    Type
REMARK                         _______ _______ _______ _____ _____    ______ ____
ROOT
ATOM      1  O   UNL     1      -0.799   0.686  -0.524  0.00  0.00    -0.273 OA
ATOM      2  N   UNL     1      -0.590  -0.208   1.600  0.00  0.00    -0.272 N 
ATOM      3  C   UNL     1       0.831   0.074   1.760  0.00  0.00    +0.152 C 
ATOM      4  C   UNL     1      -1.307   0.193   0.484  0.00  0.00    +0.244 C 
ATOM      5  C   UNL     1      -1.150  -0.795   2.814  0.00  0.00    +0.094 C 
ATOM      6  C   UNL     1       1.096  -0.104   3.250  0.00  0.00    +0.031 C 
ATOM      7  C   UNL     1       0.056  -1.139   3.675  0.00  0.00    +0.024 C 
ENDROOT
BRANCH   3  10
ATOM      8  O   UNL     1       1.114  -2.054   0.747  0.00  0.00    -0.273 OA
ATOM      9  N   UNL     1       2.779  -0.414   0.478  0.00  0.00    -0.290 N 
ATOM     10  C   UNL     1       1.576  -0.934   0.938  0.00  0.00    +0.241 C 
ATOM     11  H   UNL     1       2.981   0.514   0.740  0.00  0.00    +0.151 HD
BRANCH   9  15
ATOM     12  S   UNL     1       3.461  -2.680  -0.819  0.00  0.00    +0.021 S 
ATOM     13  N   UNL     1       5.613  -1.663  -1.603  0.00  0.00    -0.154 NA
ATOM     14  N   UNL     1       4.905  -2.780  -1.662  0.00  0.00    -0.082 NA
ATOM     15  C   UNL     1       3.748  -1.063  -0.323  0.00  0.00    +0.184 C 
ATOM     16  C   UNL     1       4.968  -0.693  -0.852  0.00  0.00    +0.109 C 
BRANCH  16  17
ATOM     17  C   UNL     1       5.552   0.603  -0.652  0.00  0.00    +0.018 C 
ATOM     18  C   UNL     1       4.878   1.745  -1.085  0.00  0.00    +0.001 C 
ATOM     19  C   UNL     1       6.792   0.721  -0.024  0.00  0.00    +0.001 C 
ATOM     20  C   UNL     1       5.444   3.005  -0.891  0.00  0.00    +0.000 C 
ATOM     21  C   UNL     1       7.358   1.981   0.170  0.00  0.00    +0.000 C 
ATOM     22  C   UNL     1       6.684   3.123  -0.263  0.00  0.00    +0.000 C 
ENDBRANCH  16  17
ENDBRANCH   9  15
ENDBRANCH   3  10
BRANCH   4  23
ATOM     23  C   UNL     1      -2.798  -0.023   0.558  0.00  0.00    +0.149 C 
BRANCH  23  24
ATOM     24  C   UNL     1      -3.180  -1.374  -0.042  0.00  0.00    +0.027 C 
ATOM     25  C   UNL     1      -3.186  -1.304  -1.575  0.00  0.00    +0.002 C 
ATOM     26  C   UNL     1      -4.543  -1.837   0.489  0.00  0.00    +0.002 C 
ATOM     27  C   UNL     1      -3.618  -2.629  -2.199  0.00  0.00    +0.000 C 
ATOM     28  C   UNL     1      -4.972  -3.162  -0.138  0.00  0.00    +0.000 C 
ATOM     29  C   UNL     1      -4.969  -3.091  -1.662  0.00  0.00    +0.000 C 
ENDBRANCH  23  24
BRANCH  23  31
ATOM     30  O   UNL     1      -5.265   1.353   1.114  0.00  0.00    -0.277 OA
ATOM     31  N   UNL     1      -3.353   1.075  -0.174  0.00  0.00    -0.300 N 
ATOM     32  C   UNL     1      -4.561   1.688   0.164  0.00  0.00    +0.203 C 
ATOM     33  H   UNL     1      -2.859   1.415  -0.955  0.00  0.00    +0.150 HD
BRANCH  32  34
ATOM     34  C   UNL     1      -4.926   2.820  -0.788  0.00  0.00    +0.017 C 
ATOM     35  C   UNL     1      -4.379   4.144  -0.270  0.00  0.00    -0.014 C 
BRANCH  34  36
ATOM     36  N   UNL     1      -6.382   2.880  -0.893  0.00  0.00    +0.389 N 
ATOM     37  C   UNL     1      -6.877   1.858  -1.802  0.00  0.00    -0.105 C 
ATOM     38  H   UNL     1      -6.654   3.799  -1.241  0.00  0.00    -0.084 HD
ATOM     39  H   UNL     1      -6.783   2.718   0.031  0.00  0.00    -0.084 HD
ENDBRANCH  34  36
ENDBRANCH  32  34
ENDBRANCH  23  31
ENDBRANCH   4  23
TORSDOF 8
