REMARK  Name = 65108
REMARK  8 active torsions:
REMARK  status: ('A' for Active; 'I' for Inactive)
REMARK    1  A    between atoms: C_3  and  O_7
REMARK    2  A    between atoms: C_4  and  O_12
REMARK    3  A    between atoms: O_7  and  C_8
REMARK    4  A    between atoms: C_8  and  C_9
REMARK    5  A    between atoms: C_9  and  C_10
REMARK    6  A    between atoms: O_12  and  C_13
REMARK    7  A    between atoms: C_13  and  C_14
REMARK    8  A    between atoms: C_14  and  C_15
REMARK                            x       y       z     vdW  Elec       q    Type
REMARK                         _______ _______ _______ _____ _____    ______ ____
ROOT
ATOM      1  O   UNL     1       1.348  -3.292   0.740  0.00  0.00    -0.280 OA
ATOM      2  O   UNL     1      -1.322  -3.297  -0.748  0.00  0.00    -0.280 OA
ATOM      3  C   UNL     1       0.590  -0.934   0.330  0.00  0.00    +0.218 C 
ATOM      4  C   UNL     1      -0.589  -0.929  -0.328  0.00  0.00    +0.218 C 
ATOM      5  C   UNL     1       0.654  -2.386   0.359  0.00  0.00    +0.274 C 
ATOM      6  C   UNL     1      -0.636  -2.389  -0.360  0.00  0.00    +0.274 C 
ENDROOT
BRANCH   3   7
ATOM      7  O   UNL     1       1.375  -0.013   0.772  0.00  0.00    -0.469 OA
BRANCH   7   8
ATOM      8  C   UNL     1       2.331   0.356  -0.212  0.00  0.00    +0.206 C 
BRANCH   8   9
ATOM      9  C   UNL     1       3.243   1.428   0.367  0.00  0.00    +0.047 C 
BRANCH   9  10
ATOM     10  C   UNL     1       4.289   1.885  -0.646  0.00  0.00    +0.004 C 
ATOM     11  C   UNL     1       5.170   2.986  -0.079  0.00  0.00    +0.000 C 
ENDBRANCH   9  10
ENDBRANCH   8   9
ENDBRANCH   7   8
ENDBRANCH   3   7
BRANCH   4  12
ATOM     12  O   UNL     1      -1.373  -0.019  -0.762  0.00  0.00    -0.469 OA
BRANCH  12  13
ATOM     13  C   UNL     1      -2.338   0.348   0.219  0.00  0.00    +0.206 C 
BRANCH  13  14
ATOM     14  C   UNL     1      -3.251   1.417  -0.365  0.00  0.00    +0.047 C 
BRANCH  14  15
ATOM     15  C   UNL     1      -4.304   1.871   0.643  0.00  0.00    +0.004 C 
ATOM     16  C   UNL     1      -5.186   2.969   0.070  0.00  0.00    +0.000 C 
ENDBRANCH  14  15
ENDBRANCH  13  14
ENDBRANCH  12  13
ENDBRANCH   4  12
TORSDOF 8
