REMARK  Name = 55652
REMARK  4 active torsions:
REMARK  status: ('A' for Active; 'I' for Inactive)
REMARK    1  A    between atoms: C_3  and  N_11
REMARK    2  A    between atoms: C_5  and  N_18
REMARK    3  A    between atoms: C_20  and  C_21
REMARK    4  A    between atoms: C_21  and  C_24
REMARK                            x       y       z     vdW  Elec       q    Type
REMARK                         _______ _______ _______ _____ _____    ______ ____
ROOT
ATOM      1  O   UNL     1       5.373  -0.652   1.428  0.00  0.00    -0.359 OA
ATOM      2  C   UNL     1       4.292  -0.842   0.487  0.00  0.00    +0.091 C 
ATOM      3  C   UNL     1       2.230   0.385  -0.425  0.00  0.00    -0.037 C 
ATOM      4  C   UNL     1       3.531   0.494   0.384  0.00  0.00    +0.008 C 
ATOM      5  C   UNL     1       1.327  -0.741   0.112  0.00  0.00    +0.057 C 
ATOM      6  C   UNL     1       3.360  -1.927   1.036  0.00  0.00    +0.029 C 
ATOM      7  C   UNL     1       2.086  -2.069   0.210  0.00  0.00    +0.020 C 
ATOM      8  C   UNL     1       4.961  -1.253  -0.830  0.00  0.00    +0.030 C 
ATOM      9  C   UNL     1       6.308  -0.578  -0.744  0.00  0.00    +0.034 C 
ATOM     10  C   UNL     1       6.623  -0.703   0.729  0.00  0.00    +0.142 C 
ENDROOT
BRANCH   3  11
ATOM     11  N   UNL     1       1.535   1.663  -0.376  0.00  0.00    +0.389 N 
ATOM     12  C   UNL     1       1.228   2.079   0.992  0.00  0.00    -0.077 C 
ATOM     13  C   UNL     1       2.333   2.754  -0.934  0.00  0.00    -0.077 C 
ATOM     14  C   UNL     1       0.884   3.552   0.832  0.00  0.00    -0.025 C 
ATOM     15  C   UNL     1       1.607   3.995  -0.436  0.00  0.00    -0.025 C 
ATOM     16  H   UNL     1       0.686   1.503  -0.918  0.00  0.00    -0.080 HD
ENDBRANCH   3  11
BRANCH   5  18
ATOM     17  O   UNL     1      -1.394  -0.427   0.962  0.00  0.00    -0.275 OA
ATOM     18  N   UNL     1       0.152  -0.908  -0.714  0.00  0.00    -0.281 N 
ATOM     19  C   UNL     1       0.405  -1.272  -2.108  0.00  0.00    +0.115 C 
ATOM     20  C   UNL     1      -1.150  -0.733  -0.209  0.00  0.00    +0.230 C 
BRANCH  20  21
ATOM     21  C   UNL     1      -2.279  -0.946  -1.207  0.00  0.00    +0.112 C 
BRANCH  21  24
ATOM     22 CL   UNL     1      -6.220   2.209  -0.076  0.00  0.00    -0.081 Cl
ATOM     23 CL   UNL     1      -7.747  -0.340   1.207  0.00  0.00    -0.081 Cl
ATOM     24  C   UNL     1      -3.651  -0.777  -0.604  0.00  0.00    -0.012 C 
ATOM     25  C   UNL     1      -4.247   0.474  -0.608  0.00  0.00    +0.008 C 
ATOM     26  C   UNL     1      -4.293  -1.877  -0.057  0.00  0.00    -0.003 C 
ATOM     27  C   UNL     1      -5.516   0.630  -0.052  0.00  0.00    +0.068 C 
ATOM     28  C   UNL     1      -5.563  -1.722   0.499  0.00  0.00    +0.012 C 
ATOM     29  C   UNL     1      -6.174  -0.468   0.502  0.00  0.00    +0.068 C 
ENDBRANCH  21  24
ENDBRANCH  20  21
ENDBRANCH   5  18
TORSDOF 4
