REMARK  Name = 9895264
REMARK  9 active torsions:
REMARK  status: ('A' for Active; 'I' for Inactive)
REMARK    1  A    between atoms: C_1  and  C_2
REMARK    2  A    between atoms: C_1  and  O_14
REMARK    3  A    between atoms: C_1  and  C_16
REMARK    4  A    between atoms: C_5  and  O_8
REMARK    5  A    between atoms: C_6  and  O_10
REMARK    6  A    between atoms: C_7  and  O_12
REMARK    7  A    between atoms: C_16  and  C_17
REMARK    8  A    between atoms: C_20  and  O_25
REMARK    9  A    between atoms: C_22  and  O_23
REMARK                            x       y       z     vdW  Elec       q    Type
REMARK                         _______ _______ _______ _____ _____    ______ ____
ROOT
ATOM      1  C   UNL     1       0.301  -2.583  -0.771  0.00  0.00    +0.137 C 
ENDROOT
BRANCH   1   2
ATOM      2  C   UNL     1       1.127  -1.340  -0.530  0.00  0.00    +0.011 C 
ATOM      3  C   UNL     1       2.266  -1.427   0.253  0.00  0.00    +0.038 C 
ATOM      4  C   UNL     1       0.728  -0.141  -1.096  0.00  0.00    +0.038 C 
ATOM      5  C   UNL     1       1.490   1.005  -0.873  0.00  0.00    +0.175 C 
ATOM      6  C   UNL     1       3.028  -0.280   0.477  0.00  0.00    +0.175 C 
ATOM      7  C   UNL     1       2.640   0.936  -0.086  0.00  0.00    +0.206 C 
BRANCH   5   8
ATOM      8  O   UNL     1       1.101   2.187  -1.429  0.00  0.00    -0.468 OA
ATOM      9  C   UNL     1       0.224   3.008  -0.659  0.00  0.00    +0.253 C 
ENDBRANCH   5   8
BRANCH   6  10
ATOM     10  O   UNL     1       4.148  -0.360   1.248  0.00  0.00    -0.468 OA
ATOM     11  C   UNL     1       4.473  -1.641   1.785  0.00  0.00    +0.253 C 
ENDBRANCH   6  10
BRANCH   7  12
ATOM     12  O   UNL     1       3.384   2.057   0.133  0.00  0.00    -0.465 OA
ATOM     13  C   UNL     1       4.429   2.332  -0.797  0.00  0.00    +0.253 C 
ENDBRANCH   7  12
ENDBRANCH   1   2
BRANCH   1  14
ATOM     14  O   UNL     1      -0.241  -2.514  -2.092  0.00  0.00    -0.380 OA
ATOM     15  H   UNL     1      -0.775  -3.305  -2.265  0.00  0.00    +0.211 HD
ENDBRANCH   1  14
BRANCH   1  16
ATOM     16  C   UNL     1      -0.845  -2.756   0.249  0.00  0.00    +0.060 C 
BRANCH  16  17
ATOM     17  C   UNL     1      -1.792  -1.605   0.302  0.00  0.00    -0.016 C 
ATOM     18  C   UNL     1      -1.554  -0.546   1.178  0.00  0.00    +0.036 C 
ATOM     19  C   UNL     1      -2.914  -1.588  -0.526  0.00  0.00    -0.001 C 
ATOM     20  C   UNL     1      -2.440   0.530   1.227  0.00  0.00    +0.167 C 
ATOM     21  C   UNL     1      -3.800  -0.511  -0.477  0.00  0.00    +0.040 C 
ATOM     22  C   UNL     1      -3.563   0.548   0.399  0.00  0.00    +0.172 C 
BRANCH  22  23
ATOM     23  O   UNL     1      -4.435   1.594   0.437  0.00  0.00    -0.468 OA
ATOM     24  C   UNL     1      -5.557   1.534  -0.441  0.00  0.00    +0.253 C 
ENDBRANCH  22  23
BRANCH  20  25
ATOM     25  O   UNL     1      -2.197   1.559   2.087  0.00  0.00    -0.503 OA
ATOM     26  H   UNL     1      -1.441   1.539   2.639  0.00  0.00    +0.292 HD
ENDBRANCH  20  25
ENDBRANCH  16  17
ENDBRANCH   1  16
TORSDOF 9
