REMARK  Name = 68289010
REMARK  3 active torsions:
REMARK  status: ('A' for Active; 'I' for Inactive)
REMARK    1  A    between atoms: N_1  and  C_16
REMARK    2  A    between atoms: C_8  and  C_12
REMARK    3  A    between atoms: C_16  and  C_20
REMARK                            x       y       z     vdW  Elec       q    Type
REMARK                         _______ _______ _______ _____ _____    ______ ____
ROOT
ATOM      1  N   UNL     1       0.542   2.498   0.505  0.00  0.00    -0.165 N 
ATOM      2  N   UNL     1       0.647   3.773   0.080  0.00  0.00    -0.033 NA
ATOM      3  N   UNL     1      -1.099   0.700   0.290  0.00  0.00    -0.378 NA
ATOM      4  N   UNL     1      -0.448   4.059  -0.625  0.00  0.00    -0.086 NA
ATOM      5  N   UNL     1      -2.442   2.772  -1.226  0.00  0.00    -0.208 NA
ATOM      6  C   UNL     1      -0.621   1.936   0.083  0.00  0.00    +0.267 C 
ATOM      7  C   UNL     1      -1.236   2.945  -0.634  0.00  0.00    +0.098 C 
ATOM      8  C   UNL     1      -2.303   0.540  -0.306  0.00  0.00    +0.140 C 
ATOM      9  C   UNL     1      -2.946   1.532  -1.033  0.00  0.00    +0.195 C 
ENDROOT
BRANCH   8  12
ATOM     10  N   UNL     1      -3.227  -2.824   0.462  0.00  0.00    -0.208 N 
ATOM     11  N   UNL     1      -4.331  -2.535  -0.249  0.00  0.00    -0.176 NA
ATOM     12  C   UNL     1      -2.909  -0.751  -0.148  0.00  0.00    +0.064 C 
ATOM     13  C   UNL     1      -2.344  -1.788   0.552  0.00  0.00    +0.088 C 
ATOM     14  C   UNL     1      -4.131  -1.268  -0.619  0.00  0.00    +0.121 C 
ATOM     15  C   UNL     1      -3.071  -4.136   1.042  0.00  0.00    +0.140 C 
ENDBRANCH   8  12
BRANCH   1  16
ATOM     16  C   UNL     1       1.643   1.868   1.340  0.00  0.00    +0.122 C 
ATOM     17  C   UNL     1       1.136   1.486   2.736  0.00  0.00    +0.028 C 
BRANCH  16  20
ATOM     18  N   UNL     1       2.508  -1.587   0.105  0.00  0.00    -0.247 N 
ATOM     19  N   UNL     1       4.017  -2.504  -1.267  0.00  0.00    -0.227 NA
ATOM     20  C   UNL     1       2.273   0.703   0.648  0.00  0.00    +0.013 C 
ATOM     21  C   UNL     1       1.855  -0.569   0.794  0.00  0.00    +0.068 C 
ATOM     22  C   UNL     1       3.406   0.963  -0.237  0.00  0.00    +0.002 C 
ATOM     23  C   UNL     1       3.589  -1.373  -0.744  0.00  0.00    +0.139 C 
ATOM     24  C   UNL     1       4.032  -0.029  -0.900  0.00  0.00    +0.035 C 
ATOM     25  C   UNL     1       2.260  -2.936   0.101  0.00  0.00    +0.092 C 
ATOM     26  C   UNL     1       3.198  -3.475  -0.748  0.00  0.00    +0.117 C 
ENDBRANCH  16  20
ENDBRANCH   1  16
TORSDOF 3
