REMARK  Name = 8481
REMARK  2 active torsions:
REMARK  status: ('A' for Active; 'I' for Inactive)
REMARK    1  A    between atoms: C_1  and  S_13
REMARK    2  A    between atoms: C_2  and  N_8
REMARK                            x       y       z     vdW  Elec       q    Type
REMARK                         _______ _______ _______ _____ _____    ______ ____
ROOT
ATOM      1  C   UNL     1       1.484  -0.078   0.116  0.00  0.00    +0.122 C 
ATOM      2  C   UNL     1      -1.274  -0.483   0.015  0.00  0.00    +0.050 C 
ATOM      3  C   UNL     1       0.618   1.015   0.123  0.00  0.00    +0.021 C 
ATOM      4  C   UNL     1       0.971  -1.374   0.057  0.00  0.00    +0.021 C 
ATOM      5  C   UNL     1      -0.761   0.813   0.073  0.00  0.00    +0.016 C 
ATOM      6  C   UNL     1      -0.408  -1.576   0.007  0.00  0.00    +0.016 C 
ENDROOT
BRANCH   2   8
ATOM      7  O   UNL     1      -3.541   1.499   0.003  0.00  0.00    -0.275 OA
ATOM      8  N   UNL     1      -2.654  -0.685  -0.036  0.00  0.00    -0.284 N 
ATOM      9  C   UNL     1      -3.670   0.280  -0.037  0.00  0.00    +0.227 C 
ATOM     10  C   UNL     1      -5.039  -0.350  -0.101  0.00  0.00    +0.095 C 
ATOM     11  H   UNL     1      -2.951  -1.623  -0.076  0.00  0.00    +0.155 HD
ENDBRANCH   2   8
BRANCH   1  13
ATOM     12 CL   UNL     1       3.709   0.303  -1.803  0.00  0.00    +0.060 Cl
ATOM     13  S   UNL     1       3.211   0.175   0.179  0.00  0.00    +0.081 S 
ATOM     14  O   UNL     1       3.850  -1.028   0.678  0.00  0.00    -0.153 OA
ATOM     15  O   UNL     1       3.503   1.487   0.726  0.00  0.00    -0.153 OA
ENDBRANCH   1  13
TORSDOF 2
