REMARK  Name = 127737
REMARK  3 active torsions:
REMARK  status: ('A' for Active; 'I' for Inactive)
REMARK    1  A    between atoms: N_2  and  S_15
REMARK    2  A    between atoms: N_3  and  C_9
REMARK    3  A    between atoms: S_15  and  C_23
REMARK                            x       y       z     vdW  Elec       q    Type
REMARK                         _______ _______ _______ _____ _____    ______ ____
ROOT
ATOM      1  O   UNL     1      -0.479  -0.532   1.397  0.00  0.00    -0.251 OA
ATOM      2  N   UNL     1       0.305  -1.980  -0.243  0.00  0.00    -0.169 N 
ATOM      3  N   UNL     1      -1.831  -1.068  -0.429  0.00  0.00    -0.267 N 
ATOM      4  C   UNL     1      -0.683  -1.120   0.342  0.00  0.00    +0.323 C 
ATOM      5  H   UNL     1       0.094  -2.382  -1.117  0.00  0.00    +0.178 HD
ATOM      6  H   UNL     1      -1.823  -1.608  -1.252  0.00  0.00    +0.156 HD
ENDROOT
BRANCH   3   9
ATOM      7 CL   UNL     1      -6.519   0.177  -1.983  0.00  0.00    -0.081 Cl
ATOM      8 CL   UNL     1      -6.754   2.020   0.666  0.00  0.00    -0.081 Cl
ATOM      9  C   UNL     1      -3.015  -0.335  -0.180  0.00  0.00    +0.053 C 
ATOM     10  C   UNL     1      -4.065  -0.417  -1.080  0.00  0.00    +0.027 C 
ATOM     11  C   UNL     1      -3.100   0.450   0.958  0.00  0.00    +0.016 C 
ATOM     12  C   UNL     1      -5.233   0.306  -0.835  0.00  0.00    +0.069 C 
ATOM     13  C   UNL     1      -4.268   1.173   1.203  0.00  0.00    +0.014 C 
ATOM     14  C   UNL     1      -5.334   1.101   0.307  0.00  0.00    +0.068 C 
ENDBRANCH   3   9
BRANCH   2  15
ATOM     15  S   UNL     1       1.821  -2.363   0.457  0.00  0.00    +0.077 S 
ATOM     16  O   UNL     1       2.350  -3.556  -0.190  0.00  0.00    -0.150 OA
ATOM     17  O   UNL     1       1.690  -2.329   1.906  0.00  0.00    -0.150 OA
BRANCH  15  23
ATOM     18  O   UNL     1       5.016   2.319  -1.057  0.00  0.00    -0.475 OA
ATOM     19  C   UNL     1       3.613   1.211   0.400  0.00  0.00    +0.017 C 
ATOM     20  C   UNL     1       3.798   2.536   1.031  0.00  0.00    +0.077 C 
ATOM     21  C   UNL     1       4.313   1.170  -0.797  0.00  0.00    +0.135 C 
ATOM     22  C   UNL     1       4.983   3.034   0.201  0.00  0.00    +0.210 C 
ATOM     23  C   UNL     1       2.788  -0.987  -0.017  0.00  0.00    +0.125 C 
ATOM     24  C   UNL     1       2.838   0.141   0.806  0.00  0.00    +0.019 C 
ATOM     25  C   UNL     1       4.269   0.071  -1.632  0.00  0.00    +0.038 C 
ATOM     26  C   UNL     1       3.498  -1.021  -1.229  0.00  0.00    +0.023 C 
ENDBRANCH  15  23
ENDBRANCH   2  15
TORSDOF 3
