REMARK  Name = 114840
REMARK  5 active torsions:
REMARK  status: ('A' for Active; 'I' for Inactive)
REMARK    1  A    between atoms: C_2  and  C_17
REMARK    2  A    between atoms: C_9  and  O_13
REMARK    3  A    between atoms: C_10  and  O_15
REMARK    4  A    between atoms: C_17  and  C_18
REMARK    5  A    between atoms: C_23  and  O_24
REMARK                            x       y       z     vdW  Elec       q    Type
REMARK                         _______ _______ _______ _____ _____    ______ ____
ROOT
ATOM      1  N   UNL     1      -0.255  -1.847   0.752  0.00  0.00    +0.388 N 
ATOM      2  C   UNL     1       0.012  -0.437   0.409  0.00  0.00    -0.034 C 
ATOM      3  C   UNL     1       1.486  -0.117   0.241  0.00  0.00    -0.043 C 
ATOM      4  C   UNL     1       2.431  -1.145   0.066  0.00  0.00    -0.027 C 
ATOM      5  C   UNL     1       2.007  -2.590   0.117  0.00  0.00    +0.003 C 
ATOM      6  C   UNL     1       0.505  -2.767  -0.096  0.00  0.00    -0.076 C 
ATOM      7  C   UNL     1       1.920   1.217   0.240  0.00  0.00    +0.033 C 
ATOM      8  C   UNL     1       3.786  -0.825  -0.091  0.00  0.00    +0.035 C 
ATOM      9  C   UNL     1       3.269   1.526   0.072  0.00  0.00    +0.167 C 
ATOM     10  C   UNL     1       4.202   0.506  -0.094  0.00  0.00    +0.167 C 
ATOM     11  H   UNL     1      -1.251  -2.033   0.630  0.00  0.00    -0.084 HD
ATOM     12  H   UNL     1       0.031  -1.998   1.719  0.00  0.00    -0.084 HD
ENDROOT
BRANCH   9  13
ATOM     13  O   UNL     1       3.664   2.829   0.075  0.00  0.00    -0.503 OA
ATOM     14  H   UNL     1       3.031   3.511   0.188  0.00  0.00    +0.292 HD
ENDBRANCH   9  13
BRANCH  10  15
ATOM     15  O   UNL     1       5.524   0.794  -0.251  0.00  0.00    -0.503 OA
ATOM     16  H   UNL     1       6.145   0.101  -0.362  0.00  0.00    +0.292 HD
ENDBRANCH  10  15
BRANCH   2  17
ATOM     17  C   UNL     1      -0.798  -0.028  -0.827  0.00  0.00    +0.009 C 
BRANCH  17  18
ATOM     18  C   UNL     1      -2.247   0.173  -0.489  0.00  0.00    -0.024 C 
ATOM     19  C   UNL     1      -3.129  -0.898  -0.576  0.00  0.00    -0.001 C 
ATOM     20  C   UNL     1      -2.692   1.429  -0.092  0.00  0.00    -0.001 C 
ATOM     21  C   UNL     1      -4.475  -0.711  -0.261  0.00  0.00    +0.036 C 
ATOM     22  C   UNL     1      -4.038   1.616   0.222  0.00  0.00    +0.036 C 
ATOM     23  C   UNL     1      -4.929   0.546   0.137  0.00  0.00    +0.134 C 
BRANCH  23  24
ATOM     24  O   UNL     1      -6.243   0.729   0.443  0.00  0.00    -0.506 OA
ATOM     25  H   UNL     1      -6.842   0.010   0.386  0.00  0.00    +0.292 HD
ENDBRANCH  23  24
ENDBRANCH  17  18
ENDBRANCH   2  17
TORSDOF 5
