REMARK  Name = 5311070
REMARK  2 active torsions:
REMARK  status: ('A' for Active; 'I' for Inactive)
REMARK    1  A    between atoms: C_15  and  O_21
REMARK    2  A    between atoms: C_16  and  O_23
REMARK                            x       y       z     vdW  Elec       q    Type
REMARK                         _______ _______ _______ _____ _____    ______ ____
ROOT
ATOM      1  N   UNL     1      -2.114  -2.415   0.264  0.00  0.00    +0.388 N 
ATOM      2  C   UNL     1      -0.720  -1.969   0.238  0.00  0.00    -0.053 C 
ATOM      3  C   UNL     1      -0.536  -0.623  -0.517  0.00  0.00    +0.025 C 
ATOM      4  C   UNL     1       0.154  -3.014  -0.462  0.00  0.00    -0.016 C 
ATOM      5  C   UNL     1       0.898  -0.170  -0.224  0.00  0.00    -0.021 C 
ATOM      6  C   UNL     1      -1.698   0.341  -0.300  0.00  0.00    -0.026 C 
ATOM      7  C   UNL     1       1.635  -2.625  -0.415  0.00  0.00    +0.024 C 
ATOM      8  C   UNL     1       1.925  -1.146  -0.262  0.00  0.00    -0.023 C 
ATOM      9  C   UNL     1      -2.911  -1.446   1.022  0.00  0.00    -0.054 C 
ATOM     10  C   UNL     1      -2.826  -0.057   0.446  0.00  0.00    -0.047 C 
ATOM     11  C   UNL     1       1.263   1.155   0.065  0.00  0.00    +0.035 C 
ATOM     12  C   UNL     1      -1.749   1.579  -0.963  0.00  0.00    -0.004 C 
ATOM     13  C   UNL     1       3.267  -0.768  -0.077  0.00  0.00    +0.035 C 
ATOM     14  C   UNL     1      -3.895   0.832   0.637  0.00  0.00    -0.007 C 
ATOM     15  C   UNL     1       2.601   1.515   0.256  0.00  0.00    +0.167 C 
ATOM     16  C   UNL     1       3.603   0.558   0.173  0.00  0.00    +0.167 C 
ATOM     17  C   UNL     1      -2.824   2.451  -0.784  0.00  0.00    -0.000 C 
ATOM     18  C   UNL     1      -3.889   2.086   0.032  0.00  0.00    -0.000 C 
ATOM     19  H   UNL     1      -2.172  -3.330   0.711  0.00  0.00    -0.084 HD
ATOM     20  H   UNL     1      -2.471  -2.485  -0.689  0.00  0.00    -0.084 HD
ENDROOT
BRANCH  15  21
ATOM     21  O   UNL     1       2.906   2.816   0.527  0.00  0.00    -0.503 OA
ATOM     22  H   UNL     1       2.224   3.456   0.582  0.00  0.00    +0.292 HD
ENDBRANCH  15  21
BRANCH  16  23
ATOM     23  O   UNL     1       4.909   0.900   0.344  0.00  0.00    -0.503 OA
ATOM     24  H   UNL     1       5.576   0.244   0.285  0.00  0.00    +0.292 HD
ENDBRANCH  16  23
TORSDOF 2
