501254
  -OEChem-10051722453D

 40 41  0     1  0  0  0  0  0999 V2000
   -6.1149   -1.0999    0.6114 O   0  0  0  0  0  0  0  0  0  0  0  0
    0.5990   -2.0168    0.7292 O   0  0  0  0  0  0  0  0  0  0  0  0
    0.3008    2.6617    0.5337 O   0  0  0  0  0  0  0  0  0  0  0  0
    0.4045    0.3245    0.6471 N   0  0  0  0  0  0  0  0  0  0  0  0
    2.3044    1.6626   -0.0999 N   0  0  0  0  0  0  0  0  0  0  0  0
    3.3967   -1.6612   -0.2677 N   0  0  0  0  0  0  0  0  0  0  0  0
    4.2866    0.3356   -0.7050 N   0  0  0  0  0  0  0  0  0  0  0  0
   -1.9617    0.1685   -0.0158 C   0  0  0  0  0  0  0  0  0  0  0  0
   -0.9507    0.2739    1.1214 C   0  0  0  0  0  0  0  0  0  0  0  0
   -3.4102    0.1374    0.4847 C   0  0  0  0  0  0  0  0  0  0  0  0
   -4.3950    0.0175   -0.6847 C   0  0  0  0  0  0  0  0  0  0  0  0
    2.4272   -0.7414    0.0117 C   0  0  0  0  0  0  0  0  0  0  0  0
    1.0935   -0.9193    0.4870 C   0  0  0  0  0  0  0  0  0  0  0  0
   -5.8707   -0.0053   -0.2670 C   0  0  1  0  0  0  0  0  0  0  0  0
    2.9975    0.4712   -0.2646 C   0  0  0  0  0  0  0  0  0  0  0  0
    0.9668    1.6333    0.3682 C   0  0  0  0  0  0  0  0  0  0  0  0
   -6.8336   -0.1117   -1.4406 C   0  0  0  0  0  0  0  0  0  0  0  0
    4.4973   -0.9646   -0.6957 C   0  0  0  0  0  0  0  0  0  0  0  0
    2.9550    2.9303   -0.4074 C   0  0  0  0  0  0  0  0  0  0  0  0
    3.3076   -3.0966   -0.1458 C   0  0  0  0  0  0  0  0  0  0  0  0
   -1.8327    1.0159   -0.7010 H   0  0  0  0  0  0  0  0  0  0  0  0
   -1.7588   -0.7364   -0.6025 H   0  0  0  0  0  0  0  0  0  0  0  0
   -1.1649    1.1676    1.7191 H   0  0  0  0  0  0  0  0  0  0  0  0
   -1.0707   -0.5843    1.7934 H   0  0  0  0  0  0  0  0  0  0  0  0
   -3.5402   -0.7085    1.1698 H   0  0  0  0  0  0  0  0  0  0  0  0
   -3.6241    1.0514    1.0513 H   0  0  0  0  0  0  0  0  0  0  0  0
   -4.1662   -0.9071   -1.2307 H   0  0  0  0  0  0  0  0  0  0  0  0
   -4.2336    0.8499   -1.3808 H   0  0  0  0  0  0  0  0  0  0  0  0
   -6.0984    0.9094    0.2916 H   0  0  0  0  0  0  0  0  0  0  0  0
   -6.6688   -1.0393   -1.9997 H   0  0  0  0  0  0  0  0  0  0  0  0
   -6.7178    0.7339   -2.1252 H   0  0  0  0  0  0  0  0  0  0  0  0
   -7.8696   -0.1367   -1.0858 H   0  0  0  0  0  0  0  0  0  0  0  0
    5.4178   -1.4530   -0.9856 H   0  0  0  0  0  0  0  0  0  0  0  0
    2.2878    3.7775   -0.2299 H   0  0  0  0  0  0  0  0  0  0  0  0
    3.2535    2.9306   -1.4603 H   0  0  0  0  0  0  0  0  0  0  0  0
    3.8399    3.0390    0.2271 H   0  0  0  0  0  0  0  0  0  0  0  0
    3.0968   -3.3429    0.8977 H   0  0  0  0  0  0  0  0  0  0  0  0
    2.5057   -3.4503   -0.7985 H   0  0  0  0  0  0  0  0  0  0  0  0
    4.2560   -3.5484   -0.4477 H   0  0  0  0  0  0  0  0  0  0  0  0
   -5.8959   -1.9188    0.1348 H   0  0  0  0  0  0  0  0  0  0  0  0
  1 14  1  0  0  0  0
  1 40  1  0  0  0  0
  2 13  2  0  0  0  0
  3 16  2  0  0  0  0
  4  9  1  0  0  0  0
  4 13  1  0  0  0  0
  4 16  1  0  0  0  0
  5 15  1  0  0  0  0
  5 16  1  0  0  0  0
  5 19  1  0  0  0  0
  6 12  1  0  0  0  0
  6 18  1  0  0  0  0
  6 20  1  0  0  0  0
  7 15  1  0  0  0  0
  7 18  2  0  0  0  0
  8  9  1  0  0  0  0
  8 10  1  0  0  0  0
  8 21  1  0  0  0  0
  8 22  1  0  0  0  0
  9 23  1  0  0  0  0
  9 24  1  0  0  0  0
 10 11  1  0  0  0  0
 10 25  1  0  0  0  0
 10 26  1  0  0  0  0
 11 14  1  0  0  0  0
 11 27  1  0  0  0  0
 11 28  1  0  0  0  0
 12 13  1  0  0  0  0
 12 15  2  0  0  0  0
 14 17  1  0  0  0  0
 14 29  1  0  0  0  0
 17 30  1  0  0  0  0
 17 31  1  0  0  0  0
 17 32  1  0  0  0  0
 18 33  1  0  0  0  0
 19 34  1  0  0  0  0
 19 35  1  0  0  0  0
 19 36  1  0  0  0  0
 20 37  1  0  0  0  0
 20 38  1  0  0  0  0
 20 39  1  0  0  0  0
M  END
> <DATABASE_ID>
DB12406

> <DATABASE_NAME>
drugbank

> <ORIGINAL_SOURCE>
PUBCHEM

> <ORIGINAL_SOURCE_URL>
https://pubchem.ncbi.nlm.nih.gov/rest/pug/compound/inchikey/NSMXQKNUPPXBRG-SECBINFHSA-N/SDF?record_type=3d

> <SMILES>
C[C@@H](O)CCCCN1C(=O)N(C)C2=C(N(C)C=N2)C1=O

> <INCHI_IDENTIFIER>
InChI=1S/C13H20N4O3/c1-9(18)6-4-5-7-17-12(19)10-11(14-8-15(10)2)16(3)13(17)20/h8-9,18H,4-7H2,1-3H3/t9-/m1/s1

> <INCHI_KEY>
NSMXQKNUPPXBRG-SECBINFHSA-N

> <FORMULA>
C13H20N4O3

> <MOLECULAR_WEIGHT>
280.328

> <EXACT_MASS>
280.15354052

> <JCHEM_ACCEPTOR_COUNT>
4

> <JCHEM_ATOM_COUNT>
40

> <JCHEM_AVERAGE_POLARIZABILITY>
30.031636398750393

> <JCHEM_BIOAVAILABILITY>
1

> <JCHEM_DONOR_COUNT>
1

> <JCHEM_FORMAL_CHARGE>
0

> <JCHEM_GHOSE_FILTER>
1

> <JCHEM_IUPAC>
1-[(5R)-5-hydroxyhexyl]-3,7-dimethyl-2,3,6,7-tetrahydro-1H-purine-2,6-dione

> <ALOGPS_LOGP>
0.78

> <JCHEM_LOGP>
0.2027184959999991

> <ALOGPS_LOGS>
-1.56

> <JCHEM_MDDR_LIKE_RULE>
0

> <JCHEM_NUMBER_OF_RINGS>
2

> <JCHEM_PHYSIOLOGICAL_CHARGE>
0

> <JCHEM_PKA_STRONGEST_ACIDIC>
17.68303306498672

> <JCHEM_PKA_STRONGEST_BASIC>
-0.8477735783649373

> <JCHEM_POLAR_SURFACE_AREA>
78.67

> <JCHEM_REFRACTIVITY>
74.65329999999999

> <JCHEM_ROTATABLE_BOND_COUNT>
5

> <JCHEM_RULE_OF_FIVE>
1

> <ALOGPS_SOLUBILITY>
7.76e+00 g/l

> <JCHEM_TRADITIONAL_IUPAC>
ProTec

> <JCHEM_VEBER_RULE>
0

> <DRUGBANK_ID>
DB12406

> <DRUG_GROUPS>
investigational

> <GENERIC_NAME>
Lisofylline

$$$$
