REMARK  Name = 25195461
REMARK  5 active torsions:
REMARK  status: ('A' for Active; 'I' for Inactive)
REMARK    1  A    between atoms: N_1  and  C_10
REMARK    2  A    between atoms: C_2  and  C_19
REMARK    3  A    between atoms: N_9  and  C_15
REMARK    4  A    between atoms: C_15  and  C_16
REMARK    5  A    between atoms: C_16  and  C_17
REMARK                            x       y       z     vdW  Elec       q    Type
REMARK                         _______ _______ _______ _____ _____    ______ ____
ROOT
ATOM      1  N   UNL     1       0.357  -0.908   0.432  0.00  0.00    -0.307 N 
ATOM      2  C   UNL     1       3.216  -0.531   0.497  0.00  0.00    +0.026 C 
ATOM      3  C   UNL     1       2.496  -1.077  -0.750  0.00  0.00    +0.026 C 
ATOM      4  C   UNL     1       2.260   0.355   1.318  0.00  0.00    +0.026 C 
ATOM      5  C   UNL     1       1.202  -1.797  -0.367  0.00  0.00    +0.091 C 
ATOM      6  C   UNL     1       0.971  -0.395   1.657  0.00  0.00    +0.091 C 
ENDROOT
BRANCH   1  10
ATOM      7 CL   UNL     1      -1.614  -3.245   0.274  0.00  0.00    -0.076 Cl
ATOM      8  O   UNL     1      -4.187  -2.057  -0.474  0.00  0.00    -0.269 OA
ATOM      9  N   UNL     1      -3.535   0.175  -0.608  0.00  0.00    -0.253 N 
ATOM     10  C   UNL     1      -0.938  -0.639   0.098  0.00  0.00    +0.064 C 
ATOM     11  C   UNL     1      -1.911  -1.565  -0.009  0.00  0.00    +0.125 C 
ATOM     12  C   UNL     1      -1.276   0.749  -0.158  0.00  0.00    +0.032 C 
ATOM     13  C   UNL     1      -3.318  -1.190  -0.383  0.00  0.00    +0.265 C 
ATOM     14  C   UNL     1      -2.520   1.104  -0.492  0.00  0.00    +0.069 C 
BRANCH   9  15
ATOM     15  C   UNL     1      -4.872   0.628  -0.975  0.00  0.00    +0.099 C 
BRANCH  15  16
ATOM     16  C   UNL     1      -5.617   1.254   0.199  0.00  0.00    +0.022 C 
BRANCH  16  17
ATOM     17  C   UNL     1      -7.030   1.706  -0.175  0.00  0.00    +0.002 C 
ATOM     18  C   UNL     1      -7.770   2.270   1.028  0.00  0.00    +0.000 C 
ENDBRANCH  16  17
ENDBRANCH  15  16
ENDBRANCH   9  15
ENDBRANCH   1  10
BRANCH   2  19
ATOM     19  C   UNL     1       4.500   0.194   0.142  0.00  0.00    -0.022 C 
ATOM     20  C   UNL     1       5.703  -0.509   0.078  0.00  0.00    -0.004 C 
ATOM     21  C   UNL     1       4.478   1.564  -0.121  0.00  0.00    -0.004 C 
ATOM     22  C   UNL     1       6.884   0.158  -0.249  0.00  0.00    -0.000 C 
ATOM     23  C   UNL     1       5.659   2.230  -0.449  0.00  0.00    -0.000 C 
ATOM     24  C   UNL     1       6.862   1.527  -0.513  0.00  0.00    -0.000 C 
ENDBRANCH   2  19
TORSDOF 5
