REMARK  Name = 142775
REMARK  13 active torsions:
REMARK  status: ('A' for Active; 'I' for Inactive)
REMARK    1  A    between atoms: C_1  and  O_2
REMARK    2  A    between atoms: C_1  and  C_4
REMARK    3  A    between atoms: C_1  and  C_16
REMARK    4  A    between atoms: C_4  and  O_5
REMARK    5  A    between atoms: C_4  and  C_7
REMARK    6  A    between atoms: C_7  and  O_8
REMARK    7  A    between atoms: C_7  and  C_10
REMARK    8  A    between atoms: C_10  and  O_11
REMARK    9  A    between atoms: O_11  and  S_12
REMARK   10  A    between atoms: C_16  and  O_17
REMARK   11  A    between atoms: C_16  and  C_19
REMARK   12  A    between atoms: C_19  and  O_20
REMARK   13  A    between atoms: O_20  and  S_21
REMARK                            x       y       z     vdW  Elec       q    Type
REMARK                         _______ _______ _______ _____ _____    ______ ____
ROOT
ATOM      1  C   UNL     1       0.764   0.680   0.153  0.00  0.00    +0.169 C 
ENDROOT
BRANCH   1   2
ATOM      2  O   UNL     1       1.098   1.776   1.005  0.00  0.00    -0.379 OA
ATOM      3  H   UNL     1       0.572   1.725   1.818  0.00  0.00    +0.211 HD
ENDBRANCH   1   2
BRANCH   1   4
ATOM      4  C   UNL     1      -0.755   0.689  -0.087  0.00  0.00    +0.169 C 
BRANCH   4   5
ATOM      5  O   UNL     1      -1.098   1.862  -0.824  0.00  0.00    -0.379 OA
ATOM      6  H   UNL     1      -0.573   1.896  -1.640  0.00  0.00    +0.211 HD
ENDBRANCH   4   5
BRANCH   4   7
ATOM      7  C   UNL     1      -1.586   0.630   1.210  0.00  0.00    +0.172 C 
BRANCH   7   8
ATOM      8  O   UNL     1      -1.301  -0.611   1.870  0.00  0.00    -0.379 OA
ATOM      9  H   UNL     1      -0.347  -0.680   2.030  0.00  0.00    +0.211 HD
ENDBRANCH   7   8
BRANCH   7  10
ATOM     10  C   UNL     1      -3.097   0.679   0.988  0.00  0.00    +0.204 C 
BRANCH  10  11
ATOM     11  O   UNL     1      -3.495  -0.404   0.150  0.00  0.00    -0.239 OA
BRANCH  11  12
ATOM     12  S   UNL     1      -5.074  -0.556  -0.229  0.00  0.00    -0.005 S 
ATOM     13  O   UNL     1      -5.473   0.541  -1.087  0.00  0.00    -0.072 OA
ATOM     14  O   UNL     1      -5.823  -0.914   0.959  0.00  0.00    -0.072 OA
ATOM     15  C   UNL     1      -4.902  -2.009  -1.233  0.00  0.00    +0.181 C 
ENDBRANCH  11  12
ENDBRANCH  10  11
ENDBRANCH   7  10
ENDBRANCH   4   7
ENDBRANCH   1   4
BRANCH   1  16
ATOM     16  C   UNL     1       1.597   0.756  -1.142  0.00  0.00    +0.172 C 
BRANCH  16  17
ATOM     17  O   UNL     1       1.319  -0.414  -1.921  0.00  0.00    -0.379 OA
ATOM     18  H   UNL     1       0.365  -0.472  -2.087  0.00  0.00    +0.211 HD
ENDBRANCH  16  17
BRANCH  16  19
ATOM     19  C   UNL     1       3.107   0.793  -0.915  0.00  0.00    +0.204 C 
BRANCH  19  20
ATOM     20  O   UNL     1       3.491  -0.378  -0.198  0.00  0.00    -0.239 OA
BRANCH  20  21
ATOM     21  S   UNL     1       5.065  -0.583   0.175  0.00  0.00    -0.005 S 
ATOM     22  O   UNL     1       5.463   0.411   1.152  0.00  0.00    -0.072 OA
ATOM     23  O   UNL     1       5.823  -0.813  -1.038  0.00  0.00    -0.072 OA
ATOM     24  C   UNL     1       4.875  -2.136   1.012  0.00  0.00    +0.181 C 
ENDBRANCH  20  21
ENDBRANCH  19  20
ENDBRANCH  16  19
ENDBRANCH   1  16
TORSDOF 13
