25654
  -OEChem-10051722543D

 51 53  0     1  0  0  0  0  0999 V2000
   -3.3961    0.9089   -1.5469 O   0  0  0  0  0  0  0  0  0  0  0  0
    3.1683   -2.0828    0.1949 O   0  0  0  0  0  0  0  0  0  0  0  0
    7.7241   -0.9821   -0.0202 O   0  0  0  0  0  0  0  0  0  0  0  0
   -7.0272   -2.7386   -0.9445 O   0  0  0  0  0  0  0  0  0  0  0  0
   -8.5761    1.4271    0.7969 O   0  0  0  0  0  0  0  0  0  0  0  0
    2.6685    0.8420   -0.1860 N   0  0  0  0  0  0  0  0  0  0  0  0
   -1.5111    0.5406    0.5981 N   0  0  0  0  0  0  0  0  0  0  0  0
    6.1694    0.7371   -0.2244 N   0  0  0  0  0  0  0  0  0  0  0  0
    5.4558   -1.5561    0.0900 N   0  0  0  0  0  0  0  0  0  0  0  0
    4.3078    2.3364   -0.4081 N   0  0  0  0  0  0  0  0  0  0  0  0
    1.3247    0.3227   -0.0962 C   0  0  0  0  0  0  0  0  0  0  0  0
    0.8111    0.3008    1.3431 C   0  0  0  0  0  0  0  0  0  0  0  0
    3.8375    0.1406   -0.1112 C   0  0  0  0  0  0  0  0  0  0  0  0
   -0.6063   -0.2634    1.4110 C   0  0  0  0  0  0  0  0  0  0  0  0
    4.8241    1.0783   -0.2497 C   0  0  0  0  0  0  0  0  0  0  0  0
   -2.8652    0.0070    0.6460 C   0  0  0  0  0  0  0  0  0  0  0  0
    3.0034    2.1594   -0.3649 C   0  0  0  0  0  0  0  0  0  0  0  0
    4.0678   -1.2561    0.0707 C   0  0  0  0  0  0  0  0  0  0  0  0
   -3.8215    0.8709   -0.1853 C   0  0  2  0  0  0  0  0  0  0  0  0
    6.5426   -0.6192   -0.0508 C   0  0  0  0  0  0  0  0  0  0  0  0
   -5.2336    0.3292   -0.1460 C   0  0  0  0  0  0  0  0  0  0  0  0
    7.1907    1.7660   -0.3752 C   0  0  0  0  0  0  0  0  0  0  0  0
    5.8196   -2.9577    0.2712 C   0  0  0  0  0  0  0  0  0  0  0  0
   -6.2563    1.1417    0.3122 C   0  0  0  0  0  0  0  0  0  0  0  0
   -5.4725   -0.9670   -0.5686 C   0  0  0  0  0  0  0  0  0  0  0  0
   -6.7743   -1.4663   -0.5320 C   0  0  0  0  0  0  0  0  0  0  0  0
   -7.5582    0.6422    0.3489 C   0  0  0  0  0  0  0  0  0  0  0  0
   -7.8171   -0.6617   -0.0731 C   0  0  0  0  0  0  0  0  0  0  0  0
    0.7020    0.9668   -0.7288 H   0  0  0  0  0  0  0  0  0  0  0  0
    1.3019   -0.6730   -0.5494 H   0  0  0  0  0  0  0  0  0  0  0  0
    1.4714   -0.3133    1.9678 H   0  0  0  0  0  0  0  0  0  0  0  0
    0.8343    1.3130    1.7672 H   0  0  0  0  0  0  0  0  0  0  0  0
   -0.9338   -0.2690    2.4574 H   0  0  0  0  0  0  0  0  0  0  0  0
   -0.5963   -1.3017    1.0578 H   0  0  0  0  0  0  0  0  0  0  0  0
   -2.8367   -1.0155    0.2519 H   0  0  0  0  0  0  0  0  0  0  0  0
   -3.2229   -0.0405    1.6824 H   0  0  0  0  0  0  0  0  0  0  0  0
   -1.5071    1.5047    0.9297 H   0  0  0  0  0  0  0  0  0  0  0  0
    2.2598    2.9397   -0.4550 H   0  0  0  0  0  0  0  0  0  0  0  0
   -3.8045    1.9030    0.1867 H   0  0  0  0  0  0  0  0  0  0  0  0
    7.0548    2.2620   -1.3412 H   0  0  0  0  0  0  0  0  0  0  0  0
    8.1981    1.3441   -0.3343 H   0  0  0  0  0  0  0  0  0  0  0  0
    7.0809    2.4962    0.4326 H   0  0  0  0  0  0  0  0  0  0  0  0
    4.9509   -3.6122    0.3704 H   0  0  0  0  0  0  0  0  0  0  0  0
    6.4410   -3.0437    1.1683 H   0  0  0  0  0  0  0  0  0  0  0  0
    6.4164   -3.2773   -0.5891 H   0  0  0  0  0  0  0  0  0  0  0  0
   -6.0612    2.1582    0.6426 H   0  0  0  0  0  0  0  0  0  0  0  0
   -4.6679   -1.5941   -0.9419 H   0  0  0  0  0  0  0  0  0  0  0  0
   -2.4746    1.2198   -1.5543 H   0  0  0  0  0  0  0  0  0  0  0  0
   -8.8296   -1.0573   -0.0472 H   0  0  0  0  0  0  0  0  0  0  0  0
   -6.1929   -3.1505   -1.2276 H   0  0  0  0  0  0  0  0  0  0  0  0
   -9.4062    0.9220    0.7538 H   0  0  0  0  0  0  0  0  0  0  0  0
  1 19  1  0  0  0  0
  1 48  1  0  0  0  0
  2 18  2  0  0  0  0
  3 20  2  0  0  0  0
  4 26  1  0  0  0  0
  4 50  1  0  0  0  0
  5 27  1  0  0  0  0
  5 51  1  0  0  0  0
  6 11  1  0  0  0  0
  6 13  1  0  0  0  0
  6 17  1  0  0  0  0
  7 14  1  0  0  0  0
  7 16  1  0  0  0  0
  7 37  1  0  0  0  0
  8 15  1  0  0  0  0
  8 20  1  0  0  0  0
  8 22  1  0  0  0  0
  9 18  1  0  0  0  0
  9 20  1  0  0  0  0
  9 23  1  0  0  0  0
 10 15  1  0  0  0  0
 10 17  2  0  0  0  0
 11 12  1  0  0  0  0
 11 29  1  0  0  0  0
 11 30  1  0  0  0  0
 12 14  1  0  0  0  0
 12 31  1  0  0  0  0
 12 32  1  0  0  0  0
 13 15  2  0  0  0  0
 13 18  1  0  0  0  0
 14 33  1  0  0  0  0
 14 34  1  0  0  0  0
 16 19  1  0  0  0  0
 16 35  1  0  0  0  0
 16 36  1  0  0  0  0
 17 38  1  0  0  0  0
 19 21  1  0  0  0  0
 19 39  1  0  0  0  0
 21 24  2  0  0  0  0
 21 25  1  0  0  0  0
 22 40  1  0  0  0  0
 22 41  1  0  0  0  0
 22 42  1  0  0  0  0
 23 43  1  0  0  0  0
 23 44  1  0  0  0  0
 23 45  1  0  0  0  0
 24 27  1  0  0  0  0
 24 46  1  0  0  0  0
 25 26  2  0  0  0  0
 25 47  1  0  0  0  0
 26 28  1  0  0  0  0
 27 28  2  0  0  0  0
 28 49  1  0  0  0  0
M  END
> <DATABASE_ID>
DB12846

> <DATABASE_NAME>
drugbank

> <ORIGINAL_SOURCE>
PUBCHEM

> <ORIGINAL_SOURCE_URL>
https://pubchem.ncbi.nlm.nih.gov/rest/pug/compound/inchikey/WVLAAKXASPCBGT-UHFFFAOYSA-N/SDF?record_type=3d

> <SMILES>
CN1C2=C(N(CCCNCC(O)C3=CC(O)=CC(O)=C3)C=N2)C(=O)N(C)C1=O

> <INCHI_IDENTIFIER>
InChI=1S/C18H23N5O5/c1-21-16-15(17(27)22(2)18(21)28)23(10-20-16)5-3-4-19-9-14(26)11-6-12(24)8-13(25)7-11/h6-8,10,14,19,24-26H,3-5,9H2,1-2H3

> <INCHI_KEY>
WVLAAKXASPCBGT-UHFFFAOYSA-N

> <FORMULA>
C18H23N5O5

> <MOLECULAR_WEIGHT>
389.412

> <EXACT_MASS>
389.169918861

> <JCHEM_ACCEPTOR_COUNT>
7

> <JCHEM_ATOM_COUNT>
51

> <JCHEM_AVERAGE_POLARIZABILITY>
39.695025141903784

> <JCHEM_BIOAVAILABILITY>
1

> <JCHEM_DONOR_COUNT>
4

> <JCHEM_FORMAL_CHARGE>
0

> <JCHEM_GHOSE_FILTER>
0

> <JCHEM_IUPAC>
7-(3-{[2-(3,5-dihydroxyphenyl)-2-hydroxyethyl]amino}propyl)-1,3-dimethyl-2,3,6,7-tetrahydro-1H-purine-2,6-dione

> <ALOGPS_LOGP>
-0.11

> <JCHEM_LOGP>
-1.1858073419206259

> <ALOGPS_LOGS>
-2.13

> <JCHEM_MDDR_LIKE_RULE>
1

> <JCHEM_NUMBER_OF_RINGS>
3

> <JCHEM_PHYSIOLOGICAL_CHARGE>
1

> <JCHEM_PKA>
10.617022364060563

> <JCHEM_PKA_STRONGEST_ACIDIC>
8.839623803441949

> <JCHEM_PKA_STRONGEST_BASIC>
9.662734115225573

> <JCHEM_POLAR_SURFACE_AREA>
131.16

> <JCHEM_REFRACTIVITY>
101.95789999999998

> <JCHEM_ROTATABLE_BOND_COUNT>
7

> <JCHEM_RULE_OF_FIVE>
1

> <ALOGPS_SOLUBILITY>
2.88e+00 g/l

> <JCHEM_TRADITIONAL_IUPAC>
reproterol

> <JCHEM_VEBER_RULE>
0

> <DRUGBANK_ID>
DB12846

> <DRUG_GROUPS>
investigational

> <GENERIC_NAME>
Reproterol

$$$$
