REMARK  Name = 448281
REMARK  12 active torsions:
REMARK  status: ('A' for Active; 'I' for Inactive)
REMARK    1  A    between atoms: CA_1  and  N_2
REMARK    2  A    between atoms: CA_1  and  C_15
REMARK    3  A    between atoms: CA_1  and  C_18
REMARK    4  A    between atoms: N_2  and  CA_5
REMARK    5  A    between atoms: CA_5  and  C_7
REMARK    6  A    between atoms: CA_5  and  CB_10
REMARK    7  A    between atoms: C_7  and  O_8
REMARK    8  A    between atoms: CB_10  and  CG_11
REMARK    9  A    between atoms: C_15  and  O_16
REMARK   10  A    between atoms: C_18  and  C_21
REMARK   11  A    between atoms: N_19  and  C_25
REMARK   12  A    between atoms: C_25  and  C_28
REMARK                            x       y       z     vdW  Elec       q    Type
REMARK                         _______ _______ _______ _____ _____    ______ ____
ROOT
ATOM      1  CA  UNL     1       1.468   0.749   0.203  0.00  0.00    +0.046 C 
ENDROOT
BRANCH   1   2
ATOM      2  N   UNL     1       2.662   0.218   0.843  0.00  0.00    +0.401 N 
ATOM      3  H1  UNL     1       3.421   0.893   0.748  0.00  0.00    -0.083 HD
ATOM      4  H2  UNL     1       2.458   0.051   1.829  0.00  0.00    -0.083 HD
BRANCH   2   5
ATOM      5  CA  UNL     1       3.063  -1.046   0.226  0.00  0.00    +0.040 C 
BRANCH   5   7
ATOM      6  OXT UNL     1       1.748  -2.161   1.957  0.00  0.00    -0.253 OA
ATOM      7  C   UNL     1       2.183  -2.137   0.814  0.00  0.00    +0.293 C 
BRANCH   7   8
ATOM      8  O   UNL     1       1.930  -3.123  -0.088  0.00  0.00    -0.482 OA
ATOM      9  H   UNL     1       2.282  -3.068  -0.954  0.00  0.00    +0.295 HD
ENDBRANCH   7   8
ENDBRANCH   5   7
BRANCH   5  10
ATOM     10  CB  UNL     1       4.540  -1.369   0.502  0.00  0.00    -0.010 C 
BRANCH  10  11
ATOM     11  CG  UNL     1       5.559  -0.316   0.023  0.00  0.00    -0.002 C 
ATOM     12  CD1 UNL     1       6.974  -0.751   0.418  0.00  0.00    -0.000 C 
ATOM     13  CD2 UNL     1       5.494  -0.087  -1.488  0.00  0.00    -0.000 C 
ENDBRANCH  10  11
ENDBRANCH   5  10
ENDBRANCH   2   5
ENDBRANCH   1   2
BRANCH   1  15
ATOM     14  OXT UNL     1       2.662   2.392  -1.155  0.00  0.00    -0.253 OA
ATOM     15  C   UNL     1       1.922   1.422  -1.077  0.00  0.00    +0.294 C 
BRANCH  15  16
ATOM     16  O   UNL     1       1.413   0.779  -2.160  0.00  0.00    -0.482 OA
ATOM     17  H   UNL     1       0.850   0.039  -2.044  0.00  0.00    +0.295 HD
ENDBRANCH  15  16
ENDBRANCH   1  15
BRANCH   1  18
ATOM     18  C   UNL     1       0.781   1.748   1.144  0.00  0.00    +0.032 C 
BRANCH  18  21
ATOM     19  N   UNL     1      -1.717   1.785   0.704  0.00  0.00    -0.289 N 
ATOM     20  N   UNL     1      -2.013   3.603  -0.536  0.00  0.00    -0.314 N 
ATOM     21  C   UNL     1      -0.477   2.338   0.548  0.00  0.00    +0.039 C 
ATOM     22  C   UNL     1      -0.685   3.459  -0.221  0.00  0.00    +0.069 C 
ATOM     23  C   UNL     1      -2.607   2.579   0.035  0.00  0.00    +0.185 C 
ATOM     24  H   UNL     1      -2.429   4.317  -1.072  0.00  0.00    +0.148 HD
BRANCH  19  25
ATOM     25  C   UNL     1      -2.045   0.584   1.435  0.00  0.00    +0.119 C 
BRANCH  25  28
ATOM     26 CL   UNL     1      -6.942  -0.754   0.259  0.00  0.00    -0.082 Cl
ATOM     27 CL   UNL     1      -2.737  -3.273  -2.000  0.00  0.00    -0.082 Cl
ATOM     28  C   UNL     1      -2.989  -0.293   0.656  0.00  0.00    -0.001 C 
ATOM     29  C   UNL     1      -2.484  -1.264  -0.209  0.00  0.00    +0.009 C 
ATOM     30  C   UNL     1      -4.367  -0.135   0.801  0.00  0.00    +0.009 C 
ATOM     31  C   UNL     1      -5.241  -0.949   0.080  0.00  0.00    +0.058 C 
ATOM     32  C   UNL     1      -3.358  -2.077  -0.930  0.00  0.00    +0.058 C 
ATOM     33  C   UNL     1      -4.737  -1.920  -0.785  0.00  0.00    +0.023 C 
ENDBRANCH  25  28
ENDBRANCH  19  25
ENDBRANCH  18  21
ENDBRANCH   1  18
TORSDOF 12
