REMARK  Name = 25022354
REMARK  8 active torsions:
REMARK  status: ('A' for Active; 'I' for Inactive)
REMARK    1  A    between atoms: C_5  and  C_11
REMARK    2  A    between atoms: C_9  and  C_17
REMARK    3  A    between atoms: C_11  and  O_12
REMARK    4  A    between atoms: O_12  and  C_13
REMARK    5  A    between atoms: C_17  and  C_18
REMARK    6  A    between atoms: C_18  and  N_19
REMARK    7  A    between atoms: C_18  and  C_23
REMARK    8  A    between atoms: C_23  and  C_27
REMARK                            x       y       z     vdW  Elec       q    Type
REMARK                         _______ _______ _______ _____ _____    ______ ____
ROOT
ATOM      1  O   UNL     1      -3.914  -0.020   2.562  0.00  0.00    -0.273 OA
ATOM      2  O   UNL     1       0.750   1.080   1.025  0.00  0.00    -0.275 OA
ATOM      3  N   UNL     1      -1.426   1.372   0.260  0.00  0.00    -0.269 N 
ATOM      4  N   UNL     1      -4.068   1.720   1.094  0.00  0.00    -0.301 N 
ATOM      5  C   UNL     1      -1.972   0.383   1.199  0.00  0.00    +0.182 C 
ATOM      6  C   UNL     1      -2.389   1.984  -0.655  0.00  0.00    +0.115 C 
ATOM      7  C   UNL     1      -3.471   2.651   0.163  0.00  0.00    +0.111 C 
ATOM      8  C   UNL     1      -3.390   0.684   1.695  0.00  0.00    +0.243 C 
ATOM      9  C   UNL     1      -0.048   1.606   0.244  0.00  0.00    +0.224 C 
ATOM     10  H   UNL     1      -5.021   1.835   1.313  0.00  0.00    +0.150 HD
ENDROOT
BRANCH   5  11
ATOM     11  C   UNL     1      -1.936  -1.017   0.584  0.00  0.00    +0.171 C 
BRANCH  11  12
ATOM     12  O   UNL     1      -2.854  -1.055  -0.492  0.00  0.00    -0.356 OA
BRANCH  12  13
ATOM     13  C   UNL     1      -2.879  -2.333  -1.119  0.00  0.00    +0.093 C 
ATOM     14  C   UNL     1      -1.485  -2.632  -1.669  0.00  0.00    +0.030 C 
ATOM     15  C   UNL     1      -3.901  -2.268  -2.253  0.00  0.00    +0.030 C 
ATOM     16  C   UNL     1      -3.292  -3.376  -0.082  0.00  0.00    +0.030 C 
ENDBRANCH  12  13
ENDBRANCH  11  12
ENDBRANCH   5  11
BRANCH   9  17
ATOM     17  C   UNL     1       0.464   2.566  -0.799  0.00  0.00    +0.064 C 
BRANCH  17  18
ATOM     18  C   UNL     1       1.984   2.727  -0.723  0.00  0.00    -0.052 C 
BRANCH  18  19
ATOM     19  N   UNL     1       2.314   4.022  -1.332  0.00  0.00    +0.382 N 
ATOM     20  H   UNL     1       1.812   4.765  -0.845  0.00  0.00    -0.089 HD
ATOM     21  H   UNL     1       2.043   4.015  -2.315  0.00  0.00    -0.089 HD
ATOM     22  H   UNL     1       3.318   4.186  -1.258  0.00  0.00    -0.089 HD
ENDBRANCH  18  19
BRANCH  18  23
ATOM     23  C   UNL     1       2.756   1.622  -1.477  0.00  0.00    +0.007 C 
BRANCH  23  27
ATOM     24  F   UNL     1       1.772  -0.900  -2.321  0.00  0.00    -0.204 F 
ATOM     25  F   UNL     1       4.533  -0.756   2.399  0.00  0.00    -0.202 F 
ATOM     26  F   UNL     1       3.530  -3.123   1.468  0.00  0.00    -0.202 F 
ATOM     27  C   UNL     1       2.962   0.350  -0.691  0.00  0.00    +0.006 C 
ATOM     28  C   UNL     1       2.450  -0.857  -1.166  0.00  0.00    +0.138 C 
ATOM     29  C   UNL     1       3.665   0.385   0.513  0.00  0.00    +0.030 C 
ATOM     30  C   UNL     1       3.857  -0.789   1.242  0.00  0.00    +0.167 C 
ATOM     31  C   UNL     1       2.643  -2.031  -0.436  0.00  0.00    +0.061 C 
ATOM     32  C   UNL     1       3.346  -1.997   0.768  0.00  0.00    +0.170 C 
ENDBRANCH  23  27
ENDBRANCH  18  23
ENDBRANCH  17  18
ENDBRANCH   9  17
TORSDOF 8
