REMARK  Name = 44469321
REMARK  0 active torsions:
REMARK  status: ('A' for Active; 'I' for Inactive)
REMARK                            x       y       z     vdW  Elec       q    Type
REMARK                         _______ _______ _______ _____ _____    ______ ____
ROOT
ATOM      1 CL   UNL     1      -3.743  -2.976   2.655  0.00  0.00    -0.082 Cl
ATOM      2 CL   UNL     1       5.480  -2.643  -0.761  0.00  0.00    -0.080 Cl
ATOM      3  F   UNL     1       5.875  -0.133   0.738  0.00  0.00    -0.203 F 
ATOM      4  O   UNL     1      -1.169   2.000  -2.401  0.00  0.00    -0.276 OA
ATOM      5  N   UNL     1      -1.629   2.014   0.603  0.00  0.00    +0.399 N 
ATOM      6  N   UNL     1       0.633  -0.731  -0.687  0.00  0.00    -0.358 N 
ATOM      7  N   UNL     1      -2.763   0.318  -2.073  0.00  0.00    -0.285 N 
ATOM      8  C   UNL     1      -1.351   0.814  -0.225  0.00  0.00    +0.080 C 
ATOM      9  C   UNL     1       0.083   0.401  -0.152  0.00  0.00    +0.023 A 
ATOM     10  C   UNL     1      -0.532   3.013   0.607  0.00  0.00    -0.056 C 
ATOM     11  C   UNL     1       1.089   1.124   0.453  0.00  0.00    -0.013 A 
ATOM     12  C   UNL     1       0.803   2.420   1.127  0.00  0.00    +0.006 C 
ATOM     13  C   UNL     1      -2.326  -0.300   0.076  0.00  0.00    -0.013 C 
ATOM     14  C   UNL     1      -1.708   1.159  -1.696  0.00  0.00    +0.216 C 
ATOM     15  C   UNL     1       2.300   0.398   0.296  0.00  0.00    +0.015 A 
ATOM     16  C   UNL     1      -3.125  -0.539  -1.041  0.00  0.00    +0.045 C 
ATOM     17  C   UNL     1       1.986  -0.761  -0.423  0.00  0.00    +0.057 A 
ATOM     18  C   UNL     1      -0.955   4.201   1.471  0.00  0.00    -0.023 C 
ATOM     19  C   UNL     1      -2.502  -1.044   1.231  0.00  0.00    +0.007 C 
ATOM     20  C   UNL     1       3.636   0.608   0.692  0.00  0.00    +0.032 C 
ATOM     21  C   UNL     1      -4.111  -1.505  -1.060  0.00  0.00    +0.015 C 
ATOM     22  C   UNL     1       2.947  -1.719  -0.765  0.00  0.00    +0.031 C 
ATOM     23  C   UNL     1      -3.494  -2.029   1.238  0.00  0.00    +0.057 C 
ATOM     24  C   UNL     1      -4.292  -2.257   0.102  0.00  0.00    +0.013 C 
ATOM     25  C   UNL     1       4.606  -0.343   0.356  0.00  0.00    +0.151 C 
ATOM     26  C   UNL     1       4.265  -1.488  -0.361  0.00  0.00    +0.086 C 
ATOM     27  H   UNL     1      -1.790   1.711   1.563  0.00  0.00    -0.083 HD
ATOM     28  H   UNL     1      -2.443   2.472   0.193  0.00  0.00    -0.083 HD
ATOM     29  H   UNL     1       0.138  -1.420  -1.186  0.00  0.00    +0.166 HD
ATOM     30  H   UNL     1      -3.194   0.331  -2.958  0.00  0.00    +0.155 HD
ENDROOT
TORSDOF 0
