REMARK  Name = 11494412
REMARK  2 active torsions:
REMARK  status: ('A' for Active; 'I' for Inactive)
REMARK    1  A    between atoms: C_4  and  C_10
REMARK    2  A    between atoms: C_5  and  C_22
REMARK                            x       y       z     vdW  Elec       q    Type
REMARK                         _______ _______ _______ _____ _____    ______ ____
ROOT
ATOM      1  O   UNL     1       0.590   3.691  -1.487  0.00  0.00    -0.274 OA
ATOM      2  O   UNL     1      -2.892   3.002   1.438  0.00  0.00    -0.274 OA
ATOM      3  N   UNL     1      -1.203   3.653  -0.015  0.00  0.00    -0.255 N 
ATOM      4  C   UNL     1      -0.305   1.591  -0.640  0.00  0.00    +0.113 C 
ATOM      5  C   UNL     1      -1.355   1.376   0.475  0.00  0.00    +0.113 C 
ATOM      6  C   UNL     1      -0.215   3.093  -0.788  0.00  0.00    +0.233 C 
ATOM      7  C   UNL     1      -1.940   2.750   0.712  0.00  0.00    +0.233 C 
ATOM      8  H   UNL     1      -1.369   4.622   0.016  0.00  0.00    +0.158 HD
ENDROOT
BRANCH   4  10
ATOM      9  N   UNL     1       3.052   0.796   0.524  0.00  0.00    -0.286 N 
ATOM     10  C   UNL     1       1.014   1.021  -0.300  0.00  0.00    +0.003 C 
ATOM     11  C   UNL     1       2.770  -0.369  -0.140  0.00  0.00    +0.047 C 
ATOM     12  C   UNL     1       1.500  -0.267  -0.677  0.00  0.00    +0.011 C 
ATOM     13  C   UNL     1       1.998   1.653   0.441  0.00  0.00    +0.062 C 
ATOM     14  C   UNL     1       4.340   0.977   1.173  0.00  0.00    +0.096 C 
ATOM     15  C   UNL     1       3.612  -1.475  -0.254  0.00  0.00    -0.009 C 
ATOM     16  C   UNL     1       4.980  -0.381   1.538  0.00  0.00    +0.027 C 
ATOM     17  C   UNL     1       4.973  -1.404   0.375  0.00  0.00    +0.029 C 
ATOM     18  C   UNL     1       1.013  -1.362  -1.413  0.00  0.00    +0.001 C 
ATOM     19  C   UNL     1       3.118  -2.545  -1.002  0.00  0.00    -0.003 C 
ATOM     20  C   UNL     1       1.838  -2.491  -1.567  0.00  0.00    -0.000 C 
ENDBRANCH   4  10
BRANCH   5  22
ATOM     21  N   UNL     1      -4.274  -0.426  -0.775  0.00  0.00    -0.312 N 
ATOM     22  C   UNL     1      -2.413   0.420   0.088  0.00  0.00    +0.003 C 
ATOM     23  C   UNL     1      -2.442  -0.973   0.375  0.00  0.00    +0.011 C 
ATOM     24  C   UNL     1      -3.551   0.727  -0.620  0.00  0.00    +0.058 C 
ATOM     25  C   UNL     1      -3.621  -1.480  -0.178  0.00  0.00    +0.048 C 
ATOM     26  C   UNL     1      -1.578  -1.855   1.054  0.00  0.00    +0.001 C 
ATOM     27  C   UNL     1      -3.979  -2.829  -0.085  0.00  0.00    +0.015 C 
ATOM     28  C   UNL     1      -1.923  -3.207   1.155  0.00  0.00    +0.000 C 
ATOM     29  C   UNL     1      -3.106  -3.685   0.593  0.00  0.00    +0.001 C 
ATOM     30  H   UNL     1      -5.136  -0.491  -1.247  0.00  0.00    +0.152 HD
ENDBRANCH   5  22
TORSDOF 2
