REMARK  Name = 13387
REMARK  0 active torsions:
REMARK  status: ('A' for Active; 'I' for Inactive)
REMARK                            x       y       z     vdW  Elec       q    Type
REMARK                         _______ _______ _______ _____ _____    ______ ____
ROOT
ATOM      1  O   UNL     1       1.095  -1.704   0.050  0.00  0.00    -0.275 OA
ATOM      2  N   UNL     1       0.511   0.576   0.006  0.00  0.00    -0.278 N 
ATOM      3  C   UNL     1      -1.787   0.364   0.233  0.00  0.00    +0.031 C 
ATOM      4  C   UNL     1      -0.699   1.347  -0.153  0.00  0.00    +0.094 C 
ATOM      5  C   UNL     1      -1.212  -0.991  -0.162  0.00  0.00    +0.087 C 
ATOM      6  C   UNL     1       0.278  -0.797  -0.005  0.00  0.00    +0.226 C 
ATOM      7  C   UNL     1       1.813   1.205   0.031  0.00  0.00    +0.115 C 
ENDROOT
TORSDOF 0
