REMARK  Name = 208952
REMARK  6 active torsions:
REMARK  status: ('A' for Active; 'I' for Inactive)
REMARK    1  A    between atoms: C_1  and  C_4
REMARK    2  A    between atoms: C_1  and  O_10
REMARK    3  A    between atoms: C_1  and  C_12
REMARK    4  A    between atoms: C_1  and  C_26
REMARK    5  A    between atoms: C_12  and  N_16
REMARK    6  A    between atoms: C_26  and  N_27
REMARK                            x       y       z     vdW  Elec       q    Type
REMARK                         _______ _______ _______ _____ _____    ______ ____
ROOT
ATOM      1  C   UNL     1      -1.087  -0.287  -0.465  0.00  0.00    +0.146 C 
ENDROOT
BRANCH   1   4
ATOM      2  F   UNL     1      -2.114  -0.834   2.110  0.00  0.00    -0.204 F 
ATOM      3  F   UNL     1      -6.495  -1.508   0.457  0.00  0.00    -0.204 F 
ATOM      4  C   UNL     1      -2.563  -0.622  -0.211  0.00  0.00    +0.033 C 
ATOM      5  C   UNL     1      -2.967  -0.873   1.078  0.00  0.00    +0.141 C 
ATOM      6  C   UNL     1      -3.418  -0.654  -1.286  0.00  0.00    +0.003 C 
ATOM      7  C   UNL     1      -4.310  -1.176   1.306  0.00  0.00    +0.059 C 
ATOM      8  C   UNL     1      -4.761  -0.957  -1.058  0.00  0.00    +0.030 C 
ATOM      9  C   UNL     1      -5.206  -1.218   0.238  0.00  0.00    +0.142 C 
ENDBRANCH   1   4
BRANCH   1  10
ATOM     10  O   UNL     1      -0.877  -0.035  -1.863  0.00  0.00    -0.379 OA
ATOM     11  H   UNL     1       0.057   0.175  -2.017  0.00  0.00    +0.211 HD
ENDBRANCH   1  10
BRANCH   1  12
ATOM     12  C   UNL     1      -0.167  -1.497  -0.083  0.00  0.00    +0.107 C 
ATOM     13  C   UNL     1      -0.452  -2.762  -0.900  0.00  0.00    +0.024 C 
BRANCH  12  16
ATOM     14 CL   UNL     1       7.676   0.645  -0.195  0.00  0.00    -0.082 Cl
ATOM     15  O   UNL     1       1.413  -0.355   1.949  0.00  0.00    -0.274 OA
ATOM     16  N   UNL     1       1.240  -1.158  -0.233  0.00  0.00    -0.257 N 
ATOM     17  N   UNL     1       3.120  -1.139  -1.689  0.00  0.00    -0.252 NA
ATOM     18  C   UNL     1       1.913  -0.595   0.854  0.00  0.00    +0.236 C 
ATOM     19  C   UNL     1       1.879  -1.396  -1.436  0.00  0.00    +0.222 C 
ATOM     20  C   UNL     1       3.340  -0.284   0.605  0.00  0.00    +0.138 C 
ATOM     21  C   UNL     1       3.883  -0.569  -0.655  0.00  0.00    +0.069 C 
ATOM     22  C   UNL     1       4.127   0.283   1.613  0.00  0.00    -0.011 C 
ATOM     23  C   UNL     1       5.231  -0.276  -0.891  0.00  0.00    +0.027 C 
ATOM     24  C   UNL     1       5.468   0.569   1.362  0.00  0.00    +0.008 C 
ATOM     25  C   UNL     1       6.019   0.290   0.112  0.00  0.00    +0.059 C 
ENDBRANCH  12  16
ENDBRANCH   1  12
BRANCH   1  26
ATOM     26  C   UNL     1      -0.669   0.994   0.319  0.00  0.00    +0.151 C 
BRANCH  26  27
ATOM     27  N   UNL     1      -1.450   2.195   0.007  0.00  0.00    -0.188 N 
ATOM     28  N   UNL     1      -2.548   2.471   0.702  0.00  0.00    -0.154 NA
ATOM     29  N   UNL     1      -2.117   4.035  -0.910  0.00  0.00    -0.203 NA
ATOM     30  C   UNL     1      -1.187   3.109  -0.944  0.00  0.00    +0.186 C 
ATOM     31  C   UNL     1      -2.922   3.605   0.106  0.00  0.00    +0.218 C 
ENDBRANCH  26  27
ENDBRANCH   1  26
TORSDOF 6
