REMARK  Name = 39836
REMARK  9 active torsions:
REMARK  status: ('A' for Active; 'I' for Inactive)
REMARK    1  A    between atoms: C_1  and  C_2
REMARK    2  A    between atoms: C_1  and  C_12
REMARK    3  A    between atoms: C_2  and  C_3
REMARK    4  A    between atoms: C_3  and  N_4
REMARK    5  A    between atoms: C_3  and  C_9
REMARK    6  A    between atoms: C_9  and  O_10
REMARK    7  A    between atoms: C_12  and  N_13
REMARK    8  A    between atoms: N_13  and  C_16
REMARK    9  A    between atoms: N_14  and  N_22
REMARK                            x       y       z     vdW  Elec       q    Type
REMARK                         _______ _______ _______ _____ _____    ______ ____
ROOT
ATOM      1  C   UNL     1      -0.931  -1.524  -0.490  0.00  0.00    +0.025 C 
ENDROOT
BRANCH   1   2
ATOM      2  C   UNL     1      -1.355  -0.916   0.856  0.00  0.00    -0.009 C 
BRANCH   2   3
ATOM      3  C   UNL     1      -2.838  -0.524   0.938  0.00  0.00    +0.036 C 
BRANCH   3   4
ATOM      4  N   UNL     1      -3.710  -1.676   0.712  0.00  0.00    +0.389 N 
ATOM      5  H   UNL     1      -3.482  -2.412   1.380  0.00  0.00    -0.088 HD
ATOM      6  H   UNL     1      -3.574  -2.024  -0.237  0.00  0.00    -0.088 HD
ATOM      7  H   UNL     1      -4.683  -1.395   0.834  0.00  0.00    -0.088 HD
ENDBRANCH   3   4
BRANCH   3   9
ATOM      8  O   UNL     1      -4.030   0.437  -0.962  0.00  0.00    -0.252 OA
ATOM      9  C   UNL     1      -3.200   0.553  -0.070  0.00  0.00    +0.296 C 
BRANCH   9  10
ATOM     10  O   UNL     1      -2.462   1.676   0.185  0.00  0.00    -0.446 OA
ATOM     11  C   UNL     1      -2.707   2.786  -0.684  0.00  0.00    +0.256 C 
ENDBRANCH   9  10
ENDBRANCH   3   9
ENDBRANCH   2   3
ENDBRANCH   1   2
BRANCH   1  12
ATOM     12  C   UNL     1       0.536  -1.947  -0.497  0.00  0.00    +0.129 C 
BRANCH  12  13
ATOM     13  N   UNL     1       1.393  -0.787  -0.247  0.00  0.00    -0.239 NA
BRANCH  13  16
ATOM     14  N   UNL     1       3.626   0.017   0.011  0.00  0.00    -0.197 N 
ATOM     15  N   UNL     1       3.311  -2.196  -0.399  0.00  0.00    -0.368 N 
ATOM     16  C   UNL     1       2.674  -0.980  -0.215  0.00  0.00    +0.215 C 
ATOM     17  H   UNL     1       4.577  -0.238   0.016  0.00  0.00    +0.197 HD
ATOM     18  H   UNL     1       2.781  -3.008  -0.570  0.00  0.00    +0.159 HD
ATOM     19  H   UNL     1       4.293  -2.248  -0.357  0.00  0.00    +0.159 HD
BRANCH  14  22
ATOM     20  O   UNL     1       4.274   2.072   0.407  0.00  0.00    -0.108 OA
ATOM     21  O   UNL     1       2.117   1.678   0.228  0.00  0.00    -0.108 OA
ATOM     22  N   UNL     1       3.302   1.332   0.227  0.00  0.00    +0.133 N 
ENDBRANCH  14  22
ENDBRANCH  13  16
ENDBRANCH  12  13
ENDBRANCH   1  12
TORSDOF 9
