REMARK  Name = 50902259
REMARK  13 active torsions:
REMARK  status: ('A' for Active; 'I' for Inactive)
REMARK    1  A    between atoms: C_4  and  C_13
REMARK    2  A    between atoms: C_5  and  O_11
REMARK    3  A    between atoms: C_9  and  C_28
REMARK    4  A    between atoms: C_14  and  C_15
REMARK    5  A    between atoms: C_15  and  O_16
REMARK    6  A    between atoms: C_15  and  C_18
REMARK    7  A    between atoms: C_18  and  O_19
REMARK    8  A    between atoms: O_19  and  C_22
REMARK    9  A    between atoms: C_28  and  C_29
REMARK   10  A    between atoms: C_29  and  C_30
REMARK   11  A    between atoms: C_30  and  C_32
REMARK   12  A    between atoms: C_32  and  O_33
REMARK   13  A    between atoms: O_33  and  C_34
REMARK                            x       y       z     vdW  Elec       q    Type
REMARK                         _______ _______ _______ _____ _____    ______ ____
ROOT
ATOM      1  O   UNL     1      -1.419  -3.042  -0.450  0.00  0.00    -0.356 OA
ATOM      2  C   UNL     1       0.808  -2.261   0.393  0.00  0.00    +0.034 C 
ATOM      3  C   UNL     1      -0.232  -3.394   0.239  0.00  0.00    +0.118 C 
ATOM      4  C   UNL     1       2.114  -2.816  -0.233  0.00  0.00    +0.051 C 
ATOM      5  C   UNL     1       1.941  -4.333  -0.171  0.00  0.00    +0.117 C 
ATOM      6  C   UNL     1       0.479  -4.498  -0.542  0.00  0.00    +0.059 C 
ATOM      7  C   UNL     1       0.437  -0.905  -0.216  0.00  0.00    +0.003 C 
ATOM      8  C   UNL     1      -0.751  -0.229   0.467  0.00  0.00    +0.003 C 
ATOM      9  C   UNL     1      -2.119  -0.758   0.015  0.00  0.00    +0.030 C 
ATOM     10  C   UNL     1      -2.312  -2.244   0.320  0.00  0.00    +0.142 C 
ENDROOT
BRANCH   5  11
ATOM     11  O   UNL     1       2.757  -5.001  -1.116  0.00  0.00    -0.384 OA
ATOM     12  H   UNL     1       3.690  -4.891  -0.873  0.00  0.00    +0.210 HD
ENDBRANCH   5  11
BRANCH   4  13
ATOM     13  C   UNL     1       3.353  -2.349   0.461  0.00  0.00    -0.026 C 
ATOM     14  C   UNL     1       4.344  -1.681  -0.150  0.00  0.00    +0.002 C 
BRANCH  14  15
ATOM     15  C   UNL     1       5.589  -1.213   0.549  0.00  0.00    +0.176 C 
BRANCH  15  16
ATOM     16  O   UNL     1       6.697  -1.874  -0.056  0.00  0.00    -0.376 OA
ATOM     17  H   UNL     1       6.585  -2.834   0.027  0.00  0.00    +0.211 HD
ENDBRANCH  15  16
BRANCH  15  18
ATOM     18  C   UNL     1       5.776   0.296   0.414  0.00  0.00    +0.239 C 
BRANCH  18  19
ATOM     19  O   UNL     1       4.661   0.974   0.976  0.00  0.00    -0.470 OA
BRANCH  19  22
ATOM     20  F   UNL     1       2.053   1.865   0.965  0.00  0.00    -0.201 F 
ATOM     21  F   UNL     1       5.977   5.008  -1.187  0.00  0.00    -0.204 F 
ATOM     22  C   UNL     1       4.341   2.193   0.438  0.00  0.00    +0.168 C 
ATOM     23  C   UNL     1       3.017   2.632   0.439  0.00  0.00    +0.174 C 
ATOM     24  C   UNL     1       5.341   2.996  -0.112  0.00  0.00    +0.069 C 
ATOM     25  C   UNL     1       5.017   4.237  -0.660  0.00  0.00    +0.143 C 
ATOM     26  C   UNL     1       2.693   3.873  -0.110  0.00  0.00    +0.035 C 
ATOM     27  C   UNL     1       3.693   4.675  -0.659  0.00  0.00    +0.032 C 
ENDBRANCH  19  22
ENDBRANCH  18  19
ENDBRANCH  15  18
ENDBRANCH  14  15
ENDBRANCH   4  13
BRANCH   9  28
ATOM     28  C   UNL     1      -3.234   0.058   0.674  0.00  0.00    +0.003 C 
BRANCH  28  29
ATOM     29  C   UNL     1      -4.535  -0.056  -0.112  0.00  0.00    +0.012 C 
BRANCH  29  30
ATOM     30  C   UNL     1      -5.636   0.789   0.528  0.00  0.00    +0.110 C 
BRANCH  30  32
ATOM     31  O   UNL     1      -7.094   0.095  -1.291  0.00  0.00    -0.250 OA
ATOM     32  C   UNL     1      -6.928   0.724  -0.255  0.00  0.00    +0.317 C 
BRANCH  32  33
ATOM     33  O   UNL     1      -7.869   1.481   0.382  0.00  0.00    -0.452 OA
BRANCH  33  34
ATOM     34  C   UNL     1      -9.155   1.521  -0.245  0.00  0.00    +0.169 C 
ATOM     35  C   UNL     1      -9.805   2.869   0.030  0.00  0.00    +0.047 C 
ATOM     36  C   UNL     1     -10.001   0.368   0.274  0.00  0.00    +0.047 C 
ENDBRANCH  33  34
ENDBRANCH  32  33
ENDBRANCH  30  32
ENDBRANCH  29  30
ENDBRANCH  28  29
ENDBRANCH   9  28
TORSDOF 13
