REMARK  Name = 9796181
REMARK  3 active torsions:
REMARK  status: ('A' for Active; 'I' for Inactive)
REMARK    1  A    between atoms: N_2  and  C_10
REMARK    2  A    between atoms: C_4  and  C_20
REMARK    3  A    between atoms: C_20  and  N_21
REMARK                            x       y       z     vdW  Elec       q    Type
REMARK                         _______ _______ _______ _____ _____    ______ ____
ROOT
ATOM      1  S   UNL     1      -1.880  -2.727   1.306  0.00  0.00    -0.018 S 
ATOM      2  N   UNL     1      -2.194  -0.212   0.116  0.00  0.00    -0.276 N 
ATOM      3  N   UNL     1      -4.066  -1.451   0.291  0.00  0.00    -0.294 N 
ATOM      4  C   UNL     1      -3.274   0.490  -0.417  0.00  0.00    +0.023 C 
ATOM      5  C   UNL     1      -2.682  -1.469   0.580  0.00  0.00    +0.142 C 
ATOM      6  C   UNL     1      -4.381  -0.260  -0.306  0.00  0.00    +0.072 C 
ATOM      7  H   UNL     1      -4.700  -2.178   0.487  0.00  0.00    +0.154 HD
ENDROOT
BRANCH   2  10
ATOM      8  F   UNL     1       3.805   1.467   1.839  0.00  0.00    -0.204 F 
ATOM      9  F   UNL     1       4.741  -1.020  -2.067  0.00  0.00    -0.204 F 
ATOM     10  C   UNL     1      -0.843   0.291   0.164  0.00  0.00    +0.083 C 
ATOM     11  C   UNL     1      -0.353   0.408   1.607  0.00  0.00    +0.025 C 
ATOM     12  C   UNL     1       0.095  -0.612  -0.642  0.00  0.00    +0.046 C 
ATOM     13  C   UNL     1       1.028   1.059   1.651  0.00  0.00    +0.030 C 
ATOM     14  C   UNL     1       1.554  -0.283  -0.445  0.00  0.00    -0.020 C 
ATOM     15  C   UNL     1       1.997   0.470   0.657  0.00  0.00    +0.002 C 
ATOM     16  C   UNL     1       2.495  -0.791  -1.355  0.00  0.00    +0.025 C 
ATOM     17  C   UNL     1       3.368   0.731   0.807  0.00  0.00    +0.138 C 
ATOM     18  C   UNL     1       3.855  -0.534  -1.189  0.00  0.00    +0.142 C 
ATOM     19  C   UNL     1       4.292   0.229  -0.109  0.00  0.00    +0.059 C 
ENDBRANCH   2  10
BRANCH   4  20
ATOM     20  C   UNL     1      -3.143   1.848  -0.998  0.00  0.00    -0.042 C 
BRANCH  20  21
ATOM     21  N   UNL     1      -4.416   2.368  -1.489  0.00  0.00    +0.384 N 
ATOM     22  H   UNL     1      -4.275   3.300  -1.877  0.00  0.00    -0.089 HD
ATOM     23  H   UNL     1      -5.083   2.417  -0.718  0.00  0.00    -0.089 HD
ATOM     24  H   UNL     1      -4.779   1.749  -2.213  0.00  0.00    -0.089 HD
ENDBRANCH  20  21
ENDBRANCH   4  20
TORSDOF 3
