REMARK  Name = 9577379
REMARK  5 active torsions:
REMARK  status: ('A' for Active; 'I' for Inactive)
REMARK    1  A    between atoms: C_1  and  C_2
REMARK    2  A    between atoms: C_1  and  C_7
REMARK    3  A    between atoms: C_2  and  C_3
REMARK    4  A    between atoms: C_3  and  N_5
REMARK    5  A    between atoms: C_7  and  S_8
REMARK                            x       y       z     vdW  Elec       q    Type
REMARK                         _______ _______ _______ _____ _____    ______ ____
ROOT
ATOM      1  C   UNL     1      -0.512   0.402   0.289  0.00  0.00    +0.016 C 
ENDROOT
BRANCH   1   2
ATOM      2  C   UNL     1       0.489   1.457  -0.200  0.00  0.00    +0.028 C 
BRANCH   2   3
ATOM      3  C   UNL     1       1.923   1.127   0.204  0.00  0.00    +0.136 C 
BRANCH   3   5
ATOM      4  S   UNL     1       4.893  -0.986   0.211  0.00  0.00    +0.020 S 
ATOM      5  N   UNL     1       2.320  -0.156  -0.378  0.00  0.00    -0.222 NA
ATOM      6  C   UNL     1       3.414  -0.498  -0.121  0.00  0.00    +0.037 C 
ENDBRANCH   3   5
ENDBRANCH   2   3
ENDBRANCH   1   2
BRANCH   1   7
ATOM      7  C   UNL     1      -1.951   0.720  -0.103  0.00  0.00    +0.092 C 
BRANCH   7   8
ATOM      8  S   UNL     1      -3.120  -0.526   0.521  0.00  0.00    +0.043 S 
ATOM      9  O   UNL     1      -2.864  -1.790  -0.240  0.00  0.00    -0.256 OA
ATOM     10  C   UNL     1      -4.592   0.251  -0.184  0.00  0.00    +0.106 C 
ENDBRANCH   7   8
ENDBRANCH   1   7
TORSDOF 5
