REMARK  Name = 46241268
REMARK  8 active torsions:
REMARK  status: ('A' for Active; 'I' for Inactive)
REMARK    1  A    between atoms: N_2  and  C_21
REMARK    2  A    between atoms: C_11  and  O_16
REMARK    3  A    between atoms: O_16  and  C_17
REMARK    4  A    between atoms: C_17  and  C_18
REMARK    5  A    between atoms: C_18  and  C_19
REMARK    6  A    between atoms: C_21  and  C_24
REMARK    7  A    between atoms: C_22  and  C_28
REMARK    8  A    between atoms: C_28  and  N_29
REMARK                            x       y       z     vdW  Elec       q    Type
REMARK                         _______ _______ _______ _____ _____    ______ ____
ROOT
ATOM      1  O   UNL     1      -5.945   1.177  -0.069  0.00  0.00    -0.273 OA
ATOM      2  N   UNL     1      -2.541   0.703   0.980  0.00  0.00    -0.272 N 
ATOM      3  N   UNL     1      -4.445  -0.437  -0.691  0.00  0.00    -0.291 N 
ATOM      4  N   UNL     1      -0.983  -1.008   0.344  0.00  0.00    -0.298 NA
ATOM      5  N   UNL     1      -1.615  -2.701  -1.251  0.00  0.00    -0.299 NA
ATOM      6  C   UNL     1      -3.943   1.010   1.227  0.00  0.00    +0.179 C 
ATOM      7  C   UNL     1      -2.220  -0.454   0.271  0.00  0.00    +0.202 C 
ATOM      8  C   UNL     1      -3.177  -1.012  -0.568  0.00  0.00    +0.208 C 
ATOM      9  C   UNL     1      -4.857   0.622   0.086  0.00  0.00    +0.243 C 
ATOM     10  C   UNL     1      -2.829  -2.126  -1.312  0.00  0.00    +0.195 C 
ATOM     11  C   UNL     1      -0.753  -2.100  -0.415  0.00  0.00    +0.312 C 
ATOM     12  H   UNL     1      -5.067  -0.803  -1.360  0.00  0.00    +0.150 HD
ATOM     13  N   UNL     1      -3.791  -2.694  -2.183  0.00  0.00    -0.334 N 
ATOM     14  H   UNL     1      -3.562  -3.486  -2.720  0.00  0.00    +0.144 HD
ATOM     15  H   UNL     1      -4.689  -2.296  -2.251  0.00  0.00    +0.144 HD
ENDROOT
BRANCH  11  16
ATOM     16  O   UNL     1       0.499  -2.662  -0.316  0.00  0.00    -0.400 OA
BRANCH  16  17
ATOM     17  C   UNL     1       1.161  -2.521   0.933  0.00  0.00    +0.223 C 
BRANCH  17  18
ATOM     18  C   UNL     1       2.528  -3.183   0.842  0.00  0.00    +0.049 C 
BRANCH  18  19
ATOM     19  C   UNL     1       3.291  -3.082   2.160  0.00  0.00    +0.004 C 
ATOM     20  C   UNL     1       4.638  -3.782   2.078  0.00  0.00    +0.000 C 
ENDBRANCH  18  19
ENDBRANCH  17  18
ENDBRANCH  16  17
ENDBRANCH  11  16
BRANCH   2  21
ATOM     21  C   UNL     1      -1.540   1.272   1.867  0.00  0.00    +0.120 C 
BRANCH  21  24
ATOM     22  C   UNL     1       1.713   2.559   0.400  0.00  0.00    -0.043 C 
ATOM     23  C   UNL     1       0.802   1.788   1.122  0.00  0.00    -0.009 C 
ATOM     24  C   UNL     1      -0.557   2.103   1.089  0.00  0.00    -0.003 C 
ATOM     25  C   UNL     1       1.266   3.644  -0.353  0.00  0.00    -0.006 C 
ATOM     26  C   UNL     1      -1.004   3.188   0.336  0.00  0.00    -0.003 C 
ATOM     27  C   UNL     1      -0.092   3.959  -0.386  0.00  0.00    -0.001 C 
BRANCH  22  28
ATOM     28  C   UNL     1       3.166   2.223   0.435  0.00  0.00    -0.050 C 
BRANCH  28  29
ATOM     29  N   UNL     1       3.578   1.562  -0.794  0.00  0.00    +0.390 N 
ATOM     30  C   UNL     1       5.023   1.634  -1.010  0.00  0.00    -0.077 C 
ATOM     31  C   UNL     1       3.265   0.134  -0.792  0.00  0.00    -0.077 C 
ATOM     32  C   UNL     1       4.103  -0.400  -1.944  0.00  0.00    -0.025 C 
ATOM     33  C   UNL     1       5.260   0.584  -2.086  0.00  0.00    -0.025 C 
ATOM     34  H   UNL     1       3.065   2.057  -1.524  0.00  0.00    -0.079 HD
ENDBRANCH  28  29
ENDBRANCH  22  28
ENDBRANCH  21  24
ENDBRANCH   2  21
TORSDOF 8
