REMARK  Name = 45275554
REMARK  11 active torsions:
REMARK  status: ('A' for Active; 'I' for Inactive)
REMARK    1  A    between atoms: N_1  and  C_25
REMARK    2  A    between atoms: C_2  and  C_8
REMARK    3  A    between atoms: C_8  and  N_10
REMARK    4  A    between atoms: C_11  and  C_14
REMARK    5  A    between atoms: C_15  and  O_23
REMARK    6  A    between atoms: C_19  and  N_20
REMARK    7  A    between atoms: C_25  and  C_26
REMARK    8  A    between atoms: C_26  and  C_27
REMARK    9  A    between atoms: C_27  and  C_29
REMARK   10  A    between atoms: C_27  and  O_35
REMARK   11  A    between atoms: O_35  and  C_38
REMARK                            x       y       z     vdW  Elec       q    Type
REMARK                         _______ _______ _______ _____ _____    ______ ____
ROOT
ATOM      1  N   UNL     1       1.736  -2.249   0.354  0.00  0.00    +0.387 N 
ATOM      2  C   UNL     1      -0.893  -3.529   0.571  0.00  0.00    +0.015 C 
ATOM      3  C   UNL     1      -0.365  -2.550   1.625  0.00  0.00    -0.021 C 
ATOM      4  C   UNL     1      -0.224  -3.246  -0.779  0.00  0.00    -0.021 C 
ATOM      5  C   UNL     1       1.300  -3.227  -0.652  0.00  0.00    -0.077 C 
ATOM      6  C   UNL     1       1.165  -2.554   1.672  0.00  0.00    -0.077 C 
ATOM      7  H   UNL     1       1.396  -1.331   0.068  0.00  0.00    -0.080 HD
ENDROOT
BRANCH   2   8
ATOM      8  C   UNL     1      -2.412  -3.447   0.459  0.00  0.00    +0.089 C 
BRANCH   8  10
ATOM      9  O   UNL     1      -4.128  -1.704   1.963  0.00  0.00    -0.270 OA
ATOM     10  N   UNL     1      -2.831  -2.129   0.086  0.00  0.00    -0.301 N 
ATOM     11  C   UNL     1      -3.668  -1.349   0.880  0.00  0.00    +0.249 C 
ATOM     12  H   UNL     1      -2.512  -1.758  -0.768  0.00  0.00    +0.150 HD
BRANCH  11  14
ATOM     13 CL   UNL     1      -7.157   2.454   0.629  0.00  0.00    -0.081 Cl
ATOM     14  C   UNL     1      -4.031  -0.014   0.341  0.00  0.00    +0.088 C 
ATOM     15  C   UNL     1      -3.156   0.683  -0.493  0.00  0.00    +0.144 C 
ATOM     16  C   UNL     1      -5.264   0.544   0.679  0.00  0.00    +0.020 C 
ATOM     17  C   UNL     1      -3.514   1.937  -0.988  0.00  0.00    +0.052 C 
ATOM     18  C   UNL     1      -5.622   1.798   0.184  0.00  0.00    +0.071 C 
ATOM     19  C   UNL     1      -4.747   2.494  -0.650  0.00  0.00    +0.055 C 
BRANCH  19  20
ATOM     20  N   UNL     1      -5.082   3.766  -1.167  0.00  0.00    -0.356 N 
ATOM     21  H   UNL     1      -4.449   4.241  -1.754  0.00  0.00    +0.142 HD
ATOM     22  H   UNL     1      -5.947   4.177  -0.941  0.00  0.00    +0.142 HD
ENDBRANCH  19  20
BRANCH  15  23
ATOM     23  O   UNL     1      -1.946   0.156  -0.835  0.00  0.00    -0.471 OA
ATOM     24  C   UNL     1      -1.118   0.939  -1.692  0.00  0.00    +0.252 C 
ENDBRANCH  15  23
ENDBRANCH  11  14
ENDBRANCH   8  10
ENDBRANCH   2   8
BRANCH   1  25
ATOM     25  C   UNL     1       3.197  -2.206   0.427  0.00  0.00    -0.073 C 
BRANCH  25  26
ATOM     26  C   UNL     1       3.763  -1.464  -0.784  0.00  0.00    +0.026 C 
BRANCH  26  27
ATOM     27  C   UNL     1       3.279  -0.008  -0.877  0.00  0.00    +0.191 C 
BRANCH  27  29
ATOM     28  F   UNL     1       4.780   3.195   3.516  0.00  0.00    -0.204 F 
ATOM     29  C   UNL     1       3.681   0.850   0.300  0.00  0.00    +0.017 C 
ATOM     30  C   UNL     1       2.845   0.943   1.413  0.00  0.00    +0.001 C 
ATOM     31  C   UNL     1       4.888   1.549   0.273  0.00  0.00    +0.001 C 
ATOM     32  C   UNL     1       3.216   1.735   2.499  0.00  0.00    +0.029 C 
ATOM     33  C   UNL     1       5.259   2.341   1.360  0.00  0.00    +0.029 C 
ATOM     34  C   UNL     1       4.423   2.434   2.473  0.00  0.00    +0.140 C 
ENDBRANCH  27  29
BRANCH  27  35
ATOM     35  O   UNL     1       3.821   0.584  -2.060  0.00  0.00    -0.434 OA
BRANCH  35  38
ATOM     36  O   UNL     1       2.018  -0.180  -3.270  0.00  0.00    -0.227 OA
ATOM     37  N   UNL     1       3.702   1.031  -4.262  0.00  0.00    -0.295 N 
ATOM     38  C   UNL     1       3.083   0.422  -3.198  0.00  0.00    +0.399 C 
ATOM     39  H   UNL     1       4.558   1.499  -4.132  0.00  0.00    +0.148 HD
ATOM     40  H   UNL     1       3.288   1.000  -5.155  0.00  0.00    +0.148 HD
ENDBRANCH  35  38
ENDBRANCH  27  35
ENDBRANCH  26  27
ENDBRANCH  25  26
ENDBRANCH   1  25
TORSDOF 11
