REMARK  Name = 11394238
REMARK  5 active torsions:
REMARK  status: ('A' for Active; 'I' for Inactive)
REMARK    1  A    between atoms: C_4  and  C_19
REMARK    2  A    between atoms: C_9  and  O_10
REMARK    3  A    between atoms: O_10  and  C_11
REMARK    4  A    between atoms: C_11  and  C_12
REMARK    5  A    between atoms: C_19  and  N_20
REMARK                            x       y       z     vdW  Elec       q    Type
REMARK                         _______ _______ _______ _____ _____    ______ ____
ROOT
ATOM      1  F   UNL     1       1.578   2.538   1.354  0.00  0.00    -0.235 F 
ATOM      2  O   UNL     1      -2.243   3.271   0.679  0.00  0.00    -0.226 OA
ATOM      3  N   UNL     1      -0.606   2.099  -0.483  0.00  0.00    -0.243 N 
ATOM      4  C   UNL     1       2.229   1.534  -0.682  0.00  0.00    +0.056 C 
ATOM      5  C   UNL     1       1.706   2.793   0.020  0.00  0.00    +0.182 C 
ATOM      6  C   UNL     1       1.184   0.410  -0.610  0.00  0.00    +0.026 C 
ATOM      7  C   UNL     1       0.340   3.216  -0.509  0.00  0.00    +0.132 C 
ATOM      8  C   UNL     1      -0.161   0.877  -1.160  0.00  0.00    +0.097 C 
ATOM      9  C   UNL     1      -1.864   2.250   0.109  0.00  0.00    +0.405 C 
ENDROOT
BRANCH   9  10
ATOM     10  O   UNL     1      -2.643   1.129  -0.011  0.00  0.00    -0.430 OA
BRANCH  10  11
ATOM     11  C   UNL     1      -3.949   1.203   0.571  0.00  0.00    +0.237 C 
BRANCH  11  12
ATOM     12  C   UNL     1      -4.659  -0.100   0.348  0.00  0.00    +0.021 C 
ATOM     13  C   UNL     1      -4.543  -1.116   1.290  0.00  0.00    -0.001 C 
ATOM     14  C   UNL     1      -5.425  -0.279  -0.798  0.00  0.00    -0.001 C 
ATOM     15  C   UNL     1      -5.973  -2.515  -0.065  0.00  0.00    -0.022 C 
ATOM     16  C   UNL     1      -5.203  -2.328   1.082  0.00  0.00    -0.004 C 
ATOM     17  C   UNL     1      -6.085  -1.491  -1.005  0.00  0.00    -0.004 C 
ATOM     18  C   UNL     1      -6.679  -3.810  -0.286  0.00  0.00    +0.031 C 
ENDBRANCH  11  12
ENDBRANCH  10  11
ENDBRANCH   9  10
BRANCH   4  19
ATOM     19  C   UNL     1       3.554   1.077  -0.075  0.00  0.00    +0.100 C 
BRANCH  19  20
ATOM     20  N   UNL     1       4.059  -0.055  -0.805  0.00  0.00    -0.278 N 
ATOM     21  N   UNL     1       5.386  -1.967  -1.107  0.00  0.00    -0.181 NA
ATOM     22  N   UNL     1       5.468  -0.716   0.951  0.00  0.00    -0.203 NA
ATOM     23  C   UNL     1       5.002  -0.942  -0.304  0.00  0.00    +0.087 C 
ATOM     24  C   UNL     1       6.303  -2.809  -0.588  0.00  0.00    +0.108 C 
ATOM     25  C   UNL     1       6.383  -1.596   1.407  0.00  0.00    +0.165 C 
ATOM     26  C   UNL     1       6.842  -2.672   0.675  0.00  0.00    +0.022 C 
ATOM     27  H   UNL     1       3.715  -0.211  -1.715  0.00  0.00    +0.158 HD
ENDBRANCH  19  20
ENDBRANCH   4  19
TORSDOF 5
