REMARK  Name = 161658
REMARK  10 active torsions:
REMARK  status: ('A' for Active; 'I' for Inactive)
REMARK    1  A    between atoms: C_1  and  O_2
REMARK    2  A    between atoms: C_1  and  C_4
REMARK    3  A    between atoms: C_1  and  C_12
REMARK    4  A    between atoms: C_4  and  O_5
REMARK    5  A    between atoms: C_4  and  C_7
REMARK    6  A    between atoms: C_7  and  O_8
REMARK    7  A    between atoms: C_7  and  C_11
REMARK    8  A    between atoms: C_12  and  O_13
REMARK    9  A    between atoms: C_12  and  C_15
REMARK   10  A    between atoms: C_15  and  O_16
REMARK                            x       y       z     vdW  Elec       q    Type
REMARK                         _______ _______ _______ _____ _____    ______ ____
ROOT
ATOM      1  C   UNL     1       0.619   0.499   0.105  0.00  0.00    +0.169 C 
ENDROOT
BRANCH   1   2
ATOM      2  O   UNL     1       0.692   1.593  -0.815  0.00  0.00    -0.379 OA
ATOM      3  H   UNL     1      -0.121   2.120  -0.756  0.00  0.00    +0.211 HD
ENDBRANCH   1   2
BRANCH   1   4
ATOM      4  C   UNL     1      -0.673  -0.302  -0.133  0.00  0.00    +0.174 C 
BRANCH   4   5
ATOM      5  O   UNL     1      -0.540  -0.956  -1.401  0.00  0.00    -0.379 OA
ATOM      6  H   UNL     1       0.296  -1.448  -1.425  0.00  0.00    +0.211 HD
ENDBRANCH   4   5
BRANCH   4   7
ATOM      7  C   UNL     1      -1.994   0.478  -0.090  0.00  0.00    +0.205 C 
BRANCH   7   8
ATOM      8  O   UNL     1      -2.155   0.992   1.228  0.00  0.00    -0.375 OA
ATOM      9  H   UNL     1      -1.386   1.536   1.459  0.00  0.00    +0.211 HD
ENDBRANCH   7   8
BRANCH   7  11
ATOM     10  O   UNL     1      -4.117  -0.598   0.388  0.00  0.00    -0.286 OA
ATOM     11  C   UNL     1      -3.213  -0.362  -0.409  0.00  0.00    +0.239 C 
ENDBRANCH   7  11
ENDBRANCH   4   7
ENDBRANCH   1   4
BRANCH   1  12
ATOM     12  C   UNL     1       1.925  -0.297  -0.030  0.00  0.00    +0.169 C 
BRANCH  12  13
ATOM     13  O   UNL     1       1.946  -1.288   1.008  0.00  0.00    -0.379 OA
ATOM     14  H   UNL     1       1.156  -1.846   0.939  0.00  0.00    +0.211 HD
ENDBRANCH  12  13
BRANCH  12  15
ATOM     15  C   UNL     1       3.186   0.545   0.131  0.00  0.00    +0.169 C 
BRANCH  15  16
ATOM     16  O   UNL     1       4.324  -0.305   0.019  0.00  0.00    -0.379 OA
ATOM     17  H   UNL     1       5.132   0.222   0.120  0.00  0.00    +0.211 HD
ENDBRANCH  15  16
ENDBRANCH  12  15
ENDBRANCH   1  12
TORSDOF 10
