REMARK  Name = 11717074
REMARK  7 active torsions:
REMARK  status: ('A' for Active; 'I' for Inactive)
REMARK    1  A    between atoms: C_1  and  C_19
REMARK    2  A    between atoms: C_2  and  C_11
REMARK    3  A    between atoms: C_10  and  O_17
REMARK    4  A    between atoms: C_19  and  N_20
REMARK    5  A    between atoms: N_20  and  C_23
REMARK    6  A    between atoms: C_23  and  C_25
REMARK    7  A    between atoms: C_25  and  O_26
REMARK                            x       y       z     vdW  Elec       q    Type
REMARK                         _______ _______ _______ _____ _____    ______ ____
ROOT
ATOM      1  C   UNL     1      -0.715   1.089  -0.401  0.00  0.00    -0.012 C 
ATOM      2  C   UNL     1       0.228  -0.073  -0.828  0.00  0.00    +0.042 C 
ATOM      3  C   UNL     1      -0.435   1.541   1.036  0.00  0.00    +0.003 C 
ATOM      4  C   UNL     1       1.682   0.217  -0.471  0.00  0.00    -0.022 C 
ATOM      5  C   UNL     1       1.000   2.041   1.178  0.00  0.00    +0.026 C 
ATOM      6  C   UNL     1       2.031   1.176   0.498  0.00  0.00    -0.023 C 
ATOM      7  C   UNL     1       2.701  -0.515  -1.108  0.00  0.00    -0.001 C 
ATOM      8  C   UNL     1       3.386   1.388   0.801  0.00  0.00    +0.032 C 
ATOM      9  C   UNL     1       4.042  -0.300  -0.790  0.00  0.00    +0.037 C 
ATOM     10  C   UNL     1       4.384   0.651   0.165  0.00  0.00    +0.138 C 
ENDROOT
BRANCH   2  11
ATOM     11  C   UNL     1      -0.218  -1.457  -0.361  0.00  0.00    -0.019 C 
ATOM     12  C   UNL     1       0.215  -1.940   0.868  0.00  0.00    -0.004 C 
ATOM     13  C   UNL     1      -1.052  -2.220  -1.169  0.00  0.00    -0.004 C 
ATOM     14  C   UNL     1      -0.192  -3.204   1.295  0.00  0.00    -0.000 C 
ATOM     15  C   UNL     1      -1.460  -3.484  -0.742  0.00  0.00    -0.000 C 
ATOM     16  C   UNL     1      -1.029  -3.976   0.490  0.00  0.00    -0.000 C 
ENDBRANCH   2  11
BRANCH  10  17
ATOM     17  O   UNL     1       5.691   0.868   0.474  0.00  0.00    -0.471 OA
ATOM     18  C   UNL     1       6.661   0.084  -0.221  0.00  0.00    +0.252 C 
ENDBRANCH  10  17
BRANCH   1  19
ATOM     19  C   UNL     1      -2.201   0.786  -0.598  0.00  0.00    -0.076 C 
BRANCH  19  20
ATOM     20  N   UNL     1      -3.006   1.972  -0.355  0.00  0.00    +0.393 N 
ATOM     21  C   UNL     1      -2.634   3.050  -1.275  0.00  0.00    -0.100 C 
ATOM     22  H   UNL     1      -2.826   2.282   0.600  0.00  0.00    -0.079 HD
BRANCH  20  23
ATOM     23  C   UNL     1      -4.434   1.668  -0.486  0.00  0.00    +0.035 C 
BRANCH  23  25
ATOM     24  O   UNL     1      -4.633   0.637   1.684  0.00  0.00    -0.253 OA
ATOM     25  C   UNL     1      -4.779   0.560   0.470  0.00  0.00    +0.293 C 
BRANCH  25  26
ATOM     26  O   UNL     1      -5.234  -0.556  -0.154  0.00  0.00    -0.482 OA
ATOM     27  H   UNL     1      -5.328  -0.565  -1.087  0.00  0.00    +0.295 HD
ENDBRANCH  25  26
ENDBRANCH  23  25
ENDBRANCH  20  23
ENDBRANCH  19  20
ENDBRANCH   1  19
TORSDOF 7
