REMARK  Name = 9869229
REMARK  8 active torsions:
REMARK  status: ('A' for Active; 'I' for Inactive)
REMARK    1  A    between atoms: N_1  and  C_23
REMARK    2  A    between atoms: C_7  and  C_13
REMARK    3  A    between atoms: N_12  and  S_15
REMARK    4  A    between atoms: S_15  and  C_18
REMARK    5  A    between atoms: C_18  and  C_19
REMARK    6  A    between atoms: C_19  and  C_20
REMARK    7  A    between atoms: C_20  and  C_21
REMARK    8  A    between atoms: C_23  and  C_26
REMARK                            x       y       z     vdW  Elec       q    Type
REMARK                         _______ _______ _______ _____ _____    ______ ____
ROOT
ATOM      1  N   UNL     1      -2.660  -1.044  -1.090  0.00  0.00    -0.260 N 
ATOM      2  N   UNL     1      -2.881  -3.201  -0.603  0.00  0.00    -0.394 NA
ATOM      3  C   UNL     1      -1.476  -1.409  -0.502  0.00  0.00    +0.080 C 
ATOM      4  C   UNL     1      -1.639  -2.760  -0.207  0.00  0.00    +0.128 C 
ATOM      5  C   UNL     1      -3.466  -2.148  -1.128  0.00  0.00    +0.164 C 
ATOM      6  C   UNL     1      -0.313  -0.696  -0.212  0.00  0.00    +0.021 C 
ATOM      7  C   UNL     1       0.697  -1.419   0.400  0.00  0.00    +0.052 C 
ATOM      8  C   UNL     1      -0.589  -3.457   0.414  0.00  0.00    +0.086 C 
ATOM      9  C   UNL     1       0.589  -2.761   0.715  0.00  0.00    -0.014 C 
ATOM     10  C   UNL     1      -4.827  -2.109  -1.701  0.00  0.00    +0.084 C 
ENDROOT
BRANCH   7  13
ATOM     11  O   UNL     1       1.969   0.491   0.943  0.00  0.00    -0.269 OA
ATOM     12  N   UNL     1       3.131  -1.538   0.786  0.00  0.00    -0.185 N 
ATOM     13  C   UNL     1       1.961  -0.716   0.735  0.00  0.00    +0.264 C 
ATOM     14  H   UNL     1       3.024  -2.499   0.600  0.00  0.00    +0.176 HD
BRANCH  12  15
ATOM     15  S   UNL     1       4.707  -0.968   1.149  0.00  0.00    +0.056 S 
ATOM     16  O   UNL     1       4.691  -0.242   2.407  0.00  0.00    -0.154 OA
ATOM     17  O   UNL     1       5.648  -2.055   0.935  0.00  0.00    -0.154 OA
BRANCH  15  18
ATOM     18  C   UNL     1       4.917   0.195  -0.163  0.00  0.00    +0.172 C 
BRANCH  18  19
ATOM     19  C   UNL     1       6.276   0.875  -0.085  0.00  0.00    +0.027 C 
BRANCH  19  20
ATOM     20  C   UNL     1       6.496   1.916  -1.184  0.00  0.00    +0.002 C 
BRANCH  20  21
ATOM     21  C   UNL     1       7.890   2.544  -1.153  0.00  0.00    +0.000 C 
ATOM     22  C   UNL     1       8.085   3.519  -2.305  0.00  0.00    +0.000 C 
ENDBRANCH  20  21
ENDBRANCH  19  20
ENDBRANCH  18  19
ENDBRANCH  15  18
ENDBRANCH  12  15
ENDBRANCH   7  13
BRANCH   1  23
ATOM     23  C   UNL     1      -2.992   0.274  -1.581  0.00  0.00    +0.125 C 
BRANCH  23  26
ATOM     24 CL   UNL     1      -5.495   1.904  -2.343  0.00  0.00    -0.082 Cl
ATOM     25 CL   UNL     1      -5.481   3.577   2.773  0.00  0.00    -0.082 Cl
ATOM     26  C   UNL     1      -3.639   1.112  -0.511  0.00  0.00    +0.009 C 
ATOM     27  C   UNL     1      -4.770   1.874  -0.777  0.00  0.00    +0.056 C 
ATOM     28  C   UNL     1      -3.070   1.103   0.757  0.00  0.00    -0.001 C 
ATOM     29  C   UNL     1      -5.341   2.638   0.241  0.00  0.00    +0.023 C 
ATOM     30  C   UNL     1      -3.641   1.867   1.774  0.00  0.00    +0.011 C 
ATOM     31  C   UNL     1      -4.777   2.634   1.516  0.00  0.00    +0.058 C 
ENDBRANCH  23  26
ENDBRANCH   1  23
TORSDOF 8
