REMARK  Name = 51001932
REMARK  5 active torsions:
REMARK  status: ('A' for Active; 'I' for Inactive)
REMARK    1  A    between atoms: C_8  and  C_18
REMARK    2  A    between atoms: C_11  and  C_26
REMARK    3  A    between atoms: N_15  and  C_21
REMARK    4  A    between atoms: N_24  and  C_29
REMARK    5  A    between atoms: C_29  and  C_34
REMARK                            x       y       z     vdW  Elec       q    Type
REMARK                         _______ _______ _______ _____ _____    ______ ____
ROOT
ATOM      1  O   UNL     1      -0.156  -3.579   0.185  0.00  0.00    -0.473 OA
ATOM      2  N   UNL     1      -2.882  -2.276  -0.070  0.00  0.00    -0.273 N 
ATOM      3  N   UNL     1      -2.801  -0.074   0.021  0.00  0.00    -0.385 NA
ATOM      4  C   UNL     1      -2.054  -1.172  -0.013  0.00  0.00    +0.186 C 
ATOM      5  C   UNL     1      -2.522  -3.678  -0.131  0.00  0.00    +0.141 C 
ATOM      6  C   UNL     1      -0.577  -1.152   0.009  0.00  0.00    +0.078 C 
ATOM      7  C   UNL     1       0.258  -2.277   0.116  0.00  0.00    +0.142 C 
ATOM      8  C   UNL     1      -4.106  -0.481  -0.005  0.00  0.00    +0.177 C 
ATOM      9  C   UNL     1      -1.168  -3.916  -0.758  0.00  0.00    +0.227 C 
ATOM     10  C   UNL     1      -4.183  -1.846  -0.059  0.00  0.00    +0.157 C 
ATOM     11  C   UNL     1       2.241  -0.869   0.170  0.00  0.00    +0.006 C 
ATOM     12  C   UNL     1       1.652  -2.128   0.218  0.00  0.00    +0.037 C 
ATOM     13  C   UNL     1       0.050   0.113  -0.041  0.00  0.00    +0.007 C 
ATOM     14  C   UNL     1       1.439   0.253   0.034  0.00  0.00    +0.000 C 
ENDROOT
BRANCH   8  18
ATOM     15  N   UNL     1      -5.135   1.758   0.079  0.00  0.00    -0.175 N 
ATOM     16  N   UNL     1      -6.535  -0.049  -0.003  0.00  0.00    -0.334 NA
ATOM     17  N   UNL     1      -6.423   2.131   0.087  0.00  0.00    -0.114 NA
ATOM     18  C   UNL     1      -5.256   0.430   0.023  0.00  0.00    +0.241 C 
ATOM     19  C   UNL     1      -7.249   1.052   0.038  0.00  0.00    +0.082 C 
ATOM     20  C   UNL     1      -8.707   1.130   0.031  0.00  0.00    +0.131 C 
BRANCH  15  21
ATOM     21  C   UNL     1      -4.032   2.671   0.120  0.00  0.00    +0.100 C 
ATOM     22  C   UNL     1      -3.557   3.045  -1.287  0.00  0.00    +0.024 C 
ATOM     23  C   UNL     1      -4.367   3.924   0.932  0.00  0.00    +0.024 C 
ENDBRANCH  15  21
ENDBRANCH   8  18
BRANCH  11  26
ATOM     24  N   UNL     1       5.690   0.044  -0.009  0.00  0.00    -0.205 N 
ATOM     25  N   UNL     1       5.875  -1.046   0.755  0.00  0.00    -0.176 NA
ATOM     26  C   UNL     1       3.667  -0.734   0.261  0.00  0.00    +0.037 C 
ATOM     27  C   UNL     1       4.385   0.276  -0.333  0.00  0.00    +0.086 C 
ATOM     28  C   UNL     1       4.636  -1.517   0.916  0.00  0.00    +0.119 C 
BRANCH  24  29
ATOM     29  C   UNL     1       6.825   0.842  -0.406  0.00  0.00    +0.147 C 
ATOM     30  C   UNL     1       8.189   0.312   0.091  0.00  0.00    +0.031 C 
ATOM     31  C   UNL     1       6.885   0.860  -1.951  0.00  0.00    +0.031 C 
BRANCH  29  34
ATOM     32  O   UNL     1       6.626   3.269  -0.625  0.00  0.00    -0.274 OA
ATOM     33  N   UNL     1       6.614   2.395   1.490  0.00  0.00    -0.327 N 
ATOM     34  C   UNL     1       6.678   2.289   0.116  0.00  0.00    +0.237 C 
ATOM     35  H   UNL     1       6.520   3.280   1.912  0.00  0.00    +0.145 HD
ATOM     36  H   UNL     1       6.662   1.586   2.049  0.00  0.00    +0.145 HD
ENDBRANCH  29  34
ENDBRANCH  24  29
ENDBRANCH  11  26
TORSDOF 5
