REMARK  Name = 25654
REMARK  10 active torsions:
REMARK  status: ('A' for Active; 'I' for Inactive)
REMARK    1  A    between atoms: N_1  and  C_4
REMARK    2  A    between atoms: N_1  and  C_20
REMARK    3  A    between atoms: C_4  and  C_5
REMARK    4  A    between atoms: C_5  and  C_6
REMARK    5  A    between atoms: C_6  and  N_9
REMARK    6  A    between atoms: C_20  and  C_21
REMARK    7  A    between atoms: C_21  and  C_22
REMARK    8  A    between atoms: C_21  and  O_32
REMARK    9  A    between atoms: C_25  and  O_28
REMARK   10  A    between atoms: C_26  and  O_30
REMARK                            x       y       z     vdW  Elec       q    Type
REMARK                         _______ _______ _______ _____ _____    ______ ____
ROOT
ATOM      1  N   UNL     1      -1.511   0.541   0.598  0.00  0.00    +0.386 N 
ATOM      2  H   UNL     1      -1.185   0.537  -0.368  0.00  0.00    -0.084 HD
ATOM      3  H   UNL     1      -1.522   1.492   0.966  0.00  0.00    -0.084 HD
ENDROOT
BRANCH   1   4
ATOM      4  C   UNL     1      -0.606  -0.263   1.411  0.00  0.00    -0.080 C 
BRANCH   4   5
ATOM      5  C   UNL     1       0.811   0.301   1.343  0.00  0.00    -0.006 C 
BRANCH   5   6
ATOM      6  C   UNL     1       1.325   0.323  -0.096  0.00  0.00    +0.072 C 
BRANCH   6   9
ATOM      7  O   UNL     1       3.168  -2.083   0.195  0.00  0.00    -0.272 OA
ATOM      8  O   UNL     1       7.724  -0.982  -0.020  0.00  0.00    -0.252 OA
ATOM      9  N   UNL     1       2.668   0.842  -0.186  0.00  0.00    -0.240 NA
ATOM     10  N   UNL     1       6.169   0.737  -0.224  0.00  0.00    -0.228 N 
ATOM     11  N   UNL     1       5.456  -1.556   0.090  0.00  0.00    -0.211 N 
ATOM     12  N   UNL     1       4.308   2.336  -0.408  0.00  0.00    -0.240 NA
ATOM     13  C   UNL     1       3.837   0.141  -0.111  0.00  0.00    +0.192 C 
ATOM     14  C   UNL     1       4.824   1.078  -0.250  0.00  0.00    +0.136 C 
ATOM     15  C   UNL     1       3.003   2.159  -0.365  0.00  0.00    +0.203 C 
ATOM     16  C   UNL     1       4.068  -1.256   0.071  0.00  0.00    +0.254 C 
ATOM     17  C   UNL     1       6.543  -0.619  -0.051  0.00  0.00    +0.318 C 
ATOM     18  C   UNL     1       7.191   1.766  -0.375  0.00  0.00    +0.123 C 
ATOM     19  C   UNL     1       5.820  -2.958   0.271  0.00  0.00    +0.124 C 
ENDBRANCH   6   9
ENDBRANCH   5   6
ENDBRANCH   4   5
ENDBRANCH   1   4
BRANCH   1  20
ATOM     20  C   UNL     1      -2.865   0.007   0.646  0.00  0.00    -0.047 C 
BRANCH  20  21
ATOM     21  C   UNL     1      -3.821   0.871  -0.185  0.00  0.00    +0.112 C 
BRANCH  21  22
ATOM     22  C   UNL     1      -5.234   0.329  -0.146  0.00  0.00    +0.008 C 
ATOM     23  C   UNL     1      -6.256   1.142   0.312  0.00  0.00    +0.035 C 
ATOM     24  C   UNL     1      -5.473  -0.967  -0.569  0.00  0.00    +0.035 C 
ATOM     25  C   UNL     1      -6.774  -1.466  -0.532  0.00  0.00    +0.136 C 
ATOM     26  C   UNL     1      -7.558   0.642   0.349  0.00  0.00    +0.136 C 
ATOM     27  C   UNL     1      -7.817  -0.662  -0.073  0.00  0.00    +0.073 C 
BRANCH  25  28
ATOM     28  O   UNL     1      -7.027  -2.739  -0.945  0.00  0.00    -0.505 OA
ATOM     29  H   UNL     1      -6.327  -3.279  -1.253  0.00  0.00    +0.292 HD
ENDBRANCH  25  28
BRANCH  26  30
ATOM     30  O   UNL     1      -8.576   1.427   0.797  0.00  0.00    -0.505 OA
ATOM     31  H   UNL     1      -8.402   2.303   1.080  0.00  0.00    +0.292 HD
ENDBRANCH  26  30
ENDBRANCH  21  22
BRANCH  21  32
ATOM     32  O   UNL     1      -3.396   0.909  -1.547  0.00  0.00    -0.382 OA
ATOM     33  H   UNL     1      -2.491   1.254  -1.593  0.00  0.00    +0.211 HD
ENDBRANCH  21  32
ENDBRANCH  20  21
ENDBRANCH   1  20
TORSDOF 10
