REMARK  Name = 666418
REMARK  4 active torsions:
REMARK  status: ('A' for Active; 'I' for Inactive)
REMARK    1  A    between atoms: C_2  and  C_12
REMARK    2  A    between atoms: C_4  and  C_8
REMARK    3  A    between atoms: C_8  and  N_9
REMARK    4  A    between atoms: C_12  and  C_13
REMARK                            x       y       z     vdW  Elec       q    Type
REMARK                         _______ _______ _______ _____ _____    ______ ____
ROOT
ATOM      1  N   UNL     1       0.969  -1.667  -0.274  0.00  0.00    -0.248 NA
ATOM      2  C   UNL     1       1.013  -0.320  -0.373  0.00  0.00    +0.059 C 
ATOM      3  C   UNL     1      -0.095   0.504  -0.254  0.00  0.00    +0.016 C 
ATOM      4  C   UNL     1      -1.328  -0.094  -0.017  0.00  0.00    +0.022 C 
ATOM      5  C   UNL     1      -1.414  -1.477   0.091  0.00  0.00    +0.022 C 
ATOM      6  C   UNL     1      -0.247  -2.212  -0.044  0.00  0.00    +0.099 C 
ENDROOT
BRANCH   4   8
ATOM      7  S   UNL     1      -2.773   2.210  -0.656  0.00  0.00    -0.035 S 
ATOM      8  C   UNL     1      -2.522   0.724   0.116  0.00  0.00    +0.078 C 
BRANCH   8   9
ATOM      9  N   UNL     1      -3.522   0.223   0.940  0.00  0.00    -0.352 N 
ATOM     10  H   UNL     1      -4.354   0.732   1.069  0.00  0.00    +0.143 HD
ATOM     11  H   UNL     1      -3.397  -0.641   1.395  0.00  0.00    +0.143 HD
ENDBRANCH   8   9
ENDBRANCH   4   8
BRANCH   2  12
ATOM     12  C   UNL     1       2.354   0.286  -0.624  0.00  0.00    +0.046 C 
BRANCH  12  13
ATOM     13  C   UNL     1       3.094   0.618   0.679  0.00  0.00    +0.006 C 
ATOM     14  C   UNL     1       4.472   1.204   0.417  0.00  0.00    +0.000 C 
ENDBRANCH  12  13
ENDBRANCH   2  12
TORSDOF 4
