24871506
  -OEChem-10051722383D

 49 51  0     0  0  0  0  0  0999 V2000
    5.4231   -0.2862    0.2763 O   0  0  0  0  0  0  0  0  0  0  0  0
   -4.9381    1.9332    0.3273 O   0  0  0  0  0  0  0  0  0  0  0  0
   -5.3867   -2.7212   -0.4795 O   0  0  0  0  0  0  0  0  0  0  0  0
   -2.5330    2.8292    0.5704 O   0  0  0  0  0  0  0  0  0  0  0  0
    8.0240    0.4597   -0.4454 O   0  0  0  0  0  0  0  0  0  0  0  0
   -0.9763   -0.8157   -0.0026 N   0  0  0  0  0  0  0  0  0  0  0  0
   -0.6713    1.5052    0.4020 N   0  0  0  0  0  0  0  0  0  0  0  0
    1.2923    0.1467    0.2266 C   0  0  0  0  0  0  0  0  0  0  0  0
   -0.1967    0.3039    0.2094 C   0  0  0  0  0  0  0  0  0  0  0  0
   -2.3686   -0.6960   -0.0240 C   0  0  0  0  0  0  0  0  0  0  0  0
    3.2499   -1.1992    0.6664 C   0  0  0  0  0  0  0  0  0  0  0  0
    3.4963    1.0561   -0.1640 C   0  0  0  0  0  0  0  0  0  0  0  0
    4.0666   -0.1443    0.2595 C   0  0  0  0  0  0  0  0  0  0  0  0
   -2.9443    0.5650    0.1671 C   0  0  0  0  0  0  0  0  0  0  0  0
    1.8627   -1.0536    0.6499 C   0  0  0  0  0  0  0  0  0  0  0  0
    2.1092    1.2016   -0.1805 C   0  0  0  0  0  0  0  0  0  0  0  0
   -4.3323    0.7272    0.1453 C   0  0  0  0  0  0  0  0  0  0  0  0
   -3.1972   -1.7998   -0.2436 C   0  0  0  0  0  0  0  0  0  0  0  0
   -2.0370    1.7204    0.3957 C   0  0  0  0  0  0  0  0  0  0  0  0
    3.8417   -2.4922    1.1222 C   0  0  0  0  0  0  0  0  0  0  0  0
    4.3542    2.1974   -0.6014 C   0  0  0  0  0  0  0  0  0  0  0  0
   -4.5841   -1.6422   -0.2661 C   0  0  0  0  0  0  0  0  0  0  0  0
   -5.1496   -0.3819   -0.0718 C   0  0  0  0  0  0  0  0  0  0  0  0
    6.0352   -0.7898   -0.9085 C   0  0  0  0  0  0  0  0  0  0  0  0
    7.5364   -0.8516   -0.7020 C   0  0  0  0  0  0  0  0  0  0  0  0
   -5.1823    2.7187   -0.8381 C   0  0  0  0  0  0  0  0  0  0  0  0
   -6.7944   -2.4906   -0.4903 C   0  0  0  0  0  0  0  0  0  0  0  0
    1.2400   -1.8787    0.9855 H   0  0  0  0  0  0  0  0  0  0  0  0
    1.6733    2.1373   -0.5222 H   0  0  0  0  0  0  0  0  0  0  0  0
   -0.5809   -1.7317   -0.1779 H   0  0  0  0  0  0  0  0  0  0  0  0
   -2.7648   -2.7857   -0.3974 H   0  0  0  0  0  0  0  0  0  0  0  0
    4.1136   -3.1093    0.2604 H   0  0  0  0  0  0  0  0  0  0  0  0
    4.7306   -2.3264    1.7399 H   0  0  0  0  0  0  0  0  0  0  0  0
    3.1351   -3.0602    1.7375 H   0  0  0  0  0  0  0  0  0  0  0  0
    5.2337    2.3026    0.0426 H   0  0  0  0  0  0  0  0  0  0  0  0
    4.6817    2.0515   -1.6353 H   0  0  0  0  0  0  0  0  0  0  0  0
    3.8119    3.1480   -0.5477 H   0  0  0  0  0  0  0  0  0  0  0  0
   -6.2200   -0.2025   -0.0779 H   0  0  0  0  0  0  0  0  0  0  0  0
    5.6518   -1.7901   -1.1364 H   0  0  0  0  0  0  0  0  0  0  0  0
    5.8065   -0.1221   -1.7469 H   0  0  0  0  0  0  0  0  0  0  0  0
    8.0352   -1.2472   -1.5915 H   0  0  0  0  0  0  0  0  0  0  0  0
    7.7811   -1.4753    0.1634 H   0  0  0  0  0  0  0  0  0  0  0  0
   -5.4523    3.7294   -0.5202 H   0  0  0  0  0  0  0  0  0  0  0  0
   -6.0183    2.2946   -1.4029 H   0  0  0  0  0  0  0  0  0  0  0  0
   -4.2959    2.7766   -1.4782 H   0  0  0  0  0  0  0  0  0  0  0  0
   -7.0877   -1.8269   -1.3108 H   0  0  0  0  0  0  0  0  0  0  0  0
   -7.1517   -2.1338    0.4816 H   0  0  0  0  0  0  0  0  0  0  0  0
   -7.2782   -3.4558   -0.6728 H   0  0  0  0  0  0  0  0  0  0  0  0
    8.9851    0.3861   -0.3172 H   0  0  0  0  0  0  0  0  0  0  0  0
  1 13  1  0  0  0  0
  1 24  1  0  0  0  0
  2 17  1  0  0  0  0
  2 26  1  0  0  0  0
  3 22  1  0  0  0  0
  3 27  1  0  0  0  0
  4 19  2  0  0  0  0
  5 25  1  0  0  0  0
  5 49  1  0  0  0  0
  6  9  1  0  0  0  0
  6 10  1  0  0  0  0
  6 30  1  0  0  0  0
  7  9  2  0  0  0  0
  7 19  1  0  0  0  0
  8  9  1  0  0  0  0
  8 15  2  0  0  0  0
  8 16  1  0  0  0  0
 10 14  2  0  0  0  0
 10 18  1  0  0  0  0
 11 13  2  0  0  0  0
 11 15  1  0  0  0  0
 11 20  1  0  0  0  0
 12 13  1  0  0  0  0
 12 16  2  0  0  0  0
 12 21  1  0  0  0  0
 14 17  1  0  0  0  0
 14 19  1  0  0  0  0
 15 28  1  0  0  0  0
 16 29  1  0  0  0  0
 17 23  2  0  0  0  0
 18 22  2  0  0  0  0
 18 31  1  0  0  0  0
 20 32  1  0  0  0  0
 20 33  1  0  0  0  0
 20 34  1  0  0  0  0
 21 35  1  0  0  0  0
 21 36  1  0  0  0  0
 21 37  1  0  0  0  0
 22 23  1  0  0  0  0
 23 38  1  0  0  0  0
 24 25  1  0  0  0  0
 24 39  1  0  0  0  0
 24 40  1  0  0  0  0
 25 41  1  0  0  0  0
 25 42  1  0  0  0  0
 26 43  1  0  0  0  0
 26 44  1  0  0  0  0
 26 45  1  0  0  0  0
 27 46  1  0  0  0  0
 27 47  1  0  0  0  0
 27 48  1  0  0  0  0
M  END
> <DATABASE_ID>
DB12000

> <DATABASE_NAME>
drugbank

> <ORIGINAL_SOURCE>
PUBCHEM

> <ORIGINAL_SOURCE_URL>
https://pubchem.ncbi.nlm.nih.gov/rest/pug/compound/inchikey/NETXMUIMUZJUTB-UHFFFAOYSA-N/SDF?record_type=3d

> <SMILES>
COC1=CC2=C(C(=O)N=C(N2)C2=CC(C)=C(OCCO)C(C)=C2)C(OC)=C1

> <INCHI_IDENTIFIER>
InChI=1S/C20H22N2O5/c1-11-7-13(8-12(2)18(11)27-6-5-23)19-21-15-9-14(25-3)10-16(26-4)17(15)20(24)22-19/h7-10,23H,5-6H2,1-4H3,(H,21,22,24)

> <INCHI_KEY>
NETXMUIMUZJUTB-UHFFFAOYSA-N

> <FORMULA>
C20H22N2O5

> <MOLECULAR_WEIGHT>
370.3991

> <EXACT_MASS>
370.152871824

> <JCHEM_ACCEPTOR_COUNT>
7

> <JCHEM_AVERAGE_POLARIZABILITY>
40.202335350458384

> <JCHEM_BIOAVAILABILITY>
1

> <JCHEM_DONOR_COUNT>
2

> <JCHEM_FORMAL_CHARGE>
0

> <JCHEM_GHOSE_FILTER>
1

> <JCHEM_IUPAC>
2-[4-(2-hydroxyethoxy)-3,5-dimethylphenyl]-5,7-dimethoxy-1,4-dihydroquinazolin-4-one

> <ALOGPS_LOGP>
2.49

> <JCHEM_LOGP>
3.008952710000001

> <ALOGPS_LOGS>
-3.93

> <JCHEM_MDDR_LIKE_RULE>
1

> <JCHEM_NUMBER_OF_RINGS>
3

> <JCHEM_PHYSIOLOGICAL_CHARGE>
1

> <JCHEM_PKA>
15.102135628855873

> <JCHEM_PKA_STRONGEST_ACIDIC>
8.631066049088918

> <JCHEM_PKA_STRONGEST_BASIC>
-1.7116219455175639

> <JCHEM_POLAR_SURFACE_AREA>
89.38000000000001

> <JCHEM_REFRACTIVITY>
103.39129999999997

> <JCHEM_ROTATABLE_BOND_COUNT>
6

> <JCHEM_RULE_OF_FIVE>
1

> <ALOGPS_SOLUBILITY>
4.32e-02 g/l

> <JCHEM_TRADITIONAL_IUPAC>
2-[4-(2-hydroxyethoxy)-3,5-dimethylphenyl]-5,7-dimethoxy-1H-quinazolin-4-one

> <JCHEM_VEBER_RULE>
0

> <DRUGBANK_ID>
DB12000

> <DRUG_GROUPS>
investigational

> <GENERIC_NAME>
Apabetalone

$$$$
