11667832
  -OEChem-10051722483D

 53 57  0     1  0  0  0  0  0999 V2000
    2.1499    2.1296   -0.4778 O   0  0  0  0  0  0  0  0  0  0  0  0
   -2.2320    3.3954    0.3500 O   0  0  0  0  0  0  0  0  0  0  0  0
   -2.8145    0.4368   -1.3637 O   0  0  0  0  0  0  0  0  0  0  0  0
   -4.7895   -2.1605   -1.0663 O   0  0  0  0  0  0  0  0  0  0  0  0
    2.5517   -0.6137   -0.7537 N   0  0  2  0  0  0  0  0  0  0  0  0
   -5.3663   -0.6933    0.5991 N   0  0  0  0  0  0  0  0  0  0  0  0
    0.0407    0.8950   -0.7046 C   0  0  2  0  0  0  0  0  0  0  0  0
    1.2528    1.2441    0.2184 C   0  0  1  0  0  0  0  0  0  0  0  0
    2.0189   -0.0666    0.5178 C   0  0  1  0  0  0  0  0  0  0  0  0
    0.5915    0.2629   -2.0141 C   0  0  0  0  0  0  0  0  0  0  0  0
    0.8022    2.0025    1.4919 C   0  0  0  0  0  0  0  0  0  0  0  0
   -0.6948    2.2107   -1.0639 C   0  0  0  0  0  0  0  0  0  0  0  0
    1.5315   -0.9248   -1.7573 C   0  0  0  0  0  0  0  0  0  0  0  0
   -0.8636   -0.1604   -0.0318 C   0  0  0  0  0  0  0  0  0  0  0  0
    1.1289   -1.0332    1.3257 C   0  0  0  0  0  0  0  0  0  0  0  0
    3.4749   -1.7286   -0.5688 C   0  0  0  0  0  0  0  0  0  0  0  0
    4.5510   -1.3873    0.4479 C   0  0  0  0  0  0  0  0  0  0  0  0
   -0.3230   -1.0726    0.9042 C   0  0  0  0  0  0  0  0  0  0  0  0
    0.0208    3.2721    1.1634 C   0  0  0  0  0  0  0  0  0  0  0  0
    5.4216   -0.2176    0.1756 C   0  0  0  0  0  0  0  0  0  0  0  0
    5.9669   -1.6114    0.0664 C   0  0  0  0  0  0  0  0  0  0  0  0
   -1.0898    2.9708    0.1846 C   0  0  0  0  0  0  0  0  0  0  0  0
   -2.2218   -0.2931   -0.3752 C   0  0  0  0  0  0  0  0  0  0  0  0
   -1.1491   -2.0426    1.4983 C   0  0  0  0  0  0  0  0  0  0  0  0
   -3.0292   -1.2663    0.2179 C   0  0  0  0  0  0  0  0  0  0  0  0
   -2.4950   -2.1373    1.1583 C   0  0  0  0  0  0  0  0  0  0  0  0
   -4.4347   -1.4109   -0.1423 C   0  0  0  0  0  0  0  0  0  0  0  0
    2.8645    0.2233    1.1516 H   0  0  0  0  0  0  0  0  0  0  0  0
    1.1345    1.0182   -2.5977 H   0  0  0  0  0  0  0  0  0  0  0  0
   -0.2321   -0.0727   -2.6579 H   0  0  0  0  0  0  0  0  0  0  0  0
    1.6828    2.2874    2.0812 H   0  0  0  0  0  0  0  0  0  0  0  0
    0.1787    1.3753    2.1371 H   0  0  0  0  0  0  0  0  0  0  0  0
   -1.5435    2.1162   -1.7386 H   0  0  0  0  0  0  0  0  0  0  0  0
   -0.0119    2.8787   -1.6086 H   0  0  0  0  0  0  0  0  0  0  0  0
    0.9523   -1.8112   -1.4720 H   0  0  0  0  0  0  0  0  0  0  0  0
    2.0178   -1.1730   -2.7093 H   0  0  0  0  0  0  0  0  0  0  0  0
    1.1540   -0.7220    2.3790 H   0  0  0  0  0  0  0  0  0  0  0  0
    1.5383   -2.0490    1.3102 H   0  0  0  0  0  0  0  0  0  0  0  0
    2.9620   -2.6427   -0.2479 H   0  0  0  0  0  0  0  0  0  0  0  0
    3.9454   -1.9621   -1.5325 H   0  0  0  0  0  0  0  0  0  0  0  0
    4.2674   -1.6038    1.4699 H   0  0  0  0  0  0  0  0  0  0  0  0
    0.6696    4.0350    0.7200 H   0  0  0  0  0  0  0  0  0  0  0  0
   -0.4106    3.6898    2.0793 H   0  0  0  0  0  0  0  0  0  0  0  0
    5.7392    0.3834    1.0191 H   0  0  0  0  0  0  0  0  0  0  0  0
    5.2959    0.3406   -0.7440 H   0  0  0  0  0  0  0  0  0  0  0  0
    6.2008   -1.9831   -0.9234 H   0  0  0  0  0  0  0  0  0  0  0  0
    6.6524   -1.9441    0.8366 H   0  0  0  0  0  0  0  0  0  0  0  0
    2.6707    1.6083   -1.1111 H   0  0  0  0  0  0  0  0  0  0  0  0
   -0.7391   -2.7347    2.2301 H   0  0  0  0  0  0  0  0  0  0  0  0
   -3.1111   -2.9002    1.6268 H   0  0  0  0  0  0  0  0  0  0  0  0
   -3.7742    0.3034   -1.3985 H   0  0  0  0  0  0  0  0  0  0  0  0
   -5.0929   -0.0817    1.3618 H   0  0  0  0  0  0  0  0  0  0  0  0
   -6.3581   -0.7605    0.3965 H   0  0  0  0  0  0  0  0  0  0  0  0
  1  8  1  0  0  0  0
  1 48  1  0  0  0  0
  2 22  2  0  0  0  0
  3 23  1  0  0  0  0
  3 51  1  0  0  0  0
  4 27  2  0  0  0  0
  5  9  1  0  0  0  0
  5 13  1  0  0  0  0
  5 16  1  0  0  0  0
  6 27  1  0  0  0  0
  6 52  1  0  0  0  0
  6 53  1  0  0  0  0
  7  8  1  0  0  0  0
  7 10  1  0  0  0  0
  7 12  1  0  0  0  0
  7 14  1  0  0  0  0
  8  9  1  0  0  0  0
  8 11  1  0  0  0  0
  9 15  1  0  0  0  0
  9 28  1  0  0  0  0
 10 13  1  0  0  0  0
 10 29  1  0  0  0  0
 10 30  1  0  0  0  0
 11 19  1  0  0  0  0
 11 31  1  0  0  0  0
 11 32  1  0  0  0  0
 12 22  1  0  0  0  0
 12 33  1  0  0  0  0
 12 34  1  0  0  0  0
 13 35  1  0  0  0  0
 13 36  1  0  0  0  0
 14 18  2  0  0  0  0
 14 23  1  0  0  0  0
 15 18  1  0  0  0  0
 15 37  1  0  0  0  0
 15 38  1  0  0  0  0
 16 17  1  0  0  0  0
 16 39  1  0  0  0  0
 16 40  1  0  0  0  0
 17 20  1  0  0  0  0
 17 21  1  0  0  0  0
 17 41  1  0  0  0  0
 18 24  1  0  0  0  0
 19 22  1  0  0  0  0
 19 42  1  0  0  0  0
 19 43  1  0  0  0  0
 20 21  1  0  0  0  0
 20 44  1  0  0  0  0
 20 45  1  0  0  0  0
 21 46  1  0  0  0  0
 21 47  1  0  0  0  0
 23 25  2  0  0  0  0
 24 26  2  0  0  0  0
 24 49  1  0  0  0  0
 25 26  1  0  0  0  0
 25 27  1  0  0  0  0
 26 50  1  0  0  0  0
M  END
> <DATABASE_ID>
DB12543

> <DATABASE_NAME>
drugbank

> <ORIGINAL_SOURCE>
PUBCHEM

> <ORIGINAL_SOURCE_URL>
https://pubchem.ncbi.nlm.nih.gov/rest/pug/compound/inchikey/RYIDHLJADOKWFM-MAODMQOUSA-N/SDF?record_type=3d

> <SMILES>
NC(=O)C1=C(O)C2=C(C[C@H]3N(CC4CC4)CC[C@@]22CC(=O)CC[C@@]32O)C=C1

> <INCHI_IDENTIFIER>
InChI=1S/C21H26N2O4/c22-19(26)15-4-3-13-9-16-21(27)6-5-14(24)10-20(21,17(13)18(15)25)7-8-23(16)11-12-1-2-12/h3-4,12,16,25,27H,1-2,5-11H2,(H2,22,26)/t16-,20-,21-/m1/s1

> <INCHI_KEY>
RYIDHLJADOKWFM-MAODMQOUSA-N

> <FORMULA>
C21H26N2O4

> <MOLECULAR_WEIGHT>
370.449

> <EXACT_MASS>
370.189257325

> <JCHEM_ACCEPTOR_COUNT>
5

> <JCHEM_ATOM_COUNT>
53

> <JCHEM_AVERAGE_POLARIZABILITY>
39.2646715335707

> <JCHEM_BIOAVAILABILITY>
1

> <JCHEM_DONOR_COUNT>
3

> <JCHEM_FORMAL_CHARGE>
0

> <JCHEM_GHOSE_FILTER>
1

> <JCHEM_IUPAC>
(1R,9R,10S)-17-(cyclopropylmethyl)-3,10-dihydroxy-13-oxo-17-azatetracyclo[7.5.3.0^{1,10}.0^{2,7}]heptadeca-2(7),3,5-triene-4-carboxamide

> <ALOGPS_LOGP>
1.09

> <JCHEM_LOGP>
0.45865403335892185

> <ALOGPS_LOGS>
-2.77

> <JCHEM_MDDR_LIKE_RULE>
0

> <JCHEM_NUMBER_OF_RINGS>
5

> <JCHEM_PHYSIOLOGICAL_CHARGE>
1

> <JCHEM_PKA>
13.696379299152532

> <JCHEM_PKA_STRONGEST_ACIDIC>
7.881144745423429

> <JCHEM_PKA_STRONGEST_BASIC>
8.935679249748976

> <JCHEM_POLAR_SURFACE_AREA>
103.86

> <JCHEM_REFRACTIVITY>
101.03979999999997

> <JCHEM_ROTATABLE_BOND_COUNT>
3

> <JCHEM_RULE_OF_FIVE>
1

> <ALOGPS_SOLUBILITY>
6.29e-01 g/l

> <JCHEM_TRADITIONAL_IUPAC>
(1R,9R,10S)-17-(cyclopropylmethyl)-3,10-dihydroxy-13-oxo-17-azatetracyclo[7.5.3.0^{1,10}.0^{2,7}]heptadeca-2(7),3,5-triene-4-carboxamide

> <JCHEM_VEBER_RULE>
0

> <DRUGBANK_ID>
DB12543

> <DRUG_GROUPS>
investigational

> <GENERIC_NAME>
Samidorphan

$$$$
