REMARK  Name = 515328
REMARK  4 active torsions:
REMARK  status: ('A' for Active; 'I' for Inactive)
REMARK    1  A    between atoms: N_3  and  C1*_15
REMARK    2  A    between atoms: C3*_13  and  O3*_17
REMARK    3  A    between atoms: C4*_16  and  C5*_19
REMARK    4  A    between atoms: C5*_19  and  O5*_20
REMARK                            x       y       z     vdW  Elec       q    Type
REMARK                         _______ _______ _______ _____ _____    ______ ____
ROOT
ATOM      1  F   UNL     1      -2.500  -2.418   0.325  0.00  0.00    -0.199 F 
ATOM      2  O   UNL     1      -1.162   2.715  -0.397  0.00  0.00    -0.193 OA
ATOM      3  N   UNL     1      -0.455   0.527  -0.182  0.00  0.00    -0.178 N 
ATOM      4  N   UNL     1      -2.788   1.160  -0.087  0.00  0.00    -0.304 NA
ATOM      5  N   UNL     1      -4.448  -0.444   0.231  0.00  0.00    -0.330 N 
ATOM      6  C   UNL     1      -0.822  -0.796   0.005  0.00  0.00    +0.113 C 
ATOM      7  C   UNL     1      -1.459   1.530  -0.231  0.00  0.00    +0.276 C 
ATOM      8  C   UNL     1      -2.095  -1.150   0.141  0.00  0.00    +0.200 C 
ATOM      9  C   UNL     1      -3.127  -0.091   0.090  0.00  0.00    +0.220 C 
ATOM     10  H   UNL     1      -5.148   0.248   0.199  0.00  0.00    +0.145 HD
ATOM     11  H   UNL     1      -4.694  -1.388   0.363  0.00  0.00    +0.145 HD
ENDROOT
BRANCH   3  15
ATOM     12  O4* UNL     1       1.622  -0.185  -0.991  0.00  0.00    -0.334 OA
ATOM     13  C3* UNL     1       3.029   0.642   0.729  0.00  0.00    +0.144 C 
ATOM     14  C2* UNL     1       1.619   1.110   1.007  0.00  0.00    +0.084 C 
ATOM     15  C1* UNL     1       0.927   0.880  -0.327  0.00  0.00    +0.209 C 
ATOM     16  C4* UNL     1       2.825  -0.495  -0.263  0.00  0.00    +0.173 C 
BRANCH  13  17
ATOM     17  O3* UNL     1       3.771   1.694   0.115  0.00  0.00    -0.382 OA
ATOM     18  H3* UNL     1       3.897   2.415   0.752  0.00  0.00    +0.210 HD
ENDBRANCH  13  17
BRANCH  16  19
ATOM     19  C5* UNL     1       2.628  -1.844   0.416  0.00  0.00    +0.169 C 
BRANCH  19  20
ATOM     20  O5* UNL     1       2.436  -2.835  -0.581  0.00  0.00    -0.379 OA
ATOM     21  H5* UNL     1       2.309  -3.699  -0.159  0.00  0.00    +0.211 HD
ENDBRANCH  19  20
ENDBRANCH  16  19
ENDBRANCH   3  15
TORSDOF 4
