REMARK  Name = 5813717
REMARK  6 active torsions:
REMARK  status: ('A' for Active; 'I' for Inactive)
REMARK    1  A    between atoms: C_4  and  N_13
REMARK    2  A    between atoms: C_8  and  C_21
REMARK    3  A    between atoms: C_10  and  C_16
REMARK    4  A    between atoms: C_17  and  C_18
REMARK    5  A    between atoms: C_18  and  O_19
REMARK    6  A    between atoms: C_21  and  O_22
REMARK                            x       y       z     vdW  Elec       q    Type
REMARK                         _______ _______ _______ _____ _____    ______ ____
ROOT
ATOM      1  O   UNL     1      -1.642   2.316  -0.298  0.00  0.00    -0.285 OA
ATOM      2  O   UNL     1      -1.570  -3.060   0.232  0.00  0.00    -0.285 OA
ATOM      3  N   UNL     1       0.931  -1.463  -0.144  0.00  0.00    -0.323 N 
ATOM      4  C   UNL     1      -2.863   0.276   0.012  0.00  0.00    +0.091 C 
ATOM      5  C   UNL     1      -0.382   0.331  -0.208  0.00  0.00    +0.059 A 
ATOM      6  C   UNL     1      -0.369  -1.040  -0.073  0.00  0.00    +0.102 A 
ATOM      7  C   UNL     1      -1.609   1.097  -0.178  0.00  0.00    +0.210 C 
ATOM      8  C   UNL     1       0.962   0.751  -0.367  0.00  0.00    +0.027 A 
ATOM      9  C   UNL     1      -2.819  -1.064   0.142  0.00  0.00    +0.061 C 
ATOM     10  C   UNL     1       1.752  -0.379  -0.324  0.00  0.00    +0.058 A 
ATOM     11  C   UNL     1      -1.545  -1.840   0.109  0.00  0.00    +0.213 C 
ATOM     12  C   UNL     1       1.364  -2.843  -0.045  0.00  0.00    +0.131 C 
ENDROOT
BRANCH   4  13
ATOM     13  N   UNL     1      -4.025   0.996   0.042  0.00  0.00    -0.301 N 
ATOM     14  C   UNL     1      -5.236   0.338  -0.440  0.00  0.00    +0.112 C 
ATOM     15  C   UNL     1      -5.037   0.598   1.016  0.00  0.00    +0.112 C 
ENDBRANCH   4  13
BRANCH  10  16
ATOM     16  C   UNL     1       3.142  -0.574  -0.427  0.00  0.00    +0.015 C 
ATOM     17  C   UNL     1       4.083   0.337  -0.075  0.00  0.00    +0.007 C 
BRANCH  17  18
ATOM     18  C   UNL     1       5.556   0.115  -0.214  0.00  0.00    +0.163 C 
BRANCH  18  19
ATOM     19  O   UNL     1       6.159   0.240   1.067  0.00  0.00    -0.377 OA
ATOM     20  H   UNL     1       7.116   0.098   0.989  0.00  0.00    +0.211 HD
ENDBRANCH  18  19
ENDBRANCH  17  18
ENDBRANCH  10  16
BRANCH   8  21
ATOM     21  C   UNL     1       1.438   2.139  -0.548  0.00  0.00    +0.165 C 
BRANCH  21  22
ATOM     22  O   UNL     1       1.709   2.728   0.723  0.00  0.00    -0.377 OA
ATOM     23  H   UNL     1       2.021   3.638   0.597  0.00  0.00    +0.211 HD
ENDBRANCH  21  22
ENDBRANCH   8  21
TORSDOF 6
