REMARK  Name = 443955
REMARK  4 active torsions:
REMARK  status: ('A' for Active; 'I' for Inactive)
REMARK    1  A    between atoms: C_3  and  C_26
REMARK    2  A    between atoms: C_13  and  C_22
REMARK    3  A    between atoms: C_22  and  O_23
REMARK    4  A    between atoms: O_23  and  C_24
REMARK                            x       y       z     vdW  Elec       q    Type
REMARK                         _______ _______ _______ _____ _____    ______ ____
ROOT
ATOM      1  N   UNL     1       3.248  -0.385  -0.051  0.00  0.00    +0.392 N 
ATOM      2  N   UNL     1      -0.463  -0.238   0.317  0.00  0.00    -0.307 N 
ATOM      3  C   UNL     1       1.692   1.670  -0.043  0.00  0.00    +0.008 C 
ATOM      4  C   UNL     1       2.007   0.234   0.480  0.00  0.00    -0.014 C 
ATOM      5  C   UNL     1       1.916   1.763  -1.570  0.00  0.00    +0.000 C 
ATOM      6  C   UNL     1       0.837  -0.681   0.300  0.00  0.00    +0.018 A 
ATOM      7  C   UNL     1       3.368  -0.292  -1.510  0.00  0.00    -0.077 C 
ATOM      8  C   UNL     1       3.247   1.150  -1.996  0.00  0.00    -0.023 C 
ATOM      9  C   UNL     1       3.383  -1.789   0.419  0.00  0.00    -0.072 C 
ATOM     10  C   UNL     1       0.900  -2.039   0.154  0.00  0.00    -0.013 A 
ATOM     11  C   UNL     1       0.233   2.047   0.244  0.00  0.00    -0.004 C 
ATOM     12  C   UNL     1       2.210  -2.739   0.047  0.00  0.00    +0.005 C 
ATOM     13  C   UNL     1      -0.749   1.133   0.403  0.00  0.00    +0.136 C 
ATOM     14  C   UNL     1      -0.436  -2.500   0.103  0.00  0.00    +0.013 A 
ATOM     15  C   UNL     1      -1.278  -1.371   0.198  0.00  0.00    +0.063 A 
ATOM     16  C   UNL     1      -1.008  -3.783  -0.037  0.00  0.00    +0.001 C 
ATOM     17  C   UNL     1      -2.674  -1.519   0.115  0.00  0.00    +0.017 C 
ATOM     18  C   UNL     1      -2.396  -3.921  -0.090  0.00  0.00    +0.000 C 
ATOM     19  C   UNL     1      -3.215  -2.802  -0.020  0.00  0.00    +0.001 C 
ATOM     20  H   UNL     1       4.025   0.159   0.326  0.00  0.00    -0.079 HD
ENDROOT
BRANCH  13  22
ATOM     21  O   UNL     1      -2.489   1.958   1.785  0.00  0.00    -0.243 OA
ATOM     22  C   UNL     1      -2.069   1.717   0.665  0.00  0.00    +0.357 C 
BRANCH  22  23
ATOM     23  O   UNL     1      -2.694   1.925  -0.520  0.00  0.00    -0.444 OA
BRANCH  23  24
ATOM     24  C   UNL     1      -4.003   2.496  -0.429  0.00  0.00    +0.209 C 
ATOM     25  C   UNL     1      -4.566   2.665  -1.825  0.00  0.00    +0.051 C 
ENDBRANCH  23  24
ENDBRANCH  22  23
ENDBRANCH  13  22
BRANCH   3  26
ATOM     26  C   UNL     1       2.608   2.678   0.683  0.00  0.00    +0.002 C 
ATOM     27  C   UNL     1       2.390   2.621   2.177  0.00  0.00    +0.000 C 
ENDBRANCH   3  26
TORSDOF 4
