REMARK  Name = 11287722
REMARK  5 active torsions:
REMARK  status: ('A' for Active; 'I' for Inactive)
REMARK    1  A    between atoms: C_1  and  C_6
REMARK    2  A    between atoms: C_1  and  C_12
REMARK    3  A    between atoms: N_5  and  C_7
REMARK    4  A    between atoms: N_5  and  C_8
REMARK    5  A    between atoms: C_6  and  C_7
REMARK                            x       y       z     vdW  Elec       q    Type
REMARK                         _______ _______ _______ _____ _____    ______ ____
ROOT
ATOM      1  C   UNL     1      -0.309  -1.186   0.701  0.00  0.00    +0.023 C 
ATOM      2  C   UNL     1      -0.307  -2.716   0.537  0.00  0.00    +0.005 C 
ENDROOT
BRANCH   1   3
ATOM      3  C   UNL     1       0.881  -0.556  -0.016  0.00  0.00    -0.027 C 
ATOM      4  C   UNL     1       1.856   0.094   0.710  0.00  0.00    -0.030 C 
ATOM      5  C   UNL     1       2.936   0.661   0.032  0.00  0.00    -0.026 C 
ATOM      6  C   UNL     1       0.936  -0.666  -1.390  0.00  0.00    -0.005 C 
ATOM      7  C   UNL     1       1.770   0.199   2.200  0.00  0.00    +0.030 C 
ATOM      8  C   UNL     1       3.015   0.564  -1.357  0.00  0.00    -0.005 C 
ATOM      9  C   UNL     1       2.015  -0.100  -2.068  0.00  0.00    -0.001 C 
ATOM     10  C   UNL     1       4.020   1.377   0.769  0.00  0.00    +0.031 C 
ENDBRANCH   1   3
BRANCH   1  11
ATOM     11  C   UNL     1      -1.598  -0.588   0.288  0.00  0.00    +0.021 C 
BRANCH  11  12
ATOM     12  C   UNL     1      -2.681  -1.165  -0.257  0.00  0.00    +0.070 C 
BRANCH  12  13
ATOM     13  N   UNL     1      -3.643  -0.209  -0.471  0.00  0.00    -0.288 NA
ATOM     14  H   UNL     1      -4.533  -0.366  -0.861  0.00  0.00    +0.124 HD
BRANCH  13  16
ATOM     15  S   UNL     1      -3.908   2.498  -0.078  0.00  0.00    -0.063 S 
ATOM     16  C   UNL     1      -3.141   1.035  -0.038  0.00  0.00    +0.139 C 
ENDBRANCH  13  16
ENDBRANCH  12  13
ENDBRANCH  11  12
ENDBRANCH   1  11
TORSDOF 5
REMARK  Name = 11287722
REMARK  5 active torsions:
REMARK  status: ('A' for Active; 'I' for Inactive)
REMARK    1  A    between atoms: C_1  and  C_6
REMARK    2  A    between atoms: C_1  and  C_12
REMARK    3  A    between atoms: N_5  and  C_7
REMARK    4  A    between atoms: N_5  and  C_8
REMARK    5  A    between atoms: C_6  and  C_7
REMARK                            x       y       z     vdW  Elec       q    Type
REMARK                         _______ _______ _______ _____ _____    ______ ____
ROOT
ATOM      1  N   UNL     1      -1.843   0.760   0.438  0.00  0.00    -0.163 NA
ATOM      2  H   UNL     1      -1.146   1.419   0.218  0.00  0.00    +0.163 HD
ENDROOT
TORSDOF 0
REMARK  Name = 11287722
REMARK  5 active torsions:
REMARK  status: ('A' for Active; 'I' for Inactive)
REMARK    1  A    between atoms: C_1  and  C_6
REMARK    2  A    between atoms: C_1  and  C_12
REMARK    3  A    between atoms: N_5  and  C_7
REMARK    4  A    between atoms: N_5  and  C_8
REMARK    5  A    between atoms: C_6  and  C_7
REMARK                            x       y       z     vdW  Elec       q    Type
REMARK                         _______ _______ _______ _____ _____    ______ ____
ROOT
ATOM      1  H   UNL     1      -1.216   1.419   0.814  0.00  0.00    +0.000 HD
ENDROOT
TORSDOF 0
