REMARK  Name = 61361
REMARK  3 active torsions:
REMARK  status: ('A' for Active; 'I' for Inactive)
REMARK    1  A    between atoms: C_3  and  C_11
REMARK    2  A    between atoms: C_11  and  C_12
REMARK    3  A    between atoms: C_12  and  C_13
REMARK                            x       y       z     vdW  Elec       q    Type
REMARK                         _______ _______ _______ _____ _____    ______ ____
ROOT
ATOM      1  O   UNL     1      -0.388   1.380  -0.464  0.00  0.00    -0.445 OA
ATOM      2  O   UNL     1       1.238   2.872   0.231  0.00  0.00    -0.245 OA
ATOM      3  C   UNL     1      -0.506  -0.051  -0.689  0.00  0.00    +0.192 C 
ATOM      4  C   UNL     1       0.844  -0.540  -0.333  0.00  0.00    +0.024 C 
ATOM      5  C   UNL     1       1.640   0.524   0.043  0.00  0.00    +0.075 C 
ATOM      6  C   UNL     1       0.859   1.748  -0.033  0.00  0.00    +0.341 C 
ATOM      7  C   UNL     1       1.358  -1.825  -0.345  0.00  0.00    -0.001 C 
ATOM      8  C   UNL     1       2.960   0.373   0.426  0.00  0.00    +0.006 C 
ATOM      9  C   UNL     1       2.690  -2.011   0.036  0.00  0.00    -0.000 C 
ATOM     10  C   UNL     1       3.486  -0.919   0.419  0.00  0.00    +0.000 C 
ENDROOT
BRANCH   3  11
ATOM     11  C   UNL     1      -1.616  -0.600   0.190  0.00  0.00    +0.048 C 
BRANCH  11  12
ATOM     12  C   UNL     1      -2.988  -0.089  -0.252  0.00  0.00    +0.004 C 
BRANCH  12  13
ATOM     13  C   UNL     1      -4.105  -0.671   0.614  0.00  0.00    +0.000 C 
ATOM     14  C   UNL     1      -5.473  -0.191   0.155  0.00  0.00    +0.000 C 
ENDBRANCH  12  13
ENDBRANCH  11  12
ENDBRANCH   3  11
TORSDOF 3
