666418
  -OEChem-10051722503D

 24 24  0     0  0  0  0  0  0999 V2000
   -2.7733    2.2100   -0.6560 S   0  0  0  0  0  0  0  0  0  0  0  0
    0.9685   -1.6671   -0.2741 N   0  0  0  0  0  0  0  0  0  0  0  0
   -3.5217    0.2232    0.9399 N   0  0  0  0  0  0  0  0  0  0  0  0
    2.3537    0.2865   -0.6238 C   0  0  0  0  0  0  0  0  0  0  0  0
    3.0935    0.6180    0.6794 C   0  0  0  0  0  0  0  0  0  0  0  0
    1.0131   -0.3195   -0.3732 C   0  0  0  0  0  0  0  0  0  0  0  0
   -0.0947    0.5041   -0.2538 C   0  0  0  0  0  0  0  0  0  0  0  0
    4.4718    1.2035    0.4166 C   0  0  0  0  0  0  0  0  0  0  0  0
   -1.3276   -0.0936   -0.0174 C   0  0  0  0  0  0  0  0  0  0  0  0
   -1.4139   -1.4772    0.0908 C   0  0  0  0  0  0  0  0  0  0  0  0
   -0.2471   -2.2123   -0.0442 C   0  0  0  0  0  0  0  0  0  0  0  0
   -2.5224    0.7243    0.1157 C   0  0  0  0  0  0  0  0  0  0  0  0
    2.9559   -0.4150   -1.2156 H   0  0  0  0  0  0  0  0  0  0  0  0
    2.2513    1.1889   -1.2396 H   0  0  0  0  0  0  0  0  0  0  0  0
    2.5073    1.3315    1.2715 H   0  0  0  0  0  0  0  0  0  0  0  0
    3.1991   -0.2873    1.2897 H   0  0  0  0  0  0  0  0  0  0  0  0
    0.0291    1.5796   -0.3247 H   0  0  0  0  0  0  0  0  0  0  0  0
    5.0971    0.4986   -0.1405 H   0  0  0  0  0  0  0  0  0  0  0  0
    4.3996    2.1305   -0.1611 H   0  0  0  0  0  0  0  0  0  0  0  0
    4.9743    1.4302    1.3620 H   0  0  0  0  0  0  0  0  0  0  0  0
   -2.3494   -2.0019    0.2495 H   0  0  0  0  0  0  0  0  0  0  0  0
   -0.2611   -3.2950    0.0256 H   0  0  0  0  0  0  0  0  0  0  0  0
   -3.4371   -0.6375    1.4701 H   0  0  0  0  0  0  0  0  0  0  0  0
   -4.3853    0.7407    1.0691 H   0  0  0  0  0  0  0  0  0  0  0  0
  1 12  2  0  0  0  0
  2  6  2  0  0  0  0
  2 11  1  0  0  0  0
  3 12  1  0  0  0  0
  3 23  1  0  0  0  0
  3 24  1  0  0  0  0
  4  5  1  0  0  0  0
  4  6  1  0  0  0  0
  4 13  1  0  0  0  0
  4 14  1  0  0  0  0
  5  8  1  0  0  0  0
  5 15  1  0  0  0  0
  5 16  1  0  0  0  0
  6  7  1  0  0  0  0
  7  9  2  0  0  0  0
  7 17  1  0  0  0  0
  8 18  1  0  0  0  0
  8 19  1  0  0  0  0
  8 20  1  0  0  0  0
  9 10  1  0  0  0  0
  9 12  1  0  0  0  0
 10 11  2  0  0  0  0
 10 21  1  0  0  0  0
 11 22  1  0  0  0  0
M  END
> <DATABASE_ID>
DB12667

> <DATABASE_NAME>
drugbank

> <ORIGINAL_SOURCE>
PUBCHEM

> <ORIGINAL_SOURCE_URL>
https://pubchem.ncbi.nlm.nih.gov/rest/pug/compound/inchikey/VRDIULHPQTYCLN-UHFFFAOYSA-N/SDF?record_type=3d

> <SMILES>
CCCC1=NC=CC(=C1)C(S)=N

> <INCHI_IDENTIFIER>
InChI=1S/C9H12N2S/c1-2-3-8-6-7(9(10)12)4-5-11-8/h4-6H,2-3H2,1H3,(H2,10,12)

> <INCHI_KEY>
VRDIULHPQTYCLN-UHFFFAOYSA-N

> <FORMULA>
C9H12N2S

> <MOLECULAR_WEIGHT>
180.27

> <EXACT_MASS>
180.072119568

> <JCHEM_ACCEPTOR_COUNT>
2

> <JCHEM_ATOM_COUNT>
24

> <JCHEM_AVERAGE_POLARIZABILITY>
20.067914135205353

> <JCHEM_BIOAVAILABILITY>
1

> <JCHEM_DONOR_COUNT>
2

> <JCHEM_FORMAL_CHARGE>
0

> <JCHEM_GHOSE_FILTER>
1

> <JCHEM_IUPAC>
2-propylpyridine-4-carboimidothioic acid

> <ALOGPS_LOGP>
2.38

> <JCHEM_LOGP>
2.215806844333333

> <ALOGPS_LOGS>
-3.26

> <JCHEM_MDDR_LIKE_RULE>
0

> <JCHEM_NUMBER_OF_RINGS>
1

> <JCHEM_PHYSIOLOGICAL_CHARGE>
1

> <JCHEM_PKA_STRONGEST_BASIC>
7.307240737173168

> <JCHEM_POLAR_SURFACE_AREA>
36.74

> <JCHEM_REFRACTIVITY>
63.862500000000004

> <JCHEM_ROTATABLE_BOND_COUNT>
3

> <JCHEM_RULE_OF_FIVE>
1

> <ALOGPS_SOLUBILITY>
9.83e-02 g/l

> <JCHEM_TRADITIONAL_IUPAC>
tuberex

> <JCHEM_VEBER_RULE>
1

> <DRUGBANK_ID>
DB12667

> <DRUG_GROUPS>
approved; investigational

> <GENERIC_NAME>
Protionamide

> <SYNONYMS>
Prothionamide

$$$$
