REMARK  Name = 11697676
REMARK  7 active torsions:
REMARK  status: ('A' for Active; 'I' for Inactive)
REMARK    1  A    between atoms: N_1  and  C_18
REMARK    2  A    between atoms: N_2  and  C_8
REMARK    3  A    between atoms: C_18  and  C_19
REMARK    4  A    between atoms: C_19  and  C_20
REMARK    5  A    between atoms: C_20  and  C_21
REMARK    6  A    between atoms: C_21  and  O_22
REMARK    7  A    between atoms: O_22  and  C_28
REMARK                            x       y       z     vdW  Elec       q    Type
REMARK                         _______ _______ _______ _____ _____    ______ ____
ROOT
ATOM      1  N   UNL     1      -1.769  -1.015  -1.140  0.00  0.00    +0.389 N 
ATOM      2  N   UNL     1      -4.328   0.138  -0.611  0.00  0.00    -0.312 N 
ATOM      3  C   UNL     1      -2.993  -1.801  -1.341  0.00  0.00    -0.055 C 
ATOM      4  C   UNL     1      -1.949  -0.089  -0.015  0.00  0.00    -0.055 C 
ATOM      5  C   UNL     1      -4.185  -0.891  -1.648  0.00  0.00    +0.068 C 
ATOM      6  C   UNL     1      -3.107   0.877  -0.278  0.00  0.00    +0.068 C 
ATOM      7  H   UNL     1      -1.582  -0.475  -1.985  0.00  0.00    -0.080 HD
ENDROOT
BRANCH   2   8
ATOM      8  C   UNL     1      -5.575   0.757  -0.467  0.00  0.00    +0.048 C 
ATOM      9  C   UNL     1      -6.589   0.255   0.396  0.00  0.00    +0.013 C 
ATOM     10  C   UNL     1      -5.846   1.929  -1.206  0.00  0.00    +0.015 C 
ATOM     11  C   UNL     1      -7.833   0.920   0.504  0.00  0.00    +0.001 C 
ATOM     12  C   UNL     1      -6.364  -0.908   1.150  0.00  0.00    +0.001 C 
ATOM     13  C   UNL     1      -7.070   2.584  -1.099  0.00  0.00    +0.001 C 
ATOM     14  C   UNL     1      -8.057   2.084  -0.250  0.00  0.00    +0.000 C 
ATOM     15  C   UNL     1      -8.816   0.403   1.363  0.00  0.00    +0.000 C 
ATOM     16  C   UNL     1      -7.352  -1.408   1.999  0.00  0.00    +0.000 C 
ATOM     17  C   UNL     1      -8.576  -0.754   2.105  0.00  0.00    +0.000 C 
ENDBRANCH   2   8
BRANCH   1  18
ATOM     18  C   UNL     1      -0.627  -1.897  -0.901  0.00  0.00    -0.077 C 
BRANCH  18  19
ATOM     19  C   UNL     1       0.656  -1.079  -0.765  0.00  0.00    -0.019 C 
BRANCH  19  20
ATOM     20  C   UNL     1       1.864  -1.982  -0.523  0.00  0.00    +0.045 C 
BRANCH  20  21
ATOM     21  C   UNL     1       3.143  -1.175  -0.344  0.00  0.00    +0.208 C 
BRANCH  21  22
ATOM     22  O   UNL     1       4.242  -2.052  -0.141  0.00  0.00    -0.452 OA
BRANCH  22  28
ATOM     23  O   UNL     1       7.993   3.816   0.336  0.00  0.00    -0.275 OA
ATOM     24  N   UNL     1       6.791   1.861   0.238  0.00  0.00    -0.263 N 
ATOM     25  N   UNL     1       5.514  -0.121   0.048  0.00  0.00    -0.357 NA
ATOM     26  C   UNL     1       7.892  -0.277   0.453  0.00  0.00    +0.090 C 
ATOM     27  C   UNL     1       9.177   0.427   0.770  0.00  0.00    +0.022 C 
ATOM     28  C   UNL     1       5.468  -1.472   0.058  0.00  0.00    +0.278 C 
ATOM     29  C   UNL     1       6.725   0.455   0.235  0.00  0.00    +0.170 C 
ATOM     30  C   UNL     1       9.235   1.781   0.081  0.00  0.00    +0.086 C 
ATOM     31  C   UNL     1       7.798  -1.669   0.470  0.00  0.00    -0.012 C 
ATOM     32  C   UNL     1       6.570  -2.283   0.260  0.00  0.00    +0.068 C 
ATOM     33  C   UNL     1       7.966   2.587   0.265  0.00  0.00    +0.228 C 
ATOM     34  H   UNL     1       5.943   2.361   0.220  0.00  0.00    +0.157 HD
ENDBRANCH  22  28
ENDBRANCH  21  22
ENDBRANCH  20  21
ENDBRANCH  19  20
ENDBRANCH  18  19
ENDBRANCH   1  18
TORSDOF 7
