51045
  -OEChem-10051722523D

 52 54  0     1  0  0  0  0  0999 V2000
   -3.7542   -1.7118   -1.9911 O   0  0  0  0  0  0  0  0  0  0  0  0
   -2.5447    0.5372   -0.8910 O   0  0  0  0  0  0  0  0  0  0  0  0
   -0.3726   -2.2196   -0.5855 N   0  0  0  0  0  0  0  0  0  0  0  0
    2.8407    0.4981    1.8305 N   0  0  0  0  0  0  0  0  0  0  0  0
   -3.3824    0.5312    2.6000 N   0  0  0  0  0  0  0  0  0  0  0  0
    0.0812   -2.9332    0.6215 C   0  0  0  0  0  0  0  0  0  0  0  0
    1.6321   -2.7726    0.7464 C   0  0  0  0  0  0  0  0  0  0  0  0
    2.1509   -1.3989    0.9071 C   0  0  0  0  0  0  0  0  0  0  0  0
   -0.6574   -2.3145    1.8164 C   0  0  0  0  0  0  0  0  0  0  0  0
   -0.3318   -4.4026    0.4598 C   0  0  0  0  0  0  0  0  0  0  0  0
   -1.8142   -2.3155   -0.7150 C   0  0  0  0  0  0  0  0  0  0  0  0
    2.5289   -0.5081   -0.1362 C   0  0  0  0  0  0  0  0  0  0  0  0
   -2.3284   -1.5990   -1.9659 C   0  0  2  0  0  0  0  0  0  0  0  0
    2.3539   -0.7519    2.1043 C   0  0  0  0  0  0  0  0  0  0  0  0
    2.9579    0.6746    0.4701 C   0  0  0  0  0  0  0  0  0  0  0  0
   -1.9570   -0.1184   -2.0106 C   0  0  0  0  0  0  0  0  0  0  0  0
    2.5474   -0.5946   -1.5424 C   0  0  0  0  0  0  0  0  0  0  0  0
    3.4063    1.7794   -0.2625 C   0  0  0  0  0  0  0  0  0  0  0  0
    2.9933    0.5026   -2.2882 C   0  0  0  0  0  0  0  0  0  0  0  0
    3.4158    1.6704   -1.6559 C   0  0  0  0  0  0  0  0  0  0  0  0
   -1.8682    1.6145   -0.3842 C   0  0  0  0  0  0  0  0  0  0  0  0
   -1.9488    1.9416    0.9665 C   0  0  0  0  0  0  0  0  0  0  0  0
   -1.0935    2.3820   -1.2497 C   0  0  0  0  0  0  0  0  0  0  0  0
   -1.2491    3.0448    1.4556 C   0  0  0  0  0  0  0  0  0  0  0  0
   -0.3939    3.4851   -0.7607 C   0  0  0  0  0  0  0  0  0  0  0  0
   -0.4718    3.8165    0.5919 C   0  0  0  0  0  0  0  0  0  0  0  0
   -2.7406    1.1626    1.8687 C   0  0  0  0  0  0  0  0  0  0  0  0
    2.1093   -3.2382   -0.1276 H   0  0  0  0  0  0  0  0  0  0  0  0
    1.9699   -3.3735    1.6029 H   0  0  0  0  0  0  0  0  0  0  0  0
    0.0763   -2.6125   -1.4123 H   0  0  0  0  0  0  0  0  0  0  0  0
   -0.6443   -1.2188    1.7955 H   0  0  0  0  0  0  0  0  0  0  0  0
   -1.6964   -2.6475    1.9161 H   0  0  0  0  0  0  0  0  0  0  0  0
   -0.1683   -2.6188    2.7504 H   0  0  0  0  0  0  0  0  0  0  0  0
    0.1835   -5.0127    1.2124 H   0  0  0  0  0  0  0  0  0  0  0  0
   -1.3991   -4.5899    0.6154 H   0  0  0  0  0  0  0  0  0  0  0  0
   -0.0415   -4.8054   -0.5180 H   0  0  0  0  0  0  0  0  0  0  0  0
   -2.1692   -3.3469   -0.8080 H   0  0  0  0  0  0  0  0  0  0  0  0
   -2.3516   -1.8773    0.1315 H   0  0  0  0  0  0  0  0  0  0  0  0
   -1.9461   -2.0961   -2.8648 H   0  0  0  0  0  0  0  0  0  0  0  0
    2.1962   -1.0664    3.1266 H   0  0  0  0  0  0  0  0  0  0  0  0
    3.0791    1.1918    2.5258 H   0  0  0  0  0  0  0  0  0  0  0  0
   -0.8639   -0.0312   -2.0319 H   0  0  0  0  0  0  0  0  0  0  0  0
   -2.3745    0.3306   -2.9197 H   0  0  0  0  0  0  0  0  0  0  0  0
    2.2265   -1.4974   -2.0539 H   0  0  0  0  0  0  0  0  0  0  0  0
    3.7340    2.6893    0.2287 H   0  0  0  0  0  0  0  0  0  0  0  0
    3.0099    0.4415   -3.3732 H   0  0  0  0  0  0  0  0  0  0  0  0
   -4.1048   -1.2202   -1.2286 H   0  0  0  0  0  0  0  0  0  0  0  0
    3.7572    2.5109   -2.2547 H   0  0  0  0  0  0  0  0  0  0  0  0
   -1.0295    2.1846   -2.3154 H   0  0  0  0  0  0  0  0  0  0  0  0
   -1.2987    3.3167    2.5074 H   0  0  0  0  0  0  0  0  0  0  0  0
    0.2065    4.0901   -1.4338 H   0  0  0  0  0  0  0  0  0  0  0  0
    0.0725    4.6759    0.9722 H   0  0  0  0  0  0  0  0  0  0  0  0
  1 13  1  0  0  0  0
  1 47  1  0  0  0  0
  2 16  1  0  0  0  0
  2 21  1  0  0  0  0
  3  6  1  0  0  0  0
  3 11  1  0  0  0  0
  3 30  1  0  0  0  0
  4 14  1  0  0  0  0
  4 15  1  0  0  0  0
  4 41  1  0  0  0  0
  5 27  3  0  0  0  0
  6  7  1  0  0  0  0
  6  9  1  0  0  0  0
  6 10  1  0  0  0  0
  7  8  1  0  0  0  0
  7 28  1  0  0  0  0
  7 29  1  0  0  0  0
  8 12  1  0  0  0  0
  8 14  2  0  0  0  0
  9 31  1  0  0  0  0
  9 32  1  0  0  0  0
  9 33  1  0  0  0  0
 10 34  1  0  0  0  0
 10 35  1  0  0  0  0
 10 36  1  0  0  0  0
 11 13  1  0  0  0  0
 11 37  1  0  0  0  0
 11 38  1  0  0  0  0
 12 15  1  0  0  0  0
 12 17  2  0  0  0  0
 13 16  1  0  0  0  0
 13 39  1  0  0  0  0
 14 40  1  0  0  0  0
 15 18  2  0  0  0  0
 16 42  1  0  0  0  0
 16 43  1  0  0  0  0
 17 19  1  0  0  0  0
 17 44  1  0  0  0  0
 18 20  1  0  0  0  0
 18 45  1  0  0  0  0
 19 20  2  0  0  0  0
 19 46  1  0  0  0  0
 20 48  1  0  0  0  0
 21 22  1  0  0  0  0
 21 23  2  0  0  0  0
 22 24  2  0  0  0  0
 22 27  1  0  0  0  0
 23 25  1  0  0  0  0
 23 49  1  0  0  0  0
 24 26  1  0  0  0  0
 24 50  1  0  0  0  0
 25 26  2  0  0  0  0
 25 51  1  0  0  0  0
 26 52  1  0  0  0  0
M  END
> <DATABASE_ID>
DB12752

> <DATABASE_NAME>
drugbank

> <ORIGINAL_SOURCE>
PUBCHEM

> <ORIGINAL_SOURCE_URL>
https://pubchem.ncbi.nlm.nih.gov/rest/pug/compound/inchikey/FBMYKMYQHCBIGU-UHFFFAOYSA-N/SDF?record_type=3d

> <SMILES>
CC(C)(CC1=CNC2=CC=CC=C12)NCC(O)COC1=CC=CC=C1C#N

> <INCHI_IDENTIFIER>
InChI=1S/C22H25N3O2/c1-22(2,11-17-13-24-20-9-5-4-8-19(17)20)25-14-18(26)15-27-21-10-6-3-7-16(21)12-23/h3-10,13,18,24-26H,11,14-15H2,1-2H3

> <INCHI_KEY>
FBMYKMYQHCBIGU-UHFFFAOYSA-N

> <FORMULA>
C22H25N3O2

> <MOLECULAR_WEIGHT>
363.461

> <EXACT_MASS>
363.194677057

> <JCHEM_ACCEPTOR_COUNT>
4

> <JCHEM_ATOM_COUNT>
52

> <JCHEM_AVERAGE_POLARIZABILITY>
39.981784332255366

> <JCHEM_BIOAVAILABILITY>
1

> <JCHEM_DONOR_COUNT>
3

> <JCHEM_FORMAL_CHARGE>
0

> <JCHEM_GHOSE_FILTER>
1

> <JCHEM_IUPAC>
2-(2-hydroxy-3-{[1-(1H-indol-3-yl)-2-methylpropan-2-yl]amino}propoxy)benzonitrile

> <ALOGPS_LOGP>
3.40

> <JCHEM_LOGP>
3.4859803900000004

> <ALOGPS_LOGS>
-4.69

> <JCHEM_MDDR_LIKE_RULE>
1

> <JCHEM_NUMBER_OF_RINGS>
3

> <JCHEM_PHYSIOLOGICAL_CHARGE>
1

> <JCHEM_PKA>
17.10327668344919

> <JCHEM_PKA_STRONGEST_ACIDIC>
14.08698853211094

> <JCHEM_PKA_STRONGEST_BASIC>
9.692072154283014

> <JCHEM_POLAR_SURFACE_AREA>
81.07000000000001

> <JCHEM_REFRACTIVITY>
106.44080000000001

> <JCHEM_ROTATABLE_BOND_COUNT>
8

> <JCHEM_RULE_OF_FIVE>
1

> <ALOGPS_SOLUBILITY>
7.44e-03 g/l

> <JCHEM_TRADITIONAL_IUPAC>
bucindolol

> <JCHEM_VEBER_RULE>
0

> <DRUGBANK_ID>
DB12752

> <DRUG_GROUPS>
investigational

> <GENERIC_NAME>
Bucindolol

$$$$
