REMARK  Name = 2214
REMARK  3 active torsions:
REMARK  status: ('A' for Active; 'I' for Inactive)
REMARK    1  A    between atoms: C_1  and  C_8
REMARK    2  A    between atoms: C_2  and  O_10
REMARK    3  A    between atoms: C_5  and  O_12
REMARK                            x       y       z     vdW  Elec       q    Type
REMARK                         _______ _______ _______ _____ _____    ______ ____
ROOT
ATOM      1  C   UNL     1       1.141  -0.160   0.010  0.00  0.00    +0.038 C 
ATOM      2  C   UNL     1      -1.199   0.395   0.240  0.00  0.00    +0.172 C 
ATOM      3  C   UNL     1       0.138   0.790   0.206  0.00  0.00    +0.043 C 
ATOM      4  C   UNL     1       0.806  -1.504  -0.152  0.00  0.00    +0.006 C 
ATOM      5  C   UNL     1      -1.534  -0.949   0.078  0.00  0.00    +0.168 C 
ATOM      6  C   UNL     1      -0.531  -1.899  -0.118  0.00  0.00    +0.040 C 
ENDROOT
BRANCH   1   8
ATOM      7  O   UNL     1       3.454  -0.575  -0.198  0.00  0.00    -0.291 OA
ATOM      8  C   UNL     1       2.535   0.251  -0.026  0.00  0.00    +0.174 C 
ATOM      9  C   UNL     1       2.909   1.719   0.151  0.00  0.00    +0.077 C 
ENDBRANCH   1   8
BRANCH   2  10
ATOM     10  O   UNL     1      -2.169   1.332   0.432  0.00  0.00    -0.468 OA
ATOM     11  C   UNL     1      -2.714   1.949  -0.733  0.00  0.00    +0.253 C 
ENDBRANCH   2  10
BRANCH   5  12
ATOM     12  O   UNL     1      -2.836  -1.348   0.110  0.00  0.00    -0.503 OA
ATOM     13  H   UNL     1      -3.516  -0.716   0.241  0.00  0.00    +0.292 HD
ENDBRANCH   5  12
TORSDOF 3
