REMARK  Name = 11358855
REMARK  8 active torsions:
REMARK  status: ('A' for Active; 'I' for Inactive)
REMARK    1  A    between atoms: N_1  and  S_3
REMARK    2  A    between atoms: N_1  and  C_12
REMARK    3  A    between atoms: S_3  and  C_8
REMARK    4  A    between atoms: C_12  and  C_13
REMARK    5  A    between atoms: C_12  and  C_18
REMARK    6  A    between atoms: C_13  and  C_14
REMARK    7  A    between atoms: C_13  and  C_16
REMARK    8  A    between atoms: C_18  and  O_19
REMARK                            x       y       z     vdW  Elec       q    Type
REMARK                         _______ _______ _______ _____ _____    ______ ____
ROOT
ATOM      1  N   UNL     1       1.013   1.085  -0.895  0.00  0.00    -0.178 NA
ATOM      2  H   UNL     1       1.714   1.733  -1.252  0.00  0.00    +0.149 HD
ENDROOT
BRANCH   1   3
ATOM      3  S   UNL     1      -0.389   1.990  -0.544  0.00  0.00    +0.066 S 
ATOM      4  O   UNL     1      -0.931   2.544  -1.770  0.00  0.00    -0.153 OA
ATOM      5  O   UNL     1      -0.118   2.829   0.607  0.00  0.00    -0.153 OA
BRANCH   3   8
ATOM      6 CL   UNL     1      -4.310  -2.216  -0.502  0.00  0.00    -0.075 Cl
ATOM      7  S   UNL     1      -2.235  -0.193  -1.150  0.00  0.00    -0.056 S 
ATOM      8  C   UNL     1      -1.630   0.843   0.052  0.00  0.00    +0.152 C 
ATOM      9  C   UNL     1      -2.176   0.650   1.276  0.00  0.00    +0.028 C 
ATOM     10  C   UNL     1      -3.143  -0.396   1.245  0.00  0.00    +0.020 C 
ATOM     11  C   UNL     1      -3.274  -0.942  -0.013  0.00  0.00    +0.088 C 
ENDBRANCH   3   8
ENDBRANCH   1   3
BRANCH   1  12
ATOM     12  C   UNL     1       1.639   0.323   0.229  0.00  0.00    +0.105 C 
BRANCH  12  13
ATOM     13  C   UNL     1       1.595  -1.192  -0.113  0.00  0.00    +0.019 C 
BRANCH  13  14
ATOM     14  C   UNL     1       2.469  -1.556  -1.337  0.00  0.00    +0.001 C 
ATOM     15  C   UNL     1       2.404  -3.023  -1.741  0.00  0.00    +0.000 C 
ENDBRANCH  13  14
BRANCH  13  16
ATOM     16  C   UNL     1       1.975  -2.070   1.107  0.00  0.00    +0.001 C 
ATOM     17  C   UNL     1       1.098  -1.833   2.331  0.00  0.00    +0.000 C 
ENDBRANCH  13  16
ENDBRANCH  12  13
BRANCH  12  18
ATOM     18  C   UNL     1       3.043   0.881   0.467  0.00  0.00    +0.154 C 
BRANCH  18  19
ATOM     19  O   UNL     1       2.972   2.276   0.752  0.00  0.00    -0.381 OA
ATOM     20  H   UNL     1       3.866   2.621   0.902  0.00  0.00    +0.211 HD
ENDBRANCH  18  19
ENDBRANCH  12  18
ENDBRANCH   1  12
TORSDOF 8
