REMARK  Name = 9935681
REMARK  12 active torsions:
REMARK  status: ('A' for Active; 'I' for Inactive)
REMARK    1  A    between atoms: C_1  and  C_21
REMARK    2  A    between atoms: C_2  and  C_7
REMARK    3  A    between atoms: C_8  and  O_13
REMARK    4  A    between atoms: C_9  and  O_15
REMARK    5  A    between atoms: C_10  and  C_17
REMARK    6  A    between atoms: C_17  and  O_18
REMARK    7  A    between atoms: O_18  and  C_19
REMARK    8  A    between atoms: C_21  and  CA_22
REMARK    9  A    between atoms: CA_22  and  N_24
REMARK   10  A    between atoms: CA_22  and  C_36
REMARK   11  A    between atoms: C_25  and  C_29
REMARK   12  A    between atoms: C_36  and  O_37
REMARK                            x       y       z     vdW  Elec       q    Type
REMARK                         _______ _______ _______ _____ _____    ______ ____
ROOT
ATOM      1  C   UNL     1      -1.341  -2.227   0.197  0.00  0.00    -0.020 C 
ATOM      2  C   UNL     1       1.197  -1.118   0.302  0.00  0.00    +0.006 C 
ATOM      3  C   UNL     1      -0.414  -2.558  -0.779  0.00  0.00    -0.004 C 
ATOM      4  C   UNL     1      -1.023  -1.352   1.224  0.00  0.00    -0.004 C 
ATOM      5  C   UNL     1       0.863  -2.000  -0.726  0.00  0.00    -0.000 C 
ATOM      6  C   UNL     1       0.254  -0.794   1.277  0.00  0.00    -0.000 C 
ENDROOT
BRANCH   2   7
ATOM      7  C   UNL     1       2.522  -0.540   0.357  0.00  0.00    +0.068 C 
ATOM      8  C   UNL     1       3.543  -1.189   1.057  0.00  0.00    +0.141 C 
ATOM      9  C   UNL     1       2.788   0.670  -0.290  0.00  0.00    +0.141 C 
ATOM     10  C   UNL     1       5.082   0.576   0.464  0.00  0.00    +0.013 C 
ATOM     11  C   UNL     1       4.821  -0.631   1.110  0.00  0.00    +0.035 C 
ATOM     12  C   UNL     1       4.066   1.227  -0.236  0.00  0.00    +0.035 C 
BRANCH   8  13
ATOM     13  O   UNL     1       3.318  -2.372   1.697  0.00  0.00    -0.471 OA
ATOM     14  C   UNL     1       3.532  -3.564   0.947  0.00  0.00    +0.252 C 
ENDBRANCH   8  13
BRANCH   9  15
ATOM     15  O   UNL     1       1.815   1.329  -0.982  0.00  0.00    -0.471 OA
ATOM     16  C   UNL     1       1.033   2.274  -0.257  0.00  0.00    +0.252 C 
ENDBRANCH   9  15
BRANCH  10  17
ATOM     17  C   UNL     1       6.449   1.171   0.519  0.00  0.00    +0.169 C 
BRANCH  17  18
ATOM     18  O   UNL     1       7.218   0.691  -0.577  0.00  0.00    -0.349 OA
BRANCH  18  19
ATOM     19  C   UNL     1       8.532   1.231  -0.567  0.00  0.00    +0.143 C 
ATOM     20  C   UNL     1       9.298   0.685  -1.753  0.00  0.00    +0.035 C 
ENDBRANCH  18  19
ENDBRANCH  17  18
ENDBRANCH  10  17
ENDBRANCH   2   7
BRANCH   1  21
ATOM     21  C   UNL     1      -2.723  -2.830   0.139  0.00  0.00    +0.057 C 
BRANCH  21  22
ATOM     22  CA  UNL     1      -3.713  -1.983  -0.671  0.00  0.00    +0.176 C 
BRANCH  22  24
ATOM     23  O   UNL     1      -3.169   0.480  -2.042  0.00  0.00    -0.270 OA
ATOM     24  N   UNL     1      -3.825  -0.653  -0.128  0.00  0.00    -0.293 N 
ATOM     25  C   UNL     1      -3.539   0.484  -0.871  0.00  0.00    +0.251 C 
ATOM     26  H   UNL     1      -4.116  -0.546   0.807  0.00  0.00    +0.150 HD
BRANCH  25  29
ATOM     27  F   UNL     1      -1.977   2.721  -1.523  0.00  0.00    -0.204 F 
ATOM     28  F   UNL     1      -5.380   0.850   1.213  0.00  0.00    -0.204 F 
ATOM     29  C   UNL     1      -3.678   1.780  -0.158  0.00  0.00    +0.108 C 
ATOM     30  C   UNL     1      -2.875   2.837  -0.533  0.00  0.00    +0.147 C 
ATOM     31  C   UNL     1      -4.606   1.885   0.858  0.00  0.00    +0.147 C 
ATOM     32  C   UNL     1      -3.006   4.054   0.136  0.00  0.00    +0.030 C 
ATOM     33  C   UNL     1      -4.737   3.102   1.527  0.00  0.00    +0.030 C 
ATOM     34  C   UNL     1      -3.937   4.186   1.166  0.00  0.00    +0.005 C 
ENDBRANCH  25  29
ENDBRANCH  22  24
BRANCH  22  36
ATOM     35  OXT UNL     1      -5.237  -3.780  -1.218  0.00  0.00    -0.248 OA
ATOM     36  C   UNL     1      -5.069  -2.672  -0.720  0.00  0.00    +0.332 C 
BRANCH  36  37
ATOM     37  O   UNL     1      -6.084  -1.970  -0.162  0.00  0.00    -0.479 OA
ATOM     38  H   UNL     1      -5.921  -1.126   0.210  0.00  0.00    +0.295 HD
ENDBRANCH  36  37
ENDBRANCH  22  36
ENDBRANCH  21  22
ENDBRANCH   1  21
TORSDOF 12
