REMARK  Name = 10192617
REMARK  3 active torsions:
REMARK  status: ('A' for Active; 'I' for Inactive)
REMARK    1  A    between atoms: N_1  and  C_4
REMARK    2  A    between atoms: N_1  and  C_13
REMARK    3  A    between atoms: C_13  and  C_16
REMARK                            x       y       z     vdW  Elec       q    Type
REMARK                         _______ _______ _______ _____ _____    ______ ____
ROOT
ATOM      1  N   UNL     1       1.778   0.628   0.035  0.00  0.00    +0.391 N 
ATOM      2  H   UNL     1       2.113   1.481   0.483  0.00  0.00    -0.084 HD
ATOM      3  H   UNL     1       1.772   0.736  -0.979  0.00  0.00    -0.084 HD
ENDROOT
BRANCH   1   4
ATOM      4  C   UNL     1       0.419   0.359   0.481  0.00  0.00    -0.052 C 
ATOM      5  C   UNL     1      -0.564   1.494   0.128  0.00  0.00    +0.005 C 
ATOM      6  C   UNL     1      -0.161  -0.925  -0.145  0.00  0.00    +0.005 C 
ATOM      7  C   UNL     1      -1.857   0.741   0.071  0.00  0.00    -0.028 C 
ATOM      8  C   UNL     1      -1.629  -0.632  -0.084  0.00  0.00    -0.028 C 
ATOM      9  C   UNL     1      -3.144   1.251   0.108  0.00  0.00    -0.005 C 
ATOM     10  C   UNL     1      -2.682  -1.522  -0.205  0.00  0.00    -0.005 C 
ATOM     11  C   UNL     1      -4.213   0.359  -0.001  0.00  0.00    -0.000 C 
ATOM     12  C   UNL     1      -3.983  -1.018  -0.156  0.00  0.00    -0.000 C 
ENDBRANCH   1   4
BRANCH   1  13
ATOM     13  C   UNL     1       2.668  -0.473   0.379  0.00  0.00    +0.005 C 
BRANCH  13  16
ATOM     14  O   UNL     1       4.256   0.566  -1.115  0.00  0.00    -0.278 OA
ATOM     15  N   UNL     1       5.059  -0.697   0.629  0.00  0.00    -0.331 N 
ATOM     16  C   UNL     1       4.053  -0.133  -0.124  0.00  0.00    +0.198 C 
ATOM     17  H   UNL     1       6.000  -0.539   0.389  0.00  0.00    +0.145 HD
ATOM     18  H   UNL     1       4.836  -1.257   1.407  0.00  0.00    +0.145 HD
ENDBRANCH  13  16
ENDBRANCH   1  13
TORSDOF 3
