REMARK  Name = 11691242
REMARK  5 active torsions:
REMARK  status: ('A' for Active; 'I' for Inactive)
REMARK    1  A    between atoms: N_1  and  C_25
REMARK    2  A    between atoms: C_5  and  N_11
REMARK    3  A    between atoms: N_12  and  C_17
REMARK    4  A    between atoms: C_18  and  O_23
REMARK    5  A    between atoms: C_25  and  C_28
REMARK                            x       y       z     vdW  Elec       q    Type
REMARK                         _______ _______ _______ _____ _____    ______ ____
ROOT
ATOM      1  N   UNL     1      -3.340   0.933  -1.152  0.00  0.00    -0.282 N 
ATOM      2  C   UNL     1      -2.403  -0.075  -1.142  0.00  0.00    +0.053 C 
ATOM      3  C   UNL     1      -1.180   0.504  -0.795  0.00  0.00    +0.028 C 
ATOM      4  C   UNL     1      -2.754   2.126  -0.825  0.00  0.00    +0.066 C 
ATOM      5  C   UNL     1      -0.039  -0.318  -0.712  0.00  0.00    +0.053 C 
ATOM      6  C   UNL     1      -1.417   1.894  -0.599  0.00  0.00    +0.019 C 
ATOM      7  C   UNL     1      -2.542  -1.441  -1.410  0.00  0.00    +0.015 C 
ATOM      8  C   UNL     1      -0.163  -1.687  -0.978  0.00  0.00    +0.015 C 
ATOM      9  C   UNL     1      -1.396  -2.238  -1.321  0.00  0.00    +0.003 C 
ENDROOT
BRANCH   5  11
ATOM     10  O   UNL     1       2.610  -1.667  -0.420  0.00  0.00    -0.252 OA
ATOM     11  N   UNL     1       1.207   0.209  -0.370  0.00  0.00    -0.268 N 
ATOM     12  N   UNL     1       3.451   0.447   0.121  0.00  0.00    -0.266 N 
ATOM     13  C   UNL     1       2.446  -0.464  -0.241  0.00  0.00    +0.308 C 
ATOM     14  H   UNL     1       1.228   1.178  -0.195  0.00  0.00    +0.156 HD
ATOM     15  H   UNL     1       3.167   1.383   0.229  0.00  0.00    +0.157 HD
BRANCH  12  17
ATOM     16 BR   UNL     1       7.284  -3.153   0.257  0.00  0.00    -0.049 Br
ATOM     17  C   UNL     1       4.823   0.185   0.349  0.00  0.00    +0.086 C 
ATOM     18  C   UNL     1       5.676   1.219   0.703  0.00  0.00    +0.152 C 
ATOM     19  C   UNL     1       5.285  -1.114   0.211  0.00  0.00    +0.024 C 
ATOM     20  C   UNL     1       7.025   0.946   0.924  0.00  0.00    +0.039 C 
ATOM     21  C   UNL     1       6.635  -1.387   0.433  0.00  0.00    +0.036 C 
ATOM     22  C   UNL     1       7.505  -0.357   0.789  0.00  0.00    +0.010 C 
BRANCH  18  23
ATOM     23  O   UNL     1       5.226   2.498   0.841  0.00  0.00    -0.470 OA
ATOM     24  C   UNL     1       5.257   3.325  -0.321  0.00  0.00    +0.253 C 
ENDBRANCH  18  23
ENDBRANCH  12  17
ENDBRANCH   5  11
BRANCH   1  25
ATOM     25  C   UNL     1      -4.744   0.773  -1.465  0.00  0.00    +0.122 C 
BRANCH  25  28
ATOM     26  N   UNL     1      -7.044  -0.068   2.052  0.00  0.00    -0.230 NA
ATOM     27  N   UNL     1      -6.694  -2.399   1.706  0.00  0.00    -0.343 N 
ATOM     28  C   UNL     1      -5.552   0.477  -0.231  0.00  0.00    +0.002 C 
ATOM     29  C   UNL     1      -5.747  -0.835   0.162  0.00  0.00    +0.031 C 
ATOM     30  C   UNL     1      -6.091   1.521   0.499  0.00  0.00    +0.018 C 
ATOM     31  C   UNL     1      -6.497  -1.054   1.306  0.00  0.00    +0.125 C 
ATOM     32  C   UNL     1      -6.826   1.197   1.628  0.00  0.00    +0.100 C 
ATOM     33  H   UNL     1      -7.220  -2.600   2.513  0.00  0.00    +0.144 HD
ATOM     34  H   UNL     1      -6.303  -3.132   1.177  0.00  0.00    +0.144 HD
ENDBRANCH  25  28
ENDBRANCH   1  25
TORSDOF 5
