REMARK  Name = 68792
REMARK  5 active torsions:
REMARK  status: ('A' for Active; 'I' for Inactive)
REMARK    1  A    between atoms: C_1  and  C_4
REMARK    2  A    between atoms: C_1  and  O_11
REMARK    3  A    between atoms: C_5  and  N_10
REMARK    4  A    between atoms: O_11  and  C_12
REMARK    5  A    between atoms: C_15  and  S_18
REMARK                            x       y       z     vdW  Elec       q    Type
REMARK                         _______ _______ _______ _____ _____    ______ ____
ROOT
ATOM      1  C   UNL     1      -0.288  -0.309  -0.077  0.00  0.00    +0.266 C 
ENDROOT
BRANCH   1   4
ATOM      2  N   UNL     1      -2.762  -0.599  -0.038  0.00  0.00    -0.251 N 
ATOM      3  N   UNL     1      -2.003   1.481   0.141  0.00  0.00    -0.226 NA
ATOM      4  C   UNL     1      -1.684   0.224   0.012  0.00  0.00    +0.158 C 
ATOM      5  C   UNL     1      -3.869   0.195   0.067  0.00  0.00    +0.218 C 
ATOM      6  C   UNL     1      -2.746  -2.038  -0.179  0.00  0.00    +0.120 C 
ATOM      7  C   UNL     1      -3.375   1.474   0.177  0.00  0.00    +0.140 C 
BRANCH   5  10
ATOM      8  O   UNL     1      -6.147   0.514   0.154  0.00  0.00    -0.125 OA
ATOM      9  O   UNL     1      -5.381  -1.536  -0.062  0.00  0.00    -0.125 OA
ATOM     10  N   UNL     1      -5.180  -0.293   0.053  0.00  0.00    +0.074 N 
ENDBRANCH   5  10
ENDBRANCH   1   4
BRANCH   1  11
ATOM     11  O   UNL     1       0.593   0.810   0.006  0.00  0.00    -0.468 OA
BRANCH  11  12
ATOM     12  C   UNL     1       1.927   0.556  -0.076  0.00  0.00    +0.139 C 
ATOM     13  C   UNL     1       2.379  -0.754  -0.234  0.00  0.00    +0.037 C 
ATOM     14  C   UNL     1       2.843   1.605  -0.003  0.00  0.00    +0.037 C 
ATOM     15  C   UNL     1       4.662   0.035  -0.246  0.00  0.00    +0.025 C 
ATOM     16  C   UNL     1       3.747  -1.015  -0.319  0.00  0.00    +0.009 C 
ATOM     17  C   UNL     1       4.211   1.345  -0.088  0.00  0.00    +0.009 C 
BRANCH  15  18
ATOM     18  S   UNL     1       6.410  -0.298  -0.354  0.00  0.00    -0.113 S 
ATOM     19  C   UNL     1       6.665  -1.398   1.068  0.00  0.00    +0.074 C 
ENDBRANCH  15  18
ENDBRANCH  11  12
ENDBRANCH   1  11
TORSDOF 5
