REMARK  Name = 14670
REMARK  4 active torsions:
REMARK  status: ('A' for Active; 'I' for Inactive)
REMARK    1  A    between atoms: N_2  and  C_15
REMARK    2  A    between atoms: C_15  and  C_16
REMARK    3  A    between atoms: C_16  and  C_17
REMARK    4  A    between atoms: C_17  and  N_18
REMARK                            x       y       z     vdW  Elec       q    Type
REMARK                         _______ _______ _______ _____ _____    ______ ____
ROOT
ATOM      1  S   UNL     1      -2.975  -1.391  -0.228  0.00  0.00    -0.083 S 
ATOM      2  N   UNL     1      -0.262   0.141  -0.346  0.00  0.00    -0.272 N 
ATOM      3  N   UNL     1       1.050  -1.863  -0.069  0.00  0.00    -0.228 NA
ATOM      4  C   UNL     1      -1.417   0.940  -0.165  0.00  0.00    +0.059 C 
ATOM      5  C   UNL     1      -0.174  -1.268  -0.166  0.00  0.00    +0.141 C 
ATOM      6  C   UNL     1      -2.699   0.361  -0.084  0.00  0.00    +0.043 C 
ATOM      7  C   UNL     1      -1.334  -2.047  -0.075  0.00  0.00    +0.061 C 
ATOM      8  C   UNL     1      -1.344   2.345  -0.033  0.00  0.00    +0.015 C 
ATOM      9  C   UNL     1      -3.842   1.162   0.097  0.00  0.00    +0.008 C 
ATOM     10  C   UNL     1      -1.214  -3.432   0.115  0.00  0.00    +0.011 C 
ATOM     11  C   UNL     1      -2.482   3.135   0.151  0.00  0.00    +0.001 C 
ATOM     12  C   UNL     1      -3.734   2.543   0.213  0.00  0.00    +0.001 C 
ATOM     13  C   UNL     1       0.034  -4.024   0.216  0.00  0.00    +0.021 C 
ATOM     14  C   UNL     1       1.130  -3.199   0.117  0.00  0.00    +0.100 C 
ENDROOT
BRANCH   2  15
ATOM     15  C   UNL     1       1.016   0.818  -0.605  0.00  0.00    +0.095 C 
BRANCH  15  16
ATOM     16  C   UNL     1       1.712   1.153   0.715  0.00  0.00    -0.001 C 
BRANCH  16  17
ATOM     17  C   UNL     1       3.046   1.877   0.519  0.00  0.00    -0.076 C 
BRANCH  17  18
ATOM     18  N   UNL     1       3.985   1.088  -0.268  0.00  0.00    +0.384 N 
ATOM     19  C   UNL     1       4.284  -0.179   0.403  0.00  0.00    -0.101 C 
ATOM     20  C   UNL     1       5.219   1.839  -0.505  0.00  0.00    -0.101 C 
ATOM     21  H   UNL     1       3.552   0.883  -1.169  0.00  0.00    -0.080 HD
ENDBRANCH  17  18
ENDBRANCH  16  17
ENDBRANCH  15  16
ENDBRANCH   2  15
TORSDOF 4
