REMARK  Name = 46700756
REMARK  8 active torsions:
REMARK  status: ('A' for Active; 'I' for Inactive)
REMARK    1  A    between atoms: C_1  and  C_12
REMARK    2  A    between atoms: C_2  and  O_25
REMARK    3  A    between atoms: C_3  and  O_23
REMARK    4  A    between atoms: C_18  and  C_22
REMARK    5  A    between atoms: O_25  and  C_26
REMARK    6  A    between atoms: C_26  and  C_27
REMARK    7  A    between atoms: C_27  and  C_28
REMARK    8  A    between atoms: C_28  and  N_29
REMARK                            x       y       z     vdW  Elec       q    Type
REMARK                         _______ _______ _______ _____ _____    ______ ____
ROOT
ATOM      1  C   UNL     1       2.848  -0.897  -0.089  0.00  0.00    +0.083 C 
ATOM      2  C   UNL     1       3.660   0.170  -0.477  0.00  0.00    +0.143 C 
ATOM      3  C   UNL     1       3.425  -2.105   0.302  0.00  0.00    +0.143 C 
ATOM      4  C   UNL     1       5.048   0.028  -0.473  0.00  0.00    +0.037 C 
ATOM      5  C   UNL     1       4.812  -2.247   0.306  0.00  0.00    +0.037 C 
ATOM      6  C   UNL     1       5.624  -1.181  -0.082  0.00  0.00    +0.006 C 
ENDROOT
BRANCH   1  12
ATOM      7  N   UNL     1       0.697  -0.455  -1.219  0.00  0.00    -0.235 N 
ATOM      8  N   UNL     1      -0.628  -0.362  -1.015  0.00  0.00    -0.166 NA
ATOM      9  N   UNL     1      -1.915  -0.632   0.992  0.00  0.00    -0.284 N 
ATOM     10  N   UNL     1      -4.249  -0.520   1.601  0.00  0.00    -0.251 NA
ATOM     11  N   UNL     1      -4.882   0.076  -1.066  0.00  0.00    -0.255 NA
ATOM     12  C   UNL     1       1.409  -0.749  -0.093  0.00  0.00    +0.074 C 
ATOM     13  C   UNL     1       0.485  -0.856   0.917  0.00  0.00    +0.052 C 
ATOM     14  C   UNL     1      -0.752  -0.608   0.292  0.00  0.00    +0.152 C 
ATOM     15  C   UNL     1      -3.302  -0.424   0.647  0.00  0.00    +0.130 C 
ATOM     16  C   UNL     1      -3.613  -0.132  -0.663  0.00  0.00    +0.186 C 
ATOM     17  C   UNL     1      -5.518  -0.312   1.198  0.00  0.00    +0.182 C 
ATOM     18  C   UNL     1      -5.829  -0.019  -0.112  0.00  0.00    +0.147 C 
ATOM     19  H   UNL     1       1.116  -0.322  -2.100  0.00  0.00    +0.174 HD
ATOM     20  H   UNL     1      -1.783  -0.836   1.946  0.00  0.00    +0.155 HD
BRANCH  18  22
ATOM     21  N   UNL     1      -8.258   0.380  -0.899  0.00  0.00    -0.190 NA
ATOM     22  C   UNL     1      -7.167   0.200  -0.546  0.00  0.00    +0.117 C 
ENDBRANCH  18  22
ENDBRANCH   1  12
BRANCH   3  23
ATOM     23  O   UNL     1       2.657  -3.166   0.686  0.00  0.00    -0.471 OA
ATOM     24  C   UNL     1       2.256  -4.076  -0.335  0.00  0.00    +0.252 C 
ENDBRANCH   3  23
BRANCH   2  25
ATOM     25  O   UNL     1       3.123   1.369  -0.867  0.00  0.00    -0.475 OA
BRANCH  25  26
ATOM     26  C   UNL     1       3.488   2.512  -0.106  0.00  0.00    +0.203 C 
BRANCH  26  27
ATOM     27  C   UNL     1       2.350   3.523  -0.158  0.00  0.00    +0.023 C 
BRANCH  27  28
ATOM     28  C   UNL     1       2.673   4.772   0.655  0.00  0.00    -0.082 C 
BRANCH  28  29
ATOM     29  N   UNL     1       1.559   5.711   0.604  0.00  0.00    +0.381 N 
ATOM     30  H   UNL     1       1.789   6.541   1.151  0.00  0.00    -0.089 HD
ATOM     31  H   UNL     1       0.724   5.270   0.990  0.00  0.00    -0.089 HD
ATOM     32  H   UNL     1       1.385   5.980  -0.364  0.00  0.00    -0.089 HD
ENDBRANCH  28  29
ENDBRANCH  27  28
ENDBRANCH  26  27
ENDBRANCH  25  26
ENDBRANCH   2  25
TORSDOF 8
