REMARK  Name = 50312
REMARK  4 active torsions:
REMARK  status: ('A' for Active; 'I' for Inactive)
REMARK    1  A    between atoms: N_3  and  C_16
REMARK    2  A    between atoms: C_14  and  O_18
REMARK    3  A    between atoms: C_17  and  C_20
REMARK    4  A    between atoms: C_20  and  O_21
REMARK                            x       y       z     vdW  Elec       q    Type
REMARK                         _______ _______ _______ _____ _____    ______ ____
ROOT
ATOM      1  I   UNL     1      -2.825  -3.020   0.416  0.00  0.00    -0.037 I 
ATOM      2  O   UNL     1      -1.149   2.751  -0.536  0.00  0.00    -0.193 OA
ATOM      3  N   UNL     1      -0.522   0.546  -0.278  0.00  0.00    -0.177 N 
ATOM      4  N   UNL     1      -2.823   1.261  -0.189  0.00  0.00    -0.306 NA
ATOM      5  N   UNL     1      -4.560  -0.218   0.162  0.00  0.00    -0.332 N 
ATOM      6  C   UNL     1      -0.944  -0.758  -0.059  0.00  0.00    +0.089 C 
ATOM      7  C   UNL     1      -1.488   1.581  -0.344  0.00  0.00    +0.276 C 
ATOM      8  C   UNL     1      -2.226  -1.099   0.095  0.00  0.00    +0.090 C 
ATOM      9  C   UNL     1      -3.212   0.027   0.018  0.00  0.00    +0.198 C 
ATOM     10  H   UNL     1      -5.204   0.525   0.111  0.00  0.00    +0.145 HD
ATOM     11  H   UNL     1      -4.879  -1.136   0.318  0.00  0.00    +0.145 HD
ENDROOT
BRANCH   3  16
ATOM     12  F   UNL     1       1.071   0.259   1.837  0.00  0.00    -0.230 F 
ATOM     13  O   UNL     1       1.524  -0.256  -1.088  0.00  0.00    -0.332 OA
ATOM     14  C   UNL     1       2.996   0.608   0.572  0.00  0.00    +0.177 C 
ATOM     15  C   UNL     1       1.593   1.070   0.878  0.00  0.00    +0.237 C 
ATOM     16  C   UNL     1       0.870   0.842  -0.436  0.00  0.00    +0.242 C 
ATOM     17  C   UNL     1       2.783  -0.516  -0.437  0.00  0.00    +0.176 C 
BRANCH  14  18
ATOM     18  O   UNL     1       3.735   1.671  -0.021  0.00  0.00    -0.379 OA
ATOM     19  H   UNL     1       3.864   2.378   0.630  0.00  0.00    +0.211 HD
ENDBRANCH  14  18
BRANCH  17  20
ATOM     20  C   UNL     1       2.693  -1.891   0.211  0.00  0.00    +0.169 C 
BRANCH  20  21
ATOM     21  O   UNL     1       2.484  -2.858  -0.803  0.00  0.00    -0.379 OA
ATOM     22  H   UNL     1       2.425  -3.739  -0.402  0.00  0.00    +0.211 HD
ENDBRANCH  20  21
ENDBRANCH  17  20
ENDBRANCH   3  16
TORSDOF 4
