REMARK  Name = 46866319
REMARK  3 active torsions:
REMARK  status: ('A' for Active; 'I' for Inactive)
REMARK    1  A    between atoms: C_6  and  C_17
REMARK    2  A    between atoms: N_21  and  C_23
REMARK    3  A    between atoms: C_23  and  C_26
REMARK                            x       y       z     vdW  Elec       q    Type
REMARK                         _______ _______ _______ _____ _____    ______ ____
ROOT
ATOM      1  N   UNL     1      -0.024  -0.269   0.649  0.00  0.00    -0.376 NA
ATOM      2  N   UNL     1       0.168  -2.478  -0.222  0.00  0.00    -0.279 N 
ATOM      3  N   UNL     1      -2.091  -2.204   0.475  0.00  0.00    -0.252 NA
ATOM      4  N   UNL     1      -2.611  -4.827  -0.369  0.00  0.00    -0.264 NA
ATOM      5  C   UNL     1       0.580   0.909   0.925  0.00  0.00    +0.181 C 
ATOM      6  C   UNL     1       2.682   0.164   0.100  0.00  0.00    -0.007 C 
ATOM      7  C   UNL     1       1.916   1.173   0.672  0.00  0.00    +0.044 C 
ATOM      8  C   UNL     1       2.096  -1.061  -0.199  0.00  0.00    +0.101 C 
ATOM      9  C   UNL     1       0.752  -1.226   0.093  0.00  0.00    +0.167 C 
ATOM     10  C   UNL     1      -1.133  -2.981  -0.068  0.00  0.00    +0.131 C 
ATOM     11  C   UNL     1      -1.389  -4.270  -0.483  0.00  0.00    +0.186 C 
ATOM     12  C   UNL     1      -3.313  -2.761   0.588  0.00  0.00    +0.173 C 
ATOM     13  C   UNL     1      -3.568  -4.049   0.174  0.00  0.00    +0.094 C 
ATOM     14  H   UNL     1       0.796  -3.118  -0.627  0.00  0.00    +0.155 HD
ATOM     15  N   UNL     1      -0.167   1.918   1.496  0.00  0.00    -0.306 N 
ATOM     16  H   UNL     1       0.278   2.773   1.697  0.00  0.00    +0.149 HD
ENDROOT
BRANCH   6  19
ATOM     17  N   UNL     1       6.204   0.018  -0.485  0.00  0.00    -0.208 N 
ATOM     18  N   UNL     1       6.082   1.339  -0.701  0.00  0.00    -0.176 NA
ATOM     19  C   UNL     1       4.072   0.386  -0.182  0.00  0.00    +0.034 C 
ATOM     20  C   UNL     1       5.029  -0.599  -0.171  0.00  0.00    +0.085 C 
ATOM     21  C   UNL     1       4.778   1.558  -0.514  0.00  0.00    +0.119 C 
ATOM     22  C   UNL     1       7.499  -0.610  -0.595  0.00  0.00    +0.140 C 
ENDBRANCH   6  19
BRANCH  15  23
ATOM     23  C   UNL     1      -1.581   1.782   1.817  0.00  0.00    +0.094 C 
ATOM     24  C   UNL     1      -1.919   2.751   2.960  0.00  0.00    +0.026 C 
BRANCH  23  26
ATOM     25  F   UNL     1      -4.766   2.484  -2.760  0.00  0.00    -0.204 F 
ATOM     26  C   UNL     1      -2.426   1.968   0.602  0.00  0.00    -0.004 C 
ATOM     27  C   UNL     1      -3.622   1.263   0.470  0.00  0.00    -0.000 C 
ATOM     28  C   UNL     1      -2.020   2.847  -0.402  0.00  0.00    -0.000 C 
ATOM     29  C   UNL     1      -4.413   1.437  -0.665  0.00  0.00    +0.029 C 
ATOM     30  C   UNL     1      -2.811   3.021  -1.538  0.00  0.00    +0.029 C 
ATOM     31  C   UNL     1      -4.007   2.316  -1.669  0.00  0.00    +0.140 C 
ENDBRANCH  23  26
ENDBRANCH  15  23
TORSDOF 3
