1329
  -OEChem-10051722553D

 46 48  0     0  0  0  0  0  0999 V2000
    1.8545   -2.7937    0.0104 O   0  0  0  0  0  0  0  0  0  0  0  0
    3.0633    1.6840    0.7413 O   0  0  0  0  0  0  0  0  0  0  0  0
   -0.9568   -1.7948   -0.0657 N   0  0  0  0  0  0  0  0  0  0  0  0
   -1.4938    0.3526    0.1988 N   0  0  0  0  0  0  0  0  0  0  0  0
    0.8048    1.1803    0.4953 N   0  0  0  0  0  0  0  0  0  0  0  0
    2.4881   -0.5572    0.3779 N   0  0  0  0  0  0  0  0  0  0  0  0
   -3.4123   -1.2578   -0.1785 C   0  0  0  0  0  0  0  0  0  0  0  0
   -4.1032   -0.5850   -1.3804 C   0  0  0  0  0  0  0  0  0  0  0  0
   -4.2714   -0.9128    1.0497 C   0  0  0  0  0  0  0  0  0  0  0  0
   -5.2314    0.2540   -0.7905 C   0  0  0  0  0  0  0  0  0  0  0  0
   -5.6161   -0.4947    0.4735 C   0  0  0  0  0  0  0  0  0  0  0  0
   -1.9595   -0.8615   -0.0100 C   0  0  0  0  0  0  0  0  0  0  0  0
    0.2195   -1.1269    0.1201 C   0  0  0  0  0  0  0  0  0  0  0  0
   -0.1376    0.1841    0.2797 C   0  0  0  0  0  0  0  0  0  0  0  0
    1.5616   -1.6105    0.1556 C   0  0  0  0  0  0  0  0  0  0  0  0
    0.3750    2.5634    0.6600 C   0  0  0  0  0  0  0  0  0  0  0  0
    2.1796    0.8402    0.5528 C   0  0  0  0  0  0  0  0  0  0  0  0
    3.8981   -0.9278    0.4351 C   0  0  0  0  0  0  0  0  0  0  0  0
    0.3281    3.2684   -0.6932 C   0  0  0  0  0  0  0  0  0  0  0  0
    4.5203   -0.8612   -0.9573 C   0  0  0  0  0  0  0  0  0  0  0  0
   -0.0975    4.7213   -0.5463 C   0  0  0  0  0  0  0  0  0  0  0  0
    5.9866   -1.2643   -0.9285 C   0  0  0  0  0  0  0  0  0  0  0  0
   -3.4561   -2.3446   -0.3354 H   0  0  0  0  0  0  0  0  0  0  0  0
   -4.5288   -1.3583   -2.0321 H   0  0  0  0  0  0  0  0  0  0  0  0
   -3.4297    0.0231   -1.9932 H   0  0  0  0  0  0  0  0  0  0  0  0
   -3.8406   -0.0804    1.6199 H   0  0  0  0  0  0  0  0  0  0  0  0
   -4.3672   -1.7628    1.7333 H   0  0  0  0  0  0  0  0  0  0  0  0
   -6.0710    0.3652   -1.4825 H   0  0  0  0  0  0  0  0  0  0  0  0
   -4.8609    1.2548   -0.5384 H   0  0  0  0  0  0  0  0  0  0  0  0
   -6.1903    0.1256    1.1674 H   0  0  0  0  0  0  0  0  0  0  0  0
   -6.2145   -1.3793    0.2254 H   0  0  0  0  0  0  0  0  0  0  0  0
   -1.0668   -2.7892   -0.2158 H   0  0  0  0  0  0  0  0  0  0  0  0
   -0.6019    2.5909    1.1567 H   0  0  0  0  0  0  0  0  0  0  0  0
    1.0849    3.0778    1.3185 H   0  0  0  0  0  0  0  0  0  0  0  0
    4.4312   -0.2575    1.1188 H   0  0  0  0  0  0  0  0  0  0  0  0
    3.9937   -1.9425    0.8390 H   0  0  0  0  0  0  0  0  0  0  0  0
    1.3126    3.2276   -1.1744 H   0  0  0  0  0  0  0  0  0  0  0  0
   -0.3715    2.7541   -1.3629 H   0  0  0  0  0  0  0  0  0  0  0  0
    3.9792   -1.5217   -1.6452 H   0  0  0  0  0  0  0  0  0  0  0  0
    4.4326    0.1541   -1.3620 H   0  0  0  0  0  0  0  0  0  0  0  0
   -1.0948    4.7941   -0.1009 H   0  0  0  0  0  0  0  0  0  0  0  0
    0.6039    5.2731    0.0874 H   0  0  0  0  0  0  0  0  0  0  0  0
   -0.1263    5.2085   -1.5259 H   0  0  0  0  0  0  0  0  0  0  0  0
    6.5632   -0.5996   -0.2773 H   0  0  0  0  0  0  0  0  0  0  0  0
    6.1043   -2.2901   -0.5647 H   0  0  0  0  0  0  0  0  0  0  0  0
    6.4144   -1.2094   -1.9343 H   0  0  0  0  0  0  0  0  0  0  0  0
  1 15  2  0  0  0  0
  2 17  2  0  0  0  0
  3 12  1  0  0  0  0
  3 13  1  0  0  0  0
  3 32  1  0  0  0  0
  4 12  2  0  0  0  0
  4 14  1  0  0  0  0
  5 14  1  0  0  0  0
  5 16  1  0  0  0  0
  5 17  1  0  0  0  0
  6 15  1  0  0  0  0
  6 17  1  0  0  0  0
  6 18  1  0  0  0  0
  7  8  1  0  0  0  0
  7  9  1  0  0  0  0
  7 12  1  0  0  0  0
  7 23  1  0  0  0  0
  8 10  1  0  0  0  0
  8 24  1  0  0  0  0
  8 25  1  0  0  0  0
  9 11  1  0  0  0  0
  9 26  1  0  0  0  0
  9 27  1  0  0  0  0
 10 11  1  0  0  0  0
 10 28  1  0  0  0  0
 10 29  1  0  0  0  0
 11 30  1  0  0  0  0
 11 31  1  0  0  0  0
 13 14  2  0  0  0  0
 13 15  1  0  0  0  0
 16 19  1  0  0  0  0
 16 33  1  0  0  0  0
 16 34  1  0  0  0  0
 18 20  1  0  0  0  0
 18 35  1  0  0  0  0
 18 36  1  0  0  0  0
 19 21  1  0  0  0  0
 19 37  1  0  0  0  0
 19 38  1  0  0  0  0
 20 22  1  0  0  0  0
 20 39  1  0  0  0  0
 20 40  1  0  0  0  0
 21 41  1  0  0  0  0
 21 42  1  0  0  0  0
 21 43  1  0  0  0  0
 22 44  1  0  0  0  0
 22 45  1  0  0  0  0
 22 46  1  0  0  0  0
M  END
> <DATABASE_ID>
DB12946

> <DATABASE_NAME>
drugbank

> <ORIGINAL_SOURCE>
PUBCHEM

> <ORIGINAL_SOURCE_URL>
https://pubchem.ncbi.nlm.nih.gov/rest/pug/compound/inchikey/FFBDFADSZUINTG-UHFFFAOYSA-N/SDF?record_type=3d

> <SMILES>
CCCN1C2=C(N=C(N2)C2CCCC2)C(=O)N(CCC)C1=O

> <INCHI_IDENTIFIER>
InChI=1S/C16H24N4O2/c1-3-9-19-14-12(15(21)20(10-4-2)16(19)22)17-13(18-14)11-7-5-6-8-11/h11H,3-10H2,1-2H3,(H,17,18)

> <INCHI_KEY>
FFBDFADSZUINTG-UHFFFAOYSA-N

> <FORMULA>
C16H24N4O2

> <MOLECULAR_WEIGHT>
304.394

> <EXACT_MASS>
304.189926029

> <JCHEM_ACCEPTOR_COUNT>
3

> <JCHEM_ATOM_COUNT>
46

> <JCHEM_AVERAGE_POLARIZABILITY>
34.818478108637784

> <JCHEM_BIOAVAILABILITY>
1

> <JCHEM_DONOR_COUNT>
1

> <JCHEM_FORMAL_CHARGE>
0

> <JCHEM_GHOSE_FILTER>
1

> <JCHEM_IUPAC>
8-cyclopentyl-1,3-dipropyl-2,3,6,9-tetrahydro-1H-purine-2,6-dione

> <ALOGPS_LOGP>
3.39

> <JCHEM_LOGP>
2.742020006

> <ALOGPS_LOGS>
-2.71

> <JCHEM_MDDR_LIKE_RULE>
0

> <JCHEM_NUMBER_OF_RINGS>
3

> <JCHEM_PHYSIOLOGICAL_CHARGE>
0

> <JCHEM_PKA_STRONGEST_ACIDIC>
11.574744125541162

> <JCHEM_PKA_STRONGEST_BASIC>
2.6160436338821444

> <JCHEM_POLAR_SURFACE_AREA>
69.30000000000001

> <JCHEM_REFRACTIVITY>
83.2119

> <JCHEM_ROTATABLE_BOND_COUNT>
5

> <JCHEM_RULE_OF_FIVE>
1

> <ALOGPS_SOLUBILITY>
5.94e-01 g/l

> <JCHEM_TRADITIONAL_IUPAC>
dipropylcyclopentylxanthine

> <JCHEM_VEBER_RULE>
0

> <DRUGBANK_ID>
DB12946

> <DRUG_GROUPS>
investigational

> <GENERIC_NAME>
8-cyclopentyl-1,3-dipropylxanthine

> <SYNONYMS>
CPX

$$$$
