REMARK  Name = 3081185
REMARK  4 active torsions:
REMARK  status: ('A' for Active; 'I' for Inactive)
REMARK    1  A    between atoms: N_1  and  N_2
REMARK    2  A    between atoms: N_1  and  C_14
REMARK    3  A    between atoms: N_1  and  C_19
REMARK    4  A    between atoms: C_19  and  C_20
REMARK                            x       y       z     vdW  Elec       q    Type
REMARK                         _______ _______ _______ _____ _____    ______ ____
ROOT
ATOM      1  N   UNL     1      -0.797  -0.660   0.247  0.00  0.00    -0.232 N 
ENDROOT
BRANCH   1   2
ATOM      2  N   UNL     1       0.495  -0.500  -0.210  0.00  0.00    -0.215 N 
ATOM      3  C   UNL     1       1.522   0.096   0.487  0.00  0.00    +0.070 C 
ATOM      4  C   UNL     1       2.654   0.052  -0.330  0.00  0.00    +0.013 C 
ATOM      5  C   UNL     1       2.270  -0.589  -1.541  0.00  0.00    -0.004 C 
ATOM      6  C   UNL     1       0.938  -0.917  -1.437  0.00  0.00    +0.081 C 
ATOM      7  C   UNL     1       1.536   0.663   1.766  0.00  0.00    +0.016 C 
ATOM      8  C   UNL     1       3.859   0.601   0.150  0.00  0.00    +0.001 C 
ATOM      9  C   UNL     1       3.137  -0.860  -2.706  0.00  0.00    +0.032 C 
ATOM     10  C   UNL     1       2.743   1.202   2.222  0.00  0.00    +0.001 C 
ATOM     11  C   UNL     1       3.888   1.173   1.428  0.00  0.00    +0.000 C 
ENDBRANCH   1   2
BRANCH   1  14
ATOM     12  F   UNL     1      -0.398   1.749  -1.123  0.00  0.00    -0.201 F 
ATOM     13  N   UNL     1      -3.909   2.114  -0.301  0.00  0.00    -0.240 NA
ATOM     14  C   UNL     1      -1.845   0.275   0.062  0.00  0.00    +0.096 C 
ATOM     15  C   UNL     1      -1.605   1.458  -0.623  0.00  0.00    +0.174 C 
ATOM     16  C   UNL     1      -3.108   0.005   0.567  0.00  0.00    +0.039 C 
ATOM     17  C   UNL     1      -2.664   2.338  -0.777  0.00  0.00    +0.130 C 
ATOM     18  C   UNL     1      -4.099   0.951   0.360  0.00  0.00    +0.100 C 
ENDBRANCH   1  14
BRANCH   1  19
ATOM     19  C   UNL     1      -1.046  -1.909   0.971  0.00  0.00    +0.113 C 
BRANCH  19  20
ATOM     20  C   UNL     1      -1.666  -2.953   0.047  0.00  0.00    +0.023 C 
ATOM     21  C   UNL     1      -1.904  -4.288   0.741  0.00  0.00    +0.002 C 
ENDBRANCH  19  20
ENDBRANCH   1  19
TORSDOF 4
