REMARK  Name = 71605071
REMARK  7 active torsions:
REMARK  status: ('A' for Active; 'I' for Inactive)
REMARK    1  A    between atoms: N_1  and  C_13
REMARK    2  A    between atoms: C_15  and  C_18
REMARK    3  A    between atoms: C_18  and  O_19
REMARK    4  A    between atoms: O_19  and  C_21
REMARK    5  A    between atoms: C_21  and  C_22
REMARK    6  A    between atoms: C_22  and  O_23
REMARK    7  A    between atoms: N_25  and  C_27
REMARK                            x       y       z     vdW  Elec       q    Type
REMARK                         _______ _______ _______ _____ _____    ______ ____
ROOT
ATOM      1  N   UNL     1       0.790  -1.974  -0.128  0.00  0.00    -0.262 N 
ATOM      2  N   UNL     1       2.991  -2.177  -0.413  0.00  0.00    -0.240 NA
ATOM      3  N   UNL     1       2.875   1.403   0.509  0.00  0.00    -0.312 NA
ATOM      4  N   UNL     1       0.663   0.373   0.482  0.00  0.00    -0.311 NA
ATOM      5  N   UNL     1       0.949   2.631   1.026  0.00  0.00    -0.283 N 
ATOM      6  C   UNL     1       3.472   0.240   0.151  0.00  0.00    +0.215 C 
ATOM      7  C   UNL     1       1.319  -0.742   0.129  0.00  0.00    +0.220 C 
ATOM      8  C   UNL     1       2.685  -0.889  -0.053  0.00  0.00    +0.167 C 
ATOM      9  C   UNL     1       1.833  -2.802  -0.449  0.00  0.00    +0.222 C 
ATOM     10  C   UNL     1       1.528   1.397   0.651  0.00  0.00    +0.199 C 
ATOM     11  H   UNL     1       1.520   3.420   1.166  0.00  0.00    +0.156 HD
ATOM     12  H   UNL     1      -0.026   2.701   1.147  0.00  0.00    +0.156 HD
ATOM     13  N   UNL     1       4.867   0.183  -0.011  0.00  0.00    -0.308 N 
ATOM     14  H   UNL     1       5.266  -0.679  -0.272  0.00  0.00    +0.149 HD
ENDROOT
BRANCH   1  15
ATOM     15  C   UNL     1      -0.670  -2.364  -0.071  0.00  0.00    +0.077 C 
ATOM     16  C   UNL     1      -1.559  -1.536  -1.019  0.00  0.00    +0.024 C 
ATOM     17  C   UNL     1      -2.904  -1.365  -0.294  0.00  0.00    +0.046 C 
ATOM     18  C   UNL     1      -1.321  -2.141   1.262  0.00  0.00    +0.020 C 
ATOM     19  C   UNL     1      -2.535  -1.594   1.139  0.00  0.00    +0.005 C 
BRANCH  17  20
ATOM     20  C   UNL     1      -3.520   0.005  -0.538  0.00  0.00    +0.208 C 
BRANCH  20  21
ATOM     21  O   UNL     1      -4.886  -0.037  -0.164  0.00  0.00    -0.447 OA
BRANCH  21  23
ATOM     22  O   UNL     1      -5.136   2.180  -0.755  0.00  0.00    -0.247 OA
ATOM     23  C   UNL     1      -5.590   1.129  -0.324  0.00  0.00    +0.347 C 
BRANCH  23  24
ATOM     24  C   UNL     1      -7.016   0.920   0.115  0.00  0.00    +0.248 C 
BRANCH  24  25
ATOM     25  O   UNL     1      -7.722   2.135  -0.034  0.00  0.00    -0.372 OA
ATOM     26  H   UNL     1      -8.642   2.011   0.246  0.00  0.00    +0.211 HD
ENDBRANCH  24  25
ENDBRANCH  23  24
ENDBRANCH  21  23
ENDBRANCH  20  21
ENDBRANCH  17  20
ENDBRANCH   1  15
BRANCH  13  27
ATOM     27  C   UNL     1       5.763   1.322   0.183  0.00  0.00    +0.071 C 
ATOM     28  C   UNL     1       6.018   2.321  -0.910  0.00  0.00    +0.021 C 
ATOM     29  C   UNL     1       7.108   1.383  -0.485  0.00  0.00    +0.021 C 
ENDBRANCH  13  27
TORSDOF 7
