REMARK  Name = 9417
REMARK  7 active torsions:
REMARK  status: ('A' for Active; 'I' for Inactive)
REMARK    1  A    between atoms: N_1  and  C_16
REMARK    2  A    between atoms: C_16  and  C_17
REMARK    3  A    between atoms: C_17  and  C_18
REMARK    4  A    between atoms: C_18  and  N_19
REMARK    5  A    between atoms: N_20  and  C_27
REMARK    6  A    between atoms: C_27  and  C_28
REMARK    7  A    between atoms: C_28  and  O_29
REMARK                            x       y       z     vdW  Elec       q    Type
REMARK                         _______ _______ _______ _____ _____    ______ ____
ROOT
ATOM      1  N   UNL     1      -1.703  -0.059  -0.721  0.00  0.00    -0.287 N 
ATOM      2  C   UNL     1      -2.938  -0.563  -0.239  0.00  0.00    +0.052 C 
ATOM      3  C   UNL     1      -1.271   1.289  -0.640  0.00  0.00    +0.052 C 
ATOM      4  C   UNL     1      -3.441  -0.244   1.039  0.00  0.00    +0.014 C 
ATOM      5  C   UNL     1      -1.376   2.049   0.543  0.00  0.00    +0.014 C 
ATOM      6  C   UNL     1      -3.732  -1.399  -1.060  0.00  0.00    +0.015 C 
ATOM      7  C   UNL     1      -0.733   1.932  -1.780  0.00  0.00    +0.015 C 
ATOM      8  C   UNL     1      -2.697   0.523   2.044  0.00  0.00    +0.001 C 
ATOM      9  C   UNL     1      -1.814   1.504   1.832  0.00  0.00    +0.001 C 
ATOM     10  C   UNL     1      -4.683  -0.766   1.455  0.00  0.00    +0.001 C 
ATOM     11  C   UNL     1      -0.940   3.391   0.556  0.00  0.00    +0.001 C 
ATOM     12  C   UNL     1      -4.965  -1.900  -0.639  0.00  0.00    +0.001 C 
ATOM     13  C   UNL     1      -0.316   3.264  -1.756  0.00  0.00    +0.001 C 
ATOM     14  C   UNL     1      -5.443  -1.582   0.622  0.00  0.00    +0.000 C 
ATOM     15  C   UNL     1      -0.420   3.995  -0.585  0.00  0.00    +0.000 C 
ENDROOT
BRANCH   1  16
ATOM     16  C   UNL     1      -0.950  -0.934  -1.630  0.00  0.00    +0.093 C 
BRANCH  16  17
ATOM     17  C   UNL     1      -0.533  -2.221  -0.920  0.00  0.00    -0.001 C 
BRANCH  17  18
ATOM     18  C   UNL     1       0.315  -2.009   0.339  0.00  0.00    -0.076 C 
BRANCH  18  19
ATOM     19  N   UNL     1       1.539  -1.263   0.054  0.00  0.00    +0.384 N 
ATOM     20  N   UNL     1       4.413  -0.954   0.007  0.00  0.00    +0.386 N 
ATOM     21  C   UNL     1       2.367  -1.976  -0.927  0.00  0.00    -0.101 C 
ATOM     22  C   UNL     1       2.299  -1.019   1.285  0.00  0.00    -0.101 C 
ATOM     23  C   UNL     1       3.652  -1.196  -1.225  0.00  0.00    -0.101 C 
ATOM     24  C   UNL     1       3.586  -0.241   0.988  0.00  0.00    -0.101 C 
ATOM     25  H   UNL     1       1.273  -0.362  -0.344  0.00  0.00    -0.080 HD
ATOM     26  H   UNL     1       4.677  -1.855   0.404  0.00  0.00    -0.080 HD
BRANCH  20  27
ATOM     27  C   UNL     1       5.639  -0.210  -0.277  0.00  0.00    -0.045 C 
BRANCH  27  28
ATOM     28  C   UNL     1       6.480  -0.061   0.981  0.00  0.00    +0.115 C 
BRANCH  28  29
ATOM     29  O   UNL     1       7.666   0.652   0.655  0.00  0.00    -0.384 OA
ATOM     30  H   UNL     1       8.211   0.753   1.451  0.00  0.00    +0.210 HD
ENDBRANCH  28  29
ENDBRANCH  27  28
ENDBRANCH  20  27
ENDBRANCH  18  19
ENDBRANCH  17  18
ENDBRANCH  16  17
ENDBRANCH   1  16
TORSDOF 7
