REMARK  Name = 24864553
REMARK  7 active torsions:
REMARK  status: ('A' for Active; 'I' for Inactive)
REMARK    1  A    between atoms: C_1  and  C_11
REMARK    2  A    between atoms: C_3  and  N_25
REMARK    3  A    between atoms: C_15  and  O_20
REMARK    4  A    between atoms: C_16  and  O_22
REMARK    5  A    between atoms: C_26  and  C_28
REMARK    6  A    between atoms: C_31  and  C_35
REMARK    7  A    between atoms: C_35  and  O_36
REMARK                            x       y       z     vdW  Elec       q    Type
REMARK                         _______ _______ _______ _____ _____    ______ ____
ROOT
ATOM      1  C   UNL     1       1.734   1.176  -1.238  0.00  0.00    +0.032 C 
ATOM      2  C   UNL     1       0.449   0.902  -0.770  0.00  0.00    +0.017 C 
ATOM      3  C   UNL     1      -0.631   0.906  -1.653  0.00  0.00    +0.051 C 
ATOM      4  C   UNL     1       1.940   1.453  -2.589  0.00  0.00    +0.003 C 
ATOM      5  C   UNL     1      -0.425   1.183  -3.004  0.00  0.00    +0.015 C 
ATOM      6  C   UNL     1       0.860   1.457  -3.473  0.00  0.00    +0.001 C 
ENDROOT
BRANCH   1  11
ATOM      7  N   UNL     1       3.084   2.377   0.230  0.00  0.00    -0.328 NA
ATOM      8  N   UNL     1       4.921   1.391   1.438  0.00  0.00    -0.332 NA
ATOM      9  N   UNL     1       4.392   3.663   1.688  0.00  0.00    -0.257 N 
ATOM     10  C   UNL     1       3.612   0.035  -0.045  0.00  0.00    +0.060 C 
ATOM     11  C   UNL     1       2.856   1.171  -0.321  0.00  0.00    +0.147 C 
ATOM     12  C   UNL     1       4.666   0.200   0.869  0.00  0.00    +0.133 C 
ATOM     13  C   UNL     1       3.354  -1.216  -0.633  0.00  0.00    +0.045 C 
ATOM     14  C   UNL     1       5.445  -0.915   1.170  0.00  0.00    +0.127 C 
ATOM     15  C   UNL     1       4.149  -2.312  -0.314  0.00  0.00    +0.169 C 
ATOM     16  C   UNL     1       5.195  -2.161   0.589  0.00  0.00    +0.157 C 
ATOM     17  C   UNL     1       4.117   2.415   1.087  0.00  0.00    +0.199 C 
ATOM     18  C   UNL     1       3.628   4.840   1.414  0.00  0.00    +0.121 C 
ATOM     19  H   UNL     1       5.142   3.725   2.322  0.00  0.00    +0.160 HD
BRANCH  15  20
ATOM     20  O   UNL     1       3.893  -3.520  -0.888  0.00  0.00    -0.469 OA
ATOM     21  C   UNL     1       2.800  -3.586  -1.802  0.00  0.00    +0.253 C 
ENDBRANCH  15  20
BRANCH  16  22
ATOM     22  O   UNL     1       5.986  -3.221   0.917  0.00  0.00    -0.472 OA
ATOM     23  C   UNL     1       5.578  -4.014   2.030  0.00  0.00    +0.252 C 
ENDBRANCH  16  22
ENDBRANCH   1  11
BRANCH   3  25
ATOM     24  O   UNL     1      -1.591   0.261   1.113  0.00  0.00    -0.270 OA
ATOM     25  N   UNL     1      -1.917   0.634  -1.185  0.00  0.00    -0.280 N 
ATOM     26  C   UNL     1      -2.313   0.337   0.125  0.00  0.00    +0.249 C 
ATOM     27  H   UNL     1      -2.634   0.654  -1.859  0.00  0.00    +0.155 HD
BRANCH  26  28
ATOM     28  C   UNL     1      -3.772   0.120   0.316  0.00  0.00    +0.054 C 
ATOM     29  C   UNL     1      -4.358   0.374   1.556  0.00  0.00    +0.005 C 
ATOM     30  C   UNL     1      -4.553  -0.338  -0.745  0.00  0.00    +0.005 C 
ATOM     31  C   UNL     1      -6.508  -0.289   0.675  0.00  0.00    +0.076 C 
ATOM     32  C   UNL     1      -5.726   0.169   1.735  0.00  0.00    +0.007 C 
ATOM     33  C   UNL     1      -5.921  -0.543  -0.565  0.00  0.00    +0.007 C 
BRANCH  31  35
ATOM     34  O   UNL     1      -8.538  -0.302   1.924  0.00  0.00    -0.245 OA
ATOM     35  C   UNL     1      -7.934  -0.501   0.862  0.00  0.00    +0.341 C 
BRANCH  35  36
ATOM     36  O   UNL     1      -8.531  -0.948  -0.286  0.00  0.00    -0.441 OA
ATOM     37  C   UNL     1      -9.940  -1.194  -0.229  0.00  0.00    +0.256 C 
ENDBRANCH  35  36
ENDBRANCH  31  35
ENDBRANCH  26  28
ENDBRANCH   3  25
TORSDOF 7
