REMARK  Name = 9838712
REMARK  5 active torsions:
REMARK  status: ('A' for Active; 'I' for Inactive)
REMARK    1  A    between atoms: C_1  and  C_4
REMARK    2  A    between atoms: C_1  and  C_15
REMARK    3  A    between atoms: C_3  and  C_9
REMARK    4  A    between atoms: C_9  and  C_10
REMARK    5  A    between atoms: N_14  and  S_17
REMARK                            x       y       z     vdW  Elec       q    Type
REMARK                         _______ _______ _______ _____ _____    ______ ____
ROOT
ATOM      1  C   UNL     1       1.255   1.839  -0.450  0.00  0.00    +0.100 C 
ATOM      2  C   UNL     1       1.451   3.253   0.098  0.00  0.00    +0.014 C 
ENDROOT
BRANCH   1   4
ATOM      3  C   UNL     1      -2.812   0.551  -0.090  0.00  0.00    -0.022 C 
ATOM      4  C   UNL     1      -0.185   1.382  -0.323  0.00  0.00    -0.014 C 
ATOM      5  C   UNL     1      -2.071   0.850   1.054  0.00  0.00    -0.005 C 
ATOM      6  C   UNL     1      -2.228   0.671  -1.351  0.00  0.00    -0.005 C 
ATOM      7  C   UNL     1      -0.746   1.269   0.936  0.00  0.00    -0.004 C 
ATOM      8  C   UNL     1      -0.903   1.091  -1.468  0.00  0.00    -0.004 C 
BRANCH   3   9
ATOM      9  C   UNL     1      -4.228   0.102   0.036  0.00  0.00    +0.026 C 
BRANCH   9  10
ATOM     10  C   UNL     1      -4.406  -1.432   0.161  0.00  0.00    +0.004 C 
ATOM     11  C   UNL     1      -3.746  -2.177  -1.001  0.00  0.00    +0.000 C 
ATOM     12  C   UNL     1      -3.826  -1.929   1.488  0.00  0.00    +0.000 C 
ENDBRANCH   9  10
ENDBRANCH   3   9
ENDBRANCH   1   4
BRANCH   1  15
ATOM     13  O   UNL     1       2.547   0.939   1.394  0.00  0.00    -0.273 OA
ATOM     14  N   UNL     1       2.629  -0.208  -0.650  0.00  0.00    -0.188 N 
ATOM     15  C   UNL     1       2.202   0.849   0.220  0.00  0.00    +0.244 C 
ATOM     16  H   UNL     1       2.285  -0.202  -1.573  0.00  0.00    +0.176 HD
BRANCH  14  17
ATOM     17  S   UNL     1       3.687  -1.476  -0.214  0.00  0.00    +0.058 S 
ATOM     18  O   UNL     1       3.730  -2.439  -1.298  0.00  0.00    -0.154 OA
ATOM     19  O   UNL     1       4.907  -0.936   0.353  0.00  0.00    -0.154 OA
ATOM     20  C   UNL     1       2.744  -2.200   1.105  0.00  0.00    +0.200 C 
ENDBRANCH  14  17
ENDBRANCH   1  15
TORSDOF 5
