REMARK  Name = 11961293
REMARK  7 active torsions:
REMARK  status: ('A' for Active; 'I' for Inactive)
REMARK    1  A    between atoms: C_1  and  C_3
REMARK    2  A    between atoms: C_1  and  N_21
REMARK    3  A    between atoms: N_2  and  C_9
REMARK    4  A    between atoms: C_9  and  C_12
REMARK    5  A    between atoms: C_17  and  O_18
REMARK    6  A    between atoms: C_22  and  C_26
REMARK    7  A    between atoms: C_30  and  C_35
REMARK                            x       y       z     vdW  Elec       q    Type
REMARK                         _______ _______ _______ _____ _____    ______ ____
ROOT
ATOM      1  C   UNL     1      -2.014  -2.403  -1.353  0.00  0.00    +0.089 C 
ENDROOT
BRANCH   1   3
ATOM      2  N   UNL     1       1.902  -1.699   0.328  0.00  0.00    +0.387 N 
ATOM      3  C   UNL     1      -0.893  -2.300  -0.323  0.00  0.00    +0.015 C 
ATOM      4  C   UNL     1       0.832  -0.775   0.725  0.00  0.00    -0.077 C 
ATOM      5  C   UNL     1       1.424  -3.088   0.312  0.00  0.00    -0.077 C 
ATOM      6  C   UNL     1      -0.359  -0.866  -0.232  0.00  0.00    -0.021 C 
ATOM      7  C   UNL     1       0.254  -3.258  -0.660  0.00  0.00    -0.021 C 
ATOM      8  H   UNL     1       2.193  -1.456  -0.619  0.00  0.00    -0.080 HD
BRANCH   2   9
ATOM      9  C   UNL     1       3.053  -1.564   1.221  0.00  0.00    -0.077 C 
BRANCH   9  12
ATOM     10  O   UNL     1       8.031   0.711  -1.758  0.00  0.00    -0.226 OA
ATOM     11  N   UNL     1       6.406   0.785  -0.098  0.00  0.00    -0.246 N 
ATOM     12  C   UNL     1       3.913  -0.367   0.823  0.00  0.00    -0.017 C 
ATOM     13  C   UNL     1       4.365  -0.481  -0.641  0.00  0.00    +0.020 C 
ATOM     14  C   UNL     1       5.135  -0.242   1.747  0.00  0.00    +0.020 C 
ATOM     15  C   UNL     1       5.283   0.675  -1.028  0.00  0.00    +0.097 C 
ATOM     16  C   UNL     1       6.040   0.911   1.317  0.00  0.00    +0.097 C 
ATOM     17  C   UNL     1       7.720   0.815  -0.573  0.00  0.00    +0.405 C 
BRANCH  17  18
ATOM     18  O   UNL     1       8.640   0.977   0.429  0.00  0.00    -0.430 OA
ATOM     19  C   UNL     1      10.014   1.019   0.024  0.00  0.00    +0.257 C 
ENDBRANCH  17  18
ENDBRANCH   9  12
ENDBRANCH   2   9
ENDBRANCH   1   3
BRANCH   1  21
ATOM     20  O   UNL     1      -4.288  -3.042   0.279  0.00  0.00    -0.270 OA
ATOM     21  N   UNL     1      -3.116  -1.516  -1.013  0.00  0.00    -0.301 N 
ATOM     22  C   UNL     1      -4.167  -1.924  -0.216  0.00  0.00    +0.247 C 
ATOM     23  H   UNL     1      -3.112  -0.595  -1.362  0.00  0.00    +0.150 HD
BRANCH  22  26
ATOM     24  N   UNL     1      -5.349   2.693   0.200  0.00  0.00    -0.318 N 
ATOM     25  N   UNL     1      -3.777   1.160  -0.142  0.00  0.00    -0.318 N 
ATOM     26  C   UNL     1      -5.226  -0.909   0.017  0.00  0.00    +0.068 C 
ATOM     27  C   UNL     1      -4.942   0.458   0.029  0.00  0.00    +0.063 C 
ATOM     28  C   UNL     1      -6.558  -1.277   0.232  0.00  0.00    +0.006 C 
ATOM     29  C   UNL     1      -5.909   1.437   0.240  0.00  0.00    +0.059 C 
ATOM     30  C   UNL     1      -4.071   2.490  -0.031  0.00  0.00    +0.144 C 
ATOM     31  C   UNL     1      -7.550  -0.317   0.447  0.00  0.00    +0.001 C 
ATOM     32  C   UNL     1      -7.242   1.049   0.455  0.00  0.00    +0.016 C 
ATOM     33  H   UNL     1      -5.806   3.557   0.318  0.00  0.00    +0.148 HD
ATOM     34  H   UNL     1      -2.887   0.774  -0.314  0.00  0.00    +0.148 HD
BRANCH  30  35
ATOM     35  C   UNL     1      -3.106   3.598  -0.150  0.00  0.00    +0.037 C 
ATOM     36  C   UNL     1      -2.006   3.570   0.939  0.00  0.00    +0.003 C 
ATOM     37  C   UNL     1      -2.439   3.681  -1.545  0.00  0.00    +0.003 C 
ENDBRANCH  30  35
ENDBRANCH  22  26
ENDBRANCH   1  21
TORSDOF 7
