REMARK  Name = 946
REMARK  0 active torsions:
REMARK  status: ('A' for Active; 'I' for Inactive)
REMARK                            x       y       z     vdW  Elec       q    Type
REMARK                         _______ _______ _______ _____ _____    ______ ____
ROOT
ATOM      1  O   UNL     1      -1.153   0.246   0.000  0.00  0.00    -0.067 OA
ATOM      2  O   UNL     1       1.115   0.273   0.000  0.00  0.00    -0.067 OA
ATOM      3  N   UNL     1       0.038  -0.519   0.000  0.00  0.00    +0.134 NA
ENDROOT
TORSDOF 0
