REMARK  Name = 25109292
REMARK  3 active torsions:
REMARK  status: ('A' for Active; 'I' for Inactive)
REMARK    1  A    between atoms: C_3  and  S_20
REMARK    2  A    between atoms: C_7  and  C_10
REMARK    3  A    between atoms: S_20  and  C_23
REMARK                            x       y       z     vdW  Elec       q    Type
REMARK                         _______ _______ _______ _____ _____    ______ ____
ROOT
ATOM      1  O   UNL     1       0.006   1.567   0.063  0.00  0.00    -0.425 OA
ATOM      2  N   UNL     1       0.185  -0.679  -0.186  0.00  0.00    -0.368 NA
ATOM      3  C   UNL     1       3.826   0.162  -0.233  0.00  0.00    +0.091 C 
ATOM      4  C   UNL     1       1.439  -0.117  -0.173  0.00  0.00    +0.153 C 
ATOM      5  C   UNL     1       1.333   1.257  -0.021  0.00  0.00    +0.174 C 
ATOM      6  C   UNL     1       2.714  -0.691  -0.283  0.00  0.00    +0.107 C 
ATOM      7  C   UNL     1      -0.612   0.357  -0.044  0.00  0.00    +0.282 C 
ATOM      8  C   UNL     1       3.675   1.546  -0.079  0.00  0.00    +0.018 C 
ATOM      9  C   UNL     1       2.410   2.133   0.033  0.00  0.00    +0.041 C 
ENDROOT
BRANCH   7  10
ATOM     10  C   UNL     1      -2.053   0.398   0.015  0.00  0.00    +0.066 C 
ATOM     11  C   UNL     1      -4.193  -0.759  -0.026  0.00  0.00    +0.000 C 
ATOM     12  C   UNL     1      -4.858   0.480   0.132  0.00  0.00    +0.000 C 
ATOM     13  C   UNL     1      -2.790  -0.783  -0.083  0.00  0.00    +0.006 C 
ATOM     14  C   UNL     1      -2.707   1.616   0.171  0.00  0.00    +0.006 C 
ATOM     15  C   UNL     1      -4.101   1.659   0.229  0.00  0.00    +0.000 C 
ATOM     16  C   UNL     1      -4.950  -1.938  -0.123  0.00  0.00    +0.000 C 
ATOM     17  C   UNL     1      -6.261   0.504   0.189  0.00  0.00    +0.000 C 
ATOM     18  C   UNL     1      -6.343  -1.895  -0.065  0.00  0.00    +0.000 C 
ATOM     19  C   UNL     1      -6.997  -0.677   0.090  0.00  0.00    +0.000 C 
ENDBRANCH   7  10
BRANCH   3  20
ATOM     20  S   UNL     1       5.432  -0.518  -0.367  0.00  0.00    +0.005 S 
ATOM     21  O   UNL     1       5.322  -1.782  -1.080  0.00  0.00    -0.169 OA
ATOM     22  O   UNL     1       6.339   0.511  -0.853  0.00  0.00    -0.169 OA
BRANCH  20  23
ATOM     23  C   UNL     1       5.899  -0.874   1.311  0.00  0.00    +0.156 C 
ATOM     24  C   UNL     1       7.284  -1.478   1.385  0.00  0.00    +0.028 C 
ENDBRANCH  20  23
ENDBRANCH   3  20
TORSDOF 3
