REMARK  Name = 71354
REMARK  7 active torsions:
REMARK  status: ('A' for Active; 'I' for Inactive)
REMARK    1  A    between atoms: N_1  and  C_19
REMARK    2  A    between atoms: C_5  and  C_10
REMARK    3  A    between atoms: C_10  and  O_11
REMARK    4  A    between atoms: O_11  and  C_12
REMARK    5  A    between atoms: C_12  and  C_16
REMARK    6  A    between atoms: C_16  and  O_17
REMARK    7  A    between atoms: C_19  and  C_20
REMARK                            x       y       z     vdW  Elec       q    Type
REMARK                         _______ _______ _______ _____ _____    ______ ____
ROOT
ATOM      1  N   UNL     1      -1.327  -0.494  -1.044  0.00  0.00    -0.247 N 
ATOM      2  N   UNL     1      -0.035  -0.144  -1.149  0.00  0.00    -0.171 NA
ATOM      3  C   UNL     1      -0.273  -2.106   0.005  0.00  0.00    +0.035 A 
ATOM      4  C   UNL     1      -1.538  -1.663  -0.362  0.00  0.00    +0.079 A 
ATOM      5  C   UNL     1       0.604  -1.127  -0.510  0.00  0.00    +0.110 A 
ATOM      6  C   UNL     1      -0.146  -3.302   0.730  0.00  0.00    +0.003 C 
ATOM      7  C   UNL     1      -2.710  -2.353  -0.043  0.00  0.00    +0.019 C 
ATOM      8  C   UNL     1      -1.308  -4.011   1.060  0.00  0.00    +0.000 C 
ATOM      9  C   UNL     1      -2.567  -3.542   0.680  0.00  0.00    +0.002 C 
ENDROOT
BRANCH   5  10
ATOM     10  C   UNL     1       2.074  -1.093  -0.414  0.00  0.00    +0.190 C 
BRANCH  10  11
ATOM     11  O   UNL     1       2.571   0.200  -0.055  0.00  0.00    -0.341 OA
BRANCH  11  12
ATOM     12  C   UNL     1       3.986   0.200   0.029  0.00  0.00    +0.182 C 
ATOM     13  C   UNL     1       4.541  -0.173  -1.343  0.00  0.00    +0.041 C 
ATOM     14  C   UNL     1       4.394  -0.796   1.110  0.00  0.00    +0.041 C 
BRANCH  12  16
ATOM     15  O   UNL     1       3.573   2.518   0.649  0.00  0.00    -0.248 OA
ATOM     16  C   UNL     1       4.374   1.621   0.413  0.00  0.00    +0.338 C 
BRANCH  16  17
ATOM     17  O   UNL     1       5.716   1.815   0.474  0.00  0.00    -0.479 OA
ATOM     18  H   UNL     1       6.301   1.107   0.288  0.00  0.00    +0.295 HD
ENDBRANCH  16  17
ENDBRANCH  12  16
ENDBRANCH  11  12
ENDBRANCH  10  11
ENDBRANCH   5  10
BRANCH   1  19
ATOM     19  C   UNL     1      -2.337   0.353  -1.636  0.00  0.00    +0.154 C 
BRANCH  19  20
ATOM     20  C   UNL     1      -2.821   1.393  -0.662  0.00  0.00    +0.002 C 
ATOM     21  C   UNL     1      -2.181   2.624  -0.601  0.00  0.00    -0.002 C 
ATOM     22  C   UNL     1      -3.900   1.108   0.163  0.00  0.00    -0.002 C 
ATOM     23  C   UNL     1      -2.629   3.588   0.302  0.00  0.00    -0.000 C 
ATOM     24  C   UNL     1      -4.348   2.072   1.066  0.00  0.00    -0.000 C 
ATOM     25  C   UNL     1      -3.713   3.312   1.136  0.00  0.00    -0.000 C 
ENDBRANCH  19  20
ENDBRANCH   1  19
TORSDOF 7
