REMARK  Name = 44623946
REMARK  8 active torsions:
REMARK  status: ('A' for Active; 'I' for Inactive)
REMARK    1  A    between atoms: N_1  and  C_6
REMARK    2  A    between atoms: C_2  and  C_29
REMARK    3  A    between atoms: C_3  and  C_18
REMARK    4  A    between atoms: C_10  and  C_15
REMARK    5  A    between atoms: C_21  and  N_24
REMARK    6  A    between atoms: C_29  and  C_30
REMARK    7  A    between atoms: C_30  and  C_32
REMARK    8  A    between atoms: C_32  and  O_33
REMARK                            x       y       z     vdW  Elec       q    Type
REMARK                         _______ _______ _______ _____ _____    ______ ____
ROOT
ATOM      1  N   UNL     1      -1.283  -1.335  -0.246  0.00  0.00    -0.270 N 
ATOM      2  C   UNL     1      -2.413  -2.104  -0.345  0.00  0.00    +0.034 C 
ATOM      3  C   UNL     1      -0.179  -2.144  -0.182  0.00  0.00    +0.055 C 
ATOM      4  C   UNL     1      -2.024  -3.426  -0.346  0.00  0.00    +0.012 C 
ATOM      5  C   UNL     1      -0.611  -3.451  -0.242  0.00  0.00    +0.016 C 
ENDROOT
BRANCH   1   6
ATOM      6  C   UNL     1      -1.269   0.065  -0.215  0.00  0.00    +0.051 C 
ATOM      7  C   UNL     1      -1.174   0.806  -1.393  0.00  0.00    -0.008 C 
ATOM      8  C   UNL     1      -1.351   0.717   1.015  0.00  0.00    +0.015 C 
ATOM      9  C   UNL     1      -1.161   2.200  -1.341  0.00  0.00    +0.001 C 
ATOM     10  C   UNL     1      -1.243   2.852  -0.111  0.00  0.00    +0.053 C 
ATOM     11  C   UNL     1      -1.338   2.111   1.067  0.00  0.00    +0.006 C 
ATOM     12  C   UNL     1      -1.085   0.137  -2.727  0.00  0.00    +0.032 C 
BRANCH  10  15
ATOM     13  O   UNL     1      -1.163   4.993  -1.089  0.00  0.00    -0.270 OA
ATOM     14  N   UNL     1      -1.315   4.907   1.198  0.00  0.00    -0.325 N 
ATOM     15  C   UNL     1      -1.230   4.305  -0.055  0.00  0.00    +0.243 C 
ATOM     16  H   UNL     1      -1.309   5.888   1.274  0.00  0.00    +0.145 HD
ATOM     17  H   UNL     1      -1.381   4.351   2.007  0.00  0.00    +0.145 HD
ENDBRANCH  10  15
ENDBRANCH   1   6
BRANCH   3  18
ATOM     18  C   UNL     1       1.172  -1.651  -0.071  0.00  0.00    +0.014 C 
ATOM     19  C   UNL     1       1.914  -1.387  -1.222  0.00  0.00    +0.003 C 
ATOM     20  C   UNL     1       1.735  -1.438   1.187  0.00  0.00    +0.003 C 
ATOM     21  C   UNL     1       3.784  -0.696   0.143  0.00  0.00    +0.057 C 
ATOM     22  C   UNL     1       3.220  -0.909  -1.115  0.00  0.00    +0.015 C 
ATOM     23  C   UNL     1       3.042  -0.961   1.294  0.00  0.00    +0.015 C 
BRANCH  21  24
ATOM     24  N   UNL     1       5.079  -0.223   0.249  0.00  0.00    -0.246 N 
ATOM     25  N   UNL     1       6.970   0.474   1.182  0.00  0.00    -0.224 NA
ATOM     26  C   UNL     1       5.918   0.079  -0.786  0.00  0.00    +0.092 C 
ATOM     27  C   UNL     1       5.754   0.031   1.411  0.00  0.00    +0.172 C 
ATOM     28  C   UNL     1       7.078   0.507  -0.185  0.00  0.00    +0.117 C 
ENDBRANCH  21  24
ENDBRANCH   3  18
BRANCH   2  29
ATOM     29  C   UNL     1      -3.772  -1.527  -0.432  0.00  0.00    +0.053 C 
BRANCH  29  30
ATOM     30  C   UNL     1      -4.453  -1.313   0.930  0.00  0.00    +0.115 C 
BRANCH  30  32
ATOM     31  O   UNL     1      -6.311  -0.387  -0.305  0.00  0.00    -0.250 OA
ATOM     32  C   UNL     1      -5.821  -0.694   0.774  0.00  0.00    +0.314 C 
BRANCH  32  33
ATOM     33  O   UNL     1      -6.468  -0.539   1.956  0.00  0.00    -0.480 OA
ATOM     34  H   UNL     1      -6.049  -0.790   2.756  0.00  0.00    +0.295 HD
ENDBRANCH  32  33
ENDBRANCH  30  32
ENDBRANCH  29  30
ENDBRANCH   2  29
TORSDOF 8
