11417567
  -OEChem-10051722433D

 55 58  0     1  0  0  0  0  0999 V2000
    5.5122    1.5028   -2.4937 F   0  0  0  0  0  0  0  0  0  0  0  0
    4.5935   -0.3483    2.4928 O   0  0  0  0  0  0  0  0  0  0  0  0
   -5.1454   -1.8110   -0.7106 O   0  0  0  0  0  0  0  0  0  0  0  0
   -6.2165    0.6071    0.1374 O   0  0  0  0  0  0  0  0  0  0  0  0
    0.1926    1.0623    0.3928 N   0  0  1  0  0  0  0  0  0  0  0  0
    3.6353   -0.3872    0.3438 N   0  0  0  0  0  0  0  0  0  0  0  0
    1.9019   -2.7730    0.7760 N   0  0  0  0  0  0  0  0  0  0  0  0
    2.2251   -0.3223    0.6602 C   0  0  2  0  0  0  0  0  0  0  0  0
   -0.5576   -0.0341   -0.2695 C   0  0  1  0  0  0  0  0  0  0  0  0
    1.4663   -1.5411    0.1146 C   0  0  2  0  0  0  0  0  0  0  0  0
    1.6289    0.9773    0.1032 C   0  0  0  0  0  0  0  0  0  0  0  0
   -0.0474   -1.3718    0.3129 C   0  0  0  0  0  0  0  0  0  0  0  0
   -0.3378    2.3709    0.0012 C   0  0  0  0  0  0  0  0  0  0  0  0
   -2.0733    0.1217   -0.1395 C   0  0  0  0  0  0  0  0  0  0  0  0
    4.0976   -0.5667   -1.0134 C   0  0  0  0  0  0  0  0  0  0  0  0
    5.5825   -0.2327   -0.9335 C   0  0  2  0  0  0  0  0  0  0  0  0
   -1.7441    2.5288    0.5740 C   0  0  0  0  0  0  0  0  0  0  0  0
   -2.6305    1.3590    0.2397 C   0  0  0  0  0  0  0  0  0  0  0  0
    5.9548   -0.6112    0.5038 C   0  0  0  0  0  0  0  0  0  0  0  0
    4.6695   -0.4162    1.2750 C   0  0  0  0  0  0  0  0  0  0  0  0
   -2.9465   -0.9256   -0.4787 C   0  0  0  0  0  0  0  0  0  0  0  0
    5.8423    1.2499   -1.2061 C   0  0  0  0  0  0  0  0  0  0  0  0
   -4.0224    1.5043    0.3447 C   0  0  0  0  0  0  0  0  0  0  0  0
   -4.3309   -0.7685   -0.3840 C   0  0  0  0  0  0  0  0  0  0  0  0
   -4.8687    0.4430    0.0357 C   0  0  0  0  0  0  0  0  0  0  0  0
   -5.5651   -1.9038   -2.0703 C   0  0  0  0  0  0  0  0  0  0  0  0
   -6.8163    0.2865    1.3914 C   0  0  0  0  0  0  0  0  0  0  0  0
    2.1267   -0.2964    1.7547 H   0  0  0  0  0  0  0  0  0  0  0  0
   -0.3445   -0.0148   -1.3488 H   0  0  0  0  0  0  0  0  0  0  0  0
    1.6505   -1.6535   -0.9606 H   0  0  0  0  0  0  0  0  0  0  0  0
    2.1532    1.8196    0.5741 H   0  0  0  0  0  0  0  0  0  0  0  0
    1.7965    1.0704   -0.9767 H   0  0  0  0  0  0  0  0  0  0  0  0
   -0.3012   -1.4253    1.3817 H   0  0  0  0  0  0  0  0  0  0  0  0
   -0.5487   -2.2214   -0.1652 H   0  0  0  0  0  0  0  0  0  0  0  0
   -0.3468    2.4824   -1.0913 H   0  0  0  0  0  0  0  0  0  0  0  0
    0.2829    3.1798    0.4057 H   0  0  0  0  0  0  0  0  0  0  0  0
    3.5587    0.0661   -1.7217 H   0  0  0  0  0  0  0  0  0  0  0  0
    3.9609   -1.6187   -1.2863 H   0  0  0  0  0  0  0  0  0  0  0  0
    6.1480   -0.8186   -1.6664 H   0  0  0  0  0  0  0  0  0  0  0  0
   -2.1818    3.4536    0.1793 H   0  0  0  0  0  0  0  0  0  0  0  0
   -1.6939    2.6227    1.6663 H   0  0  0  0  0  0  0  0  0  0  0  0
    6.7545    0.0092    0.9167 H   0  0  0  0  0  0  0  0  0  0  0  0
    6.2345   -1.6679    0.5705 H   0  0  0  0  0  0  0  0  0  0  0  0
    1.3484   -3.5593    0.4377 H   0  0  0  0  0  0  0  0  0  0  0  0
    1.7215   -2.7105    1.7773 H   0  0  0  0  0  0  0  0  0  0  0  0
   -2.5578   -1.8769   -0.8320 H   0  0  0  0  0  0  0  0  0  0  0  0
    6.9002    1.4965   -1.0757 H   0  0  0  0  0  0  0  0  0  0  0  0
    5.2457    1.9062   -0.5650 H   0  0  0  0  0  0  0  0  0  0  0  0
   -4.4454    2.4550    0.6617 H   0  0  0  0  0  0  0  0  0  0  0  0
   -6.2126   -2.7793   -2.1700 H   0  0  0  0  0  0  0  0  0  0  0  0
   -4.7013   -2.0302   -2.7306 H   0  0  0  0  0  0  0  0  0  0  0  0
   -6.1329   -1.0141   -2.3601 H   0  0  0  0  0  0  0  0  0  0  0  0
   -6.4125    0.9249    2.1836 H   0  0  0  0  0  0  0  0  0  0  0  0
   -6.6535   -0.7674    1.6379 H   0  0  0  0  0  0  0  0  0  0  0  0
   -7.8921    0.4650    1.3121 H   0  0  0  0  0  0  0  0  0  0  0  0
  1 22  1  0  0  0  0
  2 20  2  0  0  0  0
  3 24  1  0  0  0  0
  3 26  1  0  0  0  0
  4 25  1  0  0  0  0
  4 27  1  0  0  0  0
  5  9  1  0  0  0  0
  5 11  1  0  0  0  0
  5 13  1  0  0  0  0
  6  8  1  0  0  0  0
  6 15  1  0  0  0  0
  6 20  1  0  0  0  0
  7 10  1  0  0  0  0
  7 44  1  0  0  0  0
  7 45  1  0  0  0  0
  8 10  1  0  0  0  0
  8 11  1  0  0  0  0
  8 28  1  0  0  0  0
  9 12  1  0  0  0  0
  9 14  1  0  0  0  0
  9 29  1  0  0  0  0
 10 12  1  0  0  0  0
 10 30  1  0  0  0  0
 11 31  1  0  0  0  0
 11 32  1  0  0  0  0
 12 33  1  0  0  0  0
 12 34  1  0  0  0  0
 13 17  1  0  0  0  0
 13 35  1  0  0  0  0
 13 36  1  0  0  0  0
 14 18  1  0  0  0  0
 14 21  2  0  0  0  0
 15 16  1  0  0  0  0
 15 37  1  0  0  0  0
 15 38  1  0  0  0  0
 16 19  1  0  0  0  0
 16 22  1  0  0  0  0
 16 39  1  0  0  0  0
 17 18  1  0  0  0  0
 17 40  1  0  0  0  0
 17 41  1  0  0  0  0
 18 23  2  0  0  0  0
 19 20  1  0  0  0  0
 19 42  1  0  0  0  0
 19 43  1  0  0  0  0
 21 24  1  0  0  0  0
 21 46  1  0  0  0  0
 22 47  1  0  0  0  0
 22 48  1  0  0  0  0
 23 25  1  0  0  0  0
 23 49  1  0  0  0  0
 24 25  2  0  0  0  0
 26 50  1  0  0  0  0
 26 51  1  0  0  0  0
 26 52  1  0  0  0  0
 27 53  1  0  0  0  0
 27 54  1  0  0  0  0
 27 55  1  0  0  0  0
M  END
> <DATABASE_ID>
DB12268

> <DATABASE_NAME>
drugbank

> <ORIGINAL_SOURCE>
PUBCHEM

> <ORIGINAL_SOURCE_URL>
https://pubchem.ncbi.nlm.nih.gov/rest/pug/compound/inchikey/GUYMHFIHHOEFOA-ZCPGHIKRSA-N/SDF?record_type=3d

> <SMILES>
[H][C@@]1(CF)CN(C(=O)C1)[C@@]1([H])CN2CCC3=CC(OC)=C(OC)C=C3[C@]2([H])C[C@]1([H])N

> <INCHI_IDENTIFIER>
InChI=1S/C20H28FN3O3/c1-26-18-6-13-3-4-23-11-17(24-10-12(9-21)5-20(24)25)15(22)8-16(23)14(13)7-19(18)27-2/h6-7,12,15-17H,3-5,8-11,22H2,1-2H3/t12-,15+,16+,17+/m1/s1

> <INCHI_KEY>
GUYMHFIHHOEFOA-ZCPGHIKRSA-N

> <FORMULA>
C20H28FN3O3

> <MOLECULAR_WEIGHT>
377.453

> <EXACT_MASS>
377.211469982

> <JCHEM_ACCEPTOR_COUNT>
5

> <JCHEM_AVERAGE_POLARIZABILITY>
39.932316860529916

> <JCHEM_BIOAVAILABILITY>
1

> <JCHEM_DONOR_COUNT>
1

> <JCHEM_FORMAL_CHARGE>
0

> <JCHEM_GHOSE_FILTER>
1

> <JCHEM_IUPAC>
(4S)-1-[(2S,3S,11bS)-2-amino-9,10-dimethoxy-1H,2H,3H,4H,6H,7H,11bH-pyrido[2,1-a]isoquinolin-3-yl]-4-(fluoromethyl)pyrrolidin-2-one

> <ALOGPS_LOGP>
0.72

> <JCHEM_LOGP>
0.243425289666667

> <ALOGPS_LOGS>
-2.56

> <JCHEM_MDDR_LIKE_RULE>
0

> <JCHEM_NUMBER_OF_RINGS>
4

> <JCHEM_PHYSIOLOGICAL_CHARGE>
1

> <JCHEM_PKA_STRONGEST_BASIC>
9.219091289628278

> <JCHEM_POLAR_SURFACE_AREA>
68.03

> <JCHEM_REFRACTIVITY>
100.48849999999997

> <JCHEM_ROTATABLE_BOND_COUNT>
4

> <JCHEM_RULE_OF_FIVE>
1

> <ALOGPS_SOLUBILITY>
1.05e+00 g/l

> <JCHEM_TRADITIONAL_IUPAC>
carmegliptin

> <JCHEM_VEBER_RULE>
0

> <DRUGBANK_ID>
DB12268

> <DRUG_GROUPS>
investigational

> <GENERIC_NAME>
Carmegliptin

$$$$
