REMARK  Name = 49837968
REMARK  3 active torsions:
REMARK  status: ('A' for Active; 'I' for Inactive)
REMARK    1  A    between atoms: C_2  and  C_12
REMARK    2  A    between atoms: C_5  and  N_21
REMARK    3  A    between atoms: C_22  and  C_26
REMARK                            x       y       z     vdW  Elec       q    Type
REMARK                         _______ _______ _______ _____ _____    ______ ____
ROOT
ATOM      1  F   UNL     1       3.424  -2.600   0.121  0.00  0.00    -0.204 F 
ATOM      2  C   UNL     1       2.001  -0.707   0.278  0.00  0.00    +0.029 C 
ATOM      3  C   UNL     1       0.712  -0.173   0.263  0.00  0.00    +0.015 C 
ATOM      4  C   UNL     1       2.189  -2.078   0.107  0.00  0.00    +0.138 C 
ATOM      5  C   UNL     1      -0.388  -1.010   0.078  0.00  0.00    +0.050 C 
ATOM      6  C   UNL     1       1.089  -2.916  -0.078  0.00  0.00    +0.031 C 
ATOM      7  C   UNL     1      -0.199  -2.382  -0.093  0.00  0.00    +0.017 C 
ENDROOT
BRANCH   2  12
ATOM      8  S   UNL     1       2.636   1.886  -1.956  0.00  0.00    -0.081 S 
ATOM      9  O   UNL     1       4.695   0.923   2.234  0.00  0.00    -0.351 OA
ATOM     10  N   UNL     1       4.162   0.109  -0.635  0.00  0.00    -0.248 NA
ATOM     11  N   UNL     1       4.824   0.709  -2.799  0.00  0.00    -0.338 N 
ATOM     12  C   UNL     1       3.201   0.213   0.482  0.00  0.00    +0.137 C 
ATOM     13  C   UNL     1       2.949   1.687   0.829  0.00  0.00    +0.068 C 
ATOM     14  C   UNL     1       3.968  -0.218   1.750  0.00  0.00    +0.169 C 
ATOM     15  C   UNL     1       4.250   2.082   1.522  0.00  0.00    +0.145 C 
ATOM     16  C   UNL     1       2.581   2.636  -0.309  0.00  0.00    +0.070 C 
ATOM     17  C   UNL     1       3.986   0.785  -1.720  0.00  0.00    +0.148 C 
ATOM     18  H   UNL     1       4.641   1.248  -3.602  0.00  0.00    +0.144 HD
ATOM     19  H   UNL     1       5.609   0.117  -2.772  0.00  0.00    +0.144 HD
ENDBRANCH   2  12
BRANCH   5  21
ATOM     20  O   UNL     1      -3.040  -2.362  -0.279  0.00  0.00    -0.268 OA
ATOM     21  N   UNL     1      -1.677  -0.477   0.064  0.00  0.00    -0.279 N 
ATOM     22  C   UNL     1      -2.890  -1.157  -0.108  0.00  0.00    +0.267 C 
ATOM     23  H   UNL     1      -1.742   0.497   0.189  0.00  0.00    +0.155 HD
BRANCH  22  26
ATOM     24  F   UNL     1      -7.340   2.152   0.152  0.00  0.00    -0.203 F 
ATOM     25  N   UNL     1      -3.897   1.009   0.168  0.00  0.00    -0.237 NA
ATOM     26  C   UNL     1      -4.110  -0.309  -0.046  0.00  0.00    +0.135 C 
ATOM     27  C   UNL     1      -5.364  -0.877  -0.202  0.00  0.00    +0.026 C 
ATOM     28  C   UNL     1      -6.471  -0.039  -0.135  0.00  0.00    +0.033 C 
ATOM     29  C   UNL     1      -4.998   1.792   0.227  0.00  0.00    +0.129 C 
ATOM     30  C   UNL     1      -6.293   1.322   0.084  0.00  0.00    +0.159 C 
ENDBRANCH  22  26
ENDBRANCH   5  21
TORSDOF 3
