55483
  -OEChem-10051722443D

 58 59  0     0  0  0  0  0  0999 V2000
   -9.6671   -2.2945   -0.0874 O   0  0  0  0  0  0  0  0  0  0  0  0
  -10.9197   -0.0822   -1.2096 O   0  0  0  0  0  0  0  0  0  0  0  0
   -3.4249    0.3819    0.9190 N   0  0  0  0  0  0  0  0  0  0  0  0
    5.1468    0.0029   -0.8308 N   0  0  0  0  0  0  0  0  0  0  0  0
    0.1656    0.1523   -0.3304 C   0  0  0  0  0  0  0  0  0  0  0  0
    1.5210    0.2626    0.3719 C   0  0  0  0  0  0  0  0  0  0  0  0
   -0.9881    0.3325    0.6599 C   0  0  0  0  0  0  0  0  0  0  0  0
    2.7129    0.1202   -0.5800 C   0  0  0  0  0  0  0  0  0  0  0  0
   -2.3405    0.1866   -0.0358 C   0  0  0  0  0  0  0  0  0  0  0  0
    4.0634    0.1533    0.1347 C   0  0  0  0  0  0  0  0  0  0  0  0
   -4.7205    0.2558    0.2667 C   0  0  0  0  0  0  0  0  0  0  0  0
    6.4411    0.0221   -0.1647 C   0  0  0  0  0  0  0  0  0  0  0  0
   -5.8594    0.4694    1.2646 C   0  0  0  0  0  0  0  0  0  0  0  0
    7.5787   -0.1422   -1.1732 C   0  0  0  0  0  0  0  0  0  0  0  0
   -7.2076    0.3192    0.6061 C   0  0  0  0  0  0  0  0  0  0  0  0
    8.9247   -0.1465   -0.4933 C   0  0  0  0  0  0  0  0  0  0  0  0
   -7.8259   -0.9304    0.5601 C   0  0  0  0  0  0  0  0  0  0  0  0
   -7.8363    1.4296    0.0426 C   0  0  0  0  0  0  0  0  0  0  0  0
    9.6124    1.0518   -0.3003 C   0  0  0  0  0  0  0  0  0  0  0  0
    9.4820   -1.3485   -0.0568 C   0  0  0  0  0  0  0  0  0  0  0  0
   -9.0728   -1.0695   -0.0495 C   0  0  0  0  0  0  0  0  0  0  0  0
   -9.0831    1.2905   -0.5670 C   0  0  0  0  0  0  0  0  0  0  0  0
   -9.7014    0.0410   -0.6129 C   0  0  0  0  0  0  0  0  0  0  0  0
   10.8572    1.0481    0.3288 C   0  0  0  0  0  0  0  0  0  0  0  0
   10.7270   -1.3521    0.5723 C   0  0  0  0  0  0  0  0  0  0  0  0
   11.4145   -0.1537    0.7652 C   0  0  0  0  0  0  0  0  0  0  0  0
    0.0978    0.9127   -1.1177 H   0  0  0  0  0  0  0  0  0  0  0  0
    0.0862   -0.8270   -0.8176 H   0  0  0  0  0  0  0  0  0  0  0  0
    1.5882    1.2303    0.8844 H   0  0  0  0  0  0  0  0  0  0  0  0
    1.5869   -0.5112    1.1469 H   0  0  0  0  0  0  0  0  0  0  0  0
   -0.9152    1.3220    1.1286 H   0  0  0  0  0  0  0  0  0  0  0  0
   -0.9011   -0.4119    1.4615 H   0  0  0  0  0  0  0  0  0  0  0  0
    2.6691    0.9248   -1.3254 H   0  0  0  0  0  0  0  0  0  0  0  0
    2.6168   -0.8252   -1.1298 H   0  0  0  0  0  0  0  0  0  0  0  0
   -2.4096   -0.8092   -0.4906 H   0  0  0  0  0  0  0  0  0  0  0  0
   -2.4115    0.9292   -0.8397 H   0  0  0  0  0  0  0  0  0  0  0  0
    4.1631    1.1018    0.6760 H   0  0  0  0  0  0  0  0  0  0  0  0
    4.0987   -0.6599    0.8697 H   0  0  0  0  0  0  0  0  0  0  0  0
   -3.3492   -0.3007    1.6725 H   0  0  0  0  0  0  0  0  0  0  0  0
    5.1018    0.7527   -1.5203 H   0  0  0  0  0  0  0  0  0  0  0  0
   -4.8052    0.9945   -0.5405 H   0  0  0  0  0  0  0  0  0  0  0  0
   -4.8159   -0.7378   -0.1899 H   0  0  0  0  0  0  0  0  0  0  0  0
    6.5704    0.9654    0.3815 H   0  0  0  0  0  0  0  0  0  0  0  0
    6.4915   -0.7901    0.5718 H   0  0  0  0  0  0  0  0  0  0  0  0
   -5.7843    1.4655    1.7205 H   0  0  0  0  0  0  0  0  0  0  0  0
   -5.7798   -0.2455    2.0943 H   0  0  0  0  0  0  0  0  0  0  0  0
    7.5493    0.6648   -1.9173 H   0  0  0  0  0  0  0  0  0  0  0  0
    7.4543   -1.0750   -1.7390 H   0  0  0  0  0  0  0  0  0  0  0  0
   -7.3335   -1.7954    0.9983 H   0  0  0  0  0  0  0  0  0  0  0  0
   -7.3636    2.4078    0.0707 H   0  0  0  0  0  0  0  0  0  0  0  0
    9.1876    1.9947   -0.6342 H   0  0  0  0  0  0  0  0  0  0  0  0
    8.9552   -2.2882   -0.1996 H   0  0  0  0  0  0  0  0  0  0  0  0
   -9.5615    2.1638   -1.0023 H   0  0  0  0  0  0  0  0  0  0  0  0
   11.3924    1.9811    0.4795 H   0  0  0  0  0  0  0  0  0  0  0  0
   11.1609   -2.2877    0.9127 H   0  0  0  0  0  0  0  0  0  0  0  0
   12.3837   -0.1565    1.2554 H   0  0  0  0  0  0  0  0  0  0  0  0
   -9.0879   -2.9418    0.3503 H   0  0  0  0  0  0  0  0  0  0  0  0
  -11.1992    0.7882   -1.5418 H   0  0  0  0  0  0  0  0  0  0  0  0
  1 21  1  0  0  0  0
  1 57  1  0  0  0  0
  2 23  1  0  0  0  0
  2 58  1  0  0  0  0
  3  9  1  0  0  0  0
  3 11  1  0  0  0  0
  3 39  1  0  0  0  0
  4 10  1  0  0  0  0
  4 12  1  0  0  0  0
  4 40  1  0  0  0  0
  5  6  1  0  0  0  0
  5  7  1  0  0  0  0
  5 27  1  0  0  0  0
  5 28  1  0  0  0  0
  6  8  1  0  0  0  0
  6 29  1  0  0  0  0
  6 30  1  0  0  0  0
  7  9  1  0  0  0  0
  7 31  1  0  0  0  0
  7 32  1  0  0  0  0
  8 10  1  0  0  0  0
  8 33  1  0  0  0  0
  8 34  1  0  0  0  0
  9 35  1  0  0  0  0
  9 36  1  0  0  0  0
 10 37  1  0  0  0  0
 10 38  1  0  0  0  0
 11 13  1  0  0  0  0
 11 41  1  0  0  0  0
 11 42  1  0  0  0  0
 12 14  1  0  0  0  0
 12 43  1  0  0  0  0
 12 44  1  0  0  0  0
 13 15  1  0  0  0  0
 13 45  1  0  0  0  0
 13 46  1  0  0  0  0
 14 16  1  0  0  0  0
 14 47  1  0  0  0  0
 14 48  1  0  0  0  0
 15 17  2  0  0  0  0
 15 18  1  0  0  0  0
 16 19  2  0  0  0  0
 16 20  1  0  0  0  0
 17 21  1  0  0  0  0
 17 49  1  0  0  0  0
 18 22  2  0  0  0  0
 18 50  1  0  0  0  0
 19 24  1  0  0  0  0
 19 51  1  0  0  0  0
 20 25  2  0  0  0  0
 20 52  1  0  0  0  0
 21 23  2  0  0  0  0
 22 23  1  0  0  0  0
 22 53  1  0  0  0  0
 24 26  2  0  0  0  0
 24 54  1  0  0  0  0
 25 26  1  0  0  0  0
 25 55  1  0  0  0  0
 26 56  1  0  0  0  0
M  END
> <DATABASE_ID>
DB12313

> <DATABASE_NAME>
drugbank

> <ORIGINAL_SOURCE>
PUBCHEM

> <ORIGINAL_SOURCE_URL>
https://pubchem.ncbi.nlm.nih.gov/rest/pug/compound/inchikey/RYBJORHCUPVNMB-UHFFFAOYSA-N/SDF?record_type=3d

> <SMILES>
OC1=C(O)C=C(CCNCCCCCCNCCC2=CC=CC=C2)C=C1

> <INCHI_IDENTIFIER>
InChI=1S/C22H32N2O2/c25-21-11-10-20(18-22(21)26)13-17-24-15-7-2-1-6-14-23-16-12-19-8-4-3-5-9-19/h3-5,8-11,18,23-26H,1-2,6-7,12-17H2

> <INCHI_KEY>
RYBJORHCUPVNMB-UHFFFAOYSA-N

> <FORMULA>
C22H32N2O2

> <MOLECULAR_WEIGHT>
356.5017

> <EXACT_MASS>
356.246378278

> <JCHEM_ACCEPTOR_COUNT>
4

> <JCHEM_AVERAGE_POLARIZABILITY>
43.77462625026226

> <JCHEM_BIOAVAILABILITY>
1

> <JCHEM_DONOR_COUNT>
4

> <JCHEM_FORMAL_CHARGE>
0

> <JCHEM_GHOSE_FILTER>
1

> <JCHEM_IUPAC>
4-[2-({6-[(2-phenylethyl)amino]hexyl}amino)ethyl]benzene-1,2-diol

> <ALOGPS_LOGP>
3.75

> <JCHEM_LOGP>
2.9773050466833855

> <ALOGPS_LOGS>
-5.17

> <JCHEM_MDDR_LIKE_RULE>
0

> <JCHEM_NUMBER_OF_RINGS>
2

> <JCHEM_PHYSIOLOGICAL_CHARGE>
2

> <JCHEM_PKA>
12.926930678089843

> <JCHEM_PKA_STRONGEST_ACIDIC>
10.712907327215207

> <JCHEM_PKA_STRONGEST_BASIC>
10.140823013239853

> <JCHEM_POLAR_SURFACE_AREA>
64.52

> <JCHEM_REFRACTIVITY>
108.82679999999998

> <JCHEM_ROTATABLE_BOND_COUNT>
13

> <JCHEM_RULE_OF_FIVE>
1

> <ALOGPS_SOLUBILITY>
2.43e-03 g/l

> <JCHEM_TRADITIONAL_IUPAC>
dopexamine

> <JCHEM_VEBER_RULE>
0

> <DRUGBANK_ID>
DB12313

> <DRUG_GROUPS>
approved; investigational

> <GENERIC_NAME>
Dopexamine

> <SALTS>
Dopexamine Hydrochloride

$$$$
