REMARK  Name = 104762
REMARK  7 active torsions:
REMARK  status: ('A' for Active; 'I' for Inactive)
REMARK    1  A    between atoms: N_1  and  C1*_9
REMARK    2  A    between atoms: C_3  and  O_23
REMARK    3  A    between atoms: C_5  and  C_20
REMARK    4  A    between atoms: C2*_7  and  O2*_11
REMARK    5  A    between atoms: C3*_8  and  O3*_13
REMARK    6  A    between atoms: C4*_10  and  C5*_15
REMARK    7  A    between atoms: C5*_15  and  O5*_16
REMARK                            x       y       z     vdW  Elec       q    Type
REMARK                         _______ _______ _______ _____ _____    ______ ____
ROOT
ATOM      1  N   UNL     1      -0.390  -0.074  -0.187  0.00  0.00    -0.200 NA
ATOM      2  N   UNL     1      -1.969  -1.541   0.361  0.00  0.00    -0.248 NA
ATOM      3  C   UNL     1      -1.581   0.586  -0.319  0.00  0.00    +0.222 C 
ATOM      4  C   UNL     1      -0.676  -1.349   0.223  0.00  0.00    +0.205 C 
ATOM      5  C   UNL     1      -2.539  -0.339   0.025  0.00  0.00    +0.151 C 
ENDROOT
BRANCH   1   9
ATOM      6  O4* UNL     1       1.804  -0.576  -0.938  0.00  0.00    -0.336 OA
ATOM      7  C2* UNL     1       1.631   1.017   0.806  0.00  0.00    +0.183 C 
ATOM      8  C3* UNL     1       3.092   0.892   0.423  0.00  0.00    +0.171 C 
ATOM      9  C1* UNL     1       0.945   0.465  -0.435  0.00  0.00    +0.209 C 
ATOM     10  C4* UNL     1       3.115  -0.425  -0.347  0.00  0.00    +0.175 C 
BRANCH   7  11
ATOM     11  O2* UNL     1       1.241   2.348   1.075  0.00  0.00    -0.378 OA
ATOM     12  H2* UNL     1       1.698   2.664   1.870  0.00  0.00    +0.211 HD
ENDBRANCH   7  11
BRANCH   8  13
ATOM     13  O3* UNL     1       3.444   1.951  -0.467  0.00  0.00    -0.379 OA
ATOM     14  H3* UNL     1       3.432   2.794   0.014  0.00  0.00    +0.211 HD
ENDBRANCH   8  13
BRANCH  10  15
ATOM     15  C5* UNL     1       3.380  -1.630   0.545  0.00  0.00    +0.169 C 
BRANCH  15  16
ATOM     16  O5* UNL     1       3.371  -2.798  -0.256  0.00  0.00    -0.379 OA
ATOM     17  H5* UNL     1       3.540  -3.574   0.302  0.00  0.00    +0.211 HD
ENDBRANCH  15  16
ENDBRANCH  10  15
ENDBRANCH   1   9
BRANCH   5  20
ATOM     18  O   UNL     1      -4.498   0.951  -0.276  0.00  0.00    -0.269 OA
ATOM     19  N   UNL     1      -4.767  -1.201   0.425  0.00  0.00    -0.324 N 
ATOM     20  C   UNL     1      -3.955  -0.129   0.045  0.00  0.00    +0.260 C 
ATOM     21  H   UNL     1      -5.745  -1.093   0.451  0.00  0.00    +0.145 HD
ATOM     22  H   UNL     1      -4.360  -2.065   0.667  0.00  0.00    +0.145 HD
ENDBRANCH   5  20
BRANCH   3  23
ATOM     23  O   UNL     1      -1.648   1.851  -0.705  0.00  0.00    -0.365 OA
ATOM     24  H   UNL     1      -0.862   2.324  -0.898  0.00  0.00    +0.212 HD
ENDBRANCH   3  23
TORSDOF 7
