REMARK  Name = 9820882
REMARK  12 active torsions:
REMARK  status: ('A' for Active; 'I' for Inactive)
REMARK    1  A    between atoms: N_1  and  C_4
REMARK    2  A    between atoms: N_1  and  C_17
REMARK    3  A    between atoms: C_4  and  C_6
REMARK    4  A    between atoms: C_6  and  C_7
REMARK    5  A    between atoms: C_6  and  O_15
REMARK    6  A    between atoms: C_12  and  O_13
REMARK    7  A    between atoms: C_17  and  C_18
REMARK    8  A    between atoms: C_18  and  C_19
REMARK    9  A    between atoms: C_24  and  O_27
REMARK   10  A    between atoms: O_27  and  C_28
REMARK   11  A    between atoms: C_28  and  C_30
REMARK   12  A    between atoms: C_30  and  O_31
REMARK                            x       y       z     vdW  Elec       q    Type
REMARK                         _______ _______ _______ _____ _____    ______ ____
ROOT
ATOM      1  N   UNL     1       1.886  -2.388  -0.203  0.00  0.00    +0.387 N 
ATOM      2  H   UNL     1       1.777  -3.244   0.341  0.00  0.00    -0.084 HD
ATOM      3  H   UNL     1       1.941  -2.608  -1.197  0.00  0.00    -0.084 HD
ENDROOT
BRANCH   1   4
ATOM      4  C   UNL     1       3.125  -1.712   0.203  0.00  0.00    -0.030 C 
ATOM      5  C   UNL     1       4.293  -2.662  -0.071  0.00  0.00    -0.021 C 
BRANCH   4   6
ATOM      6  C   UNL     1       3.257  -0.374  -0.558  0.00  0.00    +0.113 C 
BRANCH   6   7
ATOM      7  C   UNL     1       4.481   0.428  -0.170  0.00  0.00    +0.002 C 
ATOM      8  C   UNL     1       4.374   1.387   0.821  0.00  0.00    +0.001 C 
ATOM      9  C   UNL     1       5.680   0.183  -0.816  0.00  0.00    +0.001 C 
ATOM     10  C   UNL     1       5.502   2.127   1.177  0.00  0.00    +0.036 C 
ATOM     11  C   UNL     1       6.808   0.922  -0.460  0.00  0.00    +0.036 C 
ATOM     12  C   UNL     1       6.719   1.894   0.537  0.00  0.00    +0.134 C 
BRANCH  12  13
ATOM     13  O   UNL     1       7.819   2.615   0.886  0.00  0.00    -0.506 OA
ATOM     14  H   UNL     1       7.759   3.268   1.556  0.00  0.00    +0.292 HD
ENDBRANCH  12  13
ENDBRANCH   6   7
BRANCH   6  15
ATOM     15  O   UNL     1       3.352  -0.617  -1.964  0.00  0.00    -0.382 OA
ATOM     16  H   UNL     1       2.582  -1.131  -2.256  0.00  0.00    +0.211 HD
ENDBRANCH   6  15
ENDBRANCH   4   6
ENDBRANCH   1   4
BRANCH   1  17
ATOM     17  C   UNL     1       0.738  -1.528   0.025  0.00  0.00    -0.077 C 
BRANCH  17  18
ATOM     18  C   UNL     1      -0.559  -2.224  -0.387  0.00  0.00    +0.003 C 
BRANCH  18  19
ATOM     19  C   UNL     1      -1.757  -1.333  -0.176  0.00  0.00    -0.028 C 
ATOM     20  C   UNL     1      -2.439  -1.346   1.032  0.00  0.00    -0.023 C 
ATOM     21  C   UNL     1      -2.158  -0.504  -1.215  0.00  0.00    -0.006 C 
ATOM     22  C   UNL     1      -3.264   0.328  -1.041  0.00  0.00    +0.012 C 
ATOM     23  C   UNL     1      -3.545  -0.514   1.206  0.00  0.00    +0.032 C 
ATOM     24  C   UNL     1      -3.957   0.323   0.169  0.00  0.00    +0.135 C 
ATOM     25  C   UNL     1      -2.015  -2.233   2.156  0.00  0.00    +0.031 C 
ATOM     26  C   UNL     1      -3.692   1.216  -2.163  0.00  0.00    +0.034 C 
BRANCH  24  27
ATOM     27  O   UNL     1      -5.039   1.130   0.355  0.00  0.00    -0.464 OA
BRANCH  27  28
ATOM     28  C   UNL     1      -6.279   0.492   0.653  0.00  0.00    +0.314 C 
BRANCH  28  30
ATOM     29  O   UNL     1      -7.313   2.380  -0.474  0.00  0.00    -0.246 OA
ATOM     30  C   UNL     1      -7.417   1.313   0.112  0.00  0.00    +0.359 C 
BRANCH  30  31
ATOM     31  O   UNL     1      -8.600   0.698   0.364  0.00  0.00    -0.478 OA
ATOM     32  H   UNL     1      -8.614  -0.121   0.819  0.00  0.00    +0.295 HD
ENDBRANCH  30  31
ENDBRANCH  28  30
ENDBRANCH  27  28
ENDBRANCH  24  27
ENDBRANCH  18  19
ENDBRANCH  17  18
ENDBRANCH   1  17
TORSDOF 12
