REMARK  Name = 23649181
REMARK  7 active torsions:
REMARK  status: ('A' for Active; 'I' for Inactive)
REMARK    1  A    between atoms: C_2  and  C_12
REMARK    2  A    between atoms: C_5  and  C_32
REMARK    3  A    between atoms: C_7  and  N_25
REMARK    4  A    between atoms: C_8  and  N_22
REMARK    5  A    between atoms: C_9  and  N_28
REMARK    6  A    between atoms: C_15  and  O_18
REMARK    7  A    between atoms: C_17  and  O_20
REMARK                            x       y       z     vdW  Elec       q    Type
REMARK                         _______ _______ _______ _____ _____    ______ ____
ROOT
ATOM      1  O   UNL     1       2.525   1.219   0.879  0.00  0.00    -0.439 OA
ATOM      2  C   UNL     1       0.424   0.800  -1.069  0.00  0.00    +0.013 C 
ATOM      3  C   UNL     1       1.561  -0.177  -0.860  0.00  0.00    +0.019 C 
ATOM      4  C   UNL     1       2.533   0.082   0.109  0.00  0.00    +0.157 C 
ATOM      5  C   UNL     1       0.653   2.112  -0.336  0.00  0.00    +0.117 C 
ATOM      6  C   UNL     1       1.657  -1.351  -1.621  0.00  0.00    +0.057 C 
ATOM      7  C   UNL     1       3.571  -0.823   0.337  0.00  0.00    +0.089 C 
ATOM      8  C   UNL     1       1.648   2.257   0.570  0.00  0.00    +0.202 C 
ATOM      9  C   UNL     1       3.653  -1.992  -0.419  0.00  0.00    +0.054 C 
ATOM     10  C   UNL     1       2.698  -2.254  -1.399  0.00  0.00    -0.006 C 
ENDROOT
BRANCH   2  12
ATOM     11 BR   UNL     1      -4.461  -0.806  -2.518  0.00  0.00    -0.046 Br
ATOM     12  C   UNL     1      -0.883   0.190  -0.654  0.00  0.00    +0.004 C 
ATOM     13  C   UNL     1      -1.088  -0.184   0.674  0.00  0.00    +0.040 C 
ATOM     14  C   UNL     1      -1.895   0.000  -1.596  0.00  0.00    +0.010 C 
ATOM     15  C   UNL     1      -2.304  -0.748   1.060  0.00  0.00    +0.173 C 
ATOM     16  C   UNL     1      -3.111  -0.564  -1.209  0.00  0.00    +0.072 C 
ATOM     17  C   UNL     1      -3.315  -0.938   0.119  0.00  0.00    +0.178 C 
BRANCH  15  18
ATOM     18  O   UNL     1      -2.489  -1.108   2.361  0.00  0.00    -0.468 OA
ATOM     19  C   UNL     1      -1.404  -0.879   3.258  0.00  0.00    +0.253 C 
ENDBRANCH  15  18
BRANCH  17  20
ATOM     20  O   UNL     1      -4.497  -1.492   0.516  0.00  0.00    -0.468 OA
ATOM     21  C   UNL     1      -5.513  -0.597   0.961  0.00  0.00    +0.253 C 
ENDBRANCH  17  20
ENDBRANCH   2  12
BRANCH   8  22
ATOM     22  N   UNL     1       1.901   3.404   1.272  0.00  0.00    -0.328 N 
ATOM     23  H   UNL     1       2.645   3.434   1.916  0.00  0.00    +0.145 HD
ATOM     24  H   UNL     1       1.338   4.200   1.134  0.00  0.00    +0.145 HD
ENDBRANCH   8  22
BRANCH   7  25
ATOM     25  N   UNL     1       4.544  -0.552   1.329  0.00  0.00    -0.354 N 
ATOM     26  H   UNL     1       4.485   0.274   1.862  0.00  0.00    +0.142 HD
ATOM     27  H   UNL     1       5.278  -1.188   1.486  0.00  0.00    +0.142 HD
ENDBRANCH   7  25
BRANCH   9  28
ATOM     28  N   UNL     1       4.695  -2.922  -0.211  0.00  0.00    -0.356 N 
ATOM     29  H   UNL     1       5.377  -2.752   0.478  0.00  0.00    +0.142 HD
ATOM     30  H   UNL     1       4.739  -3.742  -0.755  0.00  0.00    +0.142 HD
ENDBRANCH   9  28
BRANCH   5  32
ATOM     31  N   UNL     1      -0.899   4.109  -0.905  0.00  0.00    -0.191 NA
ATOM     32  C   UNL     1      -0.205   3.215  -0.650  0.00  0.00    +0.105 C 
ENDBRANCH   5  32
TORSDOF 7
