REMARK  Name = 25114442
REMARK  7 active torsions:
REMARK  status: ('A' for Active; 'I' for Inactive)
REMARK    1  A    between atoms: C_3  and  C_15
REMARK    2  A    between atoms: C_3  and  C_18
REMARK    3  A    between atoms: C_6  and  C_8
REMARK    4  A    between atoms: C_15  and  O_16
REMARK    5  A    between atoms: C_18  and  O_19
REMARK    6  A    between atoms: O_19  and  C_20
REMARK    7  A    between atoms: C_28  and  O_30
REMARK                            x       y       z     vdW  Elec       q    Type
REMARK                         _______ _______ _______ _____ _____    ______ ____
ROOT
ATOM      1  O   UNL     1       2.759   0.752  -2.603  0.00  0.00    -0.270 OA
ATOM      2  N   UNL     1       2.647  -0.814  -0.920  0.00  0.00    -0.275 N 
ATOM      3  C   UNL     1       1.536  -2.166   0.139  0.00  0.00    +0.166 C 
ATOM      4  C   UNL     1       2.907  -1.506   0.328  0.00  0.00    +0.110 C 
ATOM      5  C   UNL     1       1.561  -1.690  -1.318  0.00  0.00    +0.110 C 
ATOM      6  C   UNL     1       3.122   0.329  -1.509  0.00  0.00    +0.249 C 
ENDROOT
BRANCH   6   8
ATOM      7  F   UNL     1       6.922   3.283   1.362  0.00  0.00    -0.204 F 
ATOM      8  C   UNL     1       4.122   1.106  -0.752  0.00  0.00    +0.054 C 
ATOM      9  C   UNL     1       5.336   0.520  -0.395  0.00  0.00    +0.007 C 
ATOM     10  C   UNL     1       3.854   2.428  -0.396  0.00  0.00    +0.007 C 
ATOM     11  C   UNL     1       6.282   1.255   0.319  0.00  0.00    +0.030 C 
ATOM     12  C   UNL     1       4.800   3.163   0.319  0.00  0.00    +0.030 C 
ATOM     13  C   UNL     1       6.014   2.577   0.676  0.00  0.00    +0.140 C 
ENDBRANCH   6   8
BRANCH   3  15
ATOM     14  O   UNL     1       1.758  -4.286   1.404  0.00  0.00    -0.250 OA
ATOM     15  C   UNL     1       1.476  -3.699   0.362  0.00  0.00    +0.320 C 
BRANCH  15  16
ATOM     16  O   UNL     1       1.063  -4.368  -0.750  0.00  0.00    -0.480 OA
ATOM     17  H   UNL     1       0.855  -3.895  -1.531  0.00  0.00    +0.295 HD
ENDBRANCH  15  16
ENDBRANCH   3  15
BRANCH   3  18
ATOM     18  C   UNL     1       0.457  -1.464   0.940  0.00  0.00    +0.219 C 
BRANCH  18  19
ATOM     19  O   UNL     1      -0.816  -1.942   0.507  0.00  0.00    -0.475 OA
BRANCH  19  20
ATOM     20  C   UNL     1      -1.867  -1.083   0.608  0.00  0.00    +0.139 C 
ATOM     21  C   UNL     1      -2.927  -1.171  -0.295  0.00  0.00    +0.037 C 
ATOM     22  C   UNL     1      -1.883  -0.117   1.610  0.00  0.00    +0.037 C 
ATOM     23  C   UNL     1      -4.019  -0.292  -0.205  0.00  0.00    +0.003 C 
ATOM     24  C   UNL     1      -4.036   0.690   0.814  0.00  0.00    +0.003 C 
ATOM     25  C   UNL     1      -2.960   0.764   1.714  0.00  0.00    +0.003 C 
ATOM     26  C   UNL     1      -5.095  -0.367  -1.105  0.00  0.00    +0.003 C 
ATOM     27  C   UNL     1      -5.128   1.568   0.903  0.00  0.00    +0.037 C 
ATOM     28  C   UNL     1      -6.188   1.480   0.001  0.00  0.00    +0.139 C 
ATOM     29  C   UNL     1      -6.172   0.515  -1.002  0.00  0.00    +0.037 C 
BRANCH  28  30
ATOM     30  O   UNL     1      -7.238   2.341   0.100  0.00  0.00    -0.471 OA
ATOM     31  C   UNL     1      -8.287   2.197  -0.856  0.00  0.00    +0.252 C 
ENDBRANCH  28  30
ENDBRANCH  19  20
ENDBRANCH  18  19
ENDBRANCH   3  18
TORSDOF 7
