3822
  -OEChem-10051722463D

 51 54  0     0  0  0  0  0  0999 V2000
   -8.2678   -2.3580    0.7787 F   0  0  0  0  0  0  0  0  0  0  0  0
   -3.5326    0.7806   -1.9190 O   0  0  0  0  0  0  0  0  0  0  0  0
    3.7794    0.9137    1.9558 O   0  0  0  0  0  0  0  0  0  0  0  0
    2.6852    0.1565   -2.5256 O   0  0  0  0  0  0  0  0  0  0  0  0
   -0.4291    1.0271    0.6053 N   0  0  0  0  0  0  0  0  0  0  0  0
    3.1608    0.5849   -0.2754 N   0  0  0  0  0  0  0  0  0  0  0  0
    4.6695   -0.5883   -1.6980 N   0  0  0  0  0  0  0  0  0  0  0  0
   -3.2712    1.6854    0.2650 C   0  0  0  0  0  0  0  0  0  0  0  0
   -2.7541    0.8643    1.4456 C   0  0  0  0  0  0  0  0  0  0  0  0
   -2.1529    2.5014   -0.3820 C   0  0  0  0  0  0  0  0  0  0  0  0
   -1.4547    0.1170    1.1308 C   0  0  0  0  0  0  0  0  0  0  0  0
   -0.8872    1.6763   -0.6294 C   0  0  0  0  0  0  0  0  0  0  0  0
    0.8216    0.3055    0.3694 C   0  0  0  0  0  0  0  0  0  0  0  0
   -3.9331    0.8080   -0.7576 C   0  0  0  0  0  0  0  0  0  0  0  0
    1.9149    1.2704   -0.0652 C   0  0  0  0  0  0  0  0  0  0  0  0
   -5.0901   -0.0369   -0.3474 C   0  0  0  0  0  0  0  0  0  0  0  0
    4.0310    0.4697    0.8382 C   0  0  0  0  0  0  0  0  0  0  0  0
    3.4524    0.0592   -1.5639 C   0  0  0  0  0  0  0  0  0  0  0  0
   -5.9059    0.4069    0.6694 C   0  0  0  0  0  0  0  0  0  0  0  0
   -5.3014   -1.2309   -1.0006 C   0  0  0  0  0  0  0  0  0  0  0  0
    5.3078   -0.2338    0.6089 C   0  0  0  0  0  0  0  0  0  0  0  0
    5.5885   -0.7421   -0.6556 C   0  0  0  0  0  0  0  0  0  0  0  0
   -6.9889   -0.3841    1.0532 C   0  0  0  0  0  0  0  0  0  0  0  0
   -6.3844   -2.0220   -0.6171 C   0  0  0  0  0  0  0  0  0  0  0  0
    6.2314   -0.3919    1.6474 C   0  0  0  0  0  0  0  0  0  0  0  0
    6.7919   -1.4113   -0.8929 C   0  0  0  0  0  0  0  0  0  0  0  0
   -7.2283   -1.5985    0.4099 C   0  0  0  0  0  0  0  0  0  0  0  0
    7.4335   -1.0601    1.4100 C   0  0  0  0  0  0  0  0  0  0  0  0
    7.7135   -1.5689    0.1421 C   0  0  0  0  0  0  0  0  0  0  0  0
   -4.0170    2.4101    0.6116 H   0  0  0  0  0  0  0  0  0  0  0  0
   -3.4872    0.1452    1.8226 H   0  0  0  0  0  0  0  0  0  0  0  0
   -2.5576    1.5539    2.2783 H   0  0  0  0  0  0  0  0  0  0  0  0
   -1.8978    3.3322    0.2907 H   0  0  0  0  0  0  0  0  0  0  0  0
   -2.4838    2.9638   -1.3201 H   0  0  0  0  0  0  0  0  0  0  0  0
   -1.0985   -0.3465    2.0591 H   0  0  0  0  0  0  0  0  0  0  0  0
   -1.6583   -0.6958    0.4212 H   0  0  0  0  0  0  0  0  0  0  0  0
   -1.0487    0.9400   -1.4258 H   0  0  0  0  0  0  0  0  0  0  0  0
   -0.1621    2.4027   -1.0044 H   0  0  0  0  0  0  0  0  0  0  0  0
    0.6891   -0.4850   -0.3815 H   0  0  0  0  0  0  0  0  0  0  0  0
    1.1386   -0.1914    1.2955 H   0  0  0  0  0  0  0  0  0  0  0  0
    2.0469    2.0559    0.6891 H   0  0  0  0  0  0  0  0  0  0  0  0
    1.6812    1.7702   -1.0080 H   0  0  0  0  0  0  0  0  0  0  0  0
   -5.7642    1.3520    1.1805 H   0  0  0  0  0  0  0  0  0  0  0  0
   -4.6492   -1.5746   -1.7977 H   0  0  0  0  0  0  0  0  0  0  0  0
    4.9100   -0.9751   -2.6063 H   0  0  0  0  0  0  0  0  0  0  0  0
   -7.6486   -0.0534    1.8500 H   0  0  0  0  0  0  0  0  0  0  0  0
   -6.5702   -2.9682   -1.1167 H   0  0  0  0  0  0  0  0  0  0  0  0
    6.0348   -0.0040    2.6430 H   0  0  0  0  0  0  0  0  0  0  0  0
    7.0218   -1.8126   -1.8765 H   0  0  0  0  0  0  0  0  0  0  0  0
    8.1526   -1.1841    2.2147 H   0  0  0  0  0  0  0  0  0  0  0  0
    8.6499   -2.0885   -0.0394 H   0  0  0  0  0  0  0  0  0  0  0  0
  1 27  1  0  0  0  0
  2 14  2  0  0  0  0
  3 17  2  0  0  0  0
  4 18  2  0  0  0  0
  5 11  1  0  0  0  0
  5 12  1  0  0  0  0
  5 13  1  0  0  0  0
  6 15  1  0  0  0  0
  6 17  1  0  0  0  0
  6 18  1  0  0  0  0
  7 18  1  0  0  0  0
  7 22  1  0  0  0  0
  7 45  1  0  0  0  0
  8  9  1  0  0  0  0
  8 10  1  0  0  0  0
  8 14  1  0  0  0  0
  8 30  1  0  0  0  0
  9 11  1  0  0  0  0
  9 31  1  0  0  0  0
  9 32  1  0  0  0  0
 10 12  1  0  0  0  0
 10 33  1  0  0  0  0
 10 34  1  0  0  0  0
 11 35  1  0  0  0  0
 11 36  1  0  0  0  0
 12 37  1  0  0  0  0
 12 38  1  0  0  0  0
 13 15  1  0  0  0  0
 13 39  1  0  0  0  0
 13 40  1  0  0  0  0
 14 16  1  0  0  0  0
 15 41  1  0  0  0  0
 15 42  1  0  0  0  0
 16 19  2  0  0  0  0
 16 20  1  0  0  0  0
 17 21  1  0  0  0  0
 19 23  1  0  0  0  0
 19 43  1  0  0  0  0
 20 24  2  0  0  0  0
 20 44  1  0  0  0  0
 21 22  1  0  0  0  0
 21 25  2  0  0  0  0
 22 26  2  0  0  0  0
 23 27  2  0  0  0  0
 23 46  1  0  0  0  0
 24 27  1  0  0  0  0
 24 47  1  0  0  0  0
 25 28  1  0  0  0  0
 25 48  1  0  0  0  0
 26 29  1  0  0  0  0
 26 49  1  0  0  0  0
 28 29  2  0  0  0  0
 28 50  1  0  0  0  0
 29 51  1  0  0  0  0
M  END
> <DATABASE_ID>
DB12465

> <DATABASE_NAME>
drugbank

> <ORIGINAL_SOURCE>
PUBCHEM

> <ORIGINAL_SOURCE_URL>
https://pubchem.ncbi.nlm.nih.gov/rest/pug/compound/inchikey/FPCCSQOGAWCVBH-UHFFFAOYSA-N/SDF?record_type=3d

> <SMILES>
FC1=CC=C(C=C1)C(=O)C1CCN(CCN2C(=O)NC3=CC=CC=C3C2=O)CC1

> <INCHI_IDENTIFIER>
InChI=1S/C22H22FN3O3/c23-17-7-5-15(6-8-17)20(27)16-9-11-25(12-10-16)13-14-26-21(28)18-3-1-2-4-19(18)24-22(26)29/h1-8,16H,9-14H2,(H,24,29)

> <INCHI_KEY>
FPCCSQOGAWCVBH-UHFFFAOYSA-N

> <FORMULA>
C22H22FN3O3

> <MOLECULAR_WEIGHT>
395.434

> <EXACT_MASS>
395.164519743

> <JCHEM_ACCEPTOR_COUNT>
4

> <JCHEM_ATOM_COUNT>
51

> <JCHEM_AVERAGE_POLARIZABILITY>
39.88583845464984

> <JCHEM_BIOAVAILABILITY>
1

> <JCHEM_DONOR_COUNT>
1

> <JCHEM_FORMAL_CHARGE>
0

> <JCHEM_GHOSE_FILTER>
1

> <JCHEM_IUPAC>
3-{2-[4-(4-fluorobenzoyl)piperidin-1-yl]ethyl}-1,2,3,4-tetrahydroquinazoline-2,4-dione

> <ALOGPS_LOGP>
2.92

> <JCHEM_LOGP>
3.609319796

> <ALOGPS_LOGS>
-3.40

> <JCHEM_MDDR_LIKE_RULE>
0

> <JCHEM_NUMBER_OF_RINGS>
4

> <JCHEM_PHYSIOLOGICAL_CHARGE>
1

> <JCHEM_PKA>
16.566906004254218

> <JCHEM_PKA_STRONGEST_ACIDIC>
11.424021035928964

> <JCHEM_PKA_STRONGEST_BASIC>
7.285732205758433

> <JCHEM_POLAR_SURFACE_AREA>
69.72

> <JCHEM_REFRACTIVITY>
109.10730000000001

> <JCHEM_ROTATABLE_BOND_COUNT>
5

> <JCHEM_RULE_OF_FIVE>
1

> <ALOGPS_SOLUBILITY>
1.56e-01 g/l

> <JCHEM_TRADITIONAL_IUPAC>
ketanserin

> <JCHEM_VEBER_RULE>
0

> <DRUGBANK_ID>
DB12465

> <DRUG_GROUPS>
investigational

> <GENERIC_NAME>
Ketanserin

> <SYNONYMS>
Ketanserin; ketanserina

$$$$
