REMARK  Name = 25118925
REMARK  3 active torsions:
REMARK  status: ('A' for Active; 'I' for Inactive)
REMARK    1  A    between atoms: C_3  and  C_12
REMARK    2  A    between atoms: C_5  and  C_24
REMARK    3  A    between atoms: C_27  and  C_33
REMARK                            x       y       z     vdW  Elec       q    Type
REMARK                         _______ _______ _______ _____ _____    ______ ____
ROOT
ATOM      1  N   UNL     1      -1.145   3.180   0.452  0.00  0.00    -0.279 N 
ATOM      2  N   UNL     1      -1.341   0.993   0.116  0.00  0.00    -0.394 NA
ATOM      3  C   UNL     1      -0.503   1.976   0.363  0.00  0.00    +0.160 C 
ATOM      4  C   UNL     1      -2.477   2.950   0.249  0.00  0.00    +0.152 C 
ATOM      5  C   UNL     1      -2.573   1.594   0.044  0.00  0.00    +0.130 C 
ATOM      6  C   UNL     1      -0.543   4.466   0.711  0.00  0.00    +0.115 C 
ENDROOT
BRANCH   3  12
ATOM      7  N   UNL     1       3.604   0.668   0.086  0.00  0.00    -0.296 N 
ATOM      8  N   UNL     1       5.927   1.007  -0.341  0.00  0.00    -0.233 NA
ATOM      9  N   UNL     1       6.418  -2.984  -0.213  0.00  0.00    -0.223 N 
ATOM     10  N   UNL     1       7.507  -0.843  -0.520  0.00  0.00    -0.232 NA
ATOM     11  N   UNL     1       5.195  -3.491   0.029  0.00  0.00    -0.183 NA
ATOM     12  C   UNL     1       0.998   1.845   0.536  0.00  0.00    +0.070 C 
ATOM     13  C   UNL     1       1.752   2.039  -0.788  0.00  0.00    +0.030 C 
ATOM     14  C   UNL     1       1.393   0.498   1.159  0.00  0.00    +0.030 C 
ATOM     15  C   UNL     1       3.263   1.930  -0.586  0.00  0.00    +0.092 C 
ATOM     16  C   UNL     1       2.907   0.392   1.347  0.00  0.00    +0.092 C 
ATOM     17  C   UNL     1       4.893   0.161  -0.114  0.00  0.00    +0.118 C 
ATOM     18  C   UNL     1       5.135  -1.209  -0.082  0.00  0.00    +0.152 C 
ATOM     19  C   UNL     1       6.439  -1.623  -0.290  0.00  0.00    +0.133 C 
ATOM     20  C   UNL     1       4.418  -2.405   0.108  0.00  0.00    +0.105 C 
ATOM     21  C   UNL     1       7.152   0.460  -0.527  0.00  0.00    +0.252 C 
ATOM     22  H   UNL     1       7.221  -3.542  -0.324  0.00  0.00    +0.176 HD
ENDBRANCH   3  12
BRANCH   5  24
ATOM     23  F   UNL     1      -7.314  -1.132  -0.958  0.00  0.00    -0.204 F 
ATOM     24  C   UNL     1      -3.791   0.890  -0.213  0.00  0.00    +0.027 C 
ATOM     25  C   UNL     1      -3.931  -0.436   0.196  0.00  0.00    +0.008 C 
ATOM     26  C   UNL     1      -4.841   1.531  -0.871  0.00  0.00    +0.005 C 
ATOM     27  C   UNL     1      -5.119  -1.122  -0.054  0.00  0.00    +0.099 C 
ATOM     28  C   UNL     1      -6.029   0.846  -1.122  0.00  0.00    +0.030 C 
ATOM     29  C   UNL     1      -6.168  -0.481  -0.713  0.00  0.00    +0.144 C 
BRANCH  27  33
ATOM     30  F   UNL     1      -4.160  -3.035   1.014  0.00  0.00    -0.166 F 
ATOM     31  F   UNL     1      -6.294  -2.738   1.260  0.00  0.00    -0.166 F 
ATOM     32  F   UNL     1      -5.503  -3.389  -0.659  0.00  0.00    -0.166 F 
ATOM     33  C   UNL     1      -5.266  -2.540   0.383  0.00  0.00    +0.421 C 
ENDBRANCH  27  33
ENDBRANCH   5  24
TORSDOF 3
