REMARK  Name = 46926350
REMARK  7 active torsions:
REMARK  status: ('A' for Active; 'I' for Inactive)
REMARK    1  A    between atoms: C_5  and  C_28
REMARK    2  A    between atoms: C_12  and  N_16
REMARK    3  A    between atoms: C_14  and  C_26
REMARK    4  A    between atoms: N_16  and  C_18
REMARK    5  A    between atoms: C_18  and  C_21
REMARK    6  A    between atoms: C_28  and  C_29
REMARK    7  A    between atoms: C_29  and  O_30
REMARK                            x       y       z     vdW  Elec       q    Type
REMARK                         _______ _______ _______ _____ _____    ______ ____
ROOT
ATOM      1  N   UNL     1      -2.660   1.153   0.556  0.00  0.00    -0.285 N 
ATOM      2  N   UNL     1      -2.229  -1.062   0.076  0.00  0.00    -0.374 NA
ATOM      3  N   UNL     1       0.056  -1.806  -0.080  0.00  0.00    -0.152 N 
ATOM      4  N   UNL     1       0.763  -2.946  -0.325  0.00  0.00    -0.174 NA
ATOM      5  C   UNL     1      -3.912   1.249  -0.209  0.00  0.00    +0.078 C 
ATOM      6  C   UNL     1      -5.080   1.607   0.720  0.00  0.00    +0.020 C 
ATOM      7  C   UNL     1      -4.779   2.803   1.619  0.00  0.00    +0.003 C 
ATOM      8  C   UNL     1      -2.324   2.270   1.442  0.00  0.00    +0.093 C 
ATOM      9  C   UNL     1      -3.481   2.576   2.386  0.00  0.00    +0.022 C 
ATOM     10  C   UNL     1      -1.781   0.144   0.339  0.00  0.00    +0.187 C 
ATOM     11  C   UNL     1      -0.315   0.468   0.414  0.00  0.00    +0.079 C 
ATOM     12  C   UNL     1       0.559  -0.528   0.200  0.00  0.00    +0.127 C 
ATOM     13  C   UNL     1      -1.316  -2.047  -0.136  0.00  0.00    +0.191 C 
ATOM     14  C   UNL     1      -1.467  -3.384  -0.426  0.00  0.00    +0.112 C 
ATOM     15  C   UNL     1      -0.163  -3.880  -0.531  0.00  0.00    +0.100 C 
ENDROOT
BRANCH  12  16
ATOM     16  N   UNL     1       1.916  -0.376   0.237  0.00  0.00    -0.316 N 
ATOM     17  H   UNL     1       2.479  -1.165   0.067  0.00  0.00    +0.148 HD
BRANCH  16  18
ATOM     18  C   UNL     1       2.564   0.879   0.513  0.00  0.00    +0.117 C 
BRANCH  18  21
ATOM     19  O   UNL     1       6.765   1.495  -1.757  0.00  0.00    -0.163 OA
ATOM     20  N   UNL     1       6.133   1.063  -0.739  0.00  0.00    -0.127 N 
ATOM     21  C   UNL     1       4.058   0.726   0.448  0.00  0.00    +0.018 C 
ATOM     22  C   UNL     1       4.760   1.194  -0.659  0.00  0.00    +0.119 C 
ATOM     23  C   UNL     1       4.750   0.118   1.490  0.00  0.00    +0.001 C 
ATOM     24  C   UNL     1       6.132  -0.018   1.419  0.00  0.00    +0.022 C 
ATOM     25  C   UNL     1       6.810   0.457   0.301  0.00  0.00    +0.121 C 
ENDBRANCH  18  21
ENDBRANCH  16  18
ENDBRANCH  12  16
BRANCH  14  26
ATOM     26  C   UNL     1      -2.726  -4.131  -0.591  0.00  0.00    +0.015 C 
ATOM     27  C   UNL     1      -3.406  -4.461   0.743  0.00  0.00    +0.001 C 
ENDBRANCH  14  26
BRANCH   5  28
ATOM     28  C   UNL     1      -3.755   2.235  -1.367  0.00  0.00    +0.052 C 
BRANCH  28  29
ATOM     29  C   UNL     1      -2.998   1.615  -2.526  0.00  0.00    +0.139 C 
BRANCH  29  30
ATOM     30  O   UNL     1      -2.874   2.587  -3.555  0.00  0.00    -0.382 OA
ATOM     31  H   UNL     1      -2.391   2.204  -4.305  0.00  0.00    +0.210 HD
ENDBRANCH  29  30
ENDBRANCH  28  29
ENDBRANCH   5  28
TORSDOF 7
