45102284
  -OEChem-10051722543D

 52 55  0     1  0  0  0  0  0999 V2000
   -3.5831   -1.0527    0.1086 P   0  0  1  0  0  0  0  0  0  0  0  0
   -1.9412    2.8953    0.0108 F   0  0  0  0  0  0  0  0  0  0  0  0
   -0.3138    1.1247    1.8875 O   0  0  0  0  0  0  0  0  0  0  0  0
   -2.9468    0.3585   -0.3984 O   0  0  0  0  0  0  0  0  0  0  0  0
   -3.2801   -1.0630    1.7074 O   0  0  0  0  0  0  0  0  0  0  0  0
   -5.1772   -0.7956    0.0359 O   0  0  0  0  0  0  0  0  0  0  0  0
   -3.1053   -2.2712   -0.6263 O   0  0  0  0  0  0  0  0  0  0  0  0
    5.4580   -0.3895   -0.7207 O   0  0  0  0  0  0  0  0  0  0  0  0
    1.4953    1.6888    0.3728 N   0  0  0  0  0  0  0  0  0  0  0  0
    3.5734    1.9915   -0.3750 N   0  0  0  0  0  0  0  0  0  0  0  0
    1.5059   -0.7220    0.6698 N   0  0  0  0  0  0  0  0  0  0  0  0
    3.6636   -1.6812    0.0525 N   0  0  0  0  0  0  0  0  0  0  0  0
    1.9044   -3.0226    0.8234 N   0  0  0  0  0  0  0  0  0  0  0  0
   -1.0152    1.9253   -0.2720 C   0  0  2  0  0  0  0  0  0  0  0  0
   -1.6272    0.5823    0.0481 C   0  0  1  0  0  0  0  0  0  0  0  0
   -1.6125    0.6354    1.5613 C   0  0  1  0  0  0  0  0  0  0  0  0
    0.0881    2.0246    0.8087 C   0  0  1  0  0  0  0  0  0  0  0  0
   -1.9612   -0.7215    2.1425 C   0  0  0  0  0  0  0  0  0  0  0  0
   -0.6189    2.1093   -1.7233 C   0  0  0  0  0  0  0  0  0  0  0  0
    2.0667    0.4490    0.3322 C   0  0  0  0  0  0  0  0  0  0  0  0
    2.4390    2.5817   -0.0612 C   0  0  0  0  0  0  0  0  0  0  0  0
    3.3548    0.6584   -0.1339 C   0  0  0  0  0  0  0  0  0  0  0  0
   -5.8155   -1.0415   -1.2043 C   0  0  0  0  0  0  0  0  0  0  0  0
    4.1646   -0.4646   -0.2704 C   0  0  0  0  0  0  0  0  0  0  0  0
    2.3843   -1.7335    0.4960 C   0  0  0  0  0  0  0  0  0  0  0  0
   -5.5337    0.1155   -2.1506 C   0  0  0  0  0  0  0  0  0  0  0  0
   -7.3064   -1.2326   -0.9708 C   0  0  0  0  0  0  0  0  0  0  0  0
    6.1743   -1.6147   -0.8126 C   0  0  0  0  0  0  0  0  0  0  0  0
    7.5660   -1.3340   -1.3381 C   0  0  0  0  0  0  0  0  0  0  0  0
   -0.9833   -0.2203   -0.3331 H   0  0  0  0  0  0  0  0  0  0  0  0
   -2.3571    1.3593    1.9227 H   0  0  0  0  0  0  0  0  0  0  0  0
    0.1482    3.0352    1.2293 H   0  0  0  0  0  0  0  0  0  0  0  0
   -1.9466   -0.6913    3.2363 H   0  0  0  0  0  0  0  0  0  0  0  0
   -1.2576   -1.4992    1.8268 H   0  0  0  0  0  0  0  0  0  0  0  0
    0.0835    1.3410   -2.0601 H   0  0  0  0  0  0  0  0  0  0  0  0
   -1.5036    2.0672   -2.3676 H   0  0  0  0  0  0  0  0  0  0  0  0
   -0.1632    3.0931   -1.8747 H   0  0  0  0  0  0  0  0  0  0  0  0
    2.2423    3.6429   -0.1284 H   0  0  0  0  0  0  0  0  0  0  0  0
   -5.4269   -1.9687   -1.6403 H   0  0  0  0  0  0  0  0  0  0  0  0
   -5.7751    1.0756   -1.6817 H   0  0  0  0  0  0  0  0  0  0  0  0
   -6.1127    0.0204   -3.0747 H   0  0  0  0  0  0  0  0  0  0  0  0
   -4.4758    0.1500   -2.4270 H   0  0  0  0  0  0  0  0  0  0  0  0
   -7.4801   -2.0619   -0.2767 H   0  0  0  0  0  0  0  0  0  0  0  0
   -7.8338   -1.4432   -1.9061 H   0  0  0  0  0  0  0  0  0  0  0  0
   -7.7472   -0.3408   -0.5118 H   0  0  0  0  0  0  0  0  0  0  0  0
    2.5138   -3.8215    0.7157 H   0  0  0  0  0  0  0  0  0  0  0  0
    0.9574   -3.1285    1.1605 H   0  0  0  0  0  0  0  0  0  0  0  0
    5.6638   -2.2998   -1.5001 H   0  0  0  0  0  0  0  0  0  0  0  0
    6.2510   -2.0810    0.1769 H   0  0  0  0  0  0  0  0  0  0  0  0
    7.5176   -0.8570   -2.3226 H   0  0  0  0  0  0  0  0  0  0  0  0
    8.0962   -0.6421   -0.6753 H   0  0  0  0  0  0  0  0  0  0  0  0
    8.1464   -2.2572   -1.4215 H   0  0  0  0  0  0  0  0  0  0  0  0
  1  4  1  0  0  0  0
  1  5  1  0  0  0  0
  1  6  1  0  0  0  0
  1  7  2  0  0  0  0
  2 14  1  0  0  0  0
  3 16  1  0  0  0  0
  3 17  1  0  0  0  0
  4 15  1  0  0  0  0
  5 18  1  0  0  0  0
  6 23  1  0  0  0  0
  8 24  1  0  0  0  0
  8 28  1  0  0  0  0
  9 17  1  0  0  0  0
  9 20  1  0  0  0  0
  9 21  1  0  0  0  0
 10 21  2  0  0  0  0
 10 22  1  0  0  0  0
 11 20  1  0  0  0  0
 11 25  2  0  0  0  0
 12 24  2  0  0  0  0
 12 25  1  0  0  0  0
 13 25  1  0  0  0  0
 13 46  1  0  0  0  0
 13 47  1  0  0  0  0
 14 15  1  0  0  0  0
 14 17  1  0  0  0  0
 14 19  1  0  0  0  0
 15 16  1  0  0  0  0
 15 30  1  0  0  0  0
 16 18  1  0  0  0  0
 16 31  1  0  0  0  0
 17 32  1  0  0  0  0
 18 33  1  0  0  0  0
 18 34  1  0  0  0  0
 19 35  1  0  0  0  0
 19 36  1  0  0  0  0
 19 37  1  0  0  0  0
 20 22  2  0  0  0  0
 21 38  1  0  0  0  0
 22 24  1  0  0  0  0
 23 26  1  0  0  0  0
 23 27  1  0  0  0  0
 23 39  1  0  0  0  0
 26 40  1  0  0  0  0
 26 41  1  0  0  0  0
 26 42  1  0  0  0  0
 27 43  1  0  0  0  0
 27 44  1  0  0  0  0
 27 45  1  0  0  0  0
 28 29  1  0  0  0  0
 28 48  1  0  0  0  0
 28 49  1  0  0  0  0
 29 50  1  0  0  0  0
 29 51  1  0  0  0  0
 29 52  1  0  0  0  0
M  END
> <DATABASE_ID>
DB12896

> <DATABASE_NAME>
drugbank

> <ORIGINAL_SOURCE>
PUBCHEM

> <ORIGINAL_SOURCE_URL>
https://pubchem.ncbi.nlm.nih.gov/rest/pug/compound/inchikey/PVRFQJIRERYGTQ-DSQUMVBZSA-N/SDF?record_type=3d

> <SMILES>
CCOC1=C2N=CN([C@@H]3O[C@@H]4CO[P@@](=O)(OC(C)C)O[C@H]4[C@@]3(C)F)C2=NC(N)=N1

> <INCHI_IDENTIFIER>
InChI=1S/C16H23FN5O6P/c1-5-24-13-10-12(20-15(18)21-13)22(7-19-10)14-16(4,17)11-9(26-14)6-25-29(23,28-11)27-8(2)3/h7-9,11,14H,5-6H2,1-4H3,(H2,18,20,21)/t9-,11-,14-,16-,29+/m1/s1

> <INCHI_KEY>
PVRFQJIRERYGTQ-DSQUMVBZSA-N

> <FORMULA>
C16H23FN5O6P

> <MOLECULAR_WEIGHT>
431.361

> <EXACT_MASS>
431.136998642

> <JCHEM_ACCEPTOR_COUNT>
7

> <JCHEM_ATOM_COUNT>
52

> <JCHEM_AVERAGE_POLARIZABILITY>
40.952682175315985

> <JCHEM_BIOAVAILABILITY>
1

> <JCHEM_DONOR_COUNT>
1

> <JCHEM_FORMAL_CHARGE>
0

> <JCHEM_GHOSE_FILTER>
1

> <JCHEM_IUPAC>
(2S,4aR,6R,7R,7aR)-6-(2-amino-6-ethoxy-9H-purin-9-yl)-7-fluoro-7-methyl-2-(propan-2-yloxy)-hexahydro-2lambda5-furo[3,2-d][1,3,2]dioxaphosphinin-2-one

> <ALOGPS_LOGP>
1.82

> <JCHEM_LOGP>
1.8829427436666664

> <ALOGPS_LOGS>
-2.19

> <JCHEM_MDDR_LIKE_RULE>
0

> <JCHEM_NUMBER_OF_RINGS>
4

> <JCHEM_PHYSIOLOGICAL_CHARGE>
0

> <JCHEM_PKA_STRONGEST_ACIDIC>
16.213527530733003

> <JCHEM_PKA_STRONGEST_BASIC>
3.433595941275727

> <JCHEM_POLAR_SURFACE_AREA>
132.84000000000003

> <JCHEM_REFRACTIVITY>
98.04310000000004

> <JCHEM_ROTATABLE_BOND_COUNT>
5

> <JCHEM_RULE_OF_FIVE>
1

> <ALOGPS_SOLUBILITY>
2.77e+00 g/l

> <JCHEM_TRADITIONAL_IUPAC>
(2S,4aR,6R,7R,7aR)-6-(2-amino-6-ethoxypurin-9-yl)-7-fluoro-2-isopropoxy-7-methyl-tetrahydro-2lambda5-furo[3,2-d][1,3,2]dioxaphosphinin-2-one

> <JCHEM_VEBER_RULE>
0

> <DRUGBANK_ID>
DB12896

> <DRUG_GROUPS>
investigational

> <GENERIC_NAME>
PSI-352938

$$$$
