REMARK  Name = 9878913
REMARK  3 active torsions:
REMARK  status: ('A' for Active; 'I' for Inactive)
REMARK    1  A    between atoms: C_1  and  C_8
REMARK    2  A    between atoms: C_2  and  S_15
REMARK    3  A    between atoms: S_15  and  C_16
REMARK                            x       y       z     vdW  Elec       q    Type
REMARK                         _______ _______ _______ _____ _____    ______ ____
ROOT
ATOM      1  C   UNL     1      -1.492  -0.915   0.016  0.00  0.00    -0.017 C 
ATOM      2  C   UNL     1      -0.263  -1.146  -0.605  0.00  0.00    +0.025 C 
ATOM      3  C   UNL     1      -2.038  -1.884   0.860  0.00  0.00    -0.004 C 
ATOM      4  C   UNL     1       0.418  -2.343  -0.383  0.00  0.00    +0.006 C 
ATOM      5  C   UNL     1      -1.356  -3.081   1.081  0.00  0.00    -0.000 C 
ATOM      6  C   UNL     1      -0.129  -3.310   0.460  0.00  0.00    +0.000 C 
ENDROOT
BRANCH   1   8
ATOM      7  N   UNL     1      -4.575   2.115   0.280  0.00  0.00    +0.384 N 
ATOM      8  C   UNL     1      -2.273   0.372  -0.192  0.00  0.00    +0.019 C 
ATOM      9  C   UNL     1      -2.450   1.163   1.114  0.00  0.00    -0.019 C 
ATOM     10  C   UNL     1      -3.639   0.123  -0.850  0.00  0.00    -0.019 C 
ATOM     11  C   UNL     1      -3.279   2.427   0.881  0.00  0.00    -0.081 C 
ATOM     12  C   UNL     1      -4.420   1.429  -1.004  0.00  0.00    -0.081 C 
ATOM     13  H   UNL     1      -5.090   2.983   0.131  0.00  0.00    -0.085 HD
ATOM     14  H   UNL     1      -5.082   1.496   0.913  0.00  0.00    -0.085 HD
ENDBRANCH   1   8
BRANCH   2  15
ATOM     15  S   UNL     1       0.479   0.063  -1.694  0.00  0.00    -0.087 S 
BRANCH  15  16
ATOM     16  C   UNL     1       2.018   0.386  -0.849  0.00  0.00    +0.029 C 
ATOM     17  C   UNL     1       2.005   0.886   0.451  0.00  0.00    +0.006 C 
ATOM     18  C   UNL     1       3.229   0.137  -1.492  0.00  0.00    +0.006 C 
ATOM     19  C   UNL     1       4.420   0.890   0.470  0.00  0.00    -0.022 C 
ATOM     20  C   UNL     1       3.207   1.139   1.112  0.00  0.00    -0.004 C 
ATOM     21  C   UNL     1       4.431   0.389  -0.832  0.00  0.00    -0.004 C 
ATOM     22  C   UNL     1       5.706   1.160   1.176  0.00  0.00    +0.031 C 
ENDBRANCH  15  16
ENDBRANCH   2  15
TORSDOF 3
