REMARK  Name = 16102897
REMARK  8 active torsions:
REMARK  status: ('A' for Active; 'I' for Inactive)
REMARK    1  A    between atoms: C_2  and  C_19
REMARK    2  A    between atoms: C_7  and  C_9
REMARK    3  A    between atoms: C_10  and  C_16
REMARK    4  A    between atoms: C_16  and  O_17
REMARK    5  A    between atoms: C_19  and  N_22
REMARK    6  A    between atoms: C_23  and  C_25
REMARK    7  A    between atoms: C_25  and  N_29
REMARK    8  A    between atoms: C_30  and  C_35
REMARK                            x       y       z     vdW  Elec       q    Type
REMARK                         _______ _______ _______ _____ _____    ______ ____
ROOT
ATOM      1  F   UNL     1      -0.089  -2.808  -2.136  0.00  0.00    -0.204 F 
ATOM      2  C   UNL     1      -0.357  -2.401   0.188  0.00  0.00    +0.023 C 
ATOM      3  C   UNL     1       0.405  -2.344  -0.979  0.00  0.00    +0.138 C 
ATOM      4  C   UNL     1       0.165  -1.915   1.386  0.00  0.00    -0.000 C 
ATOM      5  C   UNL     1       1.690  -1.801  -0.948  0.00  0.00    +0.029 C 
ATOM      6  C   UNL     1       1.450  -1.373   1.418  0.00  0.00    -0.000 C 
ATOM      7  C   UNL     1       2.212  -1.316   0.251  0.00  0.00    +0.002 C 
ENDROOT
BRANCH   7   9
ATOM      8 CL   UNL     1       5.388   2.793  -0.168  0.00  0.00    -0.082 Cl
ATOM      9  C   UNL     1       3.544  -0.753   0.284  0.00  0.00    +0.007 C 
ATOM     10  C   UNL     1       3.766   0.606   0.061  0.00  0.00    +0.086 C 
ATOM     11  C   UNL     1       4.620  -1.601   0.547  0.00  0.00    +0.000 C 
ATOM     12  C   UNL     1       5.064   1.117   0.100  0.00  0.00    +0.064 C 
ATOM     13  C   UNL     1       5.918  -1.090   0.586  0.00  0.00    +0.001 C 
ATOM     14  C   UNL     1       6.139   0.269   0.363  0.00  0.00    +0.012 C 
BRANCH  10  16
ATOM     15  O   UNL     1       2.000   2.092   0.658  0.00  0.00    -0.245 OA
ATOM     16  C   UNL     1       2.635   1.493  -0.212  0.00  0.00    +0.342 C 
BRANCH  16  17
ATOM     17  O   UNL     1       2.380   1.571  -1.551  0.00  0.00    -0.441 OA
ATOM     18  C   UNL     1       1.292   2.413  -1.947  0.00  0.00    +0.256 C 
ENDBRANCH  16  17
ENDBRANCH  10  16
ENDBRANCH   7   9
BRANCH   2  19
ATOM     19  C   UNL     1      -1.731  -2.981   0.157  0.00  0.00    +0.096 C 
ATOM     20  C   UNL     1      -1.900  -4.199   1.077  0.00  0.00    +0.026 C 
BRANCH  19  22
ATOM     21  O   UNL     1      -3.093  -1.163  -1.659  0.00  0.00    -0.273 OA
ATOM     22  N   UNL     1      -2.752  -2.000   0.485  0.00  0.00    -0.301 N 
ATOM     23  C   UNL     1      -3.336  -1.184  -0.459  0.00  0.00    +0.238 C 
ATOM     24  H   UNL     1      -3.039  -1.916   1.423  0.00  0.00    +0.150 HD
BRANCH  23  25
ATOM     25  C   UNL     1      -4.361  -0.255   0.101  0.00  0.00    +0.126 C 
ATOM     26  C   UNL     1      -5.545  -0.870   0.788  0.00  0.00    +0.029 C 
ATOM     27  C   UNL     1      -5.707  -0.236  -0.562  0.00  0.00    +0.029 C 
BRANCH  25  29
ATOM     28  O   UNL     1      -2.858   1.705  -1.379  0.00  0.00    -0.266 OA
ATOM     29  N   UNL     1      -3.812   0.965   0.608  0.00  0.00    -0.293 N 
ATOM     30  C   UNL     1      -3.099   1.852  -0.184  0.00  0.00    +0.318 C 
ATOM     31  H   UNL     1      -3.946   1.183   1.559  0.00  0.00    +0.150 HD
BRANCH  30  35
ATOM     32  F   UNL     1      -3.006   2.997   1.888  0.00  0.00    -0.162 F 
ATOM     33  F   UNL     1      -3.121   4.207   0.077  0.00  0.00    -0.162 F 
ATOM     34  F   UNL     1      -1.275   3.162   0.574  0.00  0.00    -0.162 F 
ATOM     35  C   UNL     1      -2.627   3.050   0.585  0.00  0.00    +0.469 C 
ENDBRANCH  30  35
ENDBRANCH  25  29
ENDBRANCH  23  25
ENDBRANCH  19  22
ENDBRANCH   2  19
TORSDOF 8
