REMARK  Name = 447268
REMARK  5 active torsions:
REMARK  status: ('A' for Active; 'I' for Inactive)
REMARK    1  A    between atoms: C_1  and  C_6
REMARK    2  A    between atoms: C_1  and  N_14
REMARK    3  A    between atoms: C_15  and  C_22
REMARK    4  A    between atoms: C_16  and  O_20
REMARK    5  A    between atoms: C_22  and  O_23
REMARK                            x       y       z     vdW  Elec       q    Type
REMARK                         _______ _______ _______ _____ _____    ______ ____
ROOT
ATOM      1  C   UNL     1       0.437   0.337  -1.511  0.00  0.00    -0.047 C 
ENDROOT
BRANCH   1   6
ATOM      2  O   UNL     1      -4.966  -1.020   0.865  0.00  0.00    -0.221 OA
ATOM      3  N   UNL     1      -2.416  -1.740  -0.504  0.00  0.00    -0.302 N 
ATOM      4  N   UNL     1      -2.052   1.694  -0.056  0.00  0.00    -0.311 N 
ATOM      5  N   UNL     1      -4.219   1.165   0.899  0.00  0.00    -0.179 NA
ATOM      6  C   UNL     1      -0.843  -0.271  -1.001  0.00  0.00    -0.013 C 
ATOM      7  C   UNL     1      -1.882   0.398  -0.374  0.00  0.00    +0.066 C 
ATOM      8  C   UNL     1      -1.174  -1.591  -1.080  0.00  0.00    +0.057 C 
ATOM      9  C   UNL     1      -2.860  -0.520  -0.067  0.00  0.00    +0.146 C 
ATOM     10  C   UNL     1      -4.104  -0.192   0.596  0.00  0.00    +0.167 C 
ATOM     11  C   UNL     1      -3.249   1.971   0.575  0.00  0.00    +0.229 C 
ATOM     12  H   UNL     1      -2.907  -2.589  -0.420  0.00  0.00    +0.153 HD
ATOM     13  H   UNL     1      -1.381   2.385  -0.255  0.00  0.00    +0.149 HD
ENDBRANCH   1   6
BRANCH   1  14
ATOM     14  N   UNL     1       1.479   0.338  -0.496  0.00  0.00    +0.391 N 
ATOM     15  C   UNL     1       3.684   0.541   0.148  0.00  0.00    +0.033 C 
ATOM     16  C   UNL     1       3.246  -0.881   0.511  0.00  0.00    +0.090 C 
ATOM     17  C   UNL     1       2.730   0.926  -0.975  0.00  0.00    -0.072 C 
ATOM     18  C   UNL     1       1.824  -1.014  -0.039  0.00  0.00    -0.047 C 
ATOM     19  H   UNL     1       1.082   0.891   0.264  0.00  0.00    -0.079 HD
BRANCH  16  20
ATOM     20  O   UNL     1       3.267  -1.039   1.921  0.00  0.00    -0.387 OA
ATOM     21  H   UNL     1       4.177  -0.950   2.243  0.00  0.00    +0.210 HD
ENDBRANCH  16  20
BRANCH  15  22
ATOM     22  C   UNL     1       5.146   0.631  -0.260  0.00  0.00    +0.137 C 
BRANCH  22  23
ATOM     23  O   UNL     1       5.952   0.267   0.848  0.00  0.00    -0.382 OA
ATOM     24  H   UNL     1       6.888   0.321   0.599  0.00  0.00    +0.210 HD
ENDBRANCH  22  23
ENDBRANCH  15  22
ENDBRANCH   1  14
TORSDOF 5
