REMARK  Name = 107992
REMARK  0 active torsions:
REMARK  status: ('A' for Active; 'I' for Inactive)
REMARK                            x       y       z     vdW  Elec       q    Type
REMARK                         _______ _______ _______ _____ _____    ______ ____
ROOT
ATOM      1  N   UNL     1      -0.961  -0.070   0.051  0.00  0.00    -0.290 N 
ATOM      2  N   UNL     1      -3.773   0.356  -0.187  0.00  0.00    +0.386 N 
ATOM      3  C   UNL     1      -1.492   1.296  -0.059  0.00  0.00    +0.070 C 
ATOM      4  C   UNL     1      -1.822  -1.132  -0.480  0.00  0.00    +0.070 C 
ATOM      5  C   UNL     1      -2.927   1.355   0.464  0.00  0.00    -0.060 C 
ATOM      6  C   UNL     1      -3.246  -0.985   0.056  0.00  0.00    -0.060 C 
ATOM      7  H   UNL     1      -3.793   0.534  -1.192  0.00  0.00    -0.084 HD
ATOM      8  H   UNL     1      -4.717   0.419   0.195  0.00  0.00    -0.084 HD
ATOM      9 CL   UNL     1       3.600   1.962  -0.172  0.00  0.00    -0.046 Cl
ATOM     10  N   UNL     1       1.262   0.837  -0.050  0.00  0.00    -0.376 NA
ATOM     11  N   UNL     1       2.288  -1.765   0.159  0.00  0.00    -0.256 NA
ATOM     12  C   UNL     1       0.429  -0.238   0.050  0.00  0.00    +0.186 C 
ATOM     13  C   UNL     1       0.963  -1.519   0.153  0.00  0.00    +0.200 C 
ATOM     14  C   UNL     1       2.587   0.590  -0.044  0.00  0.00    +0.209 C 
ATOM     15  C   UNL     1       3.091  -0.688   0.059  0.00  0.00    +0.138 C 
ENDROOT
TORSDOF 0
