REMARK  Name = 11326715
REMARK  9 active torsions:
REMARK  status: ('A' for Active; 'I' for Inactive)
REMARK    1  A    between atoms: N_2  and  C_5
REMARK    2  A    between atoms: C_3  and  C_17
REMARK    3  A    between atoms: C_7  and  C_14
REMARK    4  A    between atoms: C_9  and  C_16
REMARK    5  A    between atoms: C_17  and  O_19
REMARK    6  A    between atoms: C_17  and  C_21
REMARK    7  A    between atoms: C_21  and  O_22
REMARK    8  A    between atoms: O_22  and  C_23
REMARK    9  A    between atoms: C_28  and  C_30
REMARK                            x       y       z     vdW  Elec       q    Type
REMARK                         _______ _______ _______ _____ _____    ______ ____
ROOT
ATOM      1  O   UNL     1       0.141   3.481  -1.361  0.00  0.00    -0.272 OA
ATOM      2  N   UNL     1       0.289   1.805   0.268  0.00  0.00    -0.282 N 
ATOM      3  C   UNL     1      -0.285   2.904  -0.362  0.00  0.00    +0.254 C 
ATOM      4  H   UNL     1      -0.183   1.464   1.061  0.00  0.00    +0.155 HD
ENDROOT
BRANCH   2   5
ATOM      5  C   UNL     1       1.472   1.119  -0.098  0.00  0.00    +0.050 C 
ATOM      6  C   UNL     1       1.889   0.037   0.658  0.00  0.00    +0.019 C 
ATOM      7  C   UNL     1       3.055  -0.639   0.297  0.00  0.00    +0.082 C 
ATOM      8  C   UNL     1       2.188   1.547  -1.205  0.00  0.00    +0.015 C 
ATOM      9  C   UNL     1       3.787  -0.222  -0.815  0.00  0.00    +0.072 C 
ATOM     10  C   UNL     1       3.353   0.871  -1.566  0.00  0.00    +0.011 C 
BRANCH   7  14
ATOM     11  F   UNL     1       2.656  -2.070   2.171  0.00  0.00    -0.166 F 
ATOM     12  F   UNL     1       3.566  -2.972   0.421  0.00  0.00    -0.166 F 
ATOM     13  F   UNL     1       4.725  -1.623   1.674  0.00  0.00    -0.166 F 
ATOM     14  C   UNL     1       3.490  -1.805   1.125  0.00  0.00    +0.419 C 
ENDBRANCH   7  14
BRANCH   9  16
ATOM     15  N   UNL     1       5.957  -1.447  -1.523  0.00  0.00    -0.191 NA
ATOM     16  C   UNL     1       4.986  -0.898  -1.206  0.00  0.00    +0.100 C 
ENDBRANCH   9  16
ENDBRANCH   2   5
BRANCH   3  17
ATOM     17  C   UNL     1      -1.578   3.379   0.327  0.00  0.00    +0.197 C 
ATOM     18  C   UNL     1      -1.307   3.786   1.777  0.00  0.00    +0.043 C 
BRANCH  17  19
ATOM     19  O   UNL     1      -2.037   4.537  -0.371  0.00  0.00    -0.375 OA
ATOM     20  H   UNL     1      -2.217   4.307  -1.296  0.00  0.00    +0.211 HD
ENDBRANCH  17  19
BRANCH  17  21
ATOM     21  C   UNL     1      -2.699   2.335   0.259  0.00  0.00    +0.241 C 
BRANCH  21  22
ATOM     22  O   UNL     1      -2.319   1.135   0.927  0.00  0.00    -0.472 OA
BRANCH  22  23
ATOM     23  C   UNL     1      -2.925  -0.019   0.508  0.00  0.00    +0.139 C 
ATOM     24  C   UNL     1      -4.216   0.027  -0.008  0.00  0.00    +0.038 C 
ATOM     25  C   UNL     1      -2.244  -1.229   0.604  0.00  0.00    +0.038 C 
ATOM     26  C   UNL     1      -4.833  -1.149  -0.433  0.00  0.00    +0.013 C 
ATOM     27  C   UNL     1      -2.862  -2.405   0.178  0.00  0.00    +0.013 C 
ATOM     28  C   UNL     1      -4.157  -2.365  -0.340  0.00  0.00    +0.069 C 
BRANCH  28  30
ATOM     29  N   UNL     1      -5.304  -4.549  -1.130  0.00  0.00    -0.191 NA
ATOM     30  C   UNL     1      -4.790  -3.570  -0.776  0.00  0.00    +0.100 C 
ENDBRANCH  28  30
ENDBRANCH  22  23
ENDBRANCH  21  22
ENDBRANCH  17  21
ENDBRANCH   3  17
TORSDOF 9
