REMARK  Name = 25184541
REMARK  4 active torsions:
REMARK  status: ('A' for Active; 'I' for Inactive)
REMARK    1  A    between atoms: C_4  and  N_19
REMARK    2  A    between atoms: C_5  and  N_11
REMARK    3  A    between atoms: C_20  and  C_23
REMARK    4  A    between atoms: C_23  and  N_25
REMARK                            x       y       z     vdW  Elec       q    Type
REMARK                         _______ _______ _______ _____ _____    ______ ____
ROOT
ATOM      1  F   UNL     1       0.524  -2.196  -1.589  0.00  0.00    -0.200 F 
ATOM      2  F   UNL     1       3.139  -1.498  -1.817  0.00  0.00    -0.200 F 
ATOM      3  F   UNL     1       2.667   1.468   1.863  0.00  0.00    -0.203 F 
ATOM      4  C   UNL     1       0.253  -0.723   0.254  0.00  0.00    +0.089 C 
ATOM      5  C   UNL     1       2.938  -0.005   0.019  0.00  0.00    +0.110 C 
ATOM      6  C   UNL     1       1.044  -1.297  -0.741  0.00  0.00    +0.182 C 
ATOM      7  C   UNL     1       0.805   0.210   1.132  0.00  0.00    +0.048 C 
ATOM      8  C   UNL     1       2.387  -0.938  -0.858  0.00  0.00    +0.184 C 
ATOM      9  C   UNL     1       2.147   0.569   1.014  0.00  0.00    +0.157 C 
ENDROOT
BRANCH   5  11
ATOM     10  O   UNL     1       8.237   1.393  -0.365  0.00  0.00    -0.291 OA
ATOM     11  N   UNL     1       4.304   0.363  -0.102  0.00  0.00    -0.282 N 
ATOM     12  C   UNL     1       5.298  -0.723  -0.158  0.00  0.00    +0.104 C 
ATOM     13  C   UNL     1       6.650  -0.254   0.378  0.00  0.00    +0.091 C 
ATOM     14  C   UNL     1       4.723   1.662  -0.348  0.00  0.00    +0.068 C 
ATOM     15  C   UNL     1       7.059   1.089  -0.190  0.00  0.00    +0.176 C 
ATOM     16  C   UNL     1       5.989   2.080  -0.445  0.00  0.00    +0.054 C 
ENDBRANCH   5  11
BRANCH   4  19
ATOM     17  O   UNL     1      -3.162  -1.529   1.225  0.00  0.00    -0.434 OA
ATOM     18  O   UNL     1      -1.565  -0.859   2.689  0.00  0.00    -0.226 OA
ATOM     19  N   UNL     1      -1.118  -1.088   0.377  0.00  0.00    -0.219 N 
ATOM     20  C   UNL     1      -3.309  -1.558  -0.201  0.00  0.00    +0.210 C 
ATOM     21  C   UNL     1      -1.889  -1.601  -0.724  0.00  0.00    +0.147 C 
ATOM     22  C   UNL     1      -1.887  -1.115   1.537  0.00  0.00    +0.409 C 
BRANCH  20  23
ATOM     23  C   UNL     1      -4.073  -0.316  -0.642  0.00  0.00    +0.134 C 
BRANCH  23  25
ATOM     24  O   UNL     1      -7.372   2.452  -0.946  0.00  0.00    -0.349 OA
ATOM     25  N   UNL     1      -5.406  -0.340  -0.096  0.00  0.00    -0.312 N 
ATOM     26  N   UNL     1      -6.165   1.769  -1.028  0.00  0.00    -0.062 NA
ATOM     27  C   UNL     1      -6.345   0.659  -0.306  0.00  0.00    +0.171 C 
ATOM     28  C   UNL     1      -7.633   0.588   0.250  0.00  0.00    +0.081 C 
ATOM     29  C   UNL     1      -8.239   1.738  -0.182  0.00  0.00    +0.215 C 
ATOM     30  H   UNL     1      -5.665  -1.111   0.460  0.00  0.00    +0.148 HD
ENDBRANCH  23  25
ENDBRANCH  20  23
ENDBRANCH   4  19
TORSDOF 4
