REMARK  Name = 148198
REMARK  10 active torsions:
REMARK  status: ('A' for Active; 'I' for Inactive)
REMARK    1  A    between atoms: N_1  and  C_15
REMARK    2  A    between atoms: N_2  and  C_8
REMARK    3  A    between atoms: N_3  and  C_14
REMARK    4  A    between atoms: C_15  and  C_16
REMARK    5  A    between atoms: C_16  and  C_17
REMARK    6  A    between atoms: C_17  and  C_18
REMARK    7  A    between atoms: C_18  and  C_19
REMARK    8  A    between atoms: C_19  and  C_20
REMARK    9  A    between atoms: C_20  and  O_21
REMARK   10  A    between atoms: O_21  and  C_23
REMARK                            x       y       z     vdW  Elec       q    Type
REMARK                         _______ _______ _______ _____ _____    ______ ____
ROOT
ATOM      1  N   UNL     1      -2.349  -0.398  -0.778  0.00  0.00    -0.239 NA
ATOM      2  N   UNL     1      -0.984  -2.190   0.038  0.00  0.00    -0.324 N 
ATOM      3  N   UNL     1      -3.188  -1.851   0.873  0.00  0.00    -0.263 N 
ATOM      4  C   UNL     1      -2.146  -1.438  -0.036  0.00  0.00    +0.211 C 
ATOM      5  H   UNL     1      -1.016  -2.951   0.662  0.00  0.00    +0.169 HD
ATOM      6  H   UNL     1      -4.039  -1.360   0.935  0.00  0.00    +0.181 HD
ENDROOT
BRANCH   2   8
ATOM      7  N   UNL     1       2.661  -1.706  -2.010  0.00  0.00    -0.242 NA
ATOM      8  C   UNL     1       0.240  -2.028  -0.650  0.00  0.00    +0.062 C 
ATOM      9  C   UNL     1       1.350  -2.784  -0.288  0.00  0.00    +0.038 C 
ATOM     10  C   UNL     1       0.339  -1.111  -1.691  0.00  0.00    +0.038 C 
ATOM     11  C   UNL     1       2.526  -2.587  -0.993  0.00  0.00    +0.100 C 
ATOM     12  C   UNL     1       1.561  -0.990  -2.333  0.00  0.00    +0.100 C 
ENDBRANCH   2   8
BRANCH   3  14
ATOM     13  N   UNL     1      -2.750  -3.868   2.288  0.00  0.00    -0.171 NA
ATOM     14  C   UNL     1      -2.949  -2.934   1.629  0.00  0.00    +0.184 C 
ENDBRANCH   3  14
BRANCH   1  15
ATOM     15  C   UNL     1      -3.634   0.288  -0.637  0.00  0.00    +0.129 C 
BRANCH  15  16
ATOM     16  C   UNL     1      -3.690   1.483  -1.583  0.00  0.00    +0.026 C 
BRANCH  16  17
ATOM     17  C   UNL     1      -2.592   2.510  -1.295  0.00  0.00    +0.002 C 
BRANCH  17  18
ATOM     18  C   UNL     1      -2.671   3.018   0.146  0.00  0.00    +0.004 C 
BRANCH  18  19
ATOM     19  C   UNL     1      -1.598   4.067   0.425  0.00  0.00    +0.047 C 
BRANCH  19  20
ATOM     20  C   UNL     1      -0.199   3.520   0.177  0.00  0.00    +0.205 C 
BRANCH  20  21
ATOM     21  O   UNL     1       0.023   2.417   1.044  0.00  0.00    -0.475 OA
BRANCH  21  23
ATOM     22 CL   UNL     1       5.228  -0.287   0.615  0.00  0.00    -0.082 Cl
ATOM     23  C   UNL     1       1.236   1.786   0.944  0.00  0.00    +0.139 C 
ATOM     24  C   UNL     1       2.181   2.234   0.022  0.00  0.00    +0.038 C 
ATOM     25  C   UNL     1       1.525   0.696   1.765  0.00  0.00    +0.038 C 
ATOM     26  C   UNL     1       3.416   1.593  -0.079  0.00  0.00    +0.015 C 
ATOM     27  C   UNL     1       2.760   0.055   1.664  0.00  0.00    +0.015 C 
ATOM     28  C   UNL     1       3.705   0.504   0.742  0.00  0.00    +0.058 C 
ENDBRANCH  21  23
ENDBRANCH  20  21
ENDBRANCH  19  20
ENDBRANCH  18  19
ENDBRANCH  17  18
ENDBRANCH  16  17
ENDBRANCH  15  16
ENDBRANCH   1  15
TORSDOF 10
