54556623
  -OEChem-10051722473D

 49 53  0     1  0  0  0  0  0999 V2000
   -1.1366   -2.7270    0.1943 F   0  0  0  0  0  0  0  0  0  0  0  0
   -5.2132   -2.2677    0.1682 O   0  0  0  0  0  0  0  0  0  0  0  0
    3.9230   -2.5777    0.1650 O   0  0  0  0  0  0  0  0  0  0  0  0
    6.2594   -1.6743   -0.6359 O   0  0  0  0  0  0  0  0  0  0  0  0
    6.7592    0.3496    0.3045 O   0  0  0  0  0  0  0  0  0  0  0  0
   -5.6392    2.3970   -0.2380 N   0  0  0  0  0  0  0  0  0  0  0  0
   -1.8916   -0.1181   -0.0354 N   0  0  3  0  0  0  0  0  0  0  0  0
    2.6715    1.2752   -0.1732 N   0  0  0  0  0  0  0  0  0  0  0  0
   -5.3720   -0.8809    0.0447 N   0  0  0  0  0  0  0  0  0  0  0  0
    0.3569    0.5718   -0.1057 N   0  0  0  0  0  0  0  0  0  0  0  0
   -3.9158    1.1818   -0.1447 C   0  0  0  0  0  0  0  0  0  0  0  0
   -4.6363    2.1604    0.8193 C   0  0  0  0  0  0  0  0  0  0  0  0
   -4.6527    1.9780   -1.2532 C   0  0  0  0  0  0  0  0  0  0  0  0
   -2.3835    1.2633   -0.1641 C   0  0  0  0  0  0  0  0  0  0  0  0
   -4.2030   -0.3400   -0.0074 C   0  0  0  0  0  0  0  0  0  0  0  0
   -2.9365   -1.1362    0.0598 C   0  0  0  0  0  0  0  0  0  0  0  0
    2.2655    2.6864   -0.3283 C   0  0  0  0  0  0  0  0  0  0  0  0
    2.7548    3.7473    0.6135 C   0  0  0  0  0  0  0  0  0  0  0  0
    1.3125    3.3335    0.6333 C   0  0  0  0  0  0  0  0  0  0  0  0
   -0.5427   -0.4344   -0.0124 C   0  0  0  0  0  0  0  0  0  0  0  0
    1.6784    0.2558   -0.0821 C   0  0  0  0  0  0  0  0  0  0  0  0
    2.0960   -1.0801    0.0334 C   0  0  0  0  0  0  0  0  0  0  0  0
   -0.2051   -1.7692    0.1056 C   0  0  0  0  0  0  0  0  0  0  0  0
    4.0103    0.9449   -0.1832 C   0  0  0  0  0  0  0  0  0  0  0  0
    1.1429   -2.0958    0.1284 C   0  0  0  0  0  0  0  0  0  0  0  0
    4.5038   -0.2953   -0.0800 C   0  0  0  0  0  0  0  0  0  0  0  0
    3.5417   -1.4196    0.0506 C   0  0  0  0  0  0  0  0  0  0  0  0
    5.9562   -0.4722   -0.1015 C   0  0  0  0  0  0  0  0  0  0  0  0
   -6.5038   -2.8565    0.2249 C   0  0  0  0  0  0  0  0  0  0  0  0
   -5.0408    1.7205    1.7354 H   0  0  0  0  0  0  0  0  0  0  0  0
   -4.0837    2.8128   -1.6799 H   0  0  0  0  0  0  0  0  0  0  0  0
   -5.0710    1.3855   -2.0720 H   0  0  0  0  0  0  0  0  0  0  0  0
   -4.0620    3.0562    1.0846 H   0  0  0  0  0  0  0  0  0  0  0  0
   -2.0089    1.8690    0.6689 H   0  0  0  0  0  0  0  0  0  0  0  0
   -2.0227    1.6977   -1.1034 H   0  0  0  0  0  0  0  0  0  0  0  0
   -5.9573    3.3610   -0.3203 H   0  0  0  0  0  0  0  0  0  0  0  0
   -2.9065   -1.6561    1.0234 H   0  0  0  0  0  0  0  0  0  0  0  0
   -2.9131   -1.8193   -0.7961 H   0  0  0  0  0  0  0  0  0  0  0  0
    2.1697    2.9643   -1.3735 H   0  0  0  0  0  0  0  0  0  0  0  0
    0.9733    2.7825    1.5019 H   0  0  0  0  0  0  0  0  0  0  0  0
    0.5825    4.0248    0.2303 H   0  0  0  0  0  0  0  0  0  0  0  0
    2.9957    4.7182    0.1981 H   0  0  0  0  0  0  0  0  0  0  0  0
    3.3683    3.4568    1.4575 H   0  0  0  0  0  0  0  0  0  0  0  0
    4.6615    1.8069   -0.2914 H   0  0  0  0  0  0  0  0  0  0  0  0
    1.4327   -3.1386    0.2185 H   0  0  0  0  0  0  0  0  0  0  0  0
   -6.3866   -3.9391    0.3212 H   0  0  0  0  0  0  0  0  0  0  0  0
   -7.0599   -2.6435   -0.6934 H   0  0  0  0  0  0  0  0  0  0  0  0
   -7.0542   -2.4837    1.0943 H   0  0  0  0  0  0  0  0  0  0  0  0
    5.5313   -2.2217   -0.9976 H   0  0  0  0  0  0  0  0  0  0  0  0
  1 23  1  0  0  0  0
  2  9  1  0  0  0  0
  2 29  1  0  0  0  0
  3 27  2  0  0  0  0
  4 28  1  0  0  0  0
  4 49  1  0  0  0  0
  5 28  2  0  0  0  0
  6 12  1  0  0  0  0
  6 13  1  0  0  0  0
  6 36  1  0  0  0  0
  7 14  1  0  0  0  0
  7 16  1  0  0  0  0
  7 20  1  0  0  0  0
  8 17  1  0  0  0  0
  8 21  1  0  0  0  0
  8 24  1  0  0  0  0
  9 15  2  0  0  0  0
 10 20  1  0  0  0  0
 10 21  2  0  0  0  0
 11 12  1  0  0  0  0
 11 13  1  0  0  0  0
 11 14  1  0  0  0  0
 11 15  1  0  0  0  0
 12 30  1  0  0  0  0
 12 33  1  0  0  0  0
 13 31  1  0  0  0  0
 13 32  1  0  0  0  0
 14 34  1  0  0  0  0
 14 35  1  0  0  0  0
 15 16  1  0  0  0  0
 16 37  1  0  0  0  0
 16 38  1  0  0  0  0
 17 18  1  0  0  0  0
 17 19  1  0  0  0  0
 17 39  1  0  0  0  0
 18 19  1  0  0  0  0
 18 42  1  0  0  0  0
 18 43  1  0  0  0  0
 19 40  1  0  0  0  0
 19 41  1  0  0  0  0
 20 23  2  0  0  0  0
 21 22  1  0  0  0  0
 22 25  2  0  0  0  0
 22 27  1  0  0  0  0
 23 25  1  0  0  0  0
 24 26  2  0  0  0  0
 24 44  1  0  0  0  0
 25 45  1  0  0  0  0
 26 27  1  0  0  0  0
 26 28  1  0  0  0  0
 29 46  1  0  0  0  0
 29 47  1  0  0  0  0
 29 48  1  0  0  0  0
M  END
> <DATABASE_ID>
DB12479

> <DATABASE_NAME>
drugbank

> <ORIGINAL_SOURCE>
PUBCHEM

> <ORIGINAL_SOURCE_URL>
https://pubchem.ncbi.nlm.nih.gov/rest/pug/compound/inchikey/ZNPOCLHDJCAZAH-UHFFFAOYSA-N/SDF?record_type=3d

> <SMILES>
CON=C1CN(CC11CNC1)C1=C(F)C=C2C(=O)C(=CN(C3CC3)C2=N1)C(O)=O

> <INCHI_IDENTIFIER>
InChI=1S/C19H20FN5O4/c1-29-23-14-6-24(9-19(14)7-21-8-19)17-13(20)4-11-15(26)12(18(27)28)5-25(10-2-3-10)16(11)22-17/h4-5,10,21H,2-3,6-9H2,1H3,(H,27,28)

> <INCHI_KEY>
ZNPOCLHDJCAZAH-UHFFFAOYSA-N

> <FORMULA>
C19H20FN5O4

> <MOLECULAR_WEIGHT>
401.398

> <EXACT_MASS>
401.149932307

> <JCHEM_ACCEPTOR_COUNT>
9

> <JCHEM_ATOM_COUNT>
49

> <JCHEM_AVERAGE_POLARIZABILITY>
40.29407121128787

> <JCHEM_BIOAVAILABILITY>
1

> <JCHEM_DONOR_COUNT>
2

> <JCHEM_FORMAL_CHARGE>
0

> <JCHEM_GHOSE_FILTER>
0

> <JCHEM_IUPAC>
1-cyclopropyl-6-fluoro-7-[8-(methoxyimino)-2,6-diazaspiro[3.4]octan-6-yl]-4-oxo-1,4-dihydro-1,8-naphthyridine-3-carboxylic acid

> <ALOGPS_LOGP>
-0.89

> <JCHEM_LOGP>
-0.8926941848271958

> <ALOGPS_LOGS>
-3.31

> <JCHEM_MDDR_LIKE_RULE>
0

> <JCHEM_NUMBER_OF_RINGS>
5

> <JCHEM_PHYSIOLOGICAL_CHARGE>
0

> <JCHEM_PKA_STRONGEST_ACIDIC>
5.533073784805266

> <JCHEM_PKA_STRONGEST_BASIC>
9.410045034864327

> <JCHEM_POLAR_SURFACE_AREA>
107.36

> <JCHEM_REFRACTIVITY>
102.5298

> <JCHEM_ROTATABLE_BOND_COUNT>
4

> <JCHEM_RULE_OF_FIVE>
1

> <ALOGPS_SOLUBILITY>
1.96e-01 g/l

> <JCHEM_TRADITIONAL_IUPAC>
zabofloxacin

> <JCHEM_VEBER_RULE>
0

> <DRUGBANK_ID>
DB12479

> <DRUG_GROUPS>
investigational

> <GENERIC_NAME>
Zabofloxacin

$$$$
