957
  -OEChem-10051722463D

 27 26  0     0  0  0  0  0  0999 V2000
    4.9442   -0.3976   -0.0463 O   0  0  0  0  0  0  0  0  0  0  0  0
    0.0273   -0.3598    0.0738 C   0  0  0  0  0  0  0  0  0  0  0  0
   -1.2646    0.4624    0.0583 C   0  0  0  0  0  0  0  0  0  0  0  0
    1.2942    0.4958    0.0044 C   0  0  0  0  0  0  0  0  0  0  0  0
   -2.5319   -0.3950    0.0532 C   0  0  0  0  0  0  0  0  0  0  0  0
    2.5500   -0.3747   -0.0005 C   0  0  0  0  0  0  0  0  0  0  0  0
   -3.7874    0.4741   -0.0356 C   0  0  0  0  0  0  0  0  0  0  0  0
    3.8175    0.4679   -0.0278 C   0  0  0  0  0  0  0  0  0  0  0  0
   -5.0492   -0.3730   -0.0796 C   0  0  0  0  0  0  0  0  0  0  0  0
    0.0503   -0.9725    0.9835 H   0  0  0  0  0  0  0  0  0  0  0  0
    0.0176   -1.0547   -0.7753 H   0  0  0  0  0  0  0  0  0  0  0  0
   -1.2784    1.1276    0.9306 H   0  0  0  0  0  0  0  0  0  0  0  0
   -1.2632    1.1063   -0.8301 H   0  0  0  0  0  0  0  0  0  0  0  0
    1.3198    1.1783    0.8623 H   0  0  0  0  0  0  0  0  0  0  0  0
    1.2714    1.1141   -0.9010 H   0  0  0  0  0  0  0  0  0  0  0  0
   -2.5656   -1.0062    0.9629 H   0  0  0  0  0  0  0  0  0  0  0  0
   -2.5025   -1.0845   -0.7992 H   0  0  0  0  0  0  0  0  0  0  0  0
    2.5379   -1.0481   -0.8666 H   0  0  0  0  0  0  0  0  0  0  0  0
    2.5665   -1.0240    0.8838 H   0  0  0  0  0  0  0  0  0  0  0  0
   -3.8347    1.1483    0.8274 H   0  0  0  0  0  0  0  0  0  0  0  0
   -3.7454    1.0998   -0.9347 H   0  0  0  0  0  0  0  0  0  0  0  0
    3.8553    1.1097   -0.9137 H   0  0  0  0  0  0  0  0  0  0  0  0
    3.8880    1.1005    0.8622 H   0  0  0  0  0  0  0  0  0  0  0  0
   -5.1386   -0.9902    0.8201 H   0  0  0  0  0  0  0  0  0  0  0  0
   -5.0475   -1.0346   -0.9517 H   0  0  0  0  0  0  0  0  0  0  0  0
   -5.9342    0.2680   -0.1411 H   0  0  0  0  0  0  0  0  0  0  0  0
    4.8901   -0.9332   -0.8561 H   0  0  0  0  0  0  0  0  0  0  0  0
  1  8  1  0  0  0  0
  1 27  1  0  0  0  0
  2  3  1  0  0  0  0
  2  4  1  0  0  0  0
  2 10  1  0  0  0  0
  2 11  1  0  0  0  0
  3  5  1  0  0  0  0
  3 12  1  0  0  0  0
  3 13  1  0  0  0  0
  4  6  1  0  0  0  0
  4 14  1  0  0  0  0
  4 15  1  0  0  0  0
  5  7  1  0  0  0  0
  5 16  1  0  0  0  0
  5 17  1  0  0  0  0
  6  8  1  0  0  0  0
  6 18  1  0  0  0  0
  6 19  1  0  0  0  0
  7  9  1  0  0  0  0
  7 20  1  0  0  0  0
  7 21  1  0  0  0  0
  8 22  1  0  0  0  0
  8 23  1  0  0  0  0
  9 24  1  0  0  0  0
  9 25  1  0  0  0  0
  9 26  1  0  0  0  0
M  END
> <DATABASE_ID>
DB12452

> <DATABASE_NAME>
drugbank

> <ORIGINAL_SOURCE>
PUBCHEM

> <ORIGINAL_SOURCE_URL>
https://pubchem.ncbi.nlm.nih.gov/rest/pug/compound/inchikey/KBPLFHHGFOOTCA-UHFFFAOYSA-N/SDF?record_type=3d

> <SMILES>
CCCCCCCCO

> <INCHI_IDENTIFIER>
InChI=1S/C8H18O/c1-2-3-4-5-6-7-8-9/h9H,2-8H2,1H3

> <INCHI_KEY>
KBPLFHHGFOOTCA-UHFFFAOYSA-N

> <FORMULA>
C8H18O

> <MOLECULAR_WEIGHT>
130.2279

> <EXACT_MASS>
130.135765198

> <JCHEM_ACCEPTOR_COUNT>
1

> <JCHEM_AVERAGE_POLARIZABILITY>
17.42126321580299

> <JCHEM_BIOAVAILABILITY>
1

> <JCHEM_DONOR_COUNT>
1

> <JCHEM_FORMAL_CHARGE>
0

> <JCHEM_GHOSE_FILTER>
0

> <JCHEM_IUPAC>
octan-1-ol

> <ALOGPS_LOGP>
3.21

> <JCHEM_LOGP>
2.5835966059999995

> <ALOGPS_LOGS>
-2.39

> <JCHEM_MDDR_LIKE_RULE>
0

> <JCHEM_NUMBER_OF_RINGS>
0

> <JCHEM_PHYSIOLOGICAL_CHARGE>
0

> <JCHEM_PKA_STRONGEST_ACIDIC>
16.843942821992357

> <JCHEM_PKA_STRONGEST_BASIC>
-1.9922594096605422

> <JCHEM_POLAR_SURFACE_AREA>
20.23

> <JCHEM_REFRACTIVITY>
40.5389

> <JCHEM_ROTATABLE_BOND_COUNT>
6

> <JCHEM_RULE_OF_FIVE>
1

> <ALOGPS_SOLUBILITY>
5.32e-01 g/l

> <JCHEM_TRADITIONAL_IUPAC>
octanol

> <JCHEM_VEBER_RULE>
1

> <DRUGBANK_ID>
DB12452

> <DRUG_GROUPS>
investigational

> <GENERIC_NAME>
Caprylic alcohol

> <SYNONYMS>
1-Octanol

$$$$
