REMARK  Name = 23650961
REMARK  5 active torsions:
REMARK  status: ('A' for Active; 'I' for Inactive)
REMARK    1  A    between atoms: N_1  and  C_23
REMARK    2  A    between atoms: C_5  and  C_12
REMARK    3  A    between atoms: C_23  and  C_24
REMARK    4  A    between atoms: C_24  and  C_25
REMARK    5  A    between atoms: C_25  and  C_27
REMARK                            x       y       z     vdW  Elec       q    Type
REMARK                         _______ _______ _______ _____ _____    ______ ____
ROOT
ATOM      1  N   UNL     1       2.123   0.683   1.245  0.00  0.00    -0.268 N 
ATOM      2  N   UNL     1       0.127  -0.511   1.558  0.00  0.00    -0.342 NA
ATOM      3  N   UNL     1       0.194   1.438   0.143  0.00  0.00    -0.170 NA
ATOM      4  C   UNL     1       0.772   0.532   0.973  0.00  0.00    +0.144 C 
ATOM      5  C   UNL     1      -1.871   0.237   0.443  0.00  0.00    +0.061 C 
ATOM      6  C   UNL     1      -1.186  -0.628   1.273  0.00  0.00    +0.123 C 
ATOM      7  C   UNL     1      -1.122   1.262  -0.099  0.00  0.00    +0.113 C 
ATOM      8  C   UNL     1      -1.884  -1.779   1.922  0.00  0.00    +0.067 C 
ATOM      9  H   UNL     1       2.551   0.031   1.845  0.00  0.00    +0.159 HD
ENDROOT
BRANCH   5  12
ATOM     10  N   UNL     1      -4.062   1.186  -0.136  0.00  0.00    -0.314 N 
ATOM     11  N   UNL     1      -3.954  -1.021   0.104  0.00  0.00    -0.315 N 
ATOM     12  C   UNL     1      -3.272   0.104   0.146  0.00  0.00    +0.171 C 
ATOM     13  C   UNL     1      -5.333   0.729  -0.373  0.00  0.00    +0.059 C 
ATOM     14  C   UNL     1      -5.240  -0.651  -0.218  0.00  0.00    +0.055 C 
ATOM     15  C   UNL     1      -6.389  -1.440  -0.396  0.00  0.00    -0.008 C 
ATOM     16  C   UNL     1      -6.521   1.385  -0.701  0.00  0.00    +0.011 C 
ATOM     17  C   UNL     1      -7.655   0.585  -0.874  0.00  0.00    -0.021 C 
ATOM     18  C   UNL     1      -7.593  -0.802  -0.725  0.00  0.00    -0.007 C 
ATOM     19  C   UNL     1      -6.374  -2.926  -0.247  0.00  0.00    +0.032 C 
ATOM     20  C   UNL     1      -8.956   1.228  -1.227  0.00  0.00    +0.031 C 
ATOM     21  H   UNL     1      -3.770   2.125  -0.163  0.00  0.00    +0.149 HD
ATOM     22  H   UNL     1      -3.617  -1.932   0.268  0.00  0.00    +0.149 HD
ENDBRANCH   5  12
BRANCH   1  23
ATOM     23  C   UNL     1       2.937   1.741   0.697  0.00  0.00    +0.098 C 
BRANCH  23  24
ATOM     24  C   UNL     1       4.420   1.403   0.821  0.00  0.00    +0.022 C 
BRANCH  24  25
ATOM     25  C   UNL     1       4.799   0.143   0.042  0.00  0.00    +0.002 C 
BRANCH  25  27
ATOM     26  N   UNL     1       8.881  -0.551  -1.188  0.00  0.00    +0.385 N 
ATOM     27  C   UNL     1       6.298  -0.133   0.133  0.00  0.00    -0.004 C 
ATOM     28  C   UNL     1       7.107   1.018  -0.474  0.00  0.00    -0.023 C 
ATOM     29  C   UNL     1       6.660  -1.446  -0.568  0.00  0.00    -0.023 C 
ATOM     30  C   UNL     1       8.604   0.705  -0.478  0.00  0.00    -0.077 C 
ATOM     31  C   UNL     1       8.172  -1.678  -0.568  0.00  0.00    -0.077 C 
ATOM     32  C   UNL     1      10.320  -0.811  -1.228  0.00  0.00    -0.101 C 
ATOM     33  H   UNL     1       8.540  -0.453  -2.145  0.00  0.00    -0.080 HD
ENDBRANCH  25  27
ENDBRANCH  24  25
ENDBRANCH  23  24
ENDBRANCH   1  23
TORSDOF 5
