REMARK  Name = 65399
REMARK  5 active torsions:
REMARK  status: ('A' for Active; 'I' for Inactive)
REMARK    1  A    between atoms: N_1  and  C1*_18
REMARK    2  A    between atoms: C2*_19  and  O2*_22
REMARK    3  A    between atoms: C3*_20  and  O3*_24
REMARK    4  A    between atoms: C4*_21  and  C5*_26
REMARK    5  A    between atoms: C5*_26  and  O5*_27
REMARK                            x       y       z     vdW  Elec       q    Type
REMARK                         _______ _______ _______ _____ _____    ______ ____
ROOT
ATOM      1  N   UNL     1       0.452  -0.185   0.231  0.00  0.00    -0.265 N 
ATOM      2  N   UNL     1      -0.706  -2.350   0.468  0.00  0.00    -0.230 NA
ATOM      3  N   UNL     1      -3.991   0.293  -0.106  0.00  0.00    -0.192 N 
ATOM      4  N   UNL     1      -3.669   1.650  -0.279  0.00  0.00    -0.162 NA
ATOM      5  N   UNL     1      -3.157  -2.029   0.274  0.00  0.00    -0.228 NA
ATOM      6  N   UNL     1      -1.998   3.354  -0.420  0.00  0.00    -0.342 N 
ATOM      7  C   UNL     1      -0.640  -1.020   0.283  0.00  0.00    +0.133 C 
ATOM      8  C   UNL     1       0.029   1.126   0.019  0.00  0.00    +0.124 C 
ATOM      9  C   UNL     1      -1.724  -0.209   0.102  0.00  0.00    +0.065 C 
ATOM     10  C   UNL     1      -1.344   1.114  -0.063  0.00  0.00    +0.036 C 
ATOM     11  C   UNL     1      -3.015  -0.691   0.093  0.00  0.00    +0.150 C 
ATOM     12  C   UNL     1      -2.418   2.063  -0.262  0.00  0.00    +0.141 C 
ATOM     13  C   UNL     1      -2.010  -2.758   0.447  0.00  0.00    +0.253 C 
ATOM     14  C   UNL     1      -5.385  -0.089  -0.137  0.00  0.00    +0.142 C 
ATOM     15  H   UNL     1      -2.655   4.072  -0.562  0.00  0.00    +0.144 HD
ATOM     16  H   UNL     1      -1.036   3.565  -0.392  0.00  0.00    +0.144 HD
ENDROOT
BRANCH   1  18
ATOM     17  O4* UNL     1       2.599   0.450   1.018  0.00  0.00    -0.333 OA
ATOM     18  C1* UNL     1       1.847  -0.597   0.375  0.00  0.00    +0.224 C 
ATOM     19  C2* UNL     1       2.550  -0.874  -0.945  0.00  0.00    +0.187 C 
ATOM     20  C3* UNL     1       4.000  -0.639  -0.569  0.00  0.00    +0.171 C 
ATOM     21  C4* UNL     1       3.899   0.543   0.391  0.00  0.00    +0.175 C 
BRANCH  19  22
ATOM     22  O2* UNL     1       2.305  -2.187  -1.407  0.00  0.00    -0.378 OA
ATOM     23  H2* UNL     1       1.366  -2.280  -1.632  0.00  0.00    +0.211 HD
ENDBRANCH  19  22
BRANCH  20  24
ATOM     24  O3* UNL     1       4.497  -1.771   0.145  0.00  0.00    -0.379 OA
ATOM     25  H3* UNL     1       4.565  -2.528  -0.458  0.00  0.00    +0.211 HD
ENDBRANCH  20  24
BRANCH  21  26
ATOM     26  C5* UNL     1       3.998   1.889  -0.312  0.00  0.00    +0.169 C 
BRANCH  26  27
ATOM     27  O5* UNL     1       3.884   2.916   0.657  0.00  0.00    -0.379 OA
ATOM     28  H5* UNL     1       3.945   3.781   0.220  0.00  0.00    +0.211 HD
ENDBRANCH  26  27
ENDBRANCH  21  26
ENDBRANCH   1  18
TORSDOF 5
