REMARK  Name = 11547499
REMARK  10 active torsions:
REMARK  status: ('A' for Active; 'I' for Inactive)
REMARK    1  A    between atoms: C_2  and  C_25
REMARK    2  A    between atoms: C_5  and  N_10
REMARK    3  A    between atoms: N_11  and  C_16
REMARK    4  A    between atoms: C_16  and  C_17
REMARK    5  A    between atoms: C_17  and  O_18
REMARK    6  A    between atoms: C_17  and  C_20
REMARK    7  A    between atoms: C_20  and  O_21
REMARK    8  A    between atoms: N_24  and  C_27
REMARK    9  A    between atoms: C_27  and  C_28
REMARK   10  A    between atoms: C_28  and  O_35
REMARK                            x       y       z     vdW  Elec       q    Type
REMARK                         _______ _______ _______ _____ _____    ______ ____
ROOT
ATOM      1 CL   UNL     1       2.433  -5.309  -0.060  0.00  0.00    -0.082 Cl
ATOM      2  C   UNL     1       1.185  -2.884  -0.144  0.00  0.00    +0.065 C 
ATOM      3  C   UNL     1       0.053  -2.070  -0.088  0.00  0.00    +0.022 C 
ATOM      4  C   UNL     1       1.058  -4.265   0.001  0.00  0.00    +0.062 C 
ATOM      5  C   UNL     1      -1.205  -2.637   0.113  0.00  0.00    +0.078 C 
ATOM      6  C   UNL     1      -0.201  -4.833   0.202  0.00  0.00    +0.013 C 
ATOM      7  C   UNL     1      -1.332  -4.019   0.258  0.00  0.00    +0.018 C 
ENDROOT
BRANCH   5  10
ATOM      8  O   UNL     1      -1.403   0.095   1.141  0.00  0.00    -0.250 OA
ATOM      9  O   UNL     1      -5.880   0.125  -0.080  0.00  0.00    -0.268 OA
ATOM     10  N   UNL     1      -2.376  -1.795   0.169  0.00  0.00    -0.142 N 
ATOM     11  N   UNL     1      -3.606   0.217   0.510  0.00  0.00    -0.205 N 
ATOM     12  N   UNL     1      -3.509  -2.428  -0.257  0.00  0.00    -0.164 NA
ATOM     13  C   UNL     1      -2.378  -0.465   0.631  0.00  0.00    +0.336 C 
ATOM     14  C   UNL     1      -4.769  -0.368   0.052  0.00  0.00    +0.277 C 
ATOM     15  C   UNL     1      -4.621  -1.790  -0.314  0.00  0.00    +0.176 C 
BRANCH  11  16
ATOM     16  C   UNL     1      -3.651   1.613   0.929  0.00  0.00    +0.135 C 
BRANCH  16  17
ATOM     17  C   UNL     1      -3.355   2.585  -0.212  0.00  0.00    +0.160 C 
BRANCH  17  18
ATOM     18  O   UNL     1      -4.526   2.751  -1.013  0.00  0.00    -0.380 OA
ATOM     19  H   UNL     1      -4.826   1.885  -1.330  0.00  0.00    +0.211 HD
ENDBRANCH  17  18
BRANCH  17  20
ATOM     20  C   UNL     1      -2.903   3.959   0.274  0.00  0.00    +0.173 C 
BRANCH  20  21
ATOM     21  O   UNL     1      -2.627   4.779  -0.858  0.00  0.00    -0.348 OA
ATOM     22  C   UNL     1      -2.216   6.080  -0.467  0.00  0.00    +0.174 C 
ENDBRANCH  20  21
ENDBRANCH  17  20
ENDBRANCH  16  17
ENDBRANCH  11  16
ENDBRANCH   5  10
BRANCH   2  25
ATOM     23  O   UNL     1       3.169  -2.539  -1.344  0.00  0.00    -0.270 OA
ATOM     24  N   UNL     1       2.890  -1.287   0.590  0.00  0.00    -0.299 N 
ATOM     25  C   UNL     1       2.504  -2.235  -0.358  0.00  0.00    +0.247 C 
ATOM     26  H   UNL     1       2.289  -1.110   1.349  0.00  0.00    +0.150 HD
BRANCH  24  27
ATOM     27  C   UNL     1       4.117  -0.561   0.508  0.00  0.00    +0.117 C 
BRANCH  27  28
ATOM     28  C   UNL     1       3.927   0.742  -0.282  0.00  0.00    +0.106 C 
ATOM     29  C   UNL     1       2.873   1.610   0.426  0.00  0.00    +0.029 C 
ATOM     30  C   UNL     1       5.279   1.428  -0.543  0.00  0.00    +0.029 C 
ATOM     31  C   UNL     1       2.832   3.071  -0.024  0.00  0.00    +0.002 C 
ATOM     32  C   UNL     1       5.787   2.330   0.580  0.00  0.00    +0.002 C 
ATOM     33  C   UNL     1       3.793   3.957   0.769  0.00  0.00    +0.000 C 
ATOM     34  C   UNL     1       5.272   3.763   0.454  0.00  0.00    +0.000 C 
BRANCH  28  35
ATOM     35  O   UNL     1       3.385   0.378  -1.561  0.00  0.00    -0.385 OA
ATOM     36  H   UNL     1       3.249   1.177  -2.094  0.00  0.00    +0.210 HD
ENDBRANCH  28  35
ENDBRANCH  27  28
ENDBRANCH  24  27
ENDBRANCH   2  25
TORSDOF 10
