REMARK  Name = 4947
REMARK  7 active torsions:
REMARK  status: ('A' for Active; 'I' for Inactive)
REMARK    1  A    between atoms: C_1  and  C_14
REMARK    2  A    between atoms: C_4  and  O_7
REMARK    3  A    between atoms: C_5  and  O_9
REMARK    4  A    between atoms: C_6  and  O_11
REMARK    5  A    between atoms: C_14  and  O_15
REMARK    6  A    between atoms: O_15  and  C_16
REMARK    7  A    between atoms: C_16  and  C_17
REMARK                            x       y       z     vdW  Elec       q    Type
REMARK                         _______ _______ _______ _____ _____    ______ ____
ROOT
ATOM      1  C   UNL     1       0.166   0.481   0.003  0.00  0.00    +0.082 C 
ATOM      2  C   UNL     1       1.231   1.381   0.001  0.00  0.00    +0.046 C 
ATOM      3  C   UNL     1       0.412  -0.891   0.004  0.00  0.00    +0.046 C 
ATOM      4  C   UNL     1       1.724  -1.364   0.001  0.00  0.00    +0.171 C 
ATOM      5  C   UNL     1       2.543   0.908  -0.001  0.00  0.00    +0.171 C 
ATOM      6  C   UNL     1       2.790  -0.464  -0.001  0.00  0.00    +0.202 C 
ENDROOT
BRANCH   4   7
ATOM      7  O   UNL     1       1.952  -2.708  -0.001  0.00  0.00    -0.503 OA
ATOM      8  H   UNL     1       1.230  -3.305   0.001  0.00  0.00    +0.292 HD
ENDBRANCH   4   7
BRANCH   5   9
ATOM      9  O   UNL     1       3.575   1.798  -0.006  0.00  0.00    -0.503 OA
ATOM     10  H   UNL     1       3.401   2.718  -0.006  0.00  0.00    +0.292 HD
ENDBRANCH   5   9
BRANCH   6  11
ATOM     11  O   UNL     1       4.073  -0.927  -0.003  0.00  0.00    -0.501 OA
ATOM     12  H   UNL     1       4.238  -1.849  -0.003  0.00  0.00    +0.292 HD
ENDBRANCH   6  11
BRANCH   1  14
ATOM     13  O   UNL     1      -1.515   2.173   0.000  0.00  0.00    -0.245 OA
ATOM     14  C   UNL     1      -1.203   0.975   0.003  0.00  0.00    +0.341 C 
BRANCH  14  15
ATOM     15  O   UNL     1      -2.108  -0.051   0.004  0.00  0.00    -0.445 OA
BRANCH  15  16
ATOM     16  C   UNL     1      -3.493   0.308   0.003  0.00  0.00    +0.209 C 
BRANCH  16  17
ATOM     17  C   UNL     1      -4.331  -0.962   0.004  0.00  0.00    +0.047 C 
ATOM     18  C   UNL     1      -5.818  -0.657  -0.013  0.00  0.00    +0.004 C 
ENDBRANCH  16  17
ENDBRANCH  15  16
ENDBRANCH  14  15
ENDBRANCH   1  14
TORSDOF 7
