REMARK  Name = 78357816
REMARK  8 active torsions:
REMARK  status: ('A' for Active; 'I' for Inactive)
REMARK    1  A    between atoms: C_1  and  C_19
REMARK    2  A    between atoms: C_9  and  O_11
REMARK    3  A    between atoms: C_10  and  O_15
REMARK    4  A    between atoms: O_11  and  C_14
REMARK    5  A    between atoms: O_15  and  C_18
REMARK    6  A    between atoms: C_19  and  C_23
REMARK    7  A    between atoms: C_19  and  C_26
REMARK    8  A    between atoms: C_19  and  O_29
REMARK                            x       y       z     vdW  Elec       q    Type
REMARK                         _______ _______ _______ _____ _____    ______ ____
ROOT
ATOM      1  C   UNL     1       1.857   0.870   0.288  0.00  0.00    +0.007 C 
ATOM      2  C   UNL     1       0.968  -0.205   0.290  0.00  0.00    -0.002 C 
ATOM      3  C   UNL     1       1.376   2.171   0.181  0.00  0.00    -0.002 C 
ATOM      4  C   UNL     1      -0.416   0.009   0.184  0.00  0.00    +0.003 C 
ATOM      5  C   UNL     1      -0.905   1.333   0.075  0.00  0.00    +0.003 C 
ATOM      6  C   UNL     1       0.004   2.403   0.075  0.00  0.00    -0.000 C 
ATOM      7  C   UNL     1      -1.326  -1.062   0.184  0.00  0.00    +0.040 C 
ATOM      8  C   UNL     1      -2.289   1.547  -0.031  0.00  0.00    +0.040 C 
ATOM      9  C   UNL     1      -2.697  -0.830   0.079  0.00  0.00    +0.178 C 
ATOM     10  C   UNL     1      -3.178   0.471  -0.029  0.00  0.00    +0.178 C 
ENDROOT
BRANCH   9  11
ATOM     11  O   UNL     1      -3.556  -1.888   0.081  0.00  0.00    -0.421 OA
BRANCH  11  14
ATOM     12  F   UNL     1      -2.563  -3.919  -0.037  0.00  0.00    -0.155 F 
ATOM     13  F   UNL     1      -4.295  -3.652   1.251  0.00  0.00    -0.155 F 
ATOM     14  C   UNL     1      -3.164  -3.045   0.808  0.00  0.00    +0.509 C 
ENDBRANCH  11  14
ENDBRANCH   9  11
BRANCH  10  15
ATOM     15  O   UNL     1      -4.516   0.709  -0.133  0.00  0.00    -0.421 OA
BRANCH  15  18
ATOM     16  F   UNL     1      -6.131   1.595  -1.411  0.00  0.00    -0.155 F 
ATOM     17  F   UNL     1      -5.107   2.891   0.003  0.00  0.00    -0.155 F 
ATOM     18  C   UNL     1      -4.919   1.863  -0.860  0.00  0.00    +0.509 C 
ENDBRANCH  15  18
ENDBRANCH  10  15
BRANCH   1  19
ATOM     19  C   UNL     1       3.323   0.624   0.400  0.00  0.00    +0.145 C 
BRANCH  19  23
ATOM     20  N   UNL     1       4.226   0.297  -1.931  0.00  0.00    -0.165 NA
ATOM     21  N   UNL     1       4.534  -0.796  -2.647  0.00  0.00    -0.157 N 
ATOM     22  N   UNL     1       4.357  -2.002  -2.083  0.00  0.00    -0.162 NA
ATOM     23  C   UNL     1       3.807  -0.257  -0.790  0.00  0.00    +0.126 C 
ATOM     24  C   UNL     1       3.887  -1.654  -0.882  0.00  0.00    +0.138 C 
ATOM     25  H   UNL     1       4.883  -0.715  -3.564  0.00  0.00    +0.197 HD
ENDBRANCH  19  23
BRANCH  19  26
ATOM     26  C   UNL     1       3.833   0.001   1.785  0.00  0.00    +0.034 C 
ATOM     27  C   UNL     1       3.472   0.893   2.989  0.00  0.00    +0.003 C 
ATOM     28  C   UNL     1       5.354  -0.246   1.841  0.00  0.00    +0.003 C 
ENDBRANCH  19  26
BRANCH  19  29
ATOM     29  O   UNL     1       4.066   1.879   0.321  0.00  0.00    -0.377 OA
ATOM     30  H   UNL     1       3.794   2.462   1.048  0.00  0.00    +0.211 HD
ENDBRANCH  19  29
ENDBRANCH   1  19
TORSDOF 8
