REMARK  Name = 11647372
REMARK  1 active torsions:
REMARK  status: ('A' for Active; 'I' for Inactive)
REMARK    1  A    between atoms: C_22  and  C_30
REMARK                            x       y       z     vdW  Elec       q    Type
REMARK                         _______ _______ _______ _____ _____    ______ ____
ROOT
ATOM      1  O   UNL     1      -1.556  -5.644  -0.290  0.00  0.00    -0.350 OA
ATOM      2  O   UNL     1      -4.969   3.248   0.480  0.00  0.00    -0.350 OA
ATOM      3  N   UNL     1      -1.156  -2.863  -0.256  0.00  0.00    -0.228 N 
ATOM      4  N   UNL     1      -2.806   1.455   0.389  0.00  0.00    -0.228 N 
ATOM      5  N   UNL     1       1.778   0.747  -0.025  0.00  0.00    -0.161 N 
ATOM      6  N   UNL     1      -2.017  -0.718   0.068  0.00  0.00    -0.246 NA
ATOM      7  N   UNL     1      -0.503   1.140   0.186  0.00  0.00    -0.246 NA
ATOM      8  N   UNL     1       0.345  -1.080  -0.145  0.00  0.00    -0.246 NA
ATOM      9  N   UNL     1       3.453   2.168  -0.367  0.00  0.00    -0.387 NA
ATOM     10  C   UNL     1      -2.325  -3.453   0.409  0.00  0.00    +0.135 C 
ATOM     11  C   UNL     1      -0.021  -3.772  -0.448  0.00  0.00    +0.135 C 
ATOM     12  C   UNL     1      -4.096   1.095  -0.217  0.00  0.00    +0.135 C 
ATOM     13  C   UNL     1      -2.569   2.894   0.544  0.00  0.00    +0.135 C 
ATOM     14  C   UNL     1      -0.932  -1.491  -0.104  0.00  0.00    +0.225 C 
ATOM     15  C   UNL     1      -1.726   0.586   0.206  0.00  0.00    +0.225 C 
ATOM     16  C   UNL     1      -2.687  -4.774  -0.260  0.00  0.00    +0.164 C 
ATOM     17  C   UNL     1      -0.505  -5.077  -1.071  0.00  0.00    +0.164 C 
ATOM     18  C   UNL     1      -5.222   1.843   0.487  0.00  0.00    +0.164 C 
ATOM     19  C   UNL     1      -3.777   3.546   1.207  0.00  0.00    +0.164 C 
ATOM     20  C   UNL     1       0.476   0.244   0.007  0.00  0.00    +0.235 C 
ATOM     21  C   UNL     1       2.910   0.082   0.374  0.00  0.00    +0.095 C 
ATOM     22  C   UNL     1       2.154   1.987  -0.459  0.00  0.00    +0.244 C 
ATOM     23  C   UNL     1       3.942   0.990   0.150  0.00  0.00    +0.129 C 
ATOM     24  C   UNL     1       3.114  -1.196   0.894  0.00  0.00    +0.018 C 
ATOM     25  C   UNL     1       5.261   0.617   0.458  0.00  0.00    +0.086 C 
ATOM     26  C   UNL     1       4.433  -1.550   1.196  0.00  0.00    -0.003 C 
ATOM     27  C   UNL     1       5.489  -0.661   0.982  0.00  0.00    -0.019 C 
ENDROOT
BRANCH  22  30
ATOM     28  F   UNL     1       0.523   2.522  -2.070  0.00  0.00    -0.189 F 
ATOM     29  F   UNL     1       1.805   4.133  -1.361  0.00  0.00    -0.189 F 
ATOM     30  C   UNL     1       1.184   2.982  -0.966  0.00  0.00    +0.385 C 
ENDBRANCH  22  30
TORSDOF 1
