REMARK  Name = 71792
REMARK  3 active torsions:
REMARK  status: ('A' for Active; 'I' for Inactive)
REMARK    1  A    between atoms: C_3  and  O_10
REMARK    2  A    between atoms: O_10  and  C_11
REMARK    3  A    between atoms: C_11  and  C_12
REMARK                            x       y       z     vdW  Elec       q    Type
REMARK                         _______ _______ _______ _____ _____    ______ ____
ROOT
ATOM      1  N   UNL     1      -1.818   1.169  -0.419  0.00  0.00    +0.389 N 
ATOM      2  C   UNL     1      -1.065  -1.197   0.345  0.00  0.00    +0.021 C 
ATOM      3  C   UNL     1      -0.034  -0.129   0.753  0.00  0.00    +0.096 C 
ATOM      4  C   UNL     1      -1.255  -1.142  -1.181  0.00  0.00    -0.021 C 
ATOM      5  C   UNL     1      -2.403  -0.812   0.991  0.00  0.00    -0.021 C 
ATOM      6  C   UNL     1      -0.492   1.246   0.237  0.00  0.00    -0.047 C 
ATOM      7  C   UNL     1      -1.714   0.268  -1.587  0.00  0.00    -0.077 C 
ATOM      8  C   UNL     1      -2.797   0.603   0.536  0.00  0.00    -0.077 C 
ATOM      9  H   UNL     1      -2.119   2.098  -0.714  0.00  0.00    -0.080 HD
ENDROOT
BRANCH   3  10
ATOM     10  O   UNL     1       1.239  -0.463   0.210  0.00  0.00    -0.345 OA
BRANCH  10  11
ATOM     11  C   UNL     1       2.225   0.493   0.573  0.00  0.00    +0.219 C 
BRANCH  11  12
ATOM     12  C   UNL     1       3.524   0.130   0.004  0.00  0.00    -0.045 C 
ATOM     13  C   UNL     1       4.590  -0.166  -0.462  0.00  0.00    -0.012 C 
ENDBRANCH  11  12
ENDBRANCH  10  11
ENDBRANCH   3  10
TORSDOF 3
