REMARK  Name = 13804
REMARK  13 active torsions:
REMARK  status: ('A' for Active; 'I' for Inactive)
REMARK    1  A    between atoms: C_2  and  O_16
REMARK    2  A    between atoms: C_3  and  O_18
REMARK    3  A    between atoms: C_4  and  C_20
REMARK    4  A    between atoms: C_5  and  N_7
REMARK    5  A    between atoms: C_20  and  O_21
REMARK    6  A    between atoms: O_21  and  P_22
REMARK    7  A    between atoms: P_22  and  O_24
REMARK    8  A    between atoms: P_22  and  O_26
REMARK    9  A    between atoms: O_26  and  P_27
REMARK   10  A    between atoms: P_27  and  O_30
REMARK   11  A    between atoms: O_30  and  C_31
REMARK   12  A    between atoms: C_31  and  C_32
REMARK   13  A    between atoms: C_32  and  N_33
REMARK                            x       y       z     vdW  Elec       q    Type
REMARK                         _______ _______ _______ _____ _____    ______ ____
ROOT
ATOM      1  O   UNL     1       1.105   2.697   0.813  0.00  0.00    -0.332 OA
ATOM      2  C   UNL     1      -0.145   2.785  -1.198  0.00  0.00    +0.171 C 
ATOM      3  C   UNL     1       0.998   1.810  -1.382  0.00  0.00    +0.188 C 
ATOM      4  C   UNL     1      -0.240   2.882   0.319  0.00  0.00    +0.176 C 
ATOM      5  C   UNL     1       1.934   2.204  -0.252  0.00  0.00    +0.236 C 
ENDROOT
BRANCH   5   7
ATOM      6  O   UNL     1       4.527   1.524  -1.118  0.00  0.00    -0.193 OA
ATOM      7  N   UNL     1       2.705   1.095   0.232  0.00  0.00    -0.178 N 
ATOM      8  N   UNL     1       4.694  -0.272   0.261  0.00  0.00    -0.306 NA
ATOM      9  N   UNL     1       4.859  -2.111   1.675  0.00  0.00    -0.332 N 
ATOM     10  C   UNL     1       2.154   0.274   1.204  0.00  0.00    +0.083 C 
ATOM     11  C   UNL     1       4.008   0.816  -0.253  0.00  0.00    +0.276 C 
ATOM     12  C   UNL     1       2.797  -0.776   1.710  0.00  0.00    +0.065 C 
ATOM     13  C   UNL     1       4.160  -1.035   1.177  0.00  0.00    +0.193 C 
ATOM     14  H   UNL     1       5.764  -2.307   1.341  0.00  0.00    +0.145 HD
ATOM     15  H   UNL     1       4.454  -2.684   2.365  0.00  0.00    +0.145 HD
ENDBRANCH   5   7
BRANCH   2  16
ATOM     16  O   UNL     1       0.217   4.072  -1.699  0.00  0.00    -0.379 OA
ATOM     17  H   UNL     1       0.283   4.035  -2.666  0.00  0.00    +0.211 HD
ENDBRANCH   2  16
BRANCH   3  18
ATOM     18  O   UNL     1       1.603   1.926  -2.654  0.00  0.00    -0.378 OA
ATOM     19  H   UNL     1       0.967   1.664  -3.339  0.00  0.00    +0.211 HD
ENDBRANCH   3  18
BRANCH   4  20
ATOM     20  C   UNL     1      -1.125   1.808   0.936  0.00  0.00    +0.186 C 
BRANCH  20  21
ATOM     21  O   UNL     1      -2.479   2.203   0.802  0.00  0.00    -0.270 OA
BRANCH  21  22
ATOM     22  P   UNL     1      -3.659   1.253   1.370  0.00  0.00    +0.484 P 
ATOM     23  O   UNL     1      -5.048   1.786   1.164  0.00  0.00    -0.227 OA
BRANCH  22  24
ATOM     24  O   UNL     1      -3.265   1.006   2.919  0.00  0.00    -0.302 OA
ATOM     25  H   UNL     1      -2.358   0.664   2.971  0.00  0.00    +0.222 HD
ENDBRANCH  22  24
BRANCH  22  26
ATOM     26  O   UNL     1      -3.389  -0.187   0.685  0.00  0.00    -0.184 OA
BRANCH  26  27
ATOM     27  P   UNL     1      -3.858  -0.798  -0.755  0.00  0.00    +0.514 P 
ATOM     28  O   UNL     1      -3.186  -0.005  -1.855  0.00  0.00    -0.224 OA
ATOM     29  O   UNL     1      -5.361  -0.971  -0.738  0.00  0.00    -0.116 OA
BRANCH  27  30
ATOM     30  O   UNL     1      -3.172  -2.280  -0.657  0.00  0.00    -0.274 OA
BRANCH  30  31
ATOM     31  C   UNL     1      -1.787  -2.384  -0.373  0.00  0.00    +0.132 C 
BRANCH  31  32
ATOM     32  C   UNL     1      -1.280  -3.745  -0.808  0.00  0.00    -0.040 C 
BRANCH  32  33
ATOM     33  N   UNL     1       0.162  -3.861  -0.473  0.00  0.00    +0.387 N 
ATOM     34  C   UNL     1       0.704  -5.241  -0.872  0.00  0.00    -0.096 C 
ATOM     35  C   UNL     1       0.387  -3.676   1.034  0.00  0.00    -0.096 C 
ATOM     36  C   UNL     1       0.980  -2.795  -1.213  0.00  0.00    -0.096 C 
ENDBRANCH  32  33
ENDBRANCH  31  32
ENDBRANCH  30  31
ENDBRANCH  27  30
ENDBRANCH  26  27
ENDBRANCH  22  26
ENDBRANCH  21  22
ENDBRANCH  20  21
ENDBRANCH   4  20
TORSDOF 13
