REMARK  Name = 21133161
REMARK  8 active torsions:
REMARK  status: ('A' for Active; 'I' for Inactive)
REMARK    1  A    between atoms: C_1  and  C_9
REMARK    2  A    between atoms: C_2  and  C_17
REMARK    3  A    between atoms: N_8  and  C_11
REMARK    4  A    between atoms: C_11  and  C_12
REMARK    5  A    between atoms: C_12  and  S_13
REMARK    6  A    between atoms: N_16  and  C_19
REMARK    7  A    between atoms: C_19  and  C_20
REMARK    8  A    between atoms: C_20  and  S_21
REMARK                            x       y       z     vdW  Elec       q    Type
REMARK                         _______ _______ _______ _____ _____    ______ ____
ROOT
ATOM      1  C   UNL     1      -1.207  -1.370   0.039  0.00  0.00    +0.053 C 
ATOM      2  C   UNL     1       1.208  -1.370  -0.040  0.00  0.00    +0.053 C 
ATOM      3  C   UNL     1       0.000  -0.672   0.000  0.00  0.00    +0.009 C 
ATOM      4  C   UNL     1      -1.207  -2.764   0.040  0.00  0.00    +0.005 C 
ATOM      5  C   UNL     1       1.208  -2.764  -0.040  0.00  0.00    +0.005 C 
ATOM      6  C   UNL     1       0.000  -3.462   0.000  0.00  0.00    +0.000 C 
ENDROOT
BRANCH   1   9
ATOM      7  O   UNL     1      -3.509  -1.163  -0.356  0.00  0.00    -0.270 OA
ATOM      8  N   UNL     1      -2.444   0.638   0.643  0.00  0.00    -0.300 N 
ATOM      9  C   UNL     1      -2.466  -0.643   0.079  0.00  0.00    +0.246 C 
ATOM     10  H   UNL     1      -1.583   0.988   0.967  0.00  0.00    +0.150 HD
BRANCH   8  11
ATOM     11  C   UNL     1      -3.616   1.473   0.775  0.00  0.00    +0.101 C 
BRANCH  11  12
ATOM     12  C   UNL     1      -3.847   2.369  -0.434  0.00  0.00    +0.075 C 
BRANCH  12  13
ATOM     13  S   UNL     1      -2.471   3.527  -0.706  0.00  0.00    -0.166 S 
ATOM     14  H   UNL     1      -2.735   4.297  -1.795  0.00  0.00    +0.102 HD
ENDBRANCH  12  13
ENDBRANCH  11  12
ENDBRANCH   8  11
ENDBRANCH   1   9
BRANCH   2  17
ATOM     15  O   UNL     1       3.510  -1.163   0.356  0.00  0.00    -0.270 OA
ATOM     16  N   UNL     1       2.444   0.638  -0.643  0.00  0.00    -0.300 N 
ATOM     17  C   UNL     1       2.466  -0.643  -0.079  0.00  0.00    +0.246 C 
ATOM     18  H   UNL     1       1.583   0.989  -0.967  0.00  0.00    +0.150 HD
BRANCH  16  19
ATOM     19  C   UNL     1       3.615   1.474  -0.775  0.00  0.00    +0.101 C 
BRANCH  19  20
ATOM     20  C   UNL     1       3.847   2.370   0.434  0.00  0.00    +0.075 C 
BRANCH  20  21
ATOM     21  S   UNL     1       2.470   3.527   0.706  0.00  0.00    -0.166 S 
ATOM     22  H   UNL     1       2.734   4.297   1.795  0.00  0.00    +0.102 HD
ENDBRANCH  20  21
ENDBRANCH  19  20
ENDBRANCH  16  19
ENDBRANCH   2  17
TORSDOF 8
