REMARK  Name = 216305
REMARK  3 active torsions:
REMARK  status: ('A' for Active; 'I' for Inactive)
REMARK    1  A    between atoms: C_1  and  N_3
REMARK    2  A    between atoms: C_1  and  C_10
REMARK    3  A    between atoms: C_10  and  C_11
REMARK                            x       y       z     vdW  Elec       q    Type
REMARK                         _______ _______ _______ _____ _____    ______ ____
ROOT
ATOM      1  C   UNL     1       0.302   0.002  -0.923  0.00  0.00    +0.161 C 
ENDROOT
BRANCH   1   3
ATOM      2  S   UNL     1       3.872   1.448  -0.311  0.00  0.00    -0.095 S 
ATOM      3  N   UNL     1       1.699   0.260  -0.588  0.00  0.00    -0.294 N 
ATOM      4  C   UNL     1       2.522  -0.690  -0.047  0.00  0.00    +0.028 C 
ATOM      5  C   UNL     1       3.787  -0.199   0.175  0.00  0.00    +0.014 C 
ATOM      6  C   UNL     1       2.231   1.436  -0.796  0.00  0.00    +0.154 C 
ATOM      7  C   UNL     1       1.984  -2.034   0.210  0.00  0.00    +0.047 C 
ATOM      8  C   UNL     1       4.977  -0.868   0.737  0.00  0.00    +0.039 C 
ENDBRANCH   1   3
BRANCH   1  10
ATOM      9  O   UNL     1      -0.133   0.727   1.327  0.00  0.00    -0.290 OA
ATOM     10  C   UNL     1      -0.625   0.311   0.259  0.00  0.00    +0.193 C 
BRANCH  10  11
ATOM     11  C   UNL     1      -2.060   0.119   0.123  0.00  0.00    +0.036 C 
ATOM     12  C   UNL     1      -2.590  -0.346  -1.080  0.00  0.00    +0.003 C 
ATOM     13  C   UNL     1      -2.905   0.399   1.196  0.00  0.00    +0.003 C 
ATOM     14  C   UNL     1      -3.967  -0.531  -1.210  0.00  0.00    +0.000 C 
ATOM     15  C   UNL     1      -4.282   0.215   1.066  0.00  0.00    +0.000 C 
ATOM     16  C   UNL     1      -4.813  -0.251  -0.137  0.00  0.00    +0.000 C 
ENDBRANCH  10  11
ENDBRANCH   1  10
TORSDOF 3
