REMARK  Name = 448545
REMARK  7 active torsions:
REMARK  status: ('A' for Active; 'I' for Inactive)
REMARK    1  A    between atoms: N_1  and  S_12
REMARK    2  A    between atoms: N_2  and  C_29
REMARK    3  A    between atoms: C_3  and  C_22
REMARK    4  A    between atoms: C_10  and  C_21
REMARK    5  A    between atoms: S_12  and  C_16
REMARK    6  A    between atoms: C_22  and  C_23
REMARK    7  A    between atoms: C_29  and  C_32
REMARK                            x       y       z     vdW  Elec       q    Type
REMARK                         _______ _______ _______ _____ _____    ______ ____
ROOT
ATOM      1  N   UNL     1      -1.024  -0.346   0.468  0.00  0.00    -0.150 NA
ATOM      2  N   UNL     1       1.505   1.279   1.127  0.00  0.00    -0.301 N 
ATOM      3  C   UNL     1      -0.978   0.963   1.189  0.00  0.00    +0.104 C 
ATOM      4  C   UNL     1       0.320   1.135   1.979  0.00  0.00    +0.109 C 
ATOM      5  C   UNL     1      -0.002  -0.554  -0.591  0.00  0.00    +0.123 C 
ATOM      6  C   UNL     1       1.393  -0.843  -0.090  0.00  0.00    +0.010 C 
ATOM      7  C   UNL     1       2.108   0.096   0.688  0.00  0.00    +0.046 C 
ATOM      8  C   UNL     1       2.009  -2.044  -0.489  0.00  0.00    +0.009 C 
ATOM      9  C   UNL     1       3.445  -0.209   1.016  0.00  0.00    +0.015 C 
ATOM     10  C   UNL     1       3.325  -2.324  -0.134  0.00  0.00    +0.068 C 
ATOM     11  C   UNL     1       4.046  -1.403   0.614  0.00  0.00    +0.012 C 
ENDROOT
BRANCH   1  12
ATOM     12  S   UNL     1      -1.468  -1.723   1.384  0.00  0.00    +0.069 S 
ATOM     13  O   UNL     1      -2.582  -1.384   2.248  0.00  0.00    -0.152 OA
ATOM     14  O   UNL     1      -0.274  -2.341   1.923  0.00  0.00    -0.152 OA
BRANCH  12  16
ATOM     15  S   UNL     1      -3.563  -2.254  -0.585  0.00  0.00    -0.067 S 
ATOM     16  C   UNL     1      -2.085  -2.768   0.101  0.00  0.00    +0.152 C 
ATOM     17  C   UNL     1      -1.615  -3.925  -0.468  0.00  0.00    +0.027 C 
ATOM     18  C   UNL     1      -2.486  -4.404  -1.490  0.00  0.00    +0.009 C 
ATOM     19  C   UNL     1      -3.584  -3.589  -1.657  0.00  0.00    +0.037 C 
ENDBRANCH  12  16
ENDBRANCH   1  12
BRANCH  10  21
ATOM     20  N   UNL     1       4.424  -4.558  -0.857  0.00  0.00    -0.191 NA
ATOM     21  C   UNL     1       3.932  -3.556  -0.533  0.00  0.00    +0.100 C 
ENDBRANCH  10  21
BRANCH   3  22
ATOM     22  C   UNL     1      -1.280   2.128   0.248  0.00  0.00    +0.046 C 
BRANCH  22  23
ATOM     23  C   UNL     1      -2.747   2.211  -0.078  0.00  0.00    -0.021 C 
ATOM     24  C   UNL     1      -3.243   1.525  -1.179  0.00  0.00    -0.004 C 
ATOM     25  C   UNL     1      -3.585   2.974   0.725  0.00  0.00    -0.004 C 
ATOM     26  C   UNL     1      -4.602   1.602  -1.482  0.00  0.00    -0.000 C 
ATOM     27  C   UNL     1      -4.944   3.050   0.421  0.00  0.00    -0.000 C 
ATOM     28  C   UNL     1      -5.453   2.365  -0.681  0.00  0.00    -0.000 C 
ENDBRANCH  22  23
ENDBRANCH   3  22
BRANCH   2  29
ATOM     29  C   UNL     1       2.315   2.477   1.300  0.00  0.00    +0.134 C 
BRANCH  29  32
ATOM     30  N   UNL     1       2.179   3.257  -1.062  0.00  0.00    -0.317 N 
ATOM     31  N   UNL     1       4.301   3.528  -1.656  0.00  0.00    -0.315 N 
ATOM     32  C   UNL     1       2.933   2.928   0.008  0.00  0.00    +0.058 C 
ATOM     33  C   UNL     1       4.227   3.093  -0.357  0.00  0.00    +0.071 C 
ATOM     34  C   UNL     1       3.051   3.616  -2.052  0.00  0.00    +0.182 C 
ATOM     35  H   UNL     1       1.196   3.242  -1.118  0.00  0.00    +0.148 HD
ATOM     36  H   UNL     1       5.112   3.729  -2.177  0.00  0.00    +0.148 HD
ENDBRANCH  29  32
ENDBRANCH   2  29
TORSDOF 7
