REMARK  Name = 55483
REMARK  15 active torsions:
REMARK  status: ('A' for Active; 'I' for Inactive)
REMARK    1  A    between atoms: C_1  and  C_2
REMARK    2  A    between atoms: C_1  and  C_17
REMARK    3  A    between atoms: C_2  and  C_3
REMARK    4  A    between atoms: C_3  and  C_4
REMARK    5  A    between atoms: C_4  and  C_5
REMARK    6  A    between atoms: C_5  and  N_6
REMARK    7  A    between atoms: N_6  and  C_9
REMARK    8  A    between atoms: C_9  and  C_10
REMARK    9  A    between atoms: C_10  and  C_11
REMARK   10  A    between atoms: C_17  and  N_18
REMARK   11  A    between atoms: N_18  and  C_21
REMARK   12  A    between atoms: C_21  and  C_22
REMARK   13  A    between atoms: C_22  and  C_23
REMARK   14  A    between atoms: C_26  and  O_29
REMARK   15  A    between atoms: C_28  and  O_31
REMARK                            x       y       z     vdW  Elec       q    Type
REMARK                         _______ _______ _______ _____ _____    ______ ____
ROOT
ATOM      1  C   UNL     1      -0.988   0.333   0.660  0.00  0.00    -0.023 C 
ENDROOT
BRANCH   1   2
ATOM      2  C   UNL     1       0.166   0.152  -0.330  0.00  0.00    -0.002 C 
BRANCH   2   3
ATOM      3  C   UNL     1       1.521   0.263   0.372  0.00  0.00    -0.002 C 
BRANCH   3   4
ATOM      4  C   UNL     1       2.713   0.120  -0.580  0.00  0.00    -0.023 C 
BRANCH   4   5
ATOM      5  C   UNL     1       4.063   0.153   0.135  0.00  0.00    -0.082 C 
BRANCH   5   6
ATOM      6  N   UNL     1       5.147   0.003  -0.831  0.00  0.00    +0.384 N 
ATOM      7  H   UNL     1       5.105   0.770  -1.502  0.00  0.00    -0.085 HD
ATOM      8  H   UNL     1       5.038  -0.893  -1.307  0.00  0.00    -0.085 HD
BRANCH   6   9
ATOM      9  C   UNL     1       6.441   0.022  -0.165  0.00  0.00    -0.077 C 
BRANCH   9  10
ATOM     10  C   UNL     1       7.579  -0.142  -1.173  0.00  0.00    +0.003 C 
BRANCH  10  11
ATOM     11  C   UNL     1       8.925  -0.146  -0.493  0.00  0.00    -0.024 C 
ATOM     12  C   UNL     1       9.612   1.052  -0.300  0.00  0.00    -0.004 C 
ATOM     13  C   UNL     1       9.482  -1.349  -0.057  0.00  0.00    -0.004 C 
ATOM     14  C   UNL     1      10.857   1.048   0.329  0.00  0.00    -0.000 C 
ATOM     15  C   UNL     1      10.727  -1.352   0.572  0.00  0.00    -0.000 C 
ATOM     16  C   UNL     1      11.415  -0.154   0.765  0.00  0.00    -0.000 C 
ENDBRANCH  10  11
ENDBRANCH   9  10
ENDBRANCH   6   9
ENDBRANCH   5   6
ENDBRANCH   4   5
ENDBRANCH   3   4
ENDBRANCH   2   3
ENDBRANCH   1   2
BRANCH   1  17
ATOM     17  C   UNL     1      -2.341   0.187  -0.036  0.00  0.00    -0.082 C 
BRANCH  17  18
ATOM     18  N   UNL     1      -3.425   0.382   0.919  0.00  0.00    +0.384 N 
ATOM     19  H   UNL     1      -3.346   1.313   1.328  0.00  0.00    -0.085 HD
ATOM     20  H   UNL     1      -3.354  -0.333   1.643  0.00  0.00    -0.085 HD
BRANCH  18  21
ATOM     21  C   UNL     1      -4.721   0.256   0.267  0.00  0.00    -0.077 C 
BRANCH  21  22
ATOM     22  C   UNL     1      -5.859   0.469   1.265  0.00  0.00    +0.003 C 
BRANCH  22  23
ATOM     23  C   UNL     1      -7.208   0.319   0.606  0.00  0.00    -0.021 C 
ATOM     24  C   UNL     1      -7.826  -0.930   0.560  0.00  0.00    +0.035 C 
ATOM     25  C   UNL     1      -7.836   1.430   0.043  0.00  0.00    -0.001 C 
ATOM     26  C   UNL     1      -9.073  -1.069  -0.050  0.00  0.00    +0.167 C 
ATOM     27  C   UNL     1      -9.083   1.290  -0.567  0.00  0.00    +0.039 C 
ATOM     28  C   UNL     1      -9.701   0.041  -0.613  0.00  0.00    +0.167 C 
BRANCH  26  29
ATOM     29  O   UNL     1      -9.667  -2.295  -0.087  0.00  0.00    -0.503 OA
ATOM     30  H   UNL     1      -9.238  -3.035   0.293  0.00  0.00    +0.292 HD
ENDBRANCH  26  29
BRANCH  28  31
ATOM     31  O   UNL     1     -10.920  -0.082  -1.210  0.00  0.00    -0.503 OA
ATOM     32  H   UNL     1     -11.342  -0.918  -1.245  0.00  0.00    +0.292 HD
ENDBRANCH  28  31
ENDBRANCH  22  23
ENDBRANCH  21  22
ENDBRANCH  18  21
ENDBRANCH  17  18
ENDBRANCH   1  17
TORSDOF 15
