REMARK  Name = 10200813
REMARK  4 active torsions:
REMARK  status: ('A' for Active; 'I' for Inactive)
REMARK    1  A    between atoms: C_3  and  C_24
REMARK    2  A    between atoms: C_8  and  C_11
REMARK    3  A    between atoms: N_10  and  C_16
REMARK    4  A    between atoms: C_24  and  C_26
REMARK                            x       y       z     vdW  Elec       q    Type
REMARK                         _______ _______ _______ _____ _____    ______ ____
ROOT
ATOM      1  O   UNL     1      -0.826   4.137   0.045  0.00  0.00    -0.265 OA
ATOM      2  N   UNL     1       0.748   2.479  -0.502  0.00  0.00    -0.272 N 
ATOM      3  C   UNL     1       3.275   1.261   0.221  0.00  0.00    +0.008 C 
ATOM      4  C   UNL     1       2.911   2.689   0.656  0.00  0.00    +0.022 C 
ATOM      5  C   UNL     1       2.001   0.424   0.027  0.00  0.00    +0.022 C 
ATOM      6  C   UNL     1       1.923   3.328  -0.318  0.00  0.00    +0.094 C 
ATOM      7  C   UNL     1       1.029   1.106  -0.933  0.00  0.00    +0.094 C 
ATOM      8  C   UNL     1      -0.521   3.006  -0.312  0.00  0.00    +0.303 C 
ENDROOT
BRANCH   8  11
ATOM      9  O   UNL     1      -2.101   2.072  -1.710  0.00  0.00    -0.265 OA
ATOM     10  N   UNL     1      -2.035   1.383   0.553  0.00  0.00    -0.277 N 
ATOM     11  C   UNL     1      -1.656   2.090  -0.570  0.00  0.00    +0.303 C 
ATOM     12  H   UNL     1      -1.524   1.562   1.376  0.00  0.00    +0.155 HD
BRANCH  10  16
ATOM     13  O   UNL     1      -5.694  -1.238  -1.315  0.00  0.00    -0.407 OA
ATOM     14  O   UNL     1      -7.399  -2.794  -1.173  0.00  0.00    -0.223 OA
ATOM     15  N   UNL     1      -6.112  -2.268   0.697  0.00  0.00    -0.287 N 
ATOM     16  C   UNL     1      -3.076   0.431   0.654  0.00  0.00    +0.054 C 
ATOM     17  C   UNL     1      -3.829   0.136  -0.476  0.00  0.00    +0.054 C 
ATOM     18  C   UNL     1      -3.312  -0.184   1.891  0.00  0.00    +0.016 C 
ATOM     19  C   UNL     1      -4.830  -0.799  -0.324  0.00  0.00    +0.167 A 
ATOM     20  C   UNL     1      -5.066  -1.406   0.890  0.00  0.00    +0.096 A 
ATOM     21  C   UNL     1      -4.332  -1.129   2.022  0.00  0.00    +0.022 C 
ATOM     22  C   UNL     1      -6.495  -2.171  -0.631  0.00  0.00    +0.419 A 
ATOM     23  H   UNL     1      -6.519  -2.852   1.378  0.00  0.00    +0.172 HD
ENDBRANCH  10  16
ENDBRANCH   8  11
BRANCH   3  24
ATOM     24  C   UNL     1       4.207   0.605   1.237  0.00  0.00    +0.026 C 
BRANCH  24  26
ATOM     25  F   UNL     1       7.083  -3.655  -1.037  0.00  0.00    -0.204 F 
ATOM     26  C   UNL     1       4.976  -0.535   0.628  0.00  0.00    -0.022 C 
ATOM     27  C   UNL     1       4.445  -1.817   0.667  0.00  0.00    -0.002 C 
ATOM     28  C   UNL     1       6.208  -0.290   0.036  0.00  0.00    -0.002 C 
ATOM     29  C   UNL     1       5.159  -2.874   0.102  0.00  0.00    +0.029 C 
ATOM     30  C   UNL     1       6.922  -1.347  -0.529  0.00  0.00    +0.029 C 
ATOM     31  C   UNL     1       6.397  -2.639  -0.496  0.00  0.00    +0.140 C 
ENDBRANCH  24  26
ENDBRANCH   3  24
TORSDOF 4
