REMARK  Name = 1329
REMARK  5 active torsions:
REMARK  status: ('A' for Active; 'I' for Inactive)
REMARK    1  A    between atoms: N_5  and  C_19
REMARK    2  A    between atoms: N_6  and  C_22
REMARK    3  A    between atoms: C_7  and  C_14
REMARK    4  A    between atoms: C_19  and  C_20
REMARK    5  A    between atoms: C_22  and  C_23
REMARK                            x       y       z     vdW  Elec       q    Type
REMARK                         _______ _______ _______ _____ _____    ______ ____
ROOT
ATOM      1  O   UNL     1       1.855  -2.794   0.010  0.00  0.00    -0.265 OA
ATOM      2  O   UNL     1       3.063   1.684   0.741  0.00  0.00    -0.246 OA
ATOM      3  N   UNL     1      -0.957  -1.795  -0.066  0.00  0.00    -0.313 N 
ATOM      4  N   UNL     1      -1.494   0.353   0.199  0.00  0.00    -0.304 N 
ATOM      5  N   UNL     1       0.805   1.180   0.495  0.00  0.00    -0.269 N 
ATOM      6  N   UNL     1       2.488  -0.557   0.378  0.00  0.00    -0.248 N 
ATOM      7  C   UNL     1      -1.960  -0.862  -0.010  0.00  0.00    +0.145 C 
ATOM      8  C   UNL     1       0.220  -1.127   0.120  0.00  0.00    +0.133 A 
ATOM      9  C   UNL     1      -0.138   0.184   0.280  0.00  0.00    +0.132 A 
ATOM     10  C   UNL     1       1.562  -1.611   0.156  0.00  0.00    +0.280 A 
ATOM     11  C   UNL     1       2.180   0.840   0.553  0.00  0.00    +0.335 A 
ATOM     12  H   UNL     1      -1.064  -2.762  -0.212  0.00  0.00    +0.148 HD
ATOM     13  H   UNL     1      -2.005   1.190   0.279  0.00  0.00    +0.150 HD
ENDROOT
BRANCH   7  14
ATOM     14  C   UNL     1      -3.412  -1.258  -0.178  0.00  0.00    +0.037 C 
ATOM     15  C   UNL     1      -4.103  -0.585  -1.380  0.00  0.00    +0.003 C 
ATOM     16  C   UNL     1      -4.271  -0.913   1.050  0.00  0.00    +0.003 C 
ATOM     17  C   UNL     1      -5.231   0.254  -0.790  0.00  0.00    +0.000 C 
ATOM     18  C   UNL     1      -5.616  -0.495   0.473  0.00  0.00    +0.000 C 
ENDBRANCH   7  14
BRANCH   5  19
ATOM     19  C   UNL     1       0.375   2.563   0.660  0.00  0.00    +0.112 C 
BRANCH  19  20
ATOM     20  C   UNL     1       0.328   3.268  -0.693  0.00  0.00    +0.025 C 
ATOM     21  C   UNL     1      -0.098   4.721  -0.546  0.00  0.00    +0.002 C 
ENDBRANCH  19  20
ENDBRANCH   5  19
BRANCH   6  22
ATOM     22  C   UNL     1       3.898  -0.928   0.435  0.00  0.00    +0.114 C 
BRANCH  22  23
ATOM     23  C   UNL     1       4.520  -0.861  -0.957  0.00  0.00    +0.025 C 
ATOM     24  C   UNL     1       5.987  -1.264  -0.928  0.00  0.00    +0.002 C 
ENDBRANCH  22  23
ENDBRANCH   6  22
TORSDOF 5
