REMARK  Name = 2746
REMARK  4 active torsions:
REMARK  status: ('A' for Active; 'I' for Inactive)
REMARK    1  A    between atoms: N_2  and  C_16
REMARK    2  A    between atoms: C_3  and  C_5
REMARK    3  A    between atoms: C_6  and  N_12
REMARK    4  A    between atoms: C_17  and  N_22
REMARK                            x       y       z     vdW  Elec       q    Type
REMARK                         _______ _______ _______ _____ _____    ______ ____
ROOT
ATOM      1  O   UNL     1      -1.313   2.228  -0.314  0.00  0.00    -0.270 OA
ATOM      2  N   UNL     1      -1.674  -0.058   0.070  0.00  0.00    -0.279 N 
ATOM      3  C   UNL     1      -0.880   1.086  -0.094  0.00  0.00    +0.250 C 
ATOM      4  H   UNL     1      -1.187  -0.896   0.240  0.00  0.00    +0.155 HD
ENDROOT
BRANCH   3   5
ATOM      5  C   UNL     1       0.557   0.876  -0.019  0.00  0.00    +0.054 C 
ATOM      6  C   UNL     1       3.314   0.475   0.127  0.00  0.00    +0.050 C 
ATOM      7  C   UNL     1       1.393   1.915   0.393  0.00  0.00    +0.006 C 
ATOM      8  C   UNL     1       1.101  -0.363  -0.358  0.00  0.00    +0.006 C 
ATOM      9  C   UNL     1       2.771   1.715   0.465  0.00  0.00    +0.015 C 
ATOM     10  C   UNL     1       2.479  -0.563  -0.285  0.00  0.00    +0.015 C 
BRANCH   6  12
ATOM     11  O   UNL     1       4.970  -1.964  -0.485  0.00  0.00    -0.275 OA
ATOM     12  N   UNL     1       4.693   0.275   0.201  0.00  0.00    -0.284 N 
ATOM     13  C   UNL     1       5.415  -0.889  -0.096  0.00  0.00    +0.227 C 
ATOM     14  C   UNL     1       6.896  -0.697   0.113  0.00  0.00    +0.095 C 
ATOM     15  H   UNL     1       5.225   1.047   0.499  0.00  0.00    +0.155 HD
ENDBRANCH   6  12
ENDBRANCH   3   5
BRANCH   2  16
ATOM     16  C   UNL     1      -3.086  -0.165   0.024  0.00  0.00    +0.064 C 
ATOM     17  C   UNL     1      -3.701  -1.392   0.208  0.00  0.00    +0.055 C 
ATOM     18  C   UNL     1      -3.824   0.984  -0.211  0.00  0.00    +0.016 C 
ATOM     19  C   UNL     1      -5.093  -1.473   0.156  0.00  0.00    +0.015 C 
ATOM     20  C   UNL     1      -5.216   0.903  -0.264  0.00  0.00    +0.001 C 
ATOM     21  C   UNL     1      -5.850  -0.326  -0.080  0.00  0.00    +0.001 C 
BRANCH  17  22
ATOM     22  N   UNL     1      -2.954  -2.567   0.448  0.00  0.00    -0.356 N 
ATOM     23  H   UNL     1      -1.971  -2.525   0.488  0.00  0.00    +0.142 HD
ATOM     24  H   UNL     1      -3.415  -3.427   0.576  0.00  0.00    +0.142 HD
ENDBRANCH  17  22
ENDBRANCH   2  16
TORSDOF 4
