REMARK  Name = 9810927
REMARK  6 active torsions:
REMARK  status: ('A' for Active; 'I' for Inactive)
REMARK    1  A    between atoms: N_1  and  C_13
REMARK    2  A    between atoms: C_11  and  O_24
REMARK    3  A    between atoms: C_12  and  O_26
REMARK    4  A    between atoms: C_14  and  C_18
REMARK    5  A    between atoms: C_19  and  C_20
REMARK    6  A    between atoms: N_28  and  C_32
REMARK                            x       y       z     vdW  Elec       q    Type
REMARK                         _______ _______ _______ _____ _____    ______ ____
ROOT
ATOM      1  N   UNL     1       0.639   1.346  -0.260  0.00  0.00    -0.247 N 
ATOM      2  N   UNL     1      -0.550  -0.519   0.032  0.00  0.00    -0.242 NA
ATOM      3  N   UNL     1      -1.166   2.943  -0.569  0.00  0.00    -0.228 NA
ATOM      4  N   UNL     1      -3.347   1.857  -0.428  0.00  0.00    -0.228 NA
ATOM      5  C   UNL     1      -0.675   1.714  -0.350  0.00  0.00    +0.152 C 
ATOM      6  C   UNL     1       0.661  -0.005  -0.031  0.00  0.00    +0.223 C 
ATOM      7  C   UNL     1      -1.394   0.544  -0.165  0.00  0.00    +0.140 C 
ATOM      8  C   UNL     1      -2.781   0.645  -0.210  0.00  0.00    +0.150 C 
ATOM      9  C   UNL     1      -2.516   2.915  -0.592  0.00  0.00    +0.253 C 
ATOM     10  N   UNL     1      -3.590  -0.491  -0.032  0.00  0.00    -0.295 N 
ATOM     11  H   UNL     1      -3.079  -1.319   0.121  0.00  0.00    +0.154 HD
ENDROOT
BRANCH  10  14
ATOM     12 CL   UNL     1      -9.457  -1.282  -0.022  0.00  0.00    -0.082 Cl
ATOM     13  F   UNL     1      -4.779  -2.495   1.490  0.00  0.00    -0.203 F 
ATOM     14  C   UNL     1      -4.988  -0.681  -0.028  0.00  0.00    +0.077 C 
ATOM     15  C   UNL     1      -5.554  -1.694   0.745  0.00  0.00    +0.154 C 
ATOM     16  C   UNL     1      -5.803   0.146  -0.800  0.00  0.00    +0.018 C 
ATOM     17  C   UNL     1      -6.936  -1.880   0.747  0.00  0.00    +0.042 C 
ATOM     18  C   UNL     1      -7.185  -0.040  -0.799  0.00  0.00    +0.013 C 
ATOM     19  C   UNL     1      -7.752  -1.052  -0.025  0.00  0.00    +0.060 C 
ENDBRANCH  10  14
BRANCH   1  23
ATOM     20  O   UNL     1       2.892   1.502  -1.008  0.00  0.00    -0.326 OA
ATOM     21  C   UNL     1       2.326   2.748   0.948  0.00  0.00    +0.187 C 
ATOM     22  C   UNL     1       3.481   1.810   1.244  0.00  0.00    +0.178 C 
ATOM     23  C   UNL     1       1.808   2.220  -0.385  0.00  0.00    +0.225 C 
ATOM     24  C   UNL     1       4.051   1.550  -0.144  0.00  0.00    +0.223 C 
BRANCH  24  28
ATOM     25  O   UNL     1       4.200  -0.884   0.004  0.00  0.00    -0.421 OA
ATOM     26  N   UNL     1       6.030   0.095  -0.830  0.00  0.00    -0.109 NA
ATOM     27  N   UNL     1       6.251  -1.270  -0.802  0.00  0.00    -0.112 NA
ATOM     28  C   UNL     1       4.826   0.266  -0.352  0.00  0.00    +0.255 A 
ATOM     29  C   UNL     1       5.157  -1.800  -0.308  0.00  0.00    +0.225 A 
BRANCH  29  30
ATOM     30  C   UNL     1       4.832  -3.210  -0.056  0.00  0.00    +0.070 C 
ATOM     31  C   UNL     1       6.004  -4.180  -0.455  0.00  0.00    +0.009 C 
ATOM     32  C   UNL     1       3.564  -3.690  -0.853  0.00  0.00    +0.009 C 
ATOM     33  C   UNL     1       4.512  -3.587   1.443  0.00  0.00    +0.009 C 
ENDBRANCH  29  30
ENDBRANCH  24  28
BRANCH  21  34
ATOM     34  O   UNL     1       2.800   4.077   0.738  0.00  0.00    -0.378 OA
ATOM     35  H   UNL     1       3.136   4.436   1.575  0.00  0.00    +0.211 HD
ENDBRANCH  21  34
BRANCH  22  36
ATOM     36  O   UNL     1       4.437   2.385   2.112  0.00  0.00    -0.379 OA
ATOM     37  H   UNL     1       4.035   2.534   2.983  0.00  0.00    +0.211 HD
ENDBRANCH  22  36
ENDBRANCH   1  23
TORSDOF 6
