REMARK  Name = 62348
REMARK  4 active torsions:
REMARK  status: ('A' for Active; 'I' for Inactive)
REMARK    1  A    between atoms: C_1  and  C_11
REMARK    2  A    between atoms: C_3  and  O_7
REMARK    3  A    between atoms: C_5  and  O_9
REMARK    4  A    between atoms: C_11  and  O_12
REMARK                            x       y       z     vdW  Elec       q    Type
REMARK                         _______ _______ _______ _____ _____    ______ ____
ROOT
ATOM      1  C   UNL     1      -1.345   0.074   0.282  0.00  0.00    +0.010 C 
ATOM      2  C   UNL     1      -0.273  -0.813   0.196  0.00  0.00    +0.038 C 
ATOM      3  C   UNL     1       1.022  -0.327   0.018  0.00  0.00    +0.172 C 
ATOM      4  C   UNL     1      -1.123   1.448   0.190  0.00  0.00    +0.001 C 
ATOM      5  C   UNL     1       1.245   1.047  -0.074  0.00  0.00    +0.168 C 
ATOM      6  C   UNL     1       0.172   1.935   0.012  0.00  0.00    +0.040 C 
ENDROOT
BRANCH   3   7
ATOM      7  O   UNL     1       2.061  -1.204  -0.065  0.00  0.00    -0.468 OA
ATOM      8  C   UNL     1       1.748  -2.592   0.039  0.00  0.00    +0.253 C 
ENDBRANCH   3   7
BRANCH   5   9
ATOM      9  O   UNL     1       2.505   1.534  -0.249  0.00  0.00    -0.503 OA
ATOM     10  H   UNL     1       3.231   0.945  -0.308  0.00  0.00    +0.292 HD
ENDBRANCH   5   9
BRANCH   1  11
ATOM     11  C   UNL     1      -2.730  -0.445   0.472  0.00  0.00    +0.164 C 
BRANCH  11  12
ATOM     12  O   UNL     1      -3.282  -0.657  -0.822  0.00  0.00    -0.377 OA
ATOM     13  H   UNL     1      -4.187  -0.996  -0.736  0.00  0.00    +0.211 HD
ENDBRANCH  11  12
ENDBRANCH   1  11
TORSDOF 4
