REMARK  Name = 51039095
REMARK  7 active torsions:
REMARK  status: ('A' for Active; 'I' for Inactive)
REMARK    1  A    between atoms: C_5  and  C_16
REMARK    2  A    between atoms: C_6  and  C_27
REMARK    3  A    between atoms: C_11  and  N_17
REMARK    4  A    between atoms: C_27  and  C_28
REMARK    5  A    between atoms: C_28  and  C_29
REMARK    6  A    between atoms: C_32  and  O_35
REMARK    7  A    between atoms: C_33  and  O_37
REMARK                            x       y       z     vdW  Elec       q    Type
REMARK                         _______ _______ _______ _____ _____    ______ ____
ROOT
ATOM      1  O   UNL     1      -0.502  -0.248   1.413  0.00  0.00    -0.270 OA
ATOM      2  N   UNL     1      -0.337   1.811   0.300  0.00  0.00    -0.265 N 
ATOM      3  N   UNL     1      -3.365   3.479  -0.023  0.00  0.00    -0.239 N 
ATOM      4  N   UNL     1      -2.040   3.440  -0.245  0.00  0.00    -0.166 NA
ATOM      5  C   UNL     1       0.172   0.619   0.834  0.00  0.00    +0.251 C 
ATOM      6  C   UNL     1      -3.845   2.387   0.640  0.00  0.00    +0.046 C 
ATOM      7  C   UNL     1      -1.675   2.277   0.300  0.00  0.00    +0.153 C 
ATOM      8  C   UNL     1      -2.758   1.578   0.866  0.00  0.00    +0.048 C 
ATOM      9  H   UNL     1       0.321   2.402  -0.132  0.00  0.00    +0.157 HD
ATOM     10  H   UNL     1      -3.936   4.227  -0.311  0.00  0.00    +0.174 HD
ENDROOT
BRANCH   5  16
ATOM     11  C   UNL     1       4.336  -0.016   0.313  0.00  0.00    +0.048 C 
ATOM     12  C   UNL     1       3.475  -1.106   0.443  0.00  0.00    +0.015 C 
ATOM     13  C   UNL     1       3.829   1.283   0.353  0.00  0.00    +0.015 C 
ATOM     14  C   UNL     1       2.107  -0.897   0.614  0.00  0.00    +0.006 C 
ATOM     15  C   UNL     1       2.460   1.491   0.524  0.00  0.00    +0.006 C 
ATOM     16  C   UNL     1       1.599   0.402   0.654  0.00  0.00    +0.054 C 
BRANCH  11  17
ATOM     17  N   UNL     1       5.709  -0.224   0.141  0.00  0.00    -0.312 N 
ATOM     18  N   UNL     1       8.453  -0.777  -0.396  0.00  0.00    +0.389 N 
ATOM     19  C   UNL     1       7.855  -1.190   0.878  0.00  0.00    -0.042 C 
ATOM     20  C   UNL     1       7.849   0.473  -0.869  0.00  0.00    -0.042 C 
ATOM     21  C   UNL     1       6.343  -1.412   0.724  0.00  0.00    +0.069 C 
ATOM     22  C   UNL     1       6.338   0.300  -1.079  0.00  0.00    +0.069 C 
ATOM     23  C   UNL     1       8.528   0.894  -2.171  0.00  0.00    -0.022 C 
ATOM     24  C   UNL     1       8.538  -2.469   1.360  0.00  0.00    -0.022 C 
ATOM     25  H   UNL     1       8.298  -1.508  -1.091  0.00  0.00    -0.084 HD
ATOM     26  H   UNL     1       9.452  -0.628  -0.257  0.00  0.00    -0.084 HD
ENDBRANCH  11  17
ENDBRANCH   5  16
BRANCH   6  27
ATOM     27  C   UNL     1      -5.269   2.239   0.979  0.00  0.00    +0.047 C 
BRANCH  27  28
ATOM     28  C   UNL     1      -6.122   1.527  -0.101  0.00  0.00    +0.033 C 
BRANCH  28  29
ATOM     29  C   UNL     1      -5.686   0.103  -0.351  0.00  0.00    -0.016 C 
ATOM     30  C   UNL     1      -4.721  -0.172  -1.320  0.00  0.00    +0.033 C 
ATOM     31  C   UNL     1      -6.247  -0.937   0.389  0.00  0.00    +0.033 C 
ATOM     32  C   UNL     1      -5.845  -2.253   0.160  0.00  0.00    +0.141 C 
ATOM     33  C   UNL     1      -4.318  -1.487  -1.549  0.00  0.00    +0.141 C 
ATOM     34  C   UNL     1      -4.880  -2.528  -0.810  0.00  0.00    +0.074 C 
BRANCH  32  35
ATOM     35  O   UNL     1      -6.392  -3.269   0.882  0.00  0.00    -0.471 OA
ATOM     36  C   UNL     1      -7.372  -2.916   1.857  0.00  0.00    +0.252 C 
ENDBRANCH  32  35
BRANCH  33  37
ATOM     37  O   UNL     1      -3.376  -1.756  -2.494  0.00  0.00    -0.471 OA
ATOM     38  C   UNL     1      -2.843  -0.645  -3.214  0.00  0.00    +0.252 C 
ENDBRANCH  33  37
ENDBRANCH  28  29
ENDBRANCH  27  28
ENDBRANCH   6  27
TORSDOF 7
