REMARK  Name = 24815904
REMARK  5 active torsions:
REMARK  status: ('A' for Active; 'I' for Inactive)
REMARK    1  A    between atoms: C_1  and  C_3
REMARK    2  A    between atoms: C_1  and  C_14
REMARK    3  A    between atoms: C_9  and  O_12
REMARK    4  A    between atoms: C_14  and  N_16
REMARK    5  A    between atoms: C_17  and  C_21
REMARK                            x       y       z     vdW  Elec       q    Type
REMARK                         _______ _______ _______ _____ _____    ______ ____
ROOT
ATOM      1  C   UNL     1      -1.625   2.386  -1.147  0.00  0.00    +0.049 C 
ENDROOT
BRANCH   1   3
ATOM      2  N   UNL     1      -3.797   0.883   1.375  0.00  0.00    -0.312 N 
ATOM      3  C   UNL     1      -2.399   1.533  -0.223  0.00  0.00    -0.005 C 
ATOM      4  C   UNL     1      -2.362   0.112  -0.150  0.00  0.00    +0.014 C 
ATOM      5  C   UNL     1      -3.248  -0.270   0.860  0.00  0.00    +0.048 C 
ATOM      6  C   UNL     1      -3.290   1.978   0.727  0.00  0.00    +0.058 C 
ATOM      7  C   UNL     1      -1.659  -0.889  -0.849  0.00  0.00    +0.038 C 
ATOM      8  C   UNL     1      -3.466  -1.608   1.207  0.00  0.00    +0.018 C 
ATOM      9  C   UNL     1      -1.867  -2.231  -0.513  0.00  0.00    +0.139 C 
ATOM     10  C   UNL     1      -2.757  -2.583   0.500  0.00  0.00    +0.038 C 
ATOM     11  H   UNL     1      -4.458   0.916   2.104  0.00  0.00    +0.152 HD
BRANCH   9  12
ATOM     12  O   UNL     1      -1.189  -3.204  -1.184  0.00  0.00    -0.471 OA
ATOM     13  C   UNL     1      -0.293  -2.780  -2.209  0.00  0.00    +0.252 C 
ENDBRANCH   9  12
ENDBRANCH   1   3
BRANCH   1  14
ATOM     14  C   UNL     1      -0.424   3.093  -0.492  0.00  0.00    +0.095 C 
BRANCH  14  16
ATOM     15  O   UNL     1       1.859   1.928  -1.859  0.00  0.00    -0.267 OA
ATOM     16  N   UNL     1       0.529   2.158   0.042  0.00  0.00    -0.298 N 
ATOM     17  C   UNL     1       1.590   1.658  -0.694  0.00  0.00    +0.281 C 
ATOM     18  H   UNL     1       0.423   1.860   0.975  0.00  0.00    +0.150 HD
BRANCH  17  21
ATOM     19  O   UNL     1       2.067   0.465   1.381  0.00  0.00    -0.446 OA
ATOM     20  O   UNL     1       5.312  -1.309  -0.268  0.00  0.00    -0.286 OA
ATOM     21  C   UNL     1       2.428   0.720   0.074  0.00  0.00    +0.202 C 
ATOM     22  C   UNL     1       3.486   0.172  -0.539  0.00  0.00    +0.084 C 
ATOM     23  C   UNL     1       4.330  -0.771   0.231  0.00  0.00    +0.202 C 
ATOM     24  C   UNL     1       2.846  -0.409   2.100  0.00  0.00    +0.183 C 
ATOM     25  C   UNL     1       3.930  -1.033   1.630  0.00  0.00    +0.083 C 
ENDBRANCH  17  21
ENDBRANCH  14  16
ENDBRANCH   1  14
TORSDOF 5
