REMARK  Name = 58298318
REMARK  3 active torsions:
REMARK  status: ('A' for Active; 'I' for Inactive)
REMARK    1  A    between atoms: N_2  and  C_26
REMARK    2  A    between atoms: C_10  and  C_14
REMARK    3  A    between atoms: C_17  and  C_23
REMARK                            x       y       z     vdW  Elec       q    Type
REMARK                         _______ _______ _______ _____ _____    ______ ____
ROOT
ATOM      1  O   UNL     1       5.905  -1.633   0.657  0.00  0.00    -0.273 OA
ATOM      2  N   UNL     1       3.703  -0.914   0.473  0.00  0.00    -0.230 N 
ATOM      3  N   UNL     1       4.687   1.516  -0.440  0.00  0.00    -0.308 N 
ATOM      4  N   UNL     1       1.464  -0.066   0.222  0.00  0.00    -0.386 NA
ATOM      5  N   UNL     1       2.492   2.341  -0.718  0.00  0.00    -0.245 NA
ATOM      6  C   UNL     1       2.802   0.138   0.137  0.00  0.00    +0.220 C 
ATOM      7  C   UNL     1       3.320   1.341  -0.328  0.00  0.00    +0.170 C 
ATOM      8  C   UNL     1       5.568   0.696   0.350  0.00  0.00    +0.175 C 
ATOM      9  C   UNL     1       5.085  -0.731   0.474  0.00  0.00    +0.251 C 
ATOM     10  C   UNL     1       0.660   0.943  -0.155  0.00  0.00    +0.137 C 
ATOM     11  C   UNL     1       1.167   2.129  -0.619  0.00  0.00    +0.186 C 
ATOM     12  H   UNL     1       5.053   2.193  -1.053  0.00  0.00    +0.149 HD
ENDROOT
BRANCH  10  14
ATOM     13  N   UNL     1      -2.708  -0.590  -0.653  0.00  0.00    -0.407 NA
ATOM     14  C   UNL     1      -0.755   0.700  -0.045  0.00  0.00    +0.049 C 
ATOM     15  C   UNL     1      -1.383  -0.328  -0.729  0.00  0.00    +0.111 C 
ATOM     16  C   UNL     1      -1.537   1.513   0.768  0.00  0.00    -0.014 C 
ATOM     17  C   UNL     1      -3.435   0.222   0.147  0.00  0.00    +0.146 C 
ATOM     18  C   UNL     1      -2.903   1.276   0.872  0.00  0.00    +0.088 C 
ATOM     19  C   UNL     1      -0.604  -1.241  -1.621  0.00  0.00    +0.066 C 
BRANCH  17  23
ATOM     20  N   UNL     1      -5.398  -1.116  -0.495  0.00  0.00    -0.217 N 
ATOM     21  N   UNL     1      -5.766   0.532   0.892  0.00  0.00    -0.204 NA
ATOM     22  N   UNL     1      -6.719  -1.191  -0.272  0.00  0.00    -0.157 NA
ATOM     23  C   UNL     1      -4.839  -0.089   0.200  0.00  0.00    +0.175 C 
ATOM     24  C   UNL     1      -6.891  -0.173   0.573  0.00  0.00    +0.218 C 
ATOM     25  H   UNL     1      -4.898  -1.725  -1.085  0.00  0.00    +0.176 HD
ENDBRANCH  17  23
ENDBRANCH  10  14
BRANCH   2  26
ATOM     26  C   UNL     1       3.128  -2.219   0.779  0.00  0.00    +0.101 C 
ATOM     27  C   UNL     1       2.956  -3.057  -0.471  0.00  0.00    +0.024 C 
ENDBRANCH   2  26
TORSDOF 3
