REMARK  Name = 11609955
REMARK  7 active torsions:
REMARK  status: ('A' for Active; 'I' for Inactive)
REMARK    1  A    between atoms: S_1  and  C_4
REMARK    2  A    between atoms: S_1  and  N_15
REMARK    3  A    between atoms: C_5  and  C_10
REMARK    4  A    between atoms: C_10  and  N_11
REMARK    5  A    between atoms: C_18  and  C_20
REMARK    6  A    between atoms: C_21  and  C_24
REMARK    7  A    between atoms: N_23  and  O_26
REMARK                            x       y       z     vdW  Elec       q    Type
REMARK                         _______ _______ _______ _____ _____    ______ ____
ROOT
ATOM      1  S   UNL     1       0.875   2.628  -0.435  0.00  0.00    +0.080 S 
ATOM      2  O   UNL     1       1.050   3.717   0.509  0.00  0.00    -0.149 OA
ATOM      3  O   UNL     1       0.691   2.853  -1.857  0.00  0.00    -0.149 OA
ENDROOT
BRANCH   1   4
ATOM      4  C   UNL     1       2.135   1.437  -0.229  0.00  0.00    +0.126 C 
ATOM      5  C   UNL     1       4.139  -0.455   0.097  0.00  0.00    -0.043 C 
ATOM      6  C   UNL     1       2.430   0.548  -1.263  0.00  0.00    +0.020 C 
ATOM      7  C   UNL     1       2.846   1.374   0.969  0.00  0.00    +0.020 C 
ATOM      8  C   UNL     1       3.438  -0.402  -1.099  0.00  0.00    -0.005 C 
ATOM      9  C   UNL     1       3.854   0.424   1.133  0.00  0.00    -0.005 C 
BRANCH   5  10
ATOM     10  C   UNL     1       5.227  -1.481   0.274  0.00  0.00    -0.050 C 
BRANCH  10  11
ATOM     11  N   UNL     1       4.812  -2.802  -0.198  0.00  0.00    +0.387 N 
ATOM     12  C   UNL     1       3.638  -3.264   0.542  0.00  0.00    -0.100 C 
ATOM     13  C   UNL     1       5.909  -3.760  -0.066  0.00  0.00    -0.100 C 
ATOM     14  H   UNL     1       4.564  -2.729  -1.185  0.00  0.00    -0.079 HD
ENDBRANCH  10  11
ENDBRANCH   5  10
ENDBRANCH   1   4
BRANCH   1  15
ATOM     15  N   UNL     1      -0.577   1.870   0.115  0.00  0.00    -0.167 N 
ATOM     16  C   UNL     1      -1.378   1.169  -0.689  0.00  0.00    +0.089 C 
ATOM     17  C   UNL     1      -0.992   1.935   1.380  0.00  0.00    +0.089 C 
ATOM     18  C   UNL     1      -2.411   0.733   0.111  0.00  0.00    +0.018 C 
ATOM     19  C   UNL     1      -2.168   1.217   1.419  0.00  0.00    +0.019 C 
BRANCH  18  20
ATOM     20  C   UNL     1      -3.498  -0.052  -0.328  0.00  0.00    +0.006 C 
ATOM     21  C   UNL     1      -4.552  -0.519   0.400  0.00  0.00    +0.060 C 
BRANCH  21  24
ATOM     22  O   UNL     1      -5.620  -1.646  -1.417  0.00  0.00    -0.268 OA
ATOM     23  N   UNL     1      -6.586  -1.700   0.682  0.00  0.00    -0.193 N 
ATOM     24  C   UNL     1      -5.625  -1.341  -0.228  0.00  0.00    +0.268 C 
ATOM     25  H   UNL     1      -6.541  -1.428   1.627  0.00  0.00    +0.183 HD
BRANCH  23  26
ATOM     26  O   UNL     1      -7.636  -2.481   0.179  0.00  0.00    -0.295 OA
ATOM     27  H   UNL     1      -8.260  -2.682   0.894  0.00  0.00    +0.241 HD
ENDBRANCH  23  26
ENDBRANCH  21  24
ENDBRANCH  18  20
ENDBRANCH   1  15
TORSDOF 7
