REMARK  Name = 9832687
REMARK  5 active torsions:
REMARK  status: ('A' for Active; 'I' for Inactive)
REMARK    1  A    between atoms: C_4  and  C_10
REMARK    2  A    between atoms: C_5  and  C_20
REMARK    3  A    between atoms: C_11  and  S_16
REMARK    4  A    between atoms: C_25  and  O_26
REMARK    5  A    between atoms: O_26  and  C_27
REMARK                            x       y       z     vdW  Elec       q    Type
REMARK                         _______ _______ _______ _____ _____    ______ ____
ROOT
ATOM      1  N   UNL     1       2.280   2.890   0.035  0.00  0.00    -0.123 N 
ATOM      2  N   UNL     1       0.954   3.139  -0.029  0.00  0.00    -0.163 NA
ATOM      3  N   UNL     1       3.176   3.916   0.074  0.00  0.00    -0.125 NA
ATOM      4  C   UNL     1       1.357   0.888   0.000  0.00  0.00    +0.103 C 
ATOM      5  C   UNL     1       0.405   1.922  -0.050  0.00  0.00    +0.087 C 
ATOM      6  C   UNL     1       2.565   1.540   0.054  0.00  0.00    +0.078 C 
ATOM      7  C   UNL     1       3.921   1.154   0.120  0.00  0.00    +0.016 C 
ATOM      8  C   UNL     1       4.867   2.100   0.160  0.00  0.00    +0.021 C 
ATOM      9  C   UNL     1       4.407   3.510   0.133  0.00  0.00    +0.106 C 
ENDROOT
BRANCH   4  10
ATOM     10  C   UNL     1       1.205  -0.538  -0.002  0.00  0.00    -0.011 C 
ATOM     11  C   UNL     1       0.908  -3.314  -0.007  0.00  0.00    +0.106 C 
ATOM     12  C   UNL     1       1.188  -1.238  -1.210  0.00  0.00    -0.002 C 
ATOM     13  C   UNL     1       1.073  -1.229   1.203  0.00  0.00    -0.002 C 
ATOM     14  C   UNL     1       1.040  -2.625  -1.212  0.00  0.00    +0.018 C 
ATOM     15  C   UNL     1       0.924  -2.616   1.201  0.00  0.00    +0.018 C 
BRANCH  11  16
ATOM     16  S   UNL     1       0.724  -5.050  -0.010  0.00  0.00    +0.010 S 
ATOM     17  O   UNL     1       1.311  -5.561  -1.240  0.00  0.00    -0.169 OA
ATOM     18  O   UNL     1       1.169  -5.574   1.275  0.00  0.00    -0.169 OA
ATOM     19  C   UNL     1      -1.034  -5.308  -0.094  0.00  0.00    +0.182 C 
ENDBRANCH  11  16
ENDBRANCH   4  10
BRANCH   5  20
ATOM     20  C   UNL     1      -1.028   1.783  -0.117  0.00  0.00    +0.016 C 
ATOM     21  C   UNL     1      -1.774   1.721   1.057  0.00  0.00    +0.004 C 
ATOM     22  C   UNL     1      -1.659   1.711  -1.356  0.00  0.00    +0.004 C 
ATOM     23  C   UNL     1      -3.160   1.587   0.991  0.00  0.00    +0.037 C 
ATOM     24  C   UNL     1      -3.046   1.577  -1.422  0.00  0.00    +0.037 C 
ATOM     25  C   UNL     1      -3.797   1.514  -0.248  0.00  0.00    +0.139 C 
BRANCH  25  26
ATOM     26  O   UNL     1      -5.150   1.384  -0.312  0.00  0.00    -0.475 OA
BRANCH  26  27
ATOM     27  C   UNL     1      -5.787   0.695   0.763  0.00  0.00    +0.206 C 
ATOM     28  C   UNL     1      -7.041   0.023   0.243  0.00  0.00    +0.051 C 
ENDBRANCH  26  27
ENDBRANCH  25  26
ENDBRANCH   5  20
TORSDOF 5
