REMARK  Name = 56950369
REMARK  4 active torsions:
REMARK  status: ('A' for Active; 'I' for Inactive)
REMARK    1  A    between atoms: C_7  and  C_16
REMARK    2  A    between atoms: C_16  and  C_17
REMARK    3  A    between atoms: C_17  and  C_18
REMARK    4  A    between atoms: C_18  and  C_19
REMARK                            x       y       z     vdW  Elec       q    Type
REMARK                         _______ _______ _______ _____ _____    ______ ____
ROOT
ATOM      1  O   UNL     1       2.872   1.597  -0.476  0.00  0.00    -0.405 OA
ATOM      2  O   UNL     1      -0.112  -1.856   1.034  0.00  0.00    -0.267 OA
ATOM      3  O   UNL     1       2.367   3.809  -0.439  0.00  0.00    -0.244 OA
ATOM      4  O   UNL     1       4.052  -2.873  -0.621  0.00  0.00    -0.247 OA
ATOM      5  N   UNL     1       3.399  -0.672  -0.519  0.00  0.00    -0.278 N 
ATOM      6  N   UNL     1       1.964  -2.357   0.208  0.00  0.00    -0.274 N 
ATOM      7  C   UNL     1       0.347   1.069   0.617  0.00  0.00    -0.007 C 
ATOM      8  C   UNL     1       1.263  -0.021   0.320  0.00  0.00    +0.104 A 
ATOM      9  C   UNL     1       0.723   2.332   0.361  0.00  0.00    +0.078 C 
ATOM     10  C   UNL     1       2.464   0.276  -0.203  0.00  0.00    +0.219 A 
ATOM     11  C   UNL     1       0.953  -1.470   0.561  0.00  0.00    +0.265 A 
ATOM     12  C   UNL     1       2.043   2.648  -0.213  0.00  0.00    +0.347 C 
ATOM     13  C   UNL     1       3.204  -2.028  -0.333  0.00  0.00    +0.329 A 
ATOM     14  H   UNL     1       4.257  -0.372  -0.899  0.00  0.00    +0.173 HD
ATOM     15  H   UNL     1       1.785  -3.314   0.356  0.00  0.00    +0.173 HD
ENDROOT
BRANCH   7  16
ATOM     16  C   UNL     1      -1.010   0.801   1.202  0.00  0.00    +0.027 C 
BRANCH  16  17
ATOM     17  C   UNL     1      -1.983   0.286   0.148  0.00  0.00    +0.005 C 
BRANCH  17  18
ATOM     18  C   UNL     1      -3.369   0.051   0.751  0.00  0.00    +0.000 C 
BRANCH  18  19
ATOM     19  C   UNL     1      -4.351  -0.414  -0.280  0.00  0.00    +0.000 C 
ATOM     20  C   UNL     1      -4.997   0.620  -1.154  0.00  0.00    +0.000 C 
ATOM     21  C   UNL     1      -5.796  -0.060  -0.082  0.00  0.00    +0.000 C 
ATOM     22  C   UNL     1      -4.035  -1.738  -0.883  0.00  0.00    +0.000 C 
ENDBRANCH  18  19
ENDBRANCH  17  18
ENDBRANCH  16  17
ENDBRANCH   7  16
TORSDOF 4
