REMARK  Name = 9638
REMARK  3 active torsions:
REMARK  status: ('A' for Active; 'I' for Inactive)
REMARK    1  A    between atoms: C_3  and  C_7
REMARK    2  A    between atoms: C_3  and  C_10
REMARK    3  A    between atoms: C_10  and  C_14
REMARK                            x       y       z     vdW  Elec       q    Type
REMARK                         _______ _______ _______ _____ _____    ______ ____
ROOT
ATOM      1  F   UNL     1      -0.620  -0.691  -1.639  0.00  0.00    -0.189 F 
ATOM      2  F   UNL     1      -1.333  -1.809   0.087  0.00  0.00    -0.189 F 
ATOM      3  C   UNL     1      -0.709  -0.660  -0.279  0.00  0.00    +0.411 C 
ENDROOT
BRANCH   3   7
ATOM      4  F   UNL     1      -1.069   1.683  -0.318  0.00  0.00    -0.165 F 
ATOM      5  F   UNL     1      -1.718   0.582   1.441  0.00  0.00    -0.165 F 
ATOM      6  F   UNL     1      -2.822   0.386  -0.430  0.00  0.00    -0.165 F 
ATOM      7  C   UNL     1      -1.586   0.509   0.097  0.00  0.00    +0.460 C 
ENDBRANCH   3   7
BRANCH   3  10
ATOM      8  F   UNL     1       0.616  -0.681   1.635  0.00  0.00    -0.189 F 
ATOM      9  F   UNL     1       1.329  -1.810  -0.084  0.00  0.00    -0.189 F 
ATOM     10  C   UNL     1       0.705  -0.658   0.275  0.00  0.00    +0.411 C 
BRANCH  10  14
ATOM     11  F   UNL     1       1.054   1.678   0.304  0.00  0.00    -0.165 F 
ATOM     12  F   UNL     1       2.802   0.384   0.462  0.00  0.00    -0.165 F 
ATOM     13  F   UNL     1       1.771   0.581  -1.442  0.00  0.00    -0.165 F 
ATOM     14  C   UNL     1       1.582   0.507  -0.109  0.00  0.00    +0.460 C 
ENDBRANCH  10  14
ENDBRANCH   3  10
TORSDOF 3
