REMARK  Name = 71183216
REMARK  5 active torsions:
REMARK  status: ('A' for Active; 'I' for Inactive)
REMARK    1  A    between atoms: N_3  and  C_24
REMARK    2  A    between atoms: C_10  and  C_13
REMARK    3  A    between atoms: C_18  and  O_19
REMARK    4  A    between atoms: O_19  and  C_23
REMARK    5  A    between atoms: C_24  and  C_27
REMARK                            x       y       z     vdW  Elec       q    Type
REMARK                         _______ _______ _______ _____ _____    ______ ____
ROOT
ATOM      1  O   UNL     1      -2.841  -2.010  -0.439  0.00  0.00    -0.473 OA
ATOM      2  O   UNL     1      -1.823   1.776  -0.121  0.00  0.00    -0.270 OA
ATOM      3  N   UNL     1      -3.170   0.343   1.136  0.00  0.00    -0.259 N 
ATOM      4  C   UNL     1      -3.298  -0.958   1.787  0.00  0.00    +0.142 C 
ATOM      5  C   UNL     1      -1.091  -0.425   0.087  0.00  0.00    +0.087 C 
ATOM      6  C   UNL     1      -3.602  -2.057   0.775  0.00  0.00    +0.227 C 
ATOM      7  C   UNL     1      -2.057   0.668   0.356  0.00  0.00    +0.253 C 
ATOM      8  C   UNL     1      -1.519  -1.713  -0.260  0.00  0.00    +0.143 C 
ATOM      9  C   UNL     1       0.277  -0.140   0.151  0.00  0.00    +0.008 C 
ATOM     10  C   UNL     1       1.207  -1.143  -0.122  0.00  0.00    +0.000 C 
ATOM     11  C   UNL     1      -0.586  -2.707  -0.554  0.00  0.00    +0.037 C 
ATOM     12  C   UNL     1       0.777  -2.424  -0.473  0.00  0.00    +0.003 C 
ENDROOT
BRANCH  10  13
ATOM     13  C   UNL     1       2.623  -0.854  -0.047  0.00  0.00    +0.000 C 
ATOM     14  C   UNL     1       3.520  -1.541  -0.865  0.00  0.00    +0.003 C 
ATOM     15  C   UNL     1       3.091   0.110   0.846  0.00  0.00    +0.003 C 
ATOM     16  C   UNL     1       4.885  -1.263  -0.791  0.00  0.00    +0.037 C 
ATOM     17  C   UNL     1       4.456   0.388   0.920  0.00  0.00    +0.037 C 
ATOM     18  C   UNL     1       5.353  -0.299   0.102  0.00  0.00    +0.147 C 
BRANCH  18  19
ATOM     19  O   UNL     1       6.685  -0.029   0.175  0.00  0.00    -0.404 OA
BRANCH  19  23
ATOM     20  F   UNL     1       6.301   1.896  -0.999  0.00  0.00    -0.133 F 
ATOM     21  F   UNL     1       8.357   1.240  -0.656  0.00  0.00    -0.133 F 
ATOM     22  F   UNL     1       7.197   2.035   1.017  0.00  0.00    -0.133 F 
ATOM     23  C   UNL     1       7.121   1.296  -0.110  0.00  0.00    +0.575 C 
ENDBRANCH  19  23
ENDBRANCH  18  19
ENDBRANCH  10  13
BRANCH   3  24
ATOM     24  C   UNL     1      -4.232   1.311   1.358  0.00  0.00    +0.194 C 
BRANCH  24  27
ATOM     25  N   UNL     1      -5.061   1.677  -0.890  0.00  0.00    -0.217 NA
ATOM     26  N   UNL     1      -6.468   0.603   0.746  0.00  0.00    -0.195 NA
ATOM     27  C   UNL     1      -5.326   1.189   0.337  0.00  0.00    +0.028 C 
ATOM     28  C   UNL     1      -6.066   1.551  -1.782  0.00  0.00    +0.164 C 
ATOM     29  C   UNL     1      -7.429   0.510  -0.196  0.00  0.00    +0.107 C 
ATOM     30  C   UNL     1      -7.283   0.971  -1.489  0.00  0.00    +0.022 C 
ENDBRANCH  24  27
ENDBRANCH   3  24
TORSDOF 5
