REMARK  Name = 15984937
REMARK  6 active torsions:
REMARK  status: ('A' for Active; 'I' for Inactive)
REMARK    1  A    between atoms: C_1  and  C_9
REMARK    2  A    between atoms: C_1  and  C_20
REMARK    3  A    between atoms: C_4  and  N_10
REMARK    4  A    between atoms: N_10  and  C_13
REMARK    5  A    between atoms: C_19  and  C_25
REMARK    6  A    between atoms: C_25  and  N_26
REMARK                            x       y       z     vdW  Elec       q    Type
REMARK                         _______ _______ _______ _____ _____    ______ ____
ROOT
ATOM      1  C   UNL     1       0.392  -1.870  -0.336  0.00  0.00    +0.112 C 
ENDROOT
BRANCH   1   9
ATOM      2  O   UNL     1       0.274   0.454   0.110  0.00  0.00    -0.275 OA
ATOM      3  N   UNL     1      -1.740  -0.621  -0.324  0.00  0.00    -0.279 N 
ATOM      4  C   UNL     1      -4.485  -0.821   0.617  0.00  0.00    +0.072 C 
ATOM      5  C   UNL     1      -3.608  -2.058   0.397  0.00  0.00    +0.041 C 
ATOM      6  C   UNL     1      -3.636   0.434   0.848  0.00  0.00    +0.041 C 
ATOM      7  C   UNL     1      -2.515  -1.824  -0.647  0.00  0.00    +0.095 C 
ATOM      8  C   UNL     1      -2.533   0.602  -0.197  0.00  0.00    +0.095 C 
ATOM      9  C   UNL     1      -0.355  -0.572  -0.163  0.00  0.00    +0.230 C 
BRANCH   4  10
ATOM     10  N   UNL     1      -5.367  -0.632  -0.518  0.00  0.00    -0.334 N 
ATOM     11  H   UNL     1      -5.114  -1.041  -1.378  0.00  0.00    +0.147 HD
BRANCH  10  13
ATOM     12  F   UNL     1      -8.526   2.002   1.952  0.00  0.00    -0.204 F 
ATOM     13  C   UNL     1      -6.543   0.093  -0.460  0.00  0.00    +0.047 C 
ATOM     14  C   UNL     1      -6.961   0.701   0.741  0.00  0.00    +0.044 C 
ATOM     15  C   UNL     1      -7.359   0.245  -1.598  0.00  0.00    +0.014 C 
ATOM     16  C   UNL     1      -8.148   1.431   0.800  0.00  0.00    +0.141 C 
ATOM     17  C   UNL     1      -8.546   0.975  -1.539  0.00  0.00    +0.004 C 
ATOM     18  C   UNL     1      -8.940   1.568  -0.339  0.00  0.00    +0.030 C 
ENDBRANCH  10  13
ENDBRANCH   4  10
ENDBRANCH   1   9
BRANCH   1  20
ATOM     19  C   UNL     1       4.578  -1.302   0.356  0.00  0.00    -0.043 C 
ATOM     20  C   UNL     1       1.855  -1.672  -0.094  0.00  0.00    -0.013 C 
ATOM     21  C   UNL     1       4.056  -1.146  -0.928  0.00  0.00    -0.007 C 
ATOM     22  C   UNL     1       3.736  -1.643   1.414  0.00  0.00    -0.007 C 
ATOM     23  C   UNL     1       2.692  -1.331  -1.154  0.00  0.00    -0.004 C 
ATOM     24  C   UNL     1       2.372  -1.829   1.189  0.00  0.00    -0.004 C 
BRANCH  19  25
ATOM     25  C   UNL     1       6.036  -1.105   0.597  0.00  0.00    -0.050 C 
BRANCH  25  26
ATOM     26  N   UNL     1       6.553   0.092  -0.065  0.00  0.00    +0.387 N 
ATOM     27  N   UNL     1       7.852   2.672  -0.080  0.00  0.00    +0.382 N 
ATOM     28  C   UNL     1       8.546   1.473  -0.562  0.00  0.00    -0.083 C 
ATOM     29  C   UNL     1       8.003   0.215   0.137  0.00  0.00    -0.099 C 
ATOM     30  C   UNL     1       5.864   1.294   0.421  0.00  0.00    -0.101 C 
ATOM     31  C   UNL     1       6.407   2.547  -0.267  0.00  0.00    -0.105 C 
ATOM     32  C   UNL     1      10.044   1.627  -0.305  0.00  0.00    -0.026 C 
ATOM     33  H   UNL     1       6.374   0.002  -1.065  0.00  0.00    -0.079 HD
ATOM     34  H   UNL     1       8.187   3.484  -0.598  0.00  0.00    -0.085 HD
ATOM     35  H   UNL     1       8.043   2.782   0.916  0.00  0.00    -0.085 HD
ENDBRANCH  25  26
ENDBRANCH  19  25
ENDBRANCH   1  20
TORSDOF 6
