REMARK  Name = 45100669
REMARK  4 active torsions:
REMARK  status: ('A' for Active; 'I' for Inactive)
REMARK    1  A    between atoms: C_17  and  C_27
REMARK    2  A    between atoms: C_19  and  C_22
REMARK    3  A    between atoms: C_22  and  O_25
REMARK    4  A    between atoms: C_27  and  C_28
REMARK                            x       y       z     vdW  Elec       q    Type
REMARK                         _______ _______ _______ _____ _____    ______ ____
ROOT
ATOM      1  N   UNL     1      -2.545   0.347   0.329  0.00  0.00    -0.294 N 
ATOM      2  N   UNL     1       0.215   0.405  -0.185  0.00  0.00    -0.289 N 
ATOM      3  N   UNL     1       2.040  -0.326  -1.489  0.00  0.00    -0.134 NA
ATOM      4  N   UNL     1      -4.750   1.211   0.323  0.00  0.00    -0.252 NA
ATOM      5  N   UNL     1       3.365  -0.298  -1.796  0.00  0.00    -0.151 NA
ATOM      6  N   UNL     1      -5.696  -1.380  -0.185  0.00  0.00    -0.267 NA
ATOM      7  C   UNL     1      -1.691  -0.626   1.030  0.00  0.00    +0.094 C 
ATOM      8  C   UNL     1      -0.404  -0.864   0.215  0.00  0.00    +0.112 C 
ATOM      9  C   UNL     1      -1.915   1.616  -0.048  0.00  0.00    +0.113 C 
ATOM     10  C   UNL     1      -0.666   1.350  -0.883  0.00  0.00    +0.114 C 
ATOM     11  C   UNL     1      -1.377  -0.161   2.455  0.00  0.00    +0.023 C 
ATOM     12  C   UNL     1       1.581   0.448  -0.484  0.00  0.00    +0.149 A 
ATOM     13  C   UNL     1      -3.917   0.159   0.202  0.00  0.00    +0.129 C 
ATOM     14  C   UNL     1       2.398   1.277   0.258  0.00  0.00    +0.009 A 
ATOM     15  C   UNL     1       3.746   1.305  -0.054  0.00  0.00    -0.007 A 
ATOM     16  C   UNL     1      -4.382  -1.114  -0.048  0.00  0.00    +0.185 C 
ATOM     17  C   UNL     1       4.188   0.503  -1.087  0.00  0.00    +0.081 A 
ATOM     18  C   UNL     1       1.856   2.121   1.364  0.00  0.00    +0.034 C 
ATOM     19  C   UNL     1      -6.529  -0.327  -0.063  0.00  0.00    +0.080 C 
ATOM     20  C   UNL     1      -6.065   0.945   0.186  0.00  0.00    +0.169 C 
ATOM     21  C   UNL     1       4.693   2.176   0.703  0.00  0.00    +0.032 C 
ENDROOT
BRANCH  19  22
ATOM     22  C   UNL     1      -7.989  -0.584  -0.209  0.00  0.00    +0.121 C 
ATOM     23  C   UNL     1      -8.396  -1.978   0.327  0.00  0.00    +0.035 C 
ATOM     24  C   UNL     1      -8.465  -0.444  -1.675  0.00  0.00    +0.035 C 
BRANCH  22  25
ATOM     25  O   UNL     1      -8.778   0.365   0.546  0.00  0.00    -0.381 OA
ATOM     26  H   UNL     1      -8.525   0.326   1.481  0.00  0.00    +0.211 HD
ENDBRANCH  22  25
ENDBRANCH  19  22
BRANCH  17  27
ATOM     27  C   UNL     1       5.626   0.480  -1.480  0.00  0.00    +0.074 C 
BRANCH  27  28
ATOM     28  C   UNL     1       6.503  -0.343  -0.558  0.00  0.00    -0.016 C 
ATOM     29  C   UNL     1       7.611   0.241   0.056  0.00  0.00    -0.004 C 
ATOM     30  C   UNL     1       6.202  -1.685  -0.323  0.00  0.00    -0.004 C 
ATOM     31  C   UNL     1       8.418  -0.516   0.905  0.00  0.00    -0.000 C 
ATOM     32  C   UNL     1       7.008  -2.442   0.526  0.00  0.00    -0.000 C 
ATOM     33  C   UNL     1       8.117  -1.858   1.140  0.00  0.00    -0.000 C 
ENDBRANCH  27  28
ENDBRANCH  17  27
TORSDOF 4
