REMARK  Name = 25070031
REMARK  6 active torsions:
REMARK  status: ('A' for Active; 'I' for Inactive)
REMARK    1  A    between atoms: C_1  and  O_15
REMARK    2  A    between atoms: C_4  and  C_10
REMARK    3  A    between atoms: O_15  and  C_16
REMARK    4  A    between atoms: C_16  and  C_17
REMARK    5  A    between atoms: C_17  and  C_18
REMARK    6  A    between atoms: C_18  and  N_19
REMARK                            x       y       z     vdW  Elec       q    Type
REMARK                         _______ _______ _______ _____ _____    ______ ____
ROOT
ATOM      1  C   UNL     1      -0.697   1.683   0.122  0.00  0.00    +0.139 C 
ATOM      2  C   UNL     1      -0.030   1.321   1.292  0.00  0.00    +0.037 C 
ATOM      3  C   UNL     1      -0.071   1.524  -1.115  0.00  0.00    +0.037 C 
ATOM      4  C   UNL     1       1.887   0.640  -0.010  0.00  0.00    +0.019 C 
ATOM      5  C   UNL     1       1.262   0.799   1.226  0.00  0.00    +0.005 C 
ATOM      6  C   UNL     1       1.221   1.003  -1.181  0.00  0.00    +0.005 C 
ENDROOT
BRANCH   4  10
ATOM      7  O   UNL     1       6.945  -1.399  -0.209  0.00  0.00    -0.268 OA
ATOM      8  N   UNL     1       3.620  -0.578  -1.136  0.00  0.00    -0.179 NA
ATOM      9  N   UNL     1       4.881  -1.073  -1.163  0.00  0.00    -0.202 N 
ATOM     10  C   UNL     1       3.265   0.085  -0.080  0.00  0.00    +0.099 C 
ATOM     11  C   UNL     1       4.149   0.350   1.076  0.00  0.00    +0.025 C 
ATOM     12  C   UNL     1       5.382  -0.153   1.020  0.00  0.00    +0.061 C 
ATOM     13  C   UNL     1       5.810  -0.929  -0.161  0.00  0.00    +0.265 C 
ATOM     14  H   UNL     1       5.152  -1.577  -1.964  0.00  0.00    +0.178 HD
ENDBRANCH   4  10
BRANCH   1  15
ATOM     15  O   UNL     1      -1.965   2.198   0.187  0.00  0.00    -0.476 OA
BRANCH  15  16
ATOM     16  C   UNL     1      -2.817   1.945  -0.922  0.00  0.00    +0.203 C 
BRANCH  16  17
ATOM     17  C   UNL     1      -4.256   1.868  -0.430  0.00  0.00    +0.025 C 
BRANCH  17  18
ATOM     18  C   UNL     1      -4.442   0.742   0.582  0.00  0.00    -0.073 C 
BRANCH  18  19
ATOM     19  N   UNL     1      -4.083  -0.539  -0.015  0.00  0.00    +0.388 N 
ATOM     20  C   UNL     1      -3.796  -1.584   0.978  0.00  0.00    -0.058 C 
ATOM     21  C   UNL     1      -3.874  -2.868   0.149  0.00  0.00    -0.023 C 
ATOM     22  C   UNL     1      -5.178  -1.079  -0.824  0.00  0.00    -0.077 C 
ATOM     23  C   UNL     1      -4.776  -2.530  -1.033  0.00  0.00    -0.025 C 
ATOM     24  C   UNL     1      -2.436  -1.425   1.646  0.00  0.00    -0.023 C 
ATOM     25  H   UNL     1      -3.253  -0.330  -0.569  0.00  0.00    -0.080 HD
ENDBRANCH  18  19
ENDBRANCH  17  18
ENDBRANCH  16  17
ENDBRANCH  15  16
ENDBRANCH   1  15
TORSDOF 6
