REMARK  Name = 46208720
REMARK  6 active torsions:
REMARK  status: ('A' for Active; 'I' for Inactive)
REMARK    1  A    between atoms: C_3  and  C_21
REMARK    2  A    between atoms: C_8  and  C_13
REMARK    3  A    between atoms: C_16  and  C_19
REMARK    4  A    between atoms: C_21  and  C_23
REMARK    5  A    between atoms: C_21  and  C_31
REMARK    6  A    between atoms: C_21  and  O_35
REMARK                            x       y       z     vdW  Elec       q    Type
REMARK                         _______ _______ _______ _____ _____    ______ ____
ROOT
ATOM      1  O   UNL     1      -5.645  -1.984   0.860  0.00  0.00    -0.270 OA
ATOM      2  N   UNL     1      -3.421  -2.652   1.066  0.00  0.00    -0.253 N 
ATOM      3  C   UNL     1       0.661  -1.705   0.392  0.00  0.00    +0.011 C 
ATOM      4  C   UNL     1      -1.699  -1.120   0.234  0.00  0.00    +0.014 C 
ATOM      5  C   UNL     1      -0.343  -0.816   0.015  0.00  0.00    -0.000 C 
ATOM      6  C   UNL     1      -2.042  -2.341   0.843  0.00  0.00    +0.054 C 
ATOM      7  C   UNL     1       0.325  -2.911   0.993  0.00  0.00    -0.000 C 
ATOM      8  C   UNL     1      -2.756  -0.171  -0.169  0.00  0.00    +0.006 C 
ATOM      9  C   UNL     1      -1.015  -3.227   1.217  0.00  0.00    +0.015 C 
ATOM     10  C   UNL     1      -4.037  -0.501   0.058  0.00  0.00    +0.058 C 
ATOM     11  C   UNL     1      -4.442  -1.778   0.697  0.00  0.00    +0.253 C 
ATOM     12  C   UNL     1      -3.773  -3.921   1.698  0.00  0.00    +0.120 C 
ENDROOT
BRANCH   8  13
ATOM     13  C   UNL     1      -2.555   1.128  -0.806  0.00  0.00    +0.001 C 
ATOM     14  C   UNL     1      -2.401   2.273  -0.025  0.00  0.00    +0.008 C 
ATOM     15  C   UNL     1      -2.516   1.222  -2.197  0.00  0.00    +0.000 C 
ATOM     16  C   UNL     1      -2.208   3.513  -0.635  0.00  0.00    +0.043 C 
ATOM     17  C   UNL     1      -2.322   2.462  -2.807  0.00  0.00    +0.001 C 
ATOM     18  C   UNL     1      -2.169   3.607  -2.026  0.00  0.00    +0.008 C 
BRANCH  16  19
ATOM     19  C   UNL     1      -2.050   4.687   0.165  0.00  0.00    -0.051 C 
ATOM     20  C   UNL     1      -1.918   5.673   0.838  0.00  0.00    -0.009 C 
ENDBRANCH  16  19
ENDBRANCH   8  13
BRANCH   3  21
ATOM     21  C   UNL     1       2.092  -1.363   0.149  0.00  0.00    +0.158 C 
BRANCH  21  23
ATOM     22 CL   UNL     1       3.923   3.710   2.947  0.00  0.00    -0.082 Cl
ATOM     23  C   UNL     1       2.565  -0.057   0.869  0.00  0.00    +0.011 C 
ATOM     24  C   UNL     1       3.095  -0.123   2.158  0.00  0.00    -0.000 C 
ATOM     25  C   UNL     1       2.456   1.174   0.223  0.00  0.00    -0.000 C 
ATOM     26  C   UNL     1       3.515   1.041   2.800  0.00  0.00    +0.011 C 
ATOM     27  C   UNL     1       2.876   2.339   0.865  0.00  0.00    +0.011 C 
ATOM     28  C   UNL     1       3.406   2.273   2.154  0.00  0.00    +0.058 C 
ENDBRANCH  21  23
BRANCH  21  31
ATOM     29  N   UNL     1       3.817  -1.296  -1.776  0.00  0.00    -0.268 N 
ATOM     30  N   UNL     1       2.588  -1.401  -3.623  0.00  0.00    -0.225 NA
ATOM     31  C   UNL     1       2.518  -1.366  -1.358  0.00  0.00    +0.082 C 
ATOM     32  C   UNL     1       1.778  -1.430  -2.516  0.00  0.00    +0.114 C 
ATOM     33  C   UNL     1       3.809  -1.320  -3.143  0.00  0.00    +0.168 C 
ATOM     34  C   UNL     1       4.992  -1.211  -0.942  0.00  0.00    +0.119 C 
ENDBRANCH  21  31
BRANCH  21  35
ATOM     35  O   UNL     1       2.896  -2.410   0.784  0.00  0.00    -0.374 OA
ATOM     36  H   UNL     1       2.670  -3.271   0.397  0.00  0.00    +0.212 HD
ENDBRANCH  21  35
ENDBRANCH   3  21
TORSDOF 6
