REMARK  Name = 71494949
REMARK  9 active torsions:
REMARK  status: ('A' for Active; 'I' for Inactive)
REMARK    1  A    between atoms: N_1  and  C_14
REMARK    2  A    between atoms: C_5  and  O_26
REMARK    3  A    between atoms: C_6  and  C_25
REMARK    4  A    between atoms: C_9  and  S_15
REMARK    5  A    between atoms: S_15  and  N_17
REMARK    6  A    between atoms: S_15  and  C_19
REMARK    7  A    between atoms: O_26  and  C_27
REMARK    8  A    between atoms: C_27  and  C_29
REMARK    9  A    between atoms: C_29  and  O_31
REMARK                            x       y       z     vdW  Elec       q    Type
REMARK                         _______ _______ _______ _____ _____    ______ ____
ROOT
ATOM      1  N   UNL     1       0.019  -2.443  -0.114  0.00  0.00    -0.247 N 
ATOM      2  N   UNL     1      -1.428  -0.599  -0.004  0.00  0.00    -0.300 NA
ATOM      3  N   UNL     1      -2.283  -2.851   0.093  0.00  0.00    -0.170 NA
ATOM      4  C   UNL     1      -1.296  -1.940  -0.003  0.00  0.00    +0.152 C 
ATOM      5  C   UNL     1      -2.697  -0.153   0.104  0.00  0.00    +0.294 C 
ATOM      6  C   UNL     1      -3.795  -0.982   0.209  0.00  0.00    +0.158 C 
ATOM      7  C   UNL     1      -3.525  -2.335   0.198  0.00  0.00    +0.121 C 
ATOM      8  H   UNL     1       0.068  -3.426  -0.108  0.00  0.00    +0.165 HD
ENDROOT
BRANCH   1  14
ATOM      9  C   UNL     1       3.757  -0.566  -0.462  0.00  0.00    +0.048 C 
ATOM     10  C   UNL     1       2.721   0.064   0.228  0.00  0.00    +0.009 C 
ATOM     11  C   UNL     1       3.550  -1.820  -1.037  0.00  0.00    +0.009 C 
ATOM     12  C   UNL     1       1.479  -0.560   0.344  0.00  0.00    +0.016 C 
ATOM     13  C   UNL     1       2.308  -2.444  -0.921  0.00  0.00    +0.016 C 
ATOM     14  C   UNL     1       1.273  -1.814  -0.231  0.00  0.00    +0.058 C 
BRANCH   9  15
ATOM     15  S   UNL     1       5.311   0.216  -0.607  0.00  0.00    +0.007 S 
ATOM     16  O   UNL     1       6.343  -0.800  -0.445  0.00  0.00    -0.152 OA
BRANCH  15  17
ATOM     17  C   UNL     1       5.494   1.262   0.928  0.00  0.00    +0.075 C 
ATOM     18  C   UNL     1       6.928   1.478   1.308  0.00  0.00    +0.014 C 
ATOM     19  C   UNL     1       6.083   0.499   2.076  0.00  0.00    +0.014 C 
ENDBRANCH  15  17
BRANCH  15  20
ATOM     20  N   UNL     1       5.204   1.227  -1.772  0.00  0.00    -0.179 NA
ATOM     21  H   UNL     1       5.982   1.777  -2.020  0.00  0.00    +0.156 HD
ENDBRANCH  15  20
ENDBRANCH   9  15
ENDBRANCH   1  14
BRANCH   6  25
ATOM     22  F   UNL     1      -6.112  -1.472   0.418  0.00  0.00    -0.166 F 
ATOM     23  F   UNL     1      -5.395   0.316   1.426  0.00  0.00    -0.166 F 
ATOM     24  F   UNL     1      -5.585   0.295  -0.735  0.00  0.00    -0.166 F 
ATOM     25  C   UNL     1      -5.185  -0.472   0.327  0.00  0.00    +0.425 C 
ENDBRANCH   6  25
BRANCH   5  26
ATOM     26  O   UNL     1      -2.868   1.205   0.108  0.00  0.00    -0.452 OA
BRANCH  26  27
ATOM     27  C   UNL     1      -1.687   1.997  -0.005  0.00  0.00    +0.195 C 
ATOM     28  C   UNL     1      -1.122   2.220   1.393  0.00  0.00    +0.050 C 
BRANCH  27  29
ATOM     29  C   UNL     1      -1.992   3.312  -0.736  0.00  0.00    +0.150 C 
ATOM     30  C   UNL     1      -2.584   3.080  -2.122  0.00  0.00    +0.036 C 
BRANCH  29  31
ATOM     31  O   UNL     1      -2.917   4.080   0.031  0.00  0.00    -0.381 OA
ATOM     32  H   UNL     1      -2.552   4.235   0.917  0.00  0.00    +0.210 HD
ENDBRANCH  29  31
ENDBRANCH  27  29
ENDBRANCH  26  27
ENDBRANCH   5  26
TORSDOF 9
