REMARK  Name = 5489638
REMARK  7 active torsions:
REMARK  status: ('A' for Active; 'I' for Inactive)
REMARK    1  A    between atoms: C_1  and  N_2
REMARK    2  A    between atoms: C_1  and  C_16
REMARK    3  A    between atoms: N_2  and  C_5
REMARK    4  A    between atoms: C_5  and  C_7
REMARK    5  A    between atoms: C_7  and  C_8
REMARK    6  A    between atoms: C_7  and  O_14
REMARK    7  A    between atoms: C_16  and  N_19
REMARK                            x       y       z     vdW  Elec       q    Type
REMARK                         _______ _______ _______ _____ _____    ______ ____
ROOT
ATOM      1  C   UNL     1       0.528   1.409   0.322  0.00  0.00    -0.064 C 
ENDROOT
BRANCH   1   2
ATOM      2  N   UNL     1       1.947   1.295   0.007  0.00  0.00    +0.388 N 
ATOM      3  H   UNL     1       2.124   0.384  -0.415  0.00  0.00    -0.084 HD
ATOM      4  H   UNL     1       2.198   2.043  -0.640  0.00  0.00    -0.084 HD
BRANCH   2   5
ATOM      5  C   UNL     1       2.759   1.429   1.209  0.00  0.00    -0.030 C 
ATOM      6  C   UNL     1       2.352   0.319   2.179  0.00  0.00    -0.021 C 
BRANCH   5   7
ATOM      7  C   UNL     1       4.256   1.370   0.832  0.00  0.00    +0.113 C 
BRANCH   7   8
ATOM      8  C   UNL     1       4.673   0.057   0.204  0.00  0.00    +0.002 C 
ATOM      9  C   UNL     1       5.117  -0.970   1.020  0.00  0.00    -0.002 C 
ATOM     10  C   UNL     1       4.601  -0.088  -1.170  0.00  0.00    -0.002 C 
ATOM     11  C   UNL     1       5.502  -2.180   0.442  0.00  0.00    -0.000 C 
ATOM     12  C   UNL     1       4.986  -1.298  -1.748  0.00  0.00    -0.000 C 
ATOM     13  C   UNL     1       5.436  -2.344  -0.942  0.00  0.00    -0.000 C 
ENDBRANCH   7   8
BRANCH   7  14
ATOM     14  O   UNL     1       4.563   2.396  -0.116  0.00  0.00    -0.382 OA
ATOM     15  H   UNL     1       4.310   3.259   0.248  0.00  0.00    +0.211 HD
ENDBRANCH   7  14
ENDBRANCH   5   7
ENDBRANCH   2   5
ENDBRANCH   1   2
BRANCH   1  16
ATOM     16  C   UNL     1      -0.305   1.254  -0.947  0.00  0.00    +0.051 C 
BRANCH  16  19
ATOM     17  O   UNL     1      -1.210  -1.597  -0.383  0.00  0.00    -0.272 OA
ATOM     18  O   UNL     1      -5.789  -1.951   0.577  0.00  0.00    -0.252 OA
ATOM     19  N   UNL     1      -1.721   1.335  -0.675  0.00  0.00    -0.242 NA
ATOM     20  N   UNL     1      -4.923   0.160   0.121  0.00  0.00    -0.228 N 
ATOM     21  N   UNL     1      -3.500  -1.800   0.101  0.00  0.00    -0.211 N 
ATOM     22  N   UNL     1      -3.734   2.252  -0.397  0.00  0.00    -0.240 NA
ATOM     23  C   UNL     1      -2.568   0.310  -0.367  0.00  0.00    +0.192 C 
ATOM     24  C   UNL     1      -3.793   0.898  -0.203  0.00  0.00    +0.136 C 
ATOM     25  C   UNL     1      -2.469   2.484  -0.681  0.00  0.00    +0.203 C 
ATOM     26  C   UNL     1      -2.316  -1.088  -0.230  0.00  0.00    +0.254 C 
ATOM     27  C   UNL     1      -4.817  -1.243   0.289  0.00  0.00    +0.318 C 
ATOM     28  C   UNL     1      -6.206   0.832   0.286  0.00  0.00    +0.123 C 
ATOM     29  C   UNL     1      -3.370  -3.243   0.268  0.00  0.00    +0.124 C 
ENDBRANCH  16  19
ENDBRANCH   1  16
TORSDOF 7
