REMARK  Name = 196970
REMARK  5 active torsions:
REMARK  status: ('A' for Active; 'I' for Inactive)
REMARK    1  A    between atoms: N_1  and  C_6
REMARK    2  A    between atoms: N_1  and  S_16
REMARK    3  A    between atoms: C_8  and  C_15
REMARK    4  A    between atoms: S_16  and  C_19
REMARK    5  A    between atoms: C_22  and  C_26
REMARK                            x       y       z     vdW  Elec       q    Type
REMARK                         _______ _______ _______ _____ _____    ______ ____
ROOT
ATOM      1  N   UNL     1       1.073   2.423  -0.305  0.00  0.00    -0.214 N 
ATOM      2  H   UNL     1       0.987   3.196  -0.909  0.00  0.00    +0.174 HD
ENDROOT
BRANCH   1   6
ATOM      3  N   UNL     1      -1.044   0.900  -1.883  0.00  0.00    -0.310 N 
ATOM      4  C   UNL     1      -1.018   1.124  -0.525  0.00  0.00    +0.064 C 
ATOM      5  C   UNL     1      -2.156   0.519   0.014  0.00  0.00    +0.022 C 
ATOM      6  C   UNL     1      -0.084   1.810   0.260  0.00  0.00    +0.078 C 
ATOM      7  C   UNL     1      -2.374   0.601   1.403  0.00  0.00    -0.020 C 
ATOM      8  C   UNL     1      -2.864  -0.075  -1.068  0.00  0.00    +0.084 C 
ATOM      9  C   UNL     1      -0.322   1.878   1.636  0.00  0.00    +0.017 C 
ATOM     10  C   UNL     1      -1.448   1.284   2.201  0.00  0.00    -0.003 C 
ATOM     11  C   UNL     1      -2.156   0.176  -2.220  0.00  0.00    +0.072 C 
ATOM     12  C   UNL     1      -3.561  -0.012   2.079  0.00  0.00    +0.031 C 
ATOM     13  H   UNL     1      -0.362   1.215  -2.519  0.00  0.00    +0.152 HD
BRANCH   8  15
ATOM     14  N   UNL     1      -5.085  -1.408  -0.992  0.00  0.00    -0.191 NA
ATOM     15  C   UNL     1      -4.085  -0.808  -1.026  0.00  0.00    +0.102 C 
ENDBRANCH   8  15
ENDBRANCH   1   6
BRANCH   1  16
ATOM     16  S   UNL     1       2.626   1.788   0.088  0.00  0.00    +0.074 S 
ATOM     17  O   UNL     1       3.607   2.329  -0.835  0.00  0.00    -0.150 OA
ATOM     18  O   UNL     1       2.854   1.881   1.517  0.00  0.00    -0.150 OA
BRANCH  16  19
ATOM     19  C   UNL     1       2.432   0.076  -0.317  0.00  0.00    +0.126 C 
ATOM     20  C   UNL     1       1.981  -0.800   0.654  0.00  0.00    +0.030 C 
ATOM     21  C   UNL     1       2.735  -0.351  -1.597  0.00  0.00    +0.020 C 
ATOM     22  C   UNL     1       1.828  -2.149   0.334  0.00  0.00    +0.070 C 
ATOM     23  C   UNL     1       2.582  -1.700  -1.917  0.00  0.00    +0.002 C 
ATOM     24  C   UNL     1       2.128  -2.599  -0.952  0.00  0.00    +0.010 C 
BRANCH  22  26
ATOM     25  N   UNL     1       0.986  -3.819   2.127  0.00  0.00    -0.191 NA
ATOM     26  C   UNL     1       1.364  -3.070   1.323  0.00  0.00    +0.100 C 
ENDBRANCH  22  26
ENDBRANCH  16  19
ENDBRANCH   1  16
TORSDOF 5
