REMARK  Name = 51352628
REMARK  5 active torsions:
REMARK  status: ('A' for Active; 'I' for Inactive)
REMARK    1  A    between atoms: C_4  and  N_12
REMARK    2  A    between atoms: C_6  and  C_18
REMARK    3  A    between atoms: C_21  and  C_23
REMARK    4  A    between atoms: C_23  and  C_24
REMARK    5  A    between atoms: C_24  and  O_25
REMARK                            x       y       z     vdW  Elec       q    Type
REMARK                         _______ _______ _______ _____ _____    ______ ____
ROOT
ATOM      1  N   UNL     1      -0.478   0.227  -0.095  0.00  0.00    -0.175 N 
ATOM      2  N   UNL     1      -1.859  -1.516  -0.224  0.00  0.00    -0.391 NA
ATOM      3  N   UNL     1      -0.031   1.509  -0.009  0.00  0.00    -0.174 NA
ATOM      4  C   UNL     1      -2.827   0.785  -0.098  0.00  0.00    +0.096 C 
ATOM      5  C   UNL     1      -1.795  -0.201  -0.142  0.00  0.00    +0.215 C 
ATOM      6  C   UNL     1       0.314  -0.889  -0.150  0.00  0.00    +0.170 C 
ATOM      7  C   UNL     1      -0.558  -1.947  -0.229  0.00  0.00    +0.113 C 
ATOM      8  C   UNL     1      -2.444   2.072  -0.013  0.00  0.00    +0.041 C 
ATOM      9  C   UNL     1      -0.994   2.374   0.028  0.00  0.00    +0.119 C 
ATOM     10  C   UNL     1      -0.256  -3.386  -0.310  0.00  0.00    +0.064 C 
ENDROOT
BRANCH   4  12
ATOM     11  O   UNL     1      -6.867   0.019   0.376  0.00  0.00    -0.350 OA
ATOM     12  N   UNL     1      -4.138   0.414  -0.139  0.00  0.00    -0.300 N 
ATOM     13  C   UNL     1      -5.144   1.170  -0.886  0.00  0.00    +0.123 C 
ATOM     14  C   UNL     1      -4.608  -0.864   0.396  0.00  0.00    +0.123 C 
ATOM     15  C   UNL     1      -6.404   1.307  -0.039  0.00  0.00    +0.164 C 
ATOM     16  C   UNL     1      -5.891  -0.638   1.188  0.00  0.00    +0.164 C 
ENDBRANCH   4  12
BRANCH   6  18
ATOM     17  N   UNL     1       3.825  -0.119  -1.136  0.00  0.00    -0.248 NA
ATOM     18  C   UNL     1       1.757  -0.858  -0.124  0.00  0.00    +0.023 C 
ATOM     19  C   UNL     1       2.470  -1.500   0.882  0.00  0.00    +0.001 C 
ATOM     20  C   UNL     1       2.475  -0.187  -1.101  0.00  0.00    +0.096 C 
ATOM     21  C   UNL     1       4.484  -0.755  -0.142  0.00  0.00    +0.062 C 
ATOM     22  C   UNL     1       3.860  -1.452   0.881  0.00  0.00    +0.015 C 
BRANCH  21  23
ATOM     23  C   UNL     1       5.974  -0.683  -0.175  0.00  0.00    +0.078 C 
BRANCH  23  24
ATOM     24  C   UNL     1       6.531   0.522   0.590  0.00  0.00    +0.149 C 
BRANCH  24  25
ATOM     25  O   UNL     1       6.056   1.723  -0.004  0.00  0.00    -0.351 OA
ATOM     26  C   UNL     1       6.548   2.870   0.675  0.00  0.00    +0.174 C 
ENDBRANCH  24  25
ENDBRANCH  23  24
ENDBRANCH  21  23
ENDBRANCH   6  18
TORSDOF 5
