REMARK  Name = 4615
REMARK  7 active torsions:
REMARK  status: ('A' for Active; 'I' for Inactive)
REMARK    1  A    between atoms: N_1  and  C_9
REMARK    2  A    between atoms: N_2  and  C_22
REMARK    3  A    between atoms: C_9  and  C_10
REMARK    4  A    between atoms: C_9  and  C_16
REMARK    5  A    between atoms: C_22  and  C_23
REMARK    6  A    between atoms: C_23  and  C_24
REMARK    7  A    between atoms: C_24  and  N_26
REMARK                            x       y       z     vdW  Elec       q    Type
REMARK                         _______ _______ _______ _____ _____    ______ ____
ROOT
ATOM      1  N   UNL     1      -2.072  -0.524   0.318  0.00  0.00    +0.390 N 
ATOM      2  N   UNL     1       0.494  -1.816   0.642  0.00  0.00    +0.384 N 
ATOM      3  C   UNL     1      -1.853  -1.905  -0.127  0.00  0.00    -0.100 C 
ATOM      4  C   UNL     1      -0.820   0.240   0.252  0.00  0.00    -0.100 C 
ATOM      5  C   UNL     1      -0.758  -2.580   0.706  0.00  0.00    -0.101 C 
ATOM      6  C   UNL     1       0.274  -0.434   1.087  0.00  0.00    -0.101 C 
ATOM      7  H   UNL     1      -2.385  -0.545   1.289  0.00  0.00    -0.079 HD
ATOM      8  H   UNL     1       0.809  -1.795  -0.328  0.00  0.00    -0.080 HD
ENDROOT
BRANCH   1   9
ATOM      9  C   UNL     1      -3.115   0.119  -0.478  0.00  0.00    -0.012 C 
BRANCH   9  10
ATOM     10  C   UNL     1      -4.373  -0.731  -0.580  0.00  0.00    -0.038 C 
ATOM     11  C   UNL     1      -5.361  -0.578   0.372  0.00  0.00    -0.006 C 
ATOM     12  C   UNL     1      -4.489  -1.631  -1.620  0.00  0.00    -0.006 C 
ATOM     13  C   UNL     1      -6.514  -1.357   0.279  0.00  0.00    -0.000 C 
ATOM     14  C   UNL     1      -5.642  -2.410  -1.713  0.00  0.00    -0.000 C 
ATOM     15  C   UNL     1      -6.654  -2.273  -0.764  0.00  0.00    -0.000 C 
ENDBRANCH   9  10
BRANCH   9  16
ATOM     16  C   UNL     1      -3.422   1.531  -0.001  0.00  0.00    -0.038 C 
ATOM     17  C   UNL     1      -3.257   1.834   1.335  0.00  0.00    -0.006 C 
ATOM     18  C   UNL     1      -3.858   2.465  -0.918  0.00  0.00    -0.006 C 
ATOM     19  C   UNL     1      -3.539   3.128   1.773  0.00  0.00    -0.000 C 
ATOM     20  C   UNL     1      -4.140   3.760  -0.480  0.00  0.00    -0.000 C 
ATOM     21  C   UNL     1      -3.980   4.091   0.865  0.00  0.00    -0.000 C 
ENDBRANCH   9  16
ENDBRANCH   1   9
BRANCH   2  22
ATOM     22  C   UNL     1       1.536  -2.458   1.440  0.00  0.00    -0.076 C 
BRANCH  22  23
ATOM     23  C   UNL     1       2.878  -1.731   1.321  0.00  0.00    +0.002 C 
BRANCH  23  24
ATOM     24  C   UNL     1       3.429  -1.650  -0.101  0.00  0.00    +0.108 C 
BRANCH  24  26
ATOM     25  O   UNL     1       6.255  -2.679   0.143  0.00  0.00    -0.247 OA
ATOM     26  N   UNL     1       4.671  -0.932  -0.171  0.00  0.00    -0.280 N 
ATOM     27  N   UNL     1       6.887  -0.424  -0.179  0.00  0.00    -0.305 N 
ATOM     28  C   UNL     1       4.808   0.452  -0.377  0.00  0.00    +0.079 A 
ATOM     29  C   UNL     1       5.971  -1.505  -0.044  0.00  0.00    +0.328 A 
ATOM     30  C   UNL     1       6.168   0.755  -0.380  0.00  0.00    +0.076 A 
ATOM     31  C   UNL     1       3.851   1.429  -0.556  0.00  0.00    +0.019 C 
ATOM     32  C   UNL     1       6.639   2.036  -0.560  0.00  0.00    +0.019 C 
ATOM     33  C   UNL     1       4.304   2.739  -0.741  0.00  0.00    +0.002 C 
ATOM     34  C   UNL     1       5.683   3.039  -0.743  0.00  0.00    +0.002 C 
ATOM     35  H   UNL     1       7.868  -0.496  -0.137  0.00  0.00    +0.170 HD
ENDBRANCH  24  26
ENDBRANCH  23  24
ENDBRANCH  22  23
ENDBRANCH   2  22
TORSDOF 7
