REMARK  Name = 9794392
REMARK  0 active torsions:
REMARK  status: ('A' for Active; 'I' for Inactive)
REMARK                            x       y       z     vdW  Elec       q    Type
REMARK                         _______ _______ _______ _____ _____    ______ ____
ROOT
ATOM      1  O   UNL     1       0.320   1.069  -0.368  0.00  0.00    -0.469 OA
ATOM      2  N   UNL     1      -2.613   0.066   1.259  0.00  0.00    +0.389 N 
ATOM      3  N   UNL     1       2.642   1.440  -0.018  0.00  0.00    -0.210 NA
ATOM      4  C   UNL     1      -0.536  -0.096  -0.157  0.00  0.00    +0.120 C 
ATOM      5  C   UNL     1      -1.708  -0.036  -1.172  0.00  0.00    +0.031 C 
ATOM      6  C   UNL     1      -1.132  -0.004   1.280  0.00  0.00    -0.036 C 
ATOM      7  C   UNL     1      -2.667  -1.205  -0.893  0.00  0.00    -0.019 C 
ATOM      8  C   UNL     1      -2.505   1.260  -0.930  0.00  0.00    -0.019 C 
ATOM      9  C   UNL     1      -3.141  -1.129   0.567  0.00  0.00    -0.077 C 
ATOM     10  C   UNL     1      -3.023   1.276   0.515  0.00  0.00    -0.077 C 
ATOM     11  C   UNL     1       0.340  -1.359  -0.357  0.00  0.00    +0.069 C 
ATOM     12  C   UNL     1       1.673  -0.777  -0.104  0.00  0.00    +0.034 C 
ATOM     13  C   UNL     1       1.606   0.597  -0.151  0.00  0.00    +0.220 C 
ATOM     14  C   UNL     1       2.898  -1.378   0.093  0.00  0.00    +0.002 C 
ATOM     15  C   UNL     1       4.011  -0.554   0.250  0.00  0.00    +0.021 C 
ATOM     16  C   UNL     1       3.834   0.829   0.186  0.00  0.00    +0.102 C 
ATOM     17  H   UNL     1      -2.975   0.103   2.212  0.00  0.00    -0.080 HD
ENDROOT
TORSDOF 0
