REMARK  Name = 128563
REMARK  5 active torsions:
REMARK  status: ('A' for Active; 'I' for Inactive)
REMARK    1  A    between atoms: C_9  and  C_25
REMARK    2  A    between atoms: C_16  and  O_28
REMARK    3  A    between atoms: C_17  and  C_20
REMARK    4  A    between atoms: C_25  and  O_26
REMARK    5  A    between atoms: O_28  and  C_30
REMARK                            x       y       z     vdW  Elec       q    Type
REMARK                         _______ _______ _______ _____ _____    ______ ____
ROOT
ATOM      1  O   UNL     1       3.446   1.775   0.437  0.00  0.00    -0.448 OA
ATOM      2  O   UNL     1      -0.442  -1.936   1.401  0.00  0.00    -0.292 OA
ATOM      3  O   UNL     1       2.565   3.821   0.750  0.00  0.00    -0.250 OA
ATOM      4  C   UNL     1      -1.811   1.105   0.254  0.00  0.00    +0.017 C 
ATOM      5  C   UNL     1       0.794   0.663   0.697  0.00  0.00    +0.021 C 
ATOM      6  C   UNL     1      -0.574   0.145   0.129  0.00  0.00    +0.062 C 
ATOM      7  C   UNL     1       1.058   2.056   0.080  0.00  0.00    +0.100 C 
ATOM      8  C   UNL     1      -1.409   2.517  -0.247  0.00  0.00    +0.002 C 
ATOM      9  C   UNL     1      -2.933   0.520  -0.680  0.00  0.00    +0.103 C 
ATOM     10  C   UNL     1      -0.093   3.036   0.336  0.00  0.00    +0.011 C 
ATOM     11  C   UNL     1       1.944  -0.224   0.159  0.00  0.00    +0.049 C 
ATOM     12  C   UNL     1      -0.997  -1.278   0.526  0.00  0.00    +0.190 C 
ATOM     13  C   UNL     1      -3.333  -0.908  -0.288  0.00  0.00    +0.062 C 
ATOM     14  C   UNL     1      -2.349   1.218   1.703  0.00  0.00    +0.001 C 
ATOM     15  C   UNL     1       0.860   0.698   2.240  0.00  0.00    +0.001 C 
ATOM     16  C   UNL     1      -2.141  -1.857  -0.296  0.00  0.00    +0.226 C 
ATOM     17  C   UNL     1       3.334   0.327   0.505  0.00  0.00    +0.194 C 
ATOM     18  C   UNL     1       2.399   2.633   0.487  0.00  0.00    +0.317 C 
ENDROOT
BRANCH  17  20
ATOM     19  O   UNL     1       5.954  -1.708  -1.073  0.00  0.00    -0.448 OA
ATOM     20  C   UNL     1       4.382  -0.291  -0.341  0.00  0.00    +0.058 C 
ATOM     21  C   UNL     1       4.862   0.191  -1.576  0.00  0.00    +0.043 C 
ATOM     22  C   UNL     1       5.071  -1.445  -0.074  0.00  0.00    +0.179 C 
ATOM     23  C   UNL     1       5.821  -0.708  -1.983  0.00  0.00    +0.180 C 
ENDBRANCH  17  20
BRANCH   9  25
ATOM     24  O   UNL     1      -4.306   2.416  -0.098  0.00  0.00    -0.250 OA
ATOM     25  C   UNL     1      -4.164   1.381  -0.735  0.00  0.00    +0.317 C 
BRANCH  25  26
ATOM     26  O   UNL     1      -5.070   0.827  -1.591  0.00  0.00    -0.444 OA
ATOM     27  C   UNL     1      -6.297   1.548  -1.738  0.00  0.00    +0.256 C 
ENDBRANCH  25  26
ENDBRANCH   9  25
BRANCH  16  28
ATOM     28  O   UNL     1      -2.523  -3.122   0.209  0.00  0.00    -0.445 OA
BRANCH  28  30
ATOM     29  O   UNL     1      -0.400  -3.946  -0.178  0.00  0.00    -0.250 OA
ATOM     30  C   UNL     1      -1.551  -4.088   0.213  0.00  0.00    +0.318 C 
ATOM     31  C   UNL     1      -2.096  -5.367   0.773  0.00  0.00    +0.121 C 
ENDBRANCH  28  30
ENDBRANCH  16  28
TORSDOF 5
