REMARK  Name = 6918508
REMARK  2 active torsions:
REMARK  status: ('A' for Active; 'I' for Inactive)
REMARK    1  A    between atoms: N_1  and  C_24
REMARK    2  A    between atoms: N_4  and  C_17
REMARK                            x       y       z     vdW  Elec       q    Type
REMARK                         _______ _______ _______ _____ _____    ______ ____
ROOT
ATOM      1  N   UNL     1       3.345  -0.507  -0.429  0.00  0.00    -0.270 N 
ATOM      2  N   UNL     1       1.049  -0.985  -0.410  0.00  0.00    -0.334 NA
ATOM      3  N   UNL     1       2.658  -2.654   0.212  0.00  0.00    -0.191 NA
ATOM      4  N   UNL     1      -1.584  -0.238  -0.798  0.00  0.00    -0.296 N 
ATOM      5  N   UNL     1      -0.693  -4.066   0.470  0.00  0.00    -0.244 NA
ATOM      6  N   UNL     1      -2.302  -2.397  -0.152  0.00  0.00    -0.227 NA
ATOM      7  C   UNL     1       2.322  -1.409  -0.202  0.00  0.00    +0.141 C 
ATOM      8  C   UNL     1       0.061  -1.872  -0.184  0.00  0.00    +0.190 C 
ATOM      9  C   UNL     1       0.295  -3.178   0.244  0.00  0.00    +0.115 C 
ATOM     10  C   UNL     1       1.627  -3.498   0.422  0.00  0.00    +0.186 C 
ATOM     11  C   UNL     1      -1.271  -1.552  -0.361  0.00  0.00    +0.162 C 
ATOM     12  C   UNL     1      -1.945  -3.623   0.258  0.00  0.00    +0.252 C 
ATOM     13  H   UNL     1       4.271  -0.805  -0.279  0.00  0.00    +0.159 HD
ATOM     14  H   UNL     1      -0.888   0.169  -1.363  0.00  0.00    +0.154 HD
ENDROOT
BRANCH   4  17
ATOM     15 CL   UNL     1      -5.430   1.177   2.285  0.00  0.00    -0.080 Cl
ATOM     16  F   UNL     1      -5.966   3.046   0.047  0.00  0.00    -0.203 F 
ATOM     17  C   UNL     1      -2.694   0.591  -0.581  0.00  0.00    +0.050 C 
ATOM     18  C   UNL     1      -3.430   0.489   0.605  0.00  0.00    +0.028 C 
ATOM     19  C   UNL     1      -3.075   1.528  -1.547  0.00  0.00    +0.017 C 
ATOM     20  C   UNL     1      -4.533   1.314   0.821  0.00  0.00    +0.086 C 
ATOM     21  C   UNL     1      -4.178   2.353  -1.331  0.00  0.00    +0.032 C 
ATOM     22  C   UNL     1      -4.908   2.246  -0.146  0.00  0.00    +0.151 C 
ENDBRANCH   4  17
BRANCH   1  24
ATOM     23  N   UNL     1       5.003   2.601   0.568  0.00  0.00    +0.386 N 
ATOM     24  C   UNL     1       3.128   0.856  -0.876  0.00  0.00    +0.075 C 
ATOM     25  C   UNL     1       2.699   1.735   0.301  0.00  0.00    -0.003 C 
ATOM     26  C   UNL     1       4.401   1.410  -1.517  0.00  0.00    -0.003 C 
ATOM     27  C   UNL     1       3.852   2.017   1.269  0.00  0.00    -0.076 C 
ATOM     28  C   UNL     1       5.495   1.702  -0.485  0.00  0.00    -0.076 C 
ATOM     29  C   UNL     1       6.074   2.914   1.515  0.00  0.00    -0.101 C 
ATOM     30  H   UNL     1       4.695   3.466   0.125  0.00  0.00    -0.080 HD
ENDBRANCH   1  24
TORSDOF 2
