REMARK  Name = 11677589
REMARK  7 active torsions:
REMARK  status: ('A' for Active; 'I' for Inactive)
REMARK    1  A    between atoms: C_1  and  N_7
REMARK    2  A    between atoms: C_2  and  C_20
REMARK    3  A    between atoms: C_11  and  C_18
REMARK    4  A    between atoms: C_20  and  C_21
REMARK    5  A    between atoms: C_21  and  N_23
REMARK    6  A    between atoms: N_24  and  S_28
REMARK    7  A    between atoms: S_28  and  C_31
REMARK                            x       y       z     vdW  Elec       q    Type
REMARK                         _______ _______ _______ _____ _____    ______ ____
ROOT
ATOM      1  C   UNL     1       1.759   1.043  -0.211  0.00  0.00    +0.058 C 
ATOM      2  C   UNL     1      -0.031   3.162  -0.336  0.00  0.00    -0.020 C 
ATOM      3  C   UNL     1       1.069   1.425   0.932  0.00  0.00    +0.015 C 
ATOM      4  C   UNL     1       1.566   1.706  -1.416  0.00  0.00    +0.015 C 
ATOM      5  C   UNL     1       0.170   2.490   0.869  0.00  0.00    -0.003 C 
ATOM      6  C   UNL     1       0.667   2.771  -1.479  0.00  0.00    -0.003 C 
ENDROOT
BRANCH   1   7
ATOM      7  N   UNL     1       2.659  -0.022  -0.149  0.00  0.00    -0.242 N 
ATOM      8  N   UNL     1       3.426  -2.107  -0.235  0.00  0.00    -0.387 NA
ATOM      9  N   UNL     1       6.635  -0.476   0.639  0.00  0.00    -0.408 NA
ATOM     10  C   UNL     1       3.995   0.067   0.144  0.00  0.00    +0.091 C 
ATOM     11  C   UNL     1       2.367  -1.340  -0.368  0.00  0.00    +0.168 C 
ATOM     12  C   UNL     1       4.450  -1.247   0.084  0.00  0.00    +0.172 C 
ATOM     13  C   UNL     1       4.819   1.142   0.447  0.00  0.00    +0.045 C 
ATOM     14  C   UNL     1       5.798  -1.500   0.339  0.00  0.00    +0.140 C 
ATOM     15  C   UNL     1       6.139   0.785   0.684  0.00  0.00    +0.110 C 
ATOM     16  C   UNL     1       6.393  -2.867   0.302  0.00  0.00    +0.069 C 
ATOM     17  C   UNL     1       7.119   1.862   1.020  0.00  0.00    +0.066 C 
BRANCH  11  18
ATOM     18  C   UNL     1       1.007  -1.809  -0.711  0.00  0.00    +0.075 C 
ATOM     19  C   UNL     1       0.754  -1.832  -2.222  0.00  0.00    +0.009 C 
ENDBRANCH  11  18
ENDBRANCH   1   7
BRANCH   2  20
ATOM     20  C   UNL     1      -0.992   4.301  -0.403  0.00  0.00    +0.048 C 
BRANCH  20  21
ATOM     21  C   UNL     1      -2.422   3.876  -0.757  0.00  0.00    +0.096 C 
BRANCH  21  23
ATOM     22  O   UNL     1      -4.368   1.817  -1.232  0.00  0.00    -0.251 OA
ATOM     23  N   UNL     1      -2.979   2.972   0.213  0.00  0.00    -0.287 N 
ATOM     24  N   UNL     1      -4.324   1.232   1.030  0.00  0.00    -0.169 N 
ATOM     25  C   UNL     1      -3.918   2.004  -0.105  0.00  0.00    +0.319 C 
ATOM     26  H   UNL     1      -2.680   3.045   1.148  0.00  0.00    +0.151 HD
ATOM     27  H   UNL     1      -3.914   1.454   1.897  0.00  0.00    +0.178 HD
BRANCH  24  28
ATOM     28  S   UNL     1      -5.463  -0.042   1.003  0.00  0.00    +0.077 S 
ATOM     29  O   UNL     1      -5.912  -0.314   2.355  0.00  0.00    -0.150 OA
ATOM     30  O   UNL     1      -6.424   0.197  -0.057  0.00  0.00    -0.150 OA
BRANCH  28  31
ATOM     31  C   UNL     1      -4.449  -1.391   0.478  0.00  0.00    +0.125 C 
ATOM     32  C   UNL     1      -3.803  -2.162   1.429  0.00  0.00    +0.020 C 
ATOM     33  C   UNL     1      -4.319  -1.652  -0.875  0.00  0.00    +0.020 C 
ATOM     34  C   UNL     1      -2.861  -3.504  -0.345  0.00  0.00    -0.022 C 
ATOM     35  C   UNL     1      -3.003  -3.227   1.014  0.00  0.00    -0.003 C 
ATOM     36  C   UNL     1      -3.519  -2.717  -1.290  0.00  0.00    -0.003 C 
ATOM     37  C   UNL     1      -2.007  -4.643  -0.788  0.00  0.00    +0.031 C 
ENDBRANCH  28  31
ENDBRANCH  24  28
ENDBRANCH  21  23
ENDBRANCH  20  21
ENDBRANCH   2  20
TORSDOF 7
