REMARK  Name = 24996872
REMARK  6 active torsions:
REMARK  status: ('A' for Active; 'I' for Inactive)
REMARK    1  A    between atoms: O_1  and  C_3
REMARK    2  A    between atoms: O_1  and  C_18
REMARK    3  A    between atoms: C_7  and  C_8
REMARK    4  A    between atoms: C_11  and  S_14
REMARK    5  A    between atoms: C_18  and  C_23
REMARK    6  A    between atoms: C_29  and  C_30
REMARK                            x       y       z     vdW  Elec       q    Type
REMARK                         _______ _______ _______ _____ _____    ______ ____
ROOT
ATOM      1  O   UNL     1       0.273   1.046  -0.418  0.00  0.00    -0.474 OA
ENDROOT
BRANCH   1   3
ATOM      2  N   UNL     1      -2.996  -0.602  -0.461  0.00  0.00    -0.241 NA
ATOM      3  C   UNL     1      -1.085   0.872  -0.312  0.00  0.00    +0.158 C 
ATOM      4  C   UNL     1      -1.918   1.929   0.035  0.00  0.00    +0.040 C 
ATOM      5  C   UNL     1      -1.668  -0.363  -0.548  0.00  0.00    +0.136 C 
ATOM      6  C   UNL     1      -3.290   1.723   0.134  0.00  0.00    +0.022 C 
ATOM      7  C   UNL     1      -3.774   0.450  -0.121  0.00  0.00    +0.082 C 
BRANCH   7   8
ATOM      8  C   UNL     1      -5.186   0.162  -0.037  0.00  0.00    +0.018 C 
ATOM      9  C   UNL     1      -6.087   0.842  -0.857  0.00  0.00    +0.003 C 
ATOM     10  C   UNL     1      -5.650  -0.797   0.863  0.00  0.00    +0.003 C 
ATOM     11  C   UNL     1      -7.915  -0.396   0.125  0.00  0.00    +0.106 C 
ATOM     12  C   UNL     1      -7.451   0.563  -0.775  0.00  0.00    +0.018 C 
ATOM     13  C   UNL     1      -7.014  -1.076   0.945  0.00  0.00    +0.018 C 
BRANCH  11  14
ATOM     14  S   UNL     1      -9.622  -0.745   0.227  0.00  0.00    +0.010 S 
ATOM     15  O   UNL     1     -10.230  -0.388  -1.048  0.00  0.00    -0.169 OA
ATOM     16  O   UNL     1      -9.799  -2.089   0.760  0.00  0.00    -0.169 OA
ATOM     17  C   UNL     1     -10.232   0.385   1.458  0.00  0.00    +0.182 C 
ENDBRANCH  11  14
ENDBRANCH   7   8
ENDBRANCH   1   3
BRANCH   1  18
ATOM     18  C   UNL     1       1.041  -0.088  -0.777  0.00  0.00    +0.205 C 
BRANCH  18  23
ATOM     19  O   UNL     1       6.971   0.576   1.550  0.00  0.00    -0.296 OA
ATOM     20  N   UNL     1       5.272   0.106   0.008  0.00  0.00    -0.251 N 
ATOM     21  N   UNL     1       7.630  -0.491  -0.306  0.00  0.00    -0.300 NA
ATOM     22  N   UNL     1       8.353   0.384   1.680  0.00  0.00    -0.010 NA
ATOM     23  C   UNL     1       2.511   0.321  -0.835  0.00  0.00    +0.047 C 
ATOM     24  C   UNL     1       3.390  -0.863  -1.252  0.00  0.00    +0.025 C 
ATOM     25  C   UNL     1       2.983   0.855   0.521  0.00  0.00    +0.025 C 
ATOM     26  C   UNL     1       4.869  -0.479  -1.278  0.00  0.00    +0.096 C 
ATOM     27  C   UNL     1       4.465   1.230   0.494  0.00  0.00    +0.096 C 
ATOM     28  C   UNL     1       6.627   0.031   0.354  0.00  0.00    +0.379 C 
ATOM     29  C   UNL     1       8.667  -0.251   0.547  0.00  0.00    +0.104 C 
BRANCH  29  30
ATOM     30  C   UNL     1      10.041  -0.663   0.243  0.00  0.00    +0.101 C 
ATOM     31  C   UNL     1      10.205  -2.199   0.106  0.00  0.00    +0.017 C 
ATOM     32  C   UNL     1      10.620   0.016  -1.024  0.00  0.00    +0.017 C 
ENDBRANCH  29  30
ENDBRANCH  18  23
ENDBRANCH   1  18
TORSDOF 6
