REMARK  Name = 55281
REMARK  6 active torsions:
REMARK  status: ('A' for Active; 'I' for Inactive)
REMARK    1  A    between atoms: N_3  and  C1*_13
REMARK    2  A    between atoms: C_7  and  C_22
REMARK    3  A    between atoms: C2*_11  and  O2*_15
REMARK    4  A    between atoms: C3*_12  and  O3*_17
REMARK    5  A    between atoms: C4*_14  and  C5*_19
REMARK    6  A    between atoms: C5*_19  and  O5*_20
REMARK                            x       y       z     vdW  Elec       q    Type
REMARK                         _______ _______ _______ _____ _____    ______ ____
ROOT
ATOM      1  O   UNL     1      -0.274   3.313   0.419  0.00  0.00    -0.252 OA
ATOM      2  O   UNL     1       3.941   1.518   0.005  0.00  0.00    -0.269 OA
ATOM      3  N   UNL     1      -0.089   0.991   0.256  0.00  0.00    -0.216 N 
ATOM      4  N   UNL     1       1.822   2.405   0.212  0.00  0.00    -0.235 N 
ATOM      5  C   UNL     1       0.778  -0.092   0.126  0.00  0.00    +0.084 C 
ATOM      6  C   UNL     1       0.429   2.307   0.304  0.00  0.00    +0.315 C 
ATOM      7  C   UNL     1       2.109   0.008   0.038  0.00  0.00    +0.110 C 
ATOM      8  C   UNL     1       2.725   1.360   0.081  0.00  0.00    +0.262 C 
ATOM      9  H   UNL     1       2.202   3.313   0.243  0.00  0.00    +0.159 HD
ENDROOT
BRANCH   3  13
ATOM     10  O4* UNL     1      -1.761  -0.461   1.024  0.00  0.00    -0.333 OA
ATOM     11  C2* UNL     1      -2.201   0.670  -1.005  0.00  0.00    +0.187 C 
ATOM     12  C3* UNL     1      -3.436  -0.130  -0.648  0.00  0.00    +0.171 C 
ATOM     13  C1* UNL     1      -1.502   0.773   0.342  0.00  0.00    +0.229 C 
ATOM     14  C4* UNL     1      -2.949  -1.058   0.466  0.00  0.00    +0.175 C 
BRANCH  11  15
ATOM     15  O2* UNL     1      -1.427  -0.081  -1.933  0.00  0.00    -0.378 OA
ATOM     16  H2* UNL     1      -1.896  -0.130  -2.781  0.00  0.00    +0.211 HD
ENDBRANCH  11  15
BRANCH  12  17
ATOM     17  O3* UNL     1      -4.422   0.745  -0.105  0.00  0.00    -0.379 OA
ATOM     18  H3* UNL     1      -4.742   1.342  -0.800  0.00  0.00    +0.211 HD
ENDBRANCH  12  17
BRANCH  14  19
ATOM     19  C5* UNL     1      -2.584  -2.452  -0.024  0.00  0.00    +0.169 C 
BRANCH  19  20
ATOM     20  O5* UNL     1      -2.139  -3.221   1.080  0.00  0.00    -0.379 OA
ATOM     21  H5* UNL     1      -1.903  -4.112   0.779  0.00  0.00    +0.211 HD
ENDBRANCH  19  20
ENDBRANCH  14  19
ENDBRANCH   3  13
BRANCH   7  22
ATOM     22  C   UNL     1       2.923  -1.150  -0.093  0.00  0.00    -0.058 C 
ATOM     23  C   UNL     1       3.610  -2.128  -0.204  0.00  0.00    -0.085 C 
ATOM     24  C   UNL     1       4.447  -3.319  -0.340  0.00  0.00    +0.090 C 
ENDBRANCH   7  22
TORSDOF 6
