REMARK  Name = 16122663
REMARK  8 active torsions:
REMARK  status: ('A' for Active; 'I' for Inactive)
REMARK    1  A    between atoms: C_4  and  O_18
REMARK    2  A    between atoms: C_5  and  N_9
REMARK    3  A    between atoms: C_6  and  C_24
REMARK    4  A    between atoms: O_18  and  C_20
REMARK    5  A    between atoms: C_20  and  C_21
REMARK    6  A    between atoms: C_24  and  O_25
REMARK    7  A    between atoms: O_25  and  C_27
REMARK    8  A    between atoms: C_27  and  C_28
REMARK                            x       y       z     vdW  Elec       q    Type
REMARK                         _______ _______ _______ _____ _____    ______ ____
ROOT
ATOM      1  F   UNL     1      -0.536   2.886   1.110  0.00  0.00    -0.232 F 
ATOM      2  O   UNL     1      -0.153  -0.104  -0.675  0.00  0.00    -0.329 OA
ATOM      3  C   UNL     1      -0.385   1.538   1.025  0.00  0.00    +0.216 C 
ATOM      4  C   UNL     1       1.092   1.190   0.899  0.00  0.00    +0.233 C 
ATOM      5  C   UNL     1      -0.937   1.039  -0.306  0.00  0.00    +0.241 C 
ATOM      6  C   UNL     1       1.112  -0.054   0.012  0.00  0.00    +0.203 C 
ATOM      7  C   UNL     1      -1.024   0.925   2.266  0.00  0.00    +0.044 C 
ENDROOT
BRANCH   5   9
ATOM      8  O   UNL     1      -3.059   2.752  -1.004  0.00  0.00    -0.193 OA
ATOM      9  N   UNL     1      -2.325   0.680  -0.302  0.00  0.00    -0.178 N 
ATOM     10  N   UNL     1      -4.660   1.185  -0.640  0.00  0.00    -0.306 NA
ATOM     11  N   UNL     1      -6.295  -0.426  -0.264  0.00  0.00    -0.332 N 
ATOM     12  C   UNL     1      -2.678  -0.606   0.073  0.00  0.00    +0.083 C 
ATOM     13  C   UNL     1      -3.339   1.600  -0.667  0.00  0.00    +0.276 C 
ATOM     14  C   UNL     1      -3.942  -1.025   0.107  0.00  0.00    +0.065 C 
ATOM     15  C   UNL     1      -4.976  -0.033  -0.284  0.00  0.00    +0.193 C 
ATOM     16  H   UNL     1      -7.002   0.210  -0.518  0.00  0.00    +0.145 HD
ATOM     17  H   UNL     1      -6.531  -1.343   0.005  0.00  0.00    +0.145 HD
ENDBRANCH   5   9
BRANCH   4  18
ATOM     18  O   UNL     1       1.779   2.244   0.220  0.00  0.00    -0.447 OA
BRANCH  18  20
ATOM     19  O   UNL     1       3.734   1.021   0.258  0.00  0.00    -0.250 OA
ATOM     20  C   UNL     1       3.111   2.030  -0.044  0.00  0.00    +0.316 C 
BRANCH  20  21
ATOM     21  C   UNL     1       3.704   3.235  -0.753  0.00  0.00    +0.099 C 
ATOM     22  C   UNL     1       4.811   2.807  -1.713  0.00  0.00    +0.012 C 
ATOM     23  C   UNL     1       4.228   4.231   0.274  0.00  0.00    +0.012 C 
ENDBRANCH  20  21
ENDBRANCH  18  20
ENDBRANCH   4  18
BRANCH   6  24
ATOM     24  C   UNL     1       1.299  -1.356   0.774  0.00  0.00    +0.242 C 
BRANCH  24  25
ATOM     25  O   UNL     1       1.290  -2.433  -0.149  0.00  0.00    -0.446 OA
BRANCH  25  27
ATOM     26  O   UNL     1       1.595  -3.933   1.577  0.00  0.00    -0.250 OA
ATOM     27  C   UNL     1       1.449  -3.686   0.387  0.00  0.00    +0.316 C 
BRANCH  27  28
ATOM     28  C   UNL     1       1.431  -4.727  -0.718  0.00  0.00    +0.099 C 
ATOM     29  C   UNL     1       0.829  -6.038  -0.217  0.00  0.00    +0.012 C 
ATOM     30  C   UNL     1       2.844  -4.942  -1.246  0.00  0.00    +0.012 C 
ENDBRANCH  27  28
ENDBRANCH  25  27
ENDBRANCH  24  25
ENDBRANCH   6  24
TORSDOF 8
