16659841
  -OEChem-12141922343D

 38 40  0     1  0  0  0  0  0999 V2000
   -3.4937   -3.1090   -1.6150 Cl  0  0  0  0  0  0  0  0  0  0  0  0
    3.7497    2.7102   -2.2592 F   0  0  0  0  0  0  0  0  0  0  0  0
    1.5428   -2.1062    1.0142 N   0  0  0  0  0  0  0  0  0  0  0  0
   -2.6010   -0.4795   -0.4088 N   0  0  0  0  0  0  0  0  0  0  0  0
   -0.5018   -1.2864    0.3200 N   0  0  0  0  0  0  0  0  0  0  0  0
    1.6984    1.2846    0.3683 N   0  0  0  0  0  0  0  0  0  0  0  0
    3.5210   -0.2124   -0.1260 N   0  0  0  0  0  0  0  0  0  0  0  0
    0.1348   -3.5767   -0.0762 N   0  0  0  0  0  0  0  0  0  0  0  0
   -1.8436    2.8079    0.9265 N   0  0  0  0  0  0  0  0  0  0  0  0
   -1.5650    1.5184    0.6700 N   0  0  0  0  0  0  0  0  0  0  0  0
    1.9119   -0.7944    1.5778 C   0  0  1  0  0  0  0  0  0  0  0  0
    2.9312   -1.0282    2.7080 C   0  0  0  0  0  0  0  0  0  0  0  0
    2.4090    0.1536    0.5397 C   0  0  0  0  0  0  0  0  0  0  0  0
    0.3431   -2.3325    0.3953 C   0  0  0  0  0  0  0  0  0  0  0  0
   -1.6724   -1.5437   -0.2994 C   0  0  0  0  0  0  0  0  0  0  0  0
   -2.5619    0.8595    0.0123 C   0  0  0  0  0  0  0  0  0  0  0  0
   -3.0649    2.9631    0.4085 C   0  0  0  0  0  0  0  0  0  0  0  0
   -3.5623    1.7820   -0.1741 C   0  0  0  0  0  0  0  0  0  0  0  0
   -2.0070   -2.7746   -0.8259 C   0  0  0  0  0  0  0  0  0  0  0  0
   -1.0554   -3.7636   -0.6834 C   0  0  0  0  0  0  0  0  0  0  0  0
   -3.7360    4.2797    0.4926 C   0  0  0  0  0  0  0  0  0  0  0  0
    2.1761    2.1192   -0.5782 C   0  0  0  0  0  0  0  0  0  0  0  0
    3.9426    0.6681   -1.0572 C   0  0  0  0  0  0  0  0  0  0  0  0
    3.3042    1.8608   -1.3295 C   0  0  0  0  0  0  0  0  0  0  0  0
    1.0322   -0.3571    2.0698 H   0  0  0  0  0  0  0  0  0  0  0  0
    2.2180   -2.8613    1.0375 H   0  0  0  0  0  0  0  0  0  0  0  0
    3.8458   -1.5024    2.3338 H   0  0  0  0  0  0  0  0  0  0  0  0
    2.5108   -1.6838    3.4786 H   0  0  0  0  0  0  0  0  0  0  0  0
    3.2133   -0.0809    3.1803 H   0  0  0  0  0  0  0  0  0  0  0  0
   -3.4499   -0.7748   -0.8894 H   0  0  0  0  0  0  0  0  0  0  0  0
   -4.5253    1.6718   -0.6523 H   0  0  0  0  0  0  0  0  0  0  0  0
   -1.1886    3.4153    1.4098 H   0  0  0  0  0  0  0  0  0  0  0  0
   -1.2162   -4.7687   -1.0611 H   0  0  0  0  0  0  0  0  0  0  0  0
   -3.8690    4.5806    1.5370 H   0  0  0  0  0  0  0  0  0  0  0  0
   -3.1455    5.0487   -0.0164 H   0  0  0  0  0  0  0  0  0  0  0  0
   -4.7248    4.2513    0.0234 H   0  0  0  0  0  0  0  0  0  0  0  0
    1.6072    3.0316   -0.7214 H   0  0  0  0  0  0  0  0  0  0  0  0
    4.8379    0.3789   -1.5971 H   0  0  0  0  0  0  0  0  0  0  0  0
  1 19  1  0  0  0  0
  2 24  1  0  0  0  0
  3 11  1  0  0  0  0
  3 14  1  0  0  0  0
  3 26  1  0  0  0  0
  4 15  1  0  0  0  0
  4 16  1  0  0  0  0
  4 30  1  0  0  0  0
  5 14  1  0  0  0  0
  5 15  2  0  0  0  0
  6 13  1  0  0  0  0
  6 22  2  0  0  0  0
  7 13  2  0  0  0  0
  7 23  1  0  0  0  0
  8 14  2  0  0  0  0
  8 20  1  0  0  0  0
  9 10  1  0  0  0  0
  9 17  1  0  0  0  0
  9 32  1  0  0  0  0
 10 16  2  0  0  0  0
 11 12  1  0  0  0  0
 11 13  1  0  0  0  0
 11 25  1  0  0  0  0
 12 27  1  0  0  0  0
 12 28  1  0  0  0  0
 12 29  1  0  0  0  0
 15 19  1  0  0  0  0
 16 18  1  0  0  0  0
 17 18  2  0  0  0  0
 17 21  1  0  0  0  0
 18 31  1  0  0  0  0
 19 20  2  0  0  0  0
 20 33  1  0  0  0  0
 21 34  1  0  0  0  0
 21 35  1  0  0  0  0
 21 36  1  0  0  0  0
 22 24  1  0  0  0  0
 22 37  1  0  0  0  0
 23 24  2  0  0  0  0
 23 38  1  0  0  0  0
M  END
> <DATABASE_ID>
DB12588

> <DATABASE_NAME>
drugbank

> <ORIGINAL_SOURCE>
PUBCHEM

> <ORIGINAL_SOURCE_URL>
https://pubchem.ncbi.nlm.nih.gov/rest/pug/compound/inchikey/PDOQBOJDRPLBQU-QMMMGPOBSA-N/SDF?record_type=3d

> <SMILES>
C[C@H](NC1=NC=C(Cl)C(NC2=NNC(C)=C2)=N1)C1=NC=C(F)C=N1

> <INCHI_IDENTIFIER>
InChI=1S/C14H14ClFN8/c1-7-3-11(24-23-7)21-13-10(15)6-19-14(22-13)20-8(2)12-17-4-9(16)5-18-12/h3-6,8H,1-2H3,(H3,19,20,21,22,23,24)/t8-/m0/s1

> <INCHI_KEY>
PDOQBOJDRPLBQU-QMMMGPOBSA-N

> <FORMULA>
C14H14ClFN8

> <MOLECULAR_WEIGHT>
348.766

> <EXACT_MASS>
348.1013984

> <JCHEM_ACCEPTOR_COUNT>
7

> <JCHEM_ATOM_COUNT>
38

> <JCHEM_AVERAGE_NEUTRAL_MICROSPECIES_CHARGE>
2.0014978920627744

> <JCHEM_AVERAGE_POLARIZABILITY>
33.799177460059795

> <JCHEM_BIOAVAILABILITY>
1

> <JCHEM_DONOR_COUNT>
3

> <JCHEM_FORMAL_CHARGE>
0

> <JCHEM_GHOSE_FILTER>
1

> <JCHEM_IUPAC>
5-chloro-N2-[(1S)-1-(5-fluoropyrimidin-2-yl)ethyl]-N4-(5-methyl-1H-pyrazol-3-yl)pyrimidine-2,4-diamine

> <ALOGPS_LOGP>
2.75

> <JCHEM_LOGP>
2.7004846916666665

> <ALOGPS_LOGS>
-4.09

> <JCHEM_MDDR_LIKE_RULE>
0

> <JCHEM_NEUTRAL_CHARGE>
0

> <JCHEM_NUMBER_OF_RINGS>
3

> <JCHEM_PHYSIOLOGICAL_CHARGE>
0

> <JCHEM_PKA>
13.530100711294875

> <JCHEM_PKA_STRONGEST_ACIDIC>
11.619915307942293

> <JCHEM_PKA_STRONGEST_BASIC>
3.079420084094237

> <JCHEM_POLAR_SURFACE_AREA>
104.30000000000001

> <JCHEM_REFRACTIVITY>
91.1151

> <JCHEM_ROTATABLE_BOND_COUNT>
5

> <JCHEM_RULE_OF_FIVE>
1

> <ALOGPS_SOLUBILITY>
2.84e-02 g/l

> <JCHEM_TRADITIONAL_IUPAC>
5-chloro-N2-[(1S)-1-(5-fluoropyrimidin-2-yl)ethyl]-N4-(5-methyl-1H-pyrazol-3-yl)pyrimidine-2,4-diamine

> <JCHEM_VEBER_RULE>
0

> <DRUGBANK_ID>
DB12588

> <DRUG_GROUPS>
investigational

> <GENERIC_NAME>
AZD-1480

$$$$
