REMARK  Name = 9797017
REMARK  10 active torsions:
REMARK  status: ('A' for Active; 'I' for Inactive)
REMARK    1  A    between atoms: C_1  and  C_2
REMARK    2  A    between atoms: C_1  and  C_11
REMARK    3  A    between atoms: C_2  and  N_3
REMARK    4  A    between atoms: C_2  and  C_8
REMARK    5  A    between atoms: C_8  and  O_9
REMARK    6  A    between atoms: C_11  and  S_12
REMARK    7  A    between atoms: S_12  and  C_13
REMARK    8  A    between atoms: C_13  and  C_14
REMARK    9  A    between atoms: C_14  and  N_15
REMARK   10  A    between atoms: N_15  and  C_17
REMARK                            x       y       z     vdW  Elec       q    Type
REMARK                         _______ _______ _______ _____ _____    ______ ____
ROOT
ATOM      1  C   UNK     1       2.662   1.375   0.391  0.00  0.00    +0.001 C 
ENDROOT
BRANCH   1   2
ATOM      2  C   UNK     1       2.932  -0.082   0.793  0.00  0.00    +0.037 C 
BRANCH   2   3
ATOM      3  N   UNK     1       4.215  -0.158   1.500  0.00  0.00    +0.389 N 
ATOM      4  H   UNK     1       4.179   0.428   2.334  0.00  0.00    -0.088 HD
ATOM      5  H   UNK     1       4.961   0.169   0.886  0.00  0.00    -0.088 HD
ATOM      6  H   UNK     1       4.397  -1.124   1.771  0.00  0.00    -0.088 HD
ENDBRANCH   2   3
BRANCH   2   8
ATOM      7  O   UNK     1       4.088  -1.142  -1.073  0.00  0.00    -0.253 OA
ATOM      8  C   UNK     1       3.059  -0.974  -0.429  0.00  0.00    +0.293 C 
BRANCH   8   9
ATOM      9  O   UNK     1       1.895  -1.604  -0.732  0.00  0.00    -0.482 OA
ATOM     10  H   UNK     1       1.130  -1.449  -0.215  0.00  0.00    +0.295 HD
ENDBRANCH   8   9
ENDBRANCH   2   8
ENDBRANCH   1   2
BRANCH   1  11
ATOM     11  C   UNK     1       1.393   1.607  -0.434  0.00  0.00    +0.056 C 
BRANCH  11  12
ATOM     12  S   UNK     1      -0.120   1.065   0.413  0.00  0.00    -0.138 S 
BRANCH  12  13
ATOM     13  C   UNK     1      -1.312   1.511  -0.870  0.00  0.00    +0.081 C 
BRANCH  13  14
ATOM     14  C   UNK     1      -2.727   1.163  -0.434  0.00  0.00    +0.125 C 
BRANCH  14  15
ATOM     15  N   UNK     1      -2.805  -0.281  -0.201  0.00  0.00    -0.225 NA
BRANCH  15  17
ATOM     16  N   UNK     1      -4.304  -2.033   0.488  0.00  0.00    -0.389 N 
ATOM     17  C   UNK     1      -3.940  -0.737   0.204  0.00  0.00    +0.095 C 
ATOM     18  C   UNK     1      -5.037   0.291   0.383  0.00  0.00    +0.068 C 
ATOM     19  H   UNK     1      -3.647  -2.760   0.396  0.00  0.00    +0.157 HD
ATOM     20  H   UNK     1      -5.221  -2.233   0.784  0.00  0.00    +0.157 HD
ENDBRANCH  15  17
ENDBRANCH  14  15
ENDBRANCH  13  14
ENDBRANCH  12  13
ENDBRANCH  11  12
ENDBRANCH   1  11
TORSDOF 10
