REMARK  Name = 25170420
REMARK  7 active torsions:
REMARK  status: ('A' for Active; 'I' for Inactive)
REMARK    1  A    between atoms: C_1  and  C_13
REMARK    2  A    between atoms: C_9  and  O_11
REMARK    3  A    between atoms: C_13  and  C_16
REMARK    4  A    between atoms: C_16  and  O_17
REMARK    5  A    between atoms: O_17  and  C_18
REMARK    6  A    between atoms: C_18  and  C_19
REMARK    7  A    between atoms: C_19  and  S_20
REMARK                            x       y       z     vdW  Elec       q    Type
REMARK                         _______ _______ _______ _____ _____    ______ ____
ROOT
ATOM      1  C   UNL     1       0.448   1.742   0.186  0.00  0.00    -0.012 C 
ATOM      2  C   UNL     1      -1.678   0.659   0.661  0.00  0.00    -0.000 C 
ATOM      3  C   UNL     1      -0.447   1.178   1.095  0.00  0.00    -0.004 C 
ATOM      4  C   UNL     1      -2.005   0.713  -0.715  0.00  0.00    +0.003 C 
ATOM      5  C   UNL     1       0.126   1.796  -1.167  0.00  0.00    -0.004 C 
ATOM      6  C   UNL     1      -1.092   1.285  -1.616  0.00  0.00    -0.000 C 
ATOM      7  C   UNL     1      -2.591   0.088   1.562  0.00  0.00    +0.003 C 
ATOM      8  C   UNL     1      -3.236   0.194  -1.149  0.00  0.00    +0.037 C 
ATOM      9  C   UNL     1      -4.131  -0.370  -0.240  0.00  0.00    +0.139 C 
ATOM     10  C   UNL     1      -3.809  -0.424   1.113  0.00  0.00    +0.037 C 
ENDROOT
BRANCH   9  11
ATOM     11  O   UNL     1      -5.320  -0.869  -0.676  0.00  0.00    -0.471 OA
ATOM     12  C   UNL     1      -6.188  -1.431   0.307  0.00  0.00    +0.252 C 
ENDBRANCH   9  11
BRANCH   1  13
ATOM     13  C   UNL     1       1.750   2.290   0.664  0.00  0.00    +0.121 C 
ATOM     14  C   UNL     1       1.916   3.799   0.393  0.00  0.00    +0.016 C 
BRANCH  13  16
ATOM     15  O   UNL     1       3.838   2.083  -0.584  0.00  0.00    -0.250 OA
ATOM     16  C   UNL     1       2.962   1.550   0.084  0.00  0.00    +0.321 C 
BRANCH  16  17
ATOM     17  O   UNL     1       2.934   0.231   0.442  0.00  0.00    -0.446 OA
BRANCH  17  18
ATOM     18  C   UNL     1       4.035  -0.559  -0.019  0.00  0.00    +0.234 C 
BRANCH  18  19
ATOM     19  C   UNL     1       3.887  -1.995   0.443  0.00  0.00    +0.198 C 
BRANCH  19  20
ATOM     20  S   UNL     1       2.390  -2.721  -0.151  0.00  0.00    -0.004 S 
ATOM     21  O   UNL     1       1.276  -2.071   0.515  0.00  0.00    -0.173 OA
ATOM     22  O   UNL     1       2.457  -2.776  -1.601  0.00  0.00    -0.173 OA
ATOM     23  C   UNL     1       2.477  -4.391   0.454  0.00  0.00    +0.176 C 
ENDBRANCH  19  20
ENDBRANCH  18  19
ENDBRANCH  17  18
ENDBRANCH  16  17
ENDBRANCH  13  16
ENDBRANCH   1  13
TORSDOF 7
