REMARK  Name = 11552706
REMARK  6 active torsions:
REMARK  status: ('A' for Active; 'I' for Inactive)
REMARK    1  A    between atoms: C_2  and  C_26
REMARK    2  A    between atoms: C_5  and  C_10
REMARK    3  A    between atoms: C_11  and  C_17
REMARK    4  A    between atoms: N_16  and  C_19
REMARK    5  A    between atoms: C_19  and  C_20
REMARK    6  A    between atoms: N_25  and  C_28
REMARK                            x       y       z     vdW  Elec       q    Type
REMARK                         _______ _______ _______ _____ _____    ______ ____
ROOT
ATOM      1  F   UNL     1       3.600  -3.436   1.087  0.00  0.00    -0.205 F 
ATOM      2  C   UNL     1       3.537   0.020  -0.042  0.00  0.00    +0.056 C 
ATOM      3  C   UNL     1       2.180   0.177  -0.326  0.00  0.00    +0.006 C 
ATOM      4  C   UNL     1       4.013  -1.202   0.434  0.00  0.00    +0.034 C 
ATOM      5  C   UNL     1       1.294  -0.887  -0.134  0.00  0.00    +0.016 C 
ATOM      6  C   UNL     1       1.776  -2.109   0.344  0.00  0.00    +0.007 C 
ATOM      7  C   UNL     1       3.132  -2.266   0.628  0.00  0.00    +0.136 C 
ATOM      8  C   UNL     1       0.858  -3.270   0.563  0.00  0.00    +0.033 C 
ENDROOT
BRANCH   5  10
ATOM      9  N   UNL     1      -0.856  -0.254   0.600  0.00  0.00    -0.244 NA
ATOM     10  C   UNL     1      -0.106  -0.699  -0.433  0.00  0.00    +0.081 C 
ATOM     11  C   UNL     1      -2.737  -0.311  -0.873  0.00  0.00    +0.072 C 
ATOM     12  C   UNL     1      -0.607  -0.966  -1.697  0.00  0.00    +0.019 C 
ATOM     13  C   UNL     1      -1.965  -0.763  -1.915  0.00  0.00    +0.008 C 
ATOM     14  C   UNL     1      -2.172  -0.069   0.350  0.00  0.00    +0.103 C 
BRANCH  11  17
ATOM     15  O   UNL     1      -4.610   0.167  -2.200  0.00  0.00    -0.270 OA
ATOM     16  N   UNL     1      -4.989  -0.204   0.058  0.00  0.00    -0.301 N 
ATOM     17  C   UNL     1      -4.191  -0.086  -1.073  0.00  0.00    +0.247 C 
ATOM     18  H   UNL     1      -4.560  -0.409   0.920  0.00  0.00    +0.150 HD
BRANCH  16  19
ATOM     19  C   UNL     1      -6.418  -0.039   0.021  0.00  0.00    +0.090 C 
BRANCH  19  20
ATOM     20  C   UNL     1      -6.948   1.104   0.915  0.00  0.00    +0.018 C 
ATOM     21  C   UNL     1      -6.344   2.430   0.415  0.00  0.00    +0.002 C 
ATOM     22  C   UNL     1      -6.530   0.898   2.381  0.00  0.00    +0.002 C 
ATOM     23  C   UNL     1      -8.481   1.197   0.829  0.00  0.00    +0.002 C 
ENDBRANCH  19  20
ENDBRANCH  16  19
ENDBRANCH  11  17
ENDBRANCH   5  10
BRANCH   2  26
ATOM     24  O   UNL     1       4.199   2.018  -1.075  0.00  0.00    -0.270 OA
ATOM     25  N   UNL     1       5.610   1.150   0.548  0.00  0.00    -0.302 N 
ATOM     26  C   UNL     1       4.456   1.128  -0.245  0.00  0.00    +0.246 C 
ATOM     27  H   UNL     1       5.750   0.413   1.185  0.00  0.00    +0.150 HD
BRANCH  25  28
ATOM     28  C   UNL     1       6.605   2.196   0.481  0.00  0.00    +0.072 C 
ATOM     29  C   UNL     1       8.008   1.931   0.905  0.00  0.00    +0.021 C 
ATOM     30  C   UNL     1       7.684   2.144  -0.544  0.00  0.00    +0.021 C 
ENDBRANCH  25  28
ENDBRANCH   2  26
TORSDOF 6
