REMARK  Name = 957
REMARK  7 active torsions:
REMARK  status: ('A' for Active; 'I' for Inactive)
REMARK    1  A    between atoms: C_1  and  C_2
REMARK    2  A    between atoms: C_1  and  C_6
REMARK    3  A    between atoms: C_2  and  C_3
REMARK    4  A    between atoms: C_3  and  C_4
REMARK    5  A    between atoms: C_6  and  C_7
REMARK    6  A    between atoms: C_7  and  C_8
REMARK    7  A    between atoms: C_8  and  O_9
REMARK                            x       y       z     vdW  Elec       q    Type
REMARK                         _______ _______ _______ _____ _____    ______ ____
ROOT
ATOM      1  C   UNL     1       0.027  -0.360   0.074  0.00  0.00    +0.000 C 
ENDROOT
BRANCH   1   2
ATOM      2  C   UNL     1      -1.265   0.462   0.058  0.00  0.00    +0.000 C 
BRANCH   2   3
ATOM      3  C   UNL     1      -2.532  -0.395   0.053  0.00  0.00    +0.000 C 
BRANCH   3   4
ATOM      4  C   UNL     1      -3.787   0.474  -0.036  0.00  0.00    +0.000 C 
ATOM      5  C   UNL     1      -5.049  -0.373  -0.080  0.00  0.00    +0.000 C 
ENDBRANCH   3   4
ENDBRANCH   2   3
ENDBRANCH   1   2
BRANCH   1   6
ATOM      6  C   UNL     1       1.294   0.496   0.004  0.00  0.00    +0.003 C 
BRANCH   6   7
ATOM      7  C   UNL     1       2.550  -0.375  -0.001  0.00  0.00    +0.032 C 
BRANCH   7   8
ATOM      8  C   UNL     1       3.817   0.468  -0.028  0.00  0.00    +0.137 C 
BRANCH   8   9
ATOM      9  O   UNL     1       4.944  -0.398  -0.046  0.00  0.00    -0.382 OA
ATOM     10  H   UNL     1       5.758   0.131  -0.064  0.00  0.00    +0.210 HD
ENDBRANCH   8   9
ENDBRANCH   7   8
ENDBRANCH   6   7
ENDBRANCH   1   6
TORSDOF 7
