11844916
  -OEChem-10051722443D

 44 46  0     0  0  0  0  0  0999 V2000
   -5.6062   -1.2985    0.9960 S   0  0  0  0  0  0  0  0  0  0  0  0
   -3.0171    1.4931    0.5215 O   0  0  0  0  0  0  0  0  0  0  0  0
    1.0634    2.6654   -1.5316 O   0  0  0  0  0  0  0  0  0  0  0  0
    1.1331    1.5371    0.5169 N   0  0  0  0  0  0  0  0  0  0  0  0
    5.7035   -2.3479    0.5890 N   0  0  0  0  0  0  0  0  0  0  0  0
    2.5888    1.5087    0.5978 C   0  0  0  0  0  0  0  0  0  0  0  0
    3.1632    0.2784   -0.0427 C   0  0  0  0  0  0  0  0  0  0  0  0
    4.1670   -0.4502    0.5868 C   0  0  0  0  0  0  0  0  0  0  0  0
    2.6723   -0.1191   -1.2824 C   0  0  0  0  0  0  0  0  0  0  0  0
    4.6857   -1.5889   -0.0298 C   0  0  0  0  0  0  0  0  0  0  0  0
    0.4959    2.1339   -0.5785 C   0  0  0  0  0  0  0  0  0  0  0  0
    0.4211    0.9578    1.5537 C   0  0  0  0  0  0  0  0  0  0  0  0
   -1.6411    1.5346    0.4697 C   0  0  0  0  0  0  0  0  0  0  0  0
    4.6891   -0.0124    1.9192 C   0  0  0  0  0  0  0  0  0  0  0  0
   -0.9985    2.1062   -0.5558 C   0  0  0  0  0  0  0  0  0  0  0  0
   -0.9165    0.9389    1.5636 C   0  0  0  0  0  0  0  0  0  0  0  0
   -4.8895    0.6839   -0.7846 C   0  0  0  0  0  0  0  0  0  0  0  0
   -3.5696    1.4503   -0.7805 C   0  0  0  0  0  0  0  0  0  0  0  0
    3.1910   -1.2576   -1.8989 C   0  0  0  0  0  0  0  0  0  0  0  0
    4.1975   -1.9926   -1.2726 C   0  0  0  0  0  0  0  0  0  0  0  0
   -4.7141   -0.7486   -0.3392 C   0  0  0  0  0  0  0  0  0  0  0  0
   -3.9041   -1.6911   -0.8879 C   0  0  0  0  0  0  0  0  0  0  0  0
   -4.0117   -2.9277   -0.1885 C   0  0  0  0  0  0  0  0  0  0  0  0
   -4.9033   -2.8539    0.8589 C   0  0  0  0  0  0  0  0  0  0  0  0
    2.8550    1.6369    1.6506 H   0  0  0  0  0  0  0  0  0  0  0  0
    2.9920    2.3826    0.0701 H   0  0  0  0  0  0  0  0  0  0  0  0
    1.9035    0.4172   -1.8206 H   0  0  0  0  0  0  0  0  0  0  0  0
    0.9927    0.5135    2.3611 H   0  0  0  0  0  0  0  0  0  0  0  0
    3.9820   -0.2822    2.7102 H   0  0  0  0  0  0  0  0  0  0  0  0
    5.6641   -0.4299    2.1796 H   0  0  0  0  0  0  0  0  0  0  0  0
    4.8615    1.0696    1.9371 H   0  0  0  0  0  0  0  0  0  0  0  0
   -1.4765    2.6076   -1.3892 H   0  0  0  0  0  0  0  0  0  0  0  0
   -1.4659    0.4809    2.3779 H   0  0  0  0  0  0  0  0  0  0  0  0
   -5.6005    1.2039   -0.1303 H   0  0  0  0  0  0  0  0  0  0  0  0
   -5.3168    0.6916   -1.7947 H   0  0  0  0  0  0  0  0  0  0  0  0
   -3.7617    2.4752   -1.1223 H   0  0  0  0  0  0  0  0  0  0  0  0
   -2.9236    0.9469   -1.5142 H   0  0  0  0  0  0  0  0  0  0  0  0
    2.8135   -1.5709   -2.8680 H   0  0  0  0  0  0  0  0  0  0  0  0
    4.5927   -2.8777   -1.7648 H   0  0  0  0  0  0  0  0  0  0  0  0
    5.9454   -2.2263    1.5607 H   0  0  0  0  0  0  0  0  0  0  0  0
    6.0576   -3.1664    0.1097 H   0  0  0  0  0  0  0  0  0  0  0  0
   -3.2629   -1.5292   -1.7447 H   0  0  0  0  0  0  0  0  0  0  0  0
   -3.4634   -3.8259   -0.4411 H   0  0  0  0  0  0  0  0  0  0  0  0
   -5.1755   -3.6390    1.5501 H   0  0  0  0  0  0  0  0  0  0  0  0
  1 21  1  0  0  0  0
  1 24  1  0  0  0  0
  2 13  1  0  0  0  0
  2 18  1  0  0  0  0
  3 11  2  0  0  0  0
  4  6  1  0  0  0  0
  4 11  1  0  0  0  0
  4 12  1  0  0  0  0
  5 10  1  0  0  0  0
  5 40  1  0  0  0  0
  5 41  1  0  0  0  0
  6  7  1  0  0  0  0
  6 25  1  0  0  0  0
  6 26  1  0  0  0  0
  7  8  2  0  0  0  0
  7  9  1  0  0  0  0
  8 10  1  0  0  0  0
  8 14  1  0  0  0  0
  9 19  2  0  0  0  0
  9 27  1  0  0  0  0
 10 20  2  0  0  0  0
 11 15  1  0  0  0  0
 12 16  2  0  0  0  0
 12 28  1  0  0  0  0
 13 15  2  0  0  0  0
 13 16  1  0  0  0  0
 14 29  1  0  0  0  0
 14 30  1  0  0  0  0
 14 31  1  0  0  0  0
 15 32  1  0  0  0  0
 16 33  1  0  0  0  0
 17 18  1  0  0  0  0
 17 21  1  0  0  0  0
 17 34  1  0  0  0  0
 17 35  1  0  0  0  0
 18 36  1  0  0  0  0
 18 37  1  0  0  0  0
 19 20  1  0  0  0  0
 19 38  1  0  0  0  0
 20 39  1  0  0  0  0
 21 22  2  0  0  0  0
 22 23  1  0  0  0  0
 22 42  1  0  0  0  0
 23 24  2  0  0  0  0
 23 43  1  0  0  0  0
 24 44  1  0  0  0  0
M  END
> <DATABASE_ID>
DB12347

> <DATABASE_NAME>
drugbank

> <ORIGINAL_SOURCE>
PUBCHEM

> <ORIGINAL_SOURCE_URL>
https://pubchem.ncbi.nlm.nih.gov/rest/pug/compound/inchikey/YCLREGRRHGLOAK-UHFFFAOYSA-N/SDF?record_type=3d

> <SMILES>
CC1=C(CN2C=CC(OCCC3=CC=CS3)=CC2=O)C=CC=C1N

> <INCHI_IDENTIFIER>
InChI=1S/C19H20N2O2S/c1-14-15(4-2-6-18(14)20)13-21-9-7-16(12-19(21)22)23-10-8-17-5-3-11-24-17/h2-7,9,11-12H,8,10,13,20H2,1H3

> <INCHI_KEY>
YCLREGRRHGLOAK-UHFFFAOYSA-N

> <FORMULA>
C19H20N2O2S

> <MOLECULAR_WEIGHT>
340.439

> <EXACT_MASS>
340.124548584

> <JCHEM_ACCEPTOR_COUNT>
3

> <JCHEM_AVERAGE_POLARIZABILITY>
36.470753244693

> <JCHEM_BIOAVAILABILITY>
1

> <JCHEM_DONOR_COUNT>
1

> <JCHEM_FORMAL_CHARGE>
0

> <JCHEM_GHOSE_FILTER>
1

> <JCHEM_IUPAC>
1-[(3-amino-2-methylphenyl)methyl]-4-[2-(thiophen-2-yl)ethoxy]-1,2-dihydropyridin-2-one

> <ALOGPS_LOGP>
3.57

> <JCHEM_LOGP>
3.289336038666667

> <ALOGPS_LOGS>
-4.68

> <JCHEM_MDDR_LIKE_RULE>
1

> <JCHEM_NUMBER_OF_RINGS>
3

> <JCHEM_PHYSIOLOGICAL_CHARGE>
0

> <JCHEM_PKA_STRONGEST_BASIC>
4.005886847604772

> <JCHEM_POLAR_SURFACE_AREA>
55.56

> <JCHEM_REFRACTIVITY>
100.30759999999998

> <JCHEM_ROTATABLE_BOND_COUNT>
6

> <JCHEM_RULE_OF_FIVE>
1

> <ALOGPS_SOLUBILITY>
7.18e-03 g/l

> <JCHEM_TRADITIONAL_IUPAC>
1-[(3-amino-2-methylphenyl)methyl]-4-[2-(thiophen-2-yl)ethoxy]pyridin-2-one

> <JCHEM_VEBER_RULE>
0

> <DRUGBANK_ID>
DB12347

> <DRUG_GROUPS>
investigational

> <GENERIC_NAME>
CG-400549

$$$$
