REMARK  Name = 10286834
REMARK  12 active torsions:
REMARK  status: ('A' for Active; 'I' for Inactive)
REMARK    1  A    between atoms: C_1  and  C_19
REMARK    2  A    between atoms: C_2  and  O_7
REMARK    3  A    between atoms: C_3  and  O_16
REMARK    4  A    between atoms: O_7  and  C_8
REMARK    5  A    between atoms: C_8  and  C_11
REMARK    6  A    between atoms: N_10  and  C_12
REMARK    7  A    between atoms: N_10  and  C_14
REMARK    8  A    between atoms: O_16  and  C_17
REMARK    9  A    between atoms: C_19  and  C_21
REMARK   10  A    between atoms: C_21  and  O_22
REMARK   11  A    between atoms: O_22  and  C_23
REMARK   12  A    between atoms: C_23  and  C_24
REMARK                            x       y       z     vdW  Elec       q    Type
REMARK                         _______ _______ _______ _____ _____    ______ ____
ROOT
ATOM      1  C   UNL     1      -2.010   0.097   1.226  0.00  0.00    -0.008 C 
ATOM      2  C   UNL     1       0.755   0.428   1.065  0.00  0.00    +0.173 C 
ATOM      3  C   UNL     1      -0.092   1.513   0.838  0.00  0.00    +0.172 C 
ATOM      4  C   UNL     1      -1.475   1.347   0.919  0.00  0.00    +0.036 C 
ATOM      5  C   UNL     1      -1.164  -0.989   1.453  0.00  0.00    -0.000 C 
ATOM      6  C   UNL     1       0.219  -0.823   1.372  0.00  0.00    +0.040 C 
ENDROOT
BRANCH   2   7
ATOM      7  O   UNL     1       2.119   0.579   0.989  0.00  0.00    -0.463 OA
BRANCH   7   8
ATOM      8  C   UNL     1       2.870  -0.546   0.583  0.00  0.00    +0.290 C 
BRANCH   8  11
ATOM      9  O   UNL     1       4.357   1.121  -0.206  0.00  0.00    -0.271 OA
ATOM     10  N   UNL     1       5.045  -1.077  -0.501  0.00  0.00    -0.277 N 
ATOM     11  C   UNL     1       4.154  -0.090  -0.078  0.00  0.00    +0.270 C 
BRANCH  10  12
ATOM     12  C   UNL     1       4.847  -2.516  -0.353  0.00  0.00    +0.094 C 
ATOM     13  C   UNL     1       5.412  -3.023   0.958  0.00  0.00    +0.023 C 
ENDBRANCH  10  12
BRANCH  10  14
ATOM     14  C   UNL     1       6.299  -0.686  -1.134  0.00  0.00    +0.094 C 
ATOM     15  C   UNL     1       6.147  -0.565  -2.636  0.00  0.00    +0.023 C 
ENDBRANCH  10  14
ENDBRANCH   8  11
ENDBRANCH   7   8
ENDBRANCH   2   7
BRANCH   3  16
ATOM     16  O   UNL     1       0.419   2.739   0.537  0.00  0.00    -0.472 OA
BRANCH  16  17
ATOM     17  C   UNL     1       0.042   3.310  -0.714  0.00  0.00    +0.206 C 
ATOM     18  C   UNL     1       1.158   4.207  -1.204  0.00  0.00    +0.051 C 
ENDBRANCH  16  17
ENDBRANCH   3  16
BRANCH   1  19
ATOM     19  C   UNL     1      -3.489  -0.081   1.313  0.00  0.00    +0.136 C 
BRANCH  19  21
ATOM     20  O   UNL     1      -3.521  -0.669  -1.048  0.00  0.00    -0.250 OA
ATOM     21  C   UNL     1      -4.130  -0.468  -0.006  0.00  0.00    +0.321 C 
BRANCH  21  22
ATOM     22  O   UNL     1      -5.484  -0.556   0.158  0.00  0.00    -0.448 OA
BRANCH  22  23
ATOM     23  C   UNL     1      -6.224  -0.917  -1.012  0.00  0.00    +0.208 C 
BRANCH  23  24
ATOM     24  C   UNL     1      -7.703  -0.971  -0.661  0.00  0.00    +0.047 C 
ATOM     25  C   UNL     1      -8.553  -1.364  -1.856  0.00  0.00    +0.004 C 
ENDBRANCH  23  24
ENDBRANCH  22  23
ENDBRANCH  21  22
ENDBRANCH  19  21
ENDBRANCH   1  19
TORSDOF 12
