REMARK  Name = 51045
REMARK  10 active torsions:
REMARK  status: ('A' for Active; 'I' for Inactive)
REMARK    1  A    between atoms: N_1  and  C_4
REMARK    2  A    between atoms: N_1  and  C_18
REMARK    3  A    between atoms: C_4  and  C_7
REMARK    4  A    between atoms: C_7  and  C_9
REMARK    5  A    between atoms: C_18  and  C_19
REMARK    6  A    between atoms: C_19  and  O_20
REMARK    7  A    between atoms: C_19  and  C_22
REMARK    8  A    between atoms: C_22  and  O_23
REMARK    9  A    between atoms: O_23  and  C_24
REMARK   10  A    between atoms: C_25  and  C_31
REMARK                            x       y       z     vdW  Elec       q    Type
REMARK                         _______ _______ _______ _____ _____    ______ ____
ROOT
ATOM      1  N   UNL     1      -0.373  -2.220  -0.586  0.00  0.00    +0.388 N 
ATOM      2  H   UNL     1       0.067  -2.634  -1.407  0.00  0.00    -0.084 HD
ATOM      3  H   UNL     1      -0.111  -1.237  -0.508  0.00  0.00    -0.084 HD
ENDROOT
BRANCH   1   4
ATOM      4  C   UNL     1       0.081  -2.933   0.622  0.00  0.00    -0.042 C 
ATOM      5  C   UNL     1      -0.657  -2.314   1.816  0.00  0.00    -0.021 C 
ATOM      6  C   UNL     1      -0.332  -4.403   0.460  0.00  0.00    -0.021 C 
BRANCH   4   7
ATOM      7  C   UNL     1       1.632  -2.773   0.746  0.00  0.00    +0.008 C 
BRANCH   7   9
ATOM      8  N   UNL     1       2.841   0.498   1.831  0.00  0.00    -0.312 N 
ATOM      9  C   UNL     1       2.151  -1.399   0.907  0.00  0.00    -0.008 C 
ATOM     10  C   UNL     1       2.529  -0.508  -0.136  0.00  0.00    +0.011 C 
ATOM     11  C   UNL     1       2.354  -0.752   2.104  0.00  0.00    +0.058 C 
ATOM     12  C   UNL     1       2.958   0.675   0.470  0.00  0.00    +0.048 C 
ATOM     13  C   UNL     1       2.547  -0.595  -1.542  0.00  0.00    +0.001 C 
ATOM     14  C   UNL     1       3.406   1.779  -0.263  0.00  0.00    +0.015 C 
ATOM     15  C   UNL     1       2.993   0.503  -2.288  0.00  0.00    +0.000 C 
ATOM     16  C   UNL     1       3.416   1.670  -1.656  0.00  0.00    +0.001 C 
ATOM     17  H   UNL     1       3.073   1.173   2.508  0.00  0.00    +0.152 HD
ENDBRANCH   7   9
ENDBRANCH   4   7
ENDBRANCH   1   4
BRANCH   1  18
ATOM     18  C   UNL     1      -1.814  -2.316  -0.715  0.00  0.00    -0.048 C 
BRANCH  18  19
ATOM     19  C   UNL     1      -2.328  -1.599  -1.966  0.00  0.00    +0.133 C 
BRANCH  19  20
ATOM     20  O   UNL     1      -3.754  -1.712  -1.991  0.00  0.00    -0.383 OA
ATOM     21  H   UNL     1      -4.005  -2.648  -1.963  0.00  0.00    +0.210 HD
ENDBRANCH  19  20
BRANCH  19  22
ATOM     22  C   UNL     1      -1.957  -0.118  -2.011  0.00  0.00    +0.232 C 
BRANCH  22  23
ATOM     23  O   UNL     1      -2.545   0.537  -0.891  0.00  0.00    -0.472 OA
BRANCH  23  24
ATOM     24  C   UNL     1      -1.868   1.615  -0.384  0.00  0.00    +0.148 C 
ATOM     25  C   UNL     1      -1.949   1.942   0.967  0.00  0.00    +0.102 C 
ATOM     26  C   UNL     1      -1.093   2.382  -1.250  0.00  0.00    +0.038 C 
ATOM     27  C   UNL     1      -1.249   3.045   1.456  0.00  0.00    +0.013 C 
ATOM     28  C   UNL     1      -0.394   3.485  -0.761  0.00  0.00    +0.003 C 
ATOM     29  C   UNL     1      -0.472   3.817   0.592  0.00  0.00    +0.001 C 
BRANCH  25  31
ATOM     30  N   UNL     1      -3.382   0.531   2.600  0.00  0.00    -0.191 NA
ATOM     31  C   UNL     1      -2.741   1.163   1.869  0.00  0.00    +0.103 C 
ENDBRANCH  25  31
ENDBRANCH  23  24
ENDBRANCH  22  23
ENDBRANCH  19  22
ENDBRANCH  18  19
ENDBRANCH   1  18
TORSDOF 10
