REMARK  Name = 44513473
REMARK  7 active torsions:
REMARK  status: ('A' for Active; 'I' for Inactive)
REMARK    1  A    between atoms: C_1  and  N_4
REMARK    2  A    between atoms: C_1  and  C_17
REMARK    3  A    between atoms: N_4  and  C_7
REMARK    4  A    between atoms: C_7  and  C_14
REMARK    5  A    between atoms: C_10  and  C_16
REMARK    6  A    between atoms: C_17  and  N_19
REMARK    7  A    between atoms: C_20  and  C_25
REMARK                            x       y       z     vdW  Elec       q    Type
REMARK                         _______ _______ _______ _____ _____    ______ ____
ROOT
ATOM      1  C   UNL     1      -0.421   1.402  -0.985  0.00  0.00    -0.027 C 
ATOM      2  C   UNL     1      -1.875   0.911  -0.922  0.00  0.00    -0.020 C 
ATOM      3  C   UNL     1      -0.305   2.784  -0.326  0.00  0.00    -0.020 C 
ENDROOT
BRANCH   1   4
ATOM      4  N   UNL     1      -0.037   1.541  -2.386  0.00  0.00    +0.393 N 
ATOM      5  H   UNL     1       0.921   1.888  -2.435  0.00  0.00    -0.084 HD
ATOM      6  H   UNL     1      -0.680   2.194  -2.834  0.00  0.00    -0.084 HD
BRANCH   4   7
ATOM      7  C   UNL     1      -0.115   0.275  -3.082  0.00  0.00    +0.006 C 
BRANCH   7  14
ATOM      8  O   UNL     1       0.640   1.683  -4.847  0.00  0.00    -0.277 OA
ATOM      9  N   UNL     1       0.303  -0.551  -5.349  0.00  0.00    -0.270 N 
ATOM     10  C   UNL     1       0.788  -0.485  -6.729  0.00  0.00    +0.167 C 
ATOM     11  C   UNL     1       0.998  -1.951  -7.113  0.00  0.00    +0.037 C 
ATOM     12  C   UNL     1      -0.060  -2.686  -6.295  0.00  0.00    +0.024 C 
ATOM     13  C   UNL     1      -0.074  -1.915  -4.984  0.00  0.00    +0.094 C 
ATOM     14  C   UNL     1       0.315   0.546  -4.502  0.00  0.00    +0.205 C 
BRANCH  10  16
ATOM     15  N   UNL     1      -0.983   0.681  -8.287  0.00  0.00    -0.194 NA
ATOM     16  C   UNL     1      -0.202   0.167  -7.600  0.00  0.00    +0.093 C 
ENDBRANCH  10  16
ENDBRANCH   7  14
ENDBRANCH   4   7
ENDBRANCH   1   4
BRANCH   1  17
ATOM     17  C   UNL     1       0.542   0.389  -0.338  0.00  0.00    +0.070 C 
BRANCH  17  19
ATOM     18  O   UNL     1      -1.127  -1.075   1.546  0.00  0.00    -0.270 OA
ATOM     19  N   UNL     1       0.572   0.460   1.098  0.00  0.00    -0.303 N 
ATOM     20  C   UNL     1      -0.268  -0.280   1.913  0.00  0.00    +0.245 C 
ATOM     21  H   UNL     1       1.222   1.066   1.523  0.00  0.00    +0.150 HD
BRANCH  20  25
ATOM     22  N   UNL     1      -0.103  -0.716   5.611  0.00  0.00    -0.194 N 
ATOM     23  N   UNL     1       0.722   1.500   5.157  0.00  0.00    -0.232 NA
ATOM     24  N   UNL     1      -0.333  -1.551   6.659  0.00  0.00    -0.185 NA
ATOM     25  C   UNL     1      -0.040  -0.030   3.348  0.00  0.00    +0.072 C 
ATOM     26  C   UNL     1      -0.324  -0.969   4.259  0.00  0.00    +0.150 C 
ATOM     27  C   UNL     1       0.505   1.236   3.904  0.00  0.00    +0.102 C 
ATOM     28  C   UNL     1       0.414   0.508   6.040  0.00  0.00    +0.133 C 
ATOM     29  C   UNL     1       0.508   0.430   7.410  0.00  0.00    +0.106 C 
ATOM     30  C   UNL     1       0.037  -0.851   7.731  0.00  0.00    +0.062 C 
ATOM     31  C   UNL     1      -0.077  -1.454   9.070  0.00  0.00    +0.049 C 
ENDBRANCH  20  25
ENDBRANCH  17  19
ENDBRANCH   1  17
TORSDOF 7
