REMARK  Name = 124246
REMARK  5 active torsions:
REMARK  status: ('A' for Active; 'I' for Inactive)
REMARK    1  A    between atoms: C_3  and  N_16
REMARK    2  A    between atoms: C_6  and  O_22
REMARK    3  A    between atoms: C_10  and  N_13
REMARK    4  A    between atoms: N_16  and  S_18
REMARK    5  A    between atoms: O_22  and  C_23
REMARK                            x       y       z     vdW  Elec       q    Type
REMARK                         _______ _______ _______ _____ _____    ______ ____
ROOT
ATOM      1  O   UNL     1      -2.696  -1.339   0.825  0.00  0.00    -0.449 OA
ATOM      2  O   UNL     1      -2.309   2.185  -1.207  0.00  0.00    -0.285 OA
ATOM      3  C   UNL     1       0.923  -1.318   0.383  0.00  0.00    +0.102 C 
ATOM      4  C   UNL     1      -1.258   0.292  -0.265  0.00  0.00    +0.078 C 
ATOM      5  C   UNL     1      -1.454  -0.902   0.431  0.00  0.00    +0.150 C 
ATOM      6  C   UNL     1       1.119  -0.124  -0.313  0.00  0.00    +0.160 C 
ATOM      7  C   UNL     1      -0.363  -1.709   0.756  0.00  0.00    +0.057 C 
ATOM      8  C   UNL     1       0.029   0.685  -0.639  0.00  0.00    +0.045 C 
ATOM      9  C   UNL     1      -2.426   1.130  -0.599  0.00  0.00    +0.215 C 
ATOM     10  C   UNL     1      -3.740   0.612  -0.151  0.00  0.00    +0.128 C 
ATOM     11  C   UNL     1      -3.776  -0.550   0.508  0.00  0.00    +0.197 C 
ENDROOT
BRANCH  10  13
ATOM     12  O   UNL     1      -6.474  -0.049   0.546  0.00  0.00    -0.265 OA
ATOM     13  N   UNL     1      -4.857   1.339  -0.429  0.00  0.00    -0.272 N 
ATOM     14  C   UNL     1      -6.131   0.957  -0.062  0.00  0.00    +0.304 C 
ATOM     15  H   UNL     1      -4.749   2.186  -0.919  0.00  0.00    +0.155 HD
ENDBRANCH  10  13
BRANCH   3  16
ATOM     16  N   UNL     1       2.033  -2.153   0.721  0.00  0.00    -0.216 N 
ATOM     17  H   UNL     1       2.682  -1.878   1.409  0.00  0.00    +0.173 HD
BRANCH  16  18
ATOM     18  S   UNL     1       2.203  -3.653  -0.106  0.00  0.00    +0.056 S 
ATOM     19  O   UNL     1       3.224  -4.433   0.567  0.00  0.00    -0.154 OA
ATOM     20  O   UNL     1       0.908  -4.232  -0.402  0.00  0.00    -0.154 OA
ATOM     21  C   UNL     1       2.911  -3.088  -1.638  0.00  0.00    +0.200 C 
ENDBRANCH  16  18
ENDBRANCH   3  16
BRANCH   6  22
ATOM     22  O   UNL     1       2.370   0.270  -0.684  0.00  0.00    -0.452 OA
BRANCH  22  23
ATOM     23  C   UNL     1       2.834   1.478  -0.194  0.00  0.00    +0.145 C 
ATOM     24  C   UNL     1       2.652   1.778   1.145  0.00  0.00    +0.037 C 
ATOM     25  C   UNL     1       3.466   2.357  -1.055  0.00  0.00    +0.037 C 
ATOM     26  C   UNL     1       3.119   2.997   1.638  0.00  0.00    +0.003 C 
ATOM     27  C   UNL     1       3.933   3.575  -0.562  0.00  0.00    +0.003 C 
ATOM     28  C   UNL     1       3.759   3.895   0.785  0.00  0.00    +0.000 C 
ENDBRANCH  22  23
ENDBRANCH   6  22
TORSDOF 5
