REMARK  Name = 6918236
REMARK  5 active torsions:
REMARK  status: ('A' for Active; 'I' for Inactive)
REMARK    1  A    between atoms: N_3  and  C_13
REMARK    2  A    between atoms: C_13  and  C_14
REMARK    3  A    between atoms: C_14  and  P_15
REMARK    4  A    between atoms: P_15  and  O_17
REMARK    5  A    between atoms: P_15  and  O_19
REMARK                            x       y       z     vdW  Elec       q    Type
REMARK                         _______ _______ _______ _____ _____    ______ ____
ROOT
ATOM      1  O   UNL     1      -0.129   2.459  -0.570  0.00  0.00    -0.282 OA
ATOM      2  O   UNL     1      -3.038   2.661   0.309  0.00  0.00    -0.282 OA
ATOM      3  N   UNL     1      -0.232  -0.842  -0.481  0.00  0.00    -0.303 N 
ATOM      4  N   UNL     1      -3.325  -0.591   0.476  0.00  0.00    -0.329 N 
ATOM      5  C   UNL     1      -0.597  -2.229  -0.134  0.00  0.00    +0.093 C 
ATOM      6  C   UNL     1      -1.067   0.141  -0.235  0.00  0.00    +0.107 C 
ATOM      7  C   UNL     1      -2.074  -2.582  -0.414  0.00  0.00    +0.043 C 
ATOM      8  C   UNL     1      -2.370   0.240   0.167  0.00  0.00    +0.104 C 
ATOM      9  C   UNL     1      -3.080  -2.025   0.612  0.00  0.00    +0.089 C 
ATOM     10  C   UNL     1      -0.931   1.600  -0.307  0.00  0.00    +0.250 C 
ATOM     11  C   UNL     1      -2.339   1.700   0.120  0.00  0.00    +0.250 C 
ATOM     12  H   UNL     1      -4.234  -0.244   0.622  0.00  0.00    +0.147 HD
ENDROOT
BRANCH   3  13
ATOM     13  C   UNL     1       1.170  -0.596  -0.794  0.00  0.00    +0.104 C 
BRANCH  13  14
ATOM     14  C   UNL     1       1.955  -0.366   0.485  0.00  0.00    +0.137 C 
BRANCH  14  15
ATOM     15  P   UNL     1       3.713  -0.058   0.190  0.00  0.00    +0.339 P 
ATOM     16  O   UNL     1       4.405  -1.178  -0.501  0.00  0.00    -0.258 OA
BRANCH  15  17
ATOM     17  O   UNL     1       4.250   0.313   1.661  0.00  0.00    -0.324 OA
ATOM     18  H   UNL     1       5.201   0.500   1.621  0.00  0.00    +0.220 HD
ENDBRANCH  15  17
BRANCH  15  19
ATOM     19  O   UNL     1       3.690   1.353  -0.584  0.00  0.00    -0.324 OA
ATOM     20  H   UNL     1       4.599   1.620  -0.796  0.00  0.00    +0.220 HD
ENDBRANCH  15  19
ENDBRANCH  14  15
ENDBRANCH  13  14
ENDBRANCH   3  13
TORSDOF 5
