REMARK  Name = 71492799
REMARK  6 active torsions:
REMARK  status: ('A' for Active; 'I' for Inactive)
REMARK    1  A    between atoms: N_1  and  C_20
REMARK    2  A    between atoms: C_4  and  C_6
REMARK    3  A    between atoms: C_7  and  C_15
REMARK    4  A    between atoms: C_8  and  C_19
REMARK    5  A    between atoms: C_21  and  C_24
REMARK    6  A    between atoms: N_23  and  N_26
REMARK                            x       y       z     vdW  Elec       q    Type
REMARK                         _______ _______ _______ _____ _____    ______ ____
ROOT
ATOM      1  N   UNL     1       2.686  -2.514   0.197  0.00  0.00    -0.176 N 
ATOM      2  N   UNL     1       1.782  -1.534   0.347  0.00  0.00    -0.122 NA
ATOM      3  N   UNL     1       0.548  -3.306   0.010  0.00  0.00    -0.194 NA
ATOM      4  C   UNL     1       0.513  -2.013   0.234  0.00  0.00    +0.050 C 
ATOM      5  C   UNL     1       1.888  -3.565  -0.004  0.00  0.00    +0.252 C 
ENDROOT
BRANCH   4   6
ATOM      6  C   UNL     1      -0.679  -1.220   0.346  0.00  0.00    +0.063 C 
ATOM      7  C   UNL     1      -3.039  -0.921  -0.072  0.00  0.00    +0.072 C 
ATOM      8  C   UNL     1      -1.792   0.790   1.092  0.00  0.00    +0.072 C 
ATOM      9  C   UNL     1      -0.634   0.020   0.983  0.00  0.00    +0.014 C 
ATOM     10  C   UNL     1      -1.882  -1.690  -0.181  0.00  0.00    +0.014 C 
ATOM     11  C   UNL     1      -2.995   0.320   0.565  0.00  0.00    +0.008 C 
BRANCH   7  15
ATOM     12  F   UNL     1      -5.313  -1.565   0.300  0.00  0.00    -0.166 F 
ATOM     13  F   UNL     1      -4.858  -0.612  -1.594  0.00  0.00    -0.166 F 
ATOM     14  F   UNL     1      -4.199  -2.650  -1.220  0.00  0.00    -0.166 F 
ATOM     15  C   UNL     1      -4.326  -1.424  -0.633  0.00  0.00    +0.419 C 
ENDBRANCH   7  15
BRANCH   8  19
ATOM     16  F   UNL     1      -0.498   2.427   2.232  0.00  0.00    -0.166 F 
ATOM     17  F   UNL     1      -2.110   3.158   0.969  0.00  0.00    -0.166 F 
ATOM     18  F   UNL     1      -2.567   2.201   2.861  0.00  0.00    -0.166 F 
ATOM     19  C   UNL     1      -1.745   2.116   1.774  0.00  0.00    +0.419 C 
ENDBRANCH   8  19
ENDBRANCH   4   6
BRANCH   1  20
ATOM     20  C   UNL     1       4.059  -2.469   0.235  0.00  0.00    +0.092 C 
ATOM     21  C   UNL     1       4.778  -1.361   0.468  0.00  0.00    +0.077 C 
BRANCH  21  24
ATOM     22  O   UNL     1       3.760   0.315   1.830  0.00  0.00    -0.269 OA
ATOM     23  N   UNL     1       3.878   0.624  -0.469  0.00  0.00    -0.231 N 
ATOM     24  C   UNL     1       4.086  -0.064   0.710  0.00  0.00    +0.263 C 
ATOM     25  H   UNL     1       4.172   0.251  -1.331  0.00  0.00    +0.173 HD
BRANCH  23  26
ATOM     26  N   UNL     1       3.255   1.837  -0.405  0.00  0.00    -0.248 N 
ATOM     27  H   UNL     1       3.650   2.571   0.119  0.00  0.00    +0.172 HD
ATOM     28  N   UNL     1       1.308   3.124  -0.805  0.00  0.00    -0.228 NA
ATOM     29  C   UNL     1       2.049   2.030  -1.089  0.00  0.00    +0.144 C 
ATOM     30  C   UNL     1       1.692   1.072  -2.025  0.00  0.00    +0.036 C 
ATOM     31  C   UNL     1       0.496   1.249  -2.713  0.00  0.00    +0.005 C 
ATOM     32  C   UNL     1      -0.293   2.362  -2.449  0.00  0.00    +0.021 C 
ATOM     33  C   UNL     1       0.153   3.262  -1.494  0.00  0.00    +0.100 C 
ENDBRANCH  23  26
ENDBRANCH  21  24
ENDBRANCH   1  20
TORSDOF 6
