REMARK  Name = 6433109
REMARK  6 active torsions:
REMARK  status: ('A' for Active; 'I' for Inactive)
REMARK    1  A    between atoms: N_2  and  C_18
REMARK    2  A    between atoms: C_11  and  C_12
REMARK    3  A    between atoms: C_18  and  C_21
REMARK    4  A    between atoms: N_20  and  C_22
REMARK    5  A    between atoms: N_20  and  C_24
REMARK    6  A    between atoms: C_24  and  C_25
REMARK                            x       y       z     vdW  Elec       q    Type
REMARK                         _______ _______ _______ _____ _____    ______ ____
ROOT
ATOM      1  O   UNL     1      -0.606   4.557  -0.039  0.00  0.00    -0.246 OA
ATOM      2  N   UNL     1      -0.733   2.217  -0.420  0.00  0.00    -0.245 N 
ATOM      3  N   UNL     1      -2.474   3.240   0.604  0.00  0.00    -0.274 N 
ATOM      4  N   UNL     1      -1.667  -0.070  -0.404  0.00  0.00    -0.331 NA
ATOM      5  N   UNL     1      -3.872  -0.203   0.624  0.00  0.00    -0.181 NA
ATOM      6  C   UNL     1      -1.706   1.241  -0.139  0.00  0.00    +0.228 A 
ATOM      7  C   UNL     1      -2.762   1.878   0.485  0.00  0.00    +0.132 A 
ATOM      8  C   UNL     1      -1.191   3.486   0.038  0.00  0.00    +0.334 A 
ATOM      9  C   UNL     1      -3.333   4.231   1.200  0.00  0.00    +0.135 C 
ATOM     10  C   UNL     1      -3.841   1.127   0.859  0.00  0.00    +0.132 C 
ATOM     11  C   UNL     1      -2.779  -0.724   0.004  0.00  0.00    +0.089 C 
ENDROOT
BRANCH  11  12
ATOM     12  C   UNL     1      -2.811  -2.142  -0.246  0.00  0.00    +0.074 C 
ATOM     13  C   UNL     1      -4.030  -2.790  -0.465  0.00  0.00    +0.011 C 
ATOM     14  C   UNL     1      -1.623  -2.878  -0.275  0.00  0.00    +0.011 C 
ATOM     15  C   UNL     1      -4.061  -4.163  -0.710  0.00  0.00    +0.001 C 
ATOM     16  C   UNL     1      -1.655  -4.251  -0.519  0.00  0.00    +0.001 C 
ATOM     17  C   UNL     1      -2.873  -4.894  -0.737  0.00  0.00    +0.000 C 
ENDBRANCH  11  12
BRANCH   2  18
ATOM     18  C   UNL     1       0.518   1.927  -1.070  0.00  0.00    +0.198 C 
BRANCH  18  21
ATOM     19  O   UNL     1       1.296   1.558   1.167  0.00  0.00    -0.273 OA
ATOM     20  N   UNL     1       2.853   1.310  -0.535  0.00  0.00    -0.274 N 
ATOM     21  C   UNL     1       1.575   1.584  -0.034  0.00  0.00    +0.249 C 
BRANCH  20  22
ATOM     22  C   UNL     1       3.158   1.348  -1.960  0.00  0.00    +0.094 C 
ATOM     23  C   UNL     1       3.608   2.727  -2.395  0.00  0.00    +0.023 C 
ENDBRANCH  20  22
BRANCH  20  24
ATOM     24  C   UNL     1       3.976   0.967   0.334  0.00  0.00    +0.120 C 
BRANCH  24  25
ATOM     25  C   UNL     1       4.078  -0.513   0.561  0.00  0.00    -0.002 C 
ATOM     26  C   UNL     1       3.408  -1.092   1.633  0.00  0.00    -0.003 C 
ATOM     27  C   UNL     1       4.842  -1.291  -0.301  0.00  0.00    -0.003 C 
ATOM     28  C   UNL     1       3.502  -2.467   1.845  0.00  0.00    -0.000 C 
ATOM     29  C   UNL     1       4.936  -2.667  -0.089  0.00  0.00    -0.000 C 
ATOM     30  C   UNL     1       4.267  -3.255   0.984  0.00  0.00    -0.000 C 
ENDBRANCH  24  25
ENDBRANCH  20  24
ENDBRANCH  18  21
ENDBRANCH   2  18
TORSDOF 6
