REMARK  Name = 25127713
REMARK  5 active torsions:
REMARK  status: ('A' for Active; 'I' for Inactive)
REMARK    1  A    between atoms: N_2  and  C_16
REMARK    2  A    between atoms: C_4  and  O_24
REMARK    3  A    between atoms: C_6  and  O_22
REMARK    4  A    between atoms: O_24  and  C_27
REMARK    5  A    between atoms: C_32  and  C_33
REMARK                            x       y       z     vdW  Elec       q    Type
REMARK                         _______ _______ _______ _____ _____    ______ ____
ROOT
ATOM      1  N   UNL     1      -2.271  -4.169   0.535  0.00  0.00    -0.248 NA
ATOM      2  N   UNL     1      -2.544  -0.158  -0.450  0.00  0.00    -0.299 N 
ATOM      3  N   UNL     1      -3.576  -2.173   0.191  0.00  0.00    -0.233 NA
ATOM      4  C   UNL     1       1.223  -2.109  -0.427  0.00  0.00    +0.169 C 
ATOM      5  C   UNL     1       0.001  -1.445  -0.443  0.00  0.00    +0.027 C 
ATOM      6  C   UNL     1       1.267  -3.458  -0.090  0.00  0.00    +0.173 C 
ATOM      7  C   UNL     1      -1.179  -2.136  -0.119  0.00  0.00    +0.119 C 
ATOM      8  C   UNL     1      -1.149  -3.498   0.223  0.00  0.00    +0.070 C 
ATOM      9  C   UNL     1       0.088  -4.138   0.231  0.00  0.00    +0.055 C 
ATOM     10  C   UNL     1      -2.433  -1.531  -0.115  0.00  0.00    +0.115 C 
ATOM     11  C   UNL     1      -3.424  -3.470   0.502  0.00  0.00    +0.251 C 
ATOM     12  H   UNL     1      -1.857   0.152  -1.084  0.00  0.00    +0.153 HD
ENDROOT
BRANCH   2  16
ATOM     13 CL   UNL     1      -4.992   4.163  -1.636  0.00  0.00    -0.079 Cl
ATOM     14 CL   UNL     1      -6.344   4.034   1.295  0.00  0.00    -0.081 Cl
ATOM     15  F   UNL     1      -3.184   1.936  -2.136  0.00  0.00    -0.202 F 
ATOM     16  C   UNL     1      -3.442   0.844  -0.053  0.00  0.00    +0.078 C 
ATOM     17  C   UNL     1      -3.751   1.892  -0.920  0.00  0.00    +0.165 C 
ATOM     18  C   UNL     1      -4.027   0.791   1.212  0.00  0.00    +0.018 C 
ATOM     19  C   UNL     1      -4.644   2.887  -0.522  0.00  0.00    +0.097 C 
ATOM     20  C   UNL     1      -4.920   1.785   1.610  0.00  0.00    +0.014 C 
ATOM     21  C   UNL     1      -5.229   2.833   0.743  0.00  0.00    +0.070 C 
ENDBRANCH   2  16
BRANCH   6  22
ATOM     22  O   UNL     1       2.453  -4.128  -0.069  0.00  0.00    -0.468 OA
ATOM     23  C   UNL     1       2.862  -4.758  -1.281  0.00  0.00    +0.253 C 
ENDBRANCH   6  22
BRANCH   4  24
ATOM     24  O   UNL     1       2.369  -1.430  -0.745  0.00  0.00    -0.476 OA
BRANCH  24  27
ATOM     25  O   UNL     1       6.798   2.267   1.042  0.00  0.00    -0.270 OA
ATOM     26  N   UNL     1       4.548   1.833   0.649  0.00  0.00    -0.276 N 
ATOM     27  C   UNL     1       2.700  -0.313   0.072  0.00  0.00    +0.169 C 
ATOM     28  C   UNL     1       2.747   0.958  -0.780  0.00  0.00    +0.065 C 
ATOM     29  C   UNL     1       4.051  -0.573   0.740  0.00  0.00    +0.065 C 
ATOM     30  C   UNL     1       3.248   2.145   0.036  0.00  0.00    +0.097 C 
ATOM     31  C   UNL     1       4.532   0.650   1.514  0.00  0.00    +0.097 C 
ATOM     32  C   UNL     1       5.726   2.561   0.510  0.00  0.00    +0.249 C 
BRANCH  32  33
ATOM     33  C   UNL     1       5.693   3.770  -0.337  0.00  0.00    +0.058 C 
ATOM     34  C   UNL     1       6.804   4.137  -0.979  0.00  0.00    +0.005 C 
ENDBRANCH  32  33
ENDBRANCH  24  27
ENDBRANCH   4  24
TORSDOF 5
