REMARK  Name = 24963749
REMARK  6 active torsions:
REMARK  status: ('A' for Active; 'I' for Inactive)
REMARK    1  A    between atoms: N_1  and  C_23
REMARK    2  A    between atoms: C_2  and  N_14
REMARK    3  A    between atoms: C_11  and  C_22
REMARK    4  A    between atoms: C_15  and  O_17
REMARK    5  A    between atoms: O_17  and  C_18
REMARK    6  A    between atoms: C_23  and  C_25
REMARK                            x       y       z     vdW  Elec       q    Type
REMARK                         _______ _______ _______ _____ _____    ______ ____
ROOT
ATOM      1  N   UNL     1       1.220  -0.475  -1.236  0.00  0.00    -0.325 N 
ATOM      2  C   UNL     1      -1.733   1.713  -1.345  0.00  0.00    +0.085 C 
ATOM      3  C   UNL     1       0.212   0.417  -1.355  0.00  0.00    +0.035 A 
ATOM      4  C   UNL     1       0.576   1.608  -0.797  0.00  0.00    -0.007 A 
ATOM      5  C   UNL     1      -1.143   0.378  -1.932  0.00  0.00    +0.063 C 
ATOM      6  C   UNL     1      -0.508   2.608  -0.913  0.00  0.00    +0.048 C 
ATOM      7  C   UNL     1       1.881   1.476  -0.295  0.00  0.00    +0.014 A 
ATOM      8  C   UNL     1       2.272   0.153  -0.581  0.00  0.00    +0.060 A 
ATOM      9  C   UNL     1       2.783   2.325   0.371  0.00  0.00    +0.011 C 
ATOM     10  C   UNL     1       3.530  -0.345  -0.223  0.00  0.00    +0.018 C 
ATOM     11  C   UNL     1       4.043   1.831   0.732  0.00  0.00    +0.069 C 
ATOM     12  C   UNL     1       4.408   0.519   0.438  0.00  0.00    +0.012 C 
ENDROOT
BRANCH   2  14
ATOM     13  O   UNL     1      -4.595   1.217  -1.335  0.00  0.00    -0.226 OA
ATOM     14  N   UNL     1      -2.580   1.429  -0.206  0.00  0.00    -0.272 N 
ATOM     15  C   UNL     1      -3.936   1.206  -0.300  0.00  0.00    +0.401 C 
ATOM     16  H   UNL     1      -2.164   1.394   0.686  0.00  0.00    +0.153 HD
BRANCH  15  17
ATOM     17  O   UNL     1      -4.449   0.968   0.944  0.00  0.00    -0.438 OA
BRANCH  17  18
ATOM     18  C   UNL     1      -5.858   0.717   1.001  0.00  0.00    +0.171 C 
ATOM     19  C   UNL     1      -6.109  -0.772   0.819  0.00  0.00    +0.047 C 
ATOM     20  C   UNL     1      -6.404   1.226   2.326  0.00  0.00    +0.047 C 
ENDBRANCH  17  18
ENDBRANCH  15  17
ENDBRANCH   2  14
BRANCH  11  22
ATOM     21  N   UNL     1       5.716   3.382   1.960  0.00  0.00    -0.191 NA
ATOM     22  C   UNL     1       4.966   2.687   1.410  0.00  0.00    +0.100 C 
ENDBRANCH  11  22
BRANCH   1  23
ATOM     23  C   UNL     1       1.206  -1.841  -1.706  0.00  0.00    +0.152 C 
BRANCH  23  25
ATOM     24  N   UNL     1      -0.161  -2.703   0.116  0.00  0.00    -0.246 NA
ATOM     25  C   UNL     1       0.971  -2.849  -0.608  0.00  0.00    +0.082 C 
ATOM     26  C   UNL     1       1.903  -3.852  -0.397  0.00  0.00    +0.017 C 
ATOM     27  C   UNL     1       1.656  -4.765   0.623  0.00  0.00    +0.003 C 
ATOM     28  C   UNL     1      -0.367  -3.608   1.099  0.00  0.00    +0.099 C 
ATOM     29  C   UNL     1       0.502  -4.648   1.389  0.00  0.00    +0.021 C 
ENDBRANCH  23  25
ENDBRANCH   1  23
TORSDOF 6
