REMARK  Name = 11538455
REMARK  6 active torsions:
REMARK  status: ('A' for Active; 'I' for Inactive)
REMARK    1  A    between atoms: C_4  and  C_19
REMARK    2  A    between atoms: C_12  and  C_15
REMARK    3  A    between atoms: N_14  and  O_17
REMARK    4  A    between atoms: C_19  and  N_20
REMARK    5  A    between atoms: N_20  and  C_23
REMARK    6  A    between atoms: C_23  and  C_25
REMARK                            x       y       z     vdW  Elec       q    Type
REMARK                         _______ _______ _______ _____ _____    ______ ____
ROOT
ATOM      1  N   UNL     1       2.525  -0.651   0.161  0.00  0.00    -0.253 N 
ATOM      2  N   UNL     1       4.224   0.876  -0.434  0.00  0.00    -0.203 NA
ATOM      3  N   UNL     1       4.777  -1.326   0.374  0.00  0.00    -0.180 NA
ATOM      4  C   UNL     1      -0.287  -1.325   0.304  0.00  0.00    -0.018 C 
ATOM      5  C   UNL     1       0.211   0.106   0.530  0.00  0.00    +0.020 C 
ATOM      6  C   UNL     1       0.801  -2.317   0.727  0.00  0.00    +0.020 C 
ATOM      7  C   UNL     1       1.530   0.365  -0.198  0.00  0.00    +0.101 C 
ATOM      8  C   UNL     1       2.115  -2.052  -0.006  0.00  0.00    +0.101 C 
ATOM      9  C   UNL     1       3.888  -0.358   0.029  0.00  0.00    +0.090 C 
ATOM     10  C   UNL     1       5.545   1.126  -0.546  0.00  0.00    +0.170 C 
ATOM     11  C   UNL     1       6.081  -1.009   0.237  0.00  0.00    +0.113 C 
ATOM     12  C   UNL     1       6.528   0.213  -0.223  0.00  0.00    +0.078 C 
ENDROOT
BRANCH  12  15
ATOM     13  O   UNL     1       8.775  -0.390  -0.543  0.00  0.00    -0.268 OA
ATOM     14  N   UNL     1       8.316   1.851  -0.260  0.00  0.00    -0.194 N 
ATOM     15  C   UNL     1       7.939   0.517  -0.358  0.00  0.00    +0.267 C 
ATOM     16  H   UNL     1       7.652   2.564  -0.115  0.00  0.00    +0.183 HD
BRANCH  14  17
ATOM     17  O   UNL     1       9.684   2.136  -0.379  0.00  0.00    -0.295 OA
ATOM     18  H   UNL     1       9.824   3.092  -0.294  0.00  0.00    +0.241 HD
ENDBRANCH  14  17
ENDBRANCH  12  15
BRANCH   4  19
ATOM     19  C   UNL     1      -1.582  -1.578   1.072  0.00  0.00    -0.081 C 
BRANCH  19  20
ATOM     20  N   UNL     1      -2.635  -0.680   0.624  0.00  0.00    +0.386 N 
ATOM     21  H   UNL     1      -2.806  -0.836  -0.370  0.00  0.00    -0.084 HD
ATOM     22  H   UNL     1      -2.335   0.281   0.788  0.00  0.00    -0.084 HD
BRANCH  20  23
ATOM     23  C   UNL     1      -3.870  -0.913   1.362  0.00  0.00    -0.053 C 
BRANCH  23  25
ATOM     24  N   UNL     1      -6.238   1.796   0.739  0.00  0.00    -0.284 N 
ATOM     25  C   UNL     1      -4.947   0.029   0.900  0.00  0.00    -0.028 C 
ATOM     26  C   UNL     1      -5.862  -0.219  -0.140  0.00  0.00    +0.009 C 
ATOM     27  C   UNL     1      -5.184   1.260   1.429  0.00  0.00    +0.059 C 
ATOM     28  C   UNL     1      -6.672   0.915  -0.225  0.00  0.00    +0.051 C 
ATOM     29  C   UNL     1      -6.096  -1.288  -1.027  0.00  0.00    +0.001 C 
ATOM     30  C   UNL     1      -7.710   1.034  -1.157  0.00  0.00    +0.015 C 
ATOM     31  C   UNL     1      -6.801   3.104   0.998  0.00  0.00    +0.117 C 
ATOM     32  C   UNL     1      -7.131  -1.184  -1.965  0.00  0.00    +0.000 C 
ATOM     33  C   UNL     1      -7.924  -0.039  -2.027  0.00  0.00    +0.001 C 
ENDBRANCH  23  25
ENDBRANCH  20  23
ENDBRANCH  19  20
ENDBRANCH   4  19
TORSDOF 6
