REMARK  Name = 71731823
REMARK  1 active torsions:
REMARK  status: ('A' for Active; 'I' for Inactive)
REMARK    1  A    between atoms: C_16  and  C_32
REMARK                            x       y       z     vdW  Elec       q    Type
REMARK                         _______ _______ _______ _____ _____    ______ ____
ROOT
ATOM      1  F   UNL     1       4.751   0.333  -2.616  0.00  0.00    -0.204 F 
ATOM      2  O   UNL     1       1.862   1.915   1.374  0.00  0.00    -0.472 OA
ATOM      3  O   UNL     1       1.764  -2.504   2.064  0.00  0.00    -0.270 OA
ATOM      4  N   UNL     1      -0.051  -2.474   0.581  0.00  0.00    -0.269 N 
ATOM      5  N   UNL     1      -4.119  -1.227  -0.434  0.00  0.00    -0.239 N 
ATOM      6  N   UNL     1      -3.130  -2.118  -0.603  0.00  0.00    -0.171 NA
ATOM      7  N   UNL     1      -0.741   3.363  -0.694  0.00  0.00    -0.226 NA
ATOM      8  C   UNL     1      -0.676  -2.032  -0.686  0.00  0.00    +0.141 C 
ATOM      9  C   UNL     1      -2.013  -1.384  -0.486  0.00  0.00    +0.101 A 
ATOM     10  C   UNL     1      -2.316  -0.006  -0.254  0.00  0.00    +0.046 A 
ATOM     11  C   UNL     1       2.359   0.585   1.647  0.00  0.00    +0.189 C 
ATOM     12  C   UNL     1       2.695  -0.182   0.370  0.00  0.00    +0.024 C 
ATOM     13  C   UNL     1       2.162  -1.452   0.060  0.00  0.00    +0.053 C 
ATOM     14  C   UNL     1      -1.439   1.130  -0.087  0.00  0.00    +0.026 C 
ATOM     15  C   UNL     1       1.268  -2.179   0.986  0.00  0.00    +0.249 C 
ATOM     16  C   UNL     1      -3.690   0.051  -0.235  0.00  0.00    +0.147 A 
ATOM     17  C   UNL     1       0.654   2.006   0.744  0.00  0.00    +0.170 C 
ATOM     18  C   UNL     1      -0.313   1.010   0.723  0.00  0.00    +0.041 C 
ATOM     19  C   UNL     1       3.607   0.750   2.520  0.00  0.00    +0.052 C 
ATOM     20  C   UNL     1       3.566   0.406  -0.566  0.00  0.00    +0.029 C 
ATOM     21  C   UNL     1       2.539  -2.124  -1.113  0.00  0.00    +0.007 C 
ATOM     22  C   UNL     1      -0.848  -3.345   1.444  0.00  0.00    +0.116 C 
ATOM     23  C   UNL     1      -1.615   2.331  -0.759  0.00  0.00    +0.101 C 
ATOM     24  C   UNL     1       0.378   3.169   0.043  0.00  0.00    +0.160 C 
ATOM     25  C   UNL     1       3.917  -0.252  -1.747  0.00  0.00    +0.140 C 
ATOM     26  C   UNL     1       3.409  -1.519  -2.016  0.00  0.00    +0.030 C 
ATOM     27  C   UNL     1      -5.488  -1.688  -0.485  0.00  0.00    +0.155 C 
ATOM     28  N   UNL     1       1.332   4.217   0.077  0.00  0.00    -0.340 N 
ATOM     29  H   UNL     1       1.161   5.054  -0.412  0.00  0.00    +0.144 HD
ATOM     30  H   UNL     1       2.165   4.108   0.590  0.00  0.00    +0.144 HD
ENDROOT
BRANCH  16  32
ATOM     31  N   UNL     1      -5.266   2.060   0.164  0.00  0.00    -0.189 NA
ATOM     32  C   UNL     1      -4.558   1.158  -0.015  0.00  0.00    +0.119 C 
ENDBRANCH  16  32
TORSDOF 1
