REMARK  Name = 24795070
REMARK  5 active torsions:
REMARK  status: ('A' for Active; 'I' for Inactive)
REMARK    1  A    between atoms: N_1  and  C_23
REMARK    2  A    between atoms: C_9  and  C_12
REMARK    3  A    between atoms: C_15  and  O_18
REMARK    4  A    between atoms: O_18  and  C_22
REMARK    5  A    between atoms: C_23  and  C_25
REMARK                            x       y       z     vdW  Elec       q    Type
REMARK                         _______ _______ _______ _____ _____    ______ ____
ROOT
ATOM      1  N   UNL     1       0.079   2.959   1.254  0.00  0.00    -0.317 N 
ATOM      2  N   UNL     1      -2.571   1.121  -0.127  0.00  0.00    -0.170 N 
ATOM      3  N   UNL     1      -1.376   1.354   0.477  0.00  0.00    -0.158 NA
ATOM      4  N   UNL     1      -4.545   1.484  -1.098  0.00  0.00    -0.226 NA
ATOM      5  C   UNL     1      -1.085   2.620   0.663  0.00  0.00    +0.147 C 
ATOM      6  C   UNL     1      -2.006   3.730   0.239  0.00  0.00    +0.039 C 
ATOM      7  C   UNL     1      -3.491   2.058  -0.554  0.00  0.00    +0.155 C 
ATOM      8  C   UNL     1      -3.165   3.414  -0.349  0.00  0.00    +0.039 C 
ATOM      9  C   UNL     1      -3.088  -0.113  -0.424  0.00  0.00    +0.095 C 
ATOM     10  C   UNL     1      -4.300   0.137  -1.020  0.00  0.00    +0.117 C 
ATOM     11  H   UNL     1       0.277   3.915   1.384  0.00  0.00    +0.148 HD
ENDROOT
BRANCH   9  12
ATOM     12  C   UNL     1      -2.426  -1.363  -0.135  0.00  0.00    +0.020 C 
ATOM     13  C   UNL     1      -1.175  -1.634  -0.690  0.00  0.00    +0.039 C 
ATOM     14  C   UNL     1      -3.038  -2.299   0.699  0.00  0.00    +0.002 C 
ATOM     15  C   UNL     1      -0.536  -2.842  -0.411  0.00  0.00    +0.147 C 
ATOM     16  C   UNL     1      -2.398  -3.507   0.977  0.00  0.00    +0.003 C 
ATOM     17  C   UNL     1      -1.148  -3.779   0.422  0.00  0.00    +0.037 C 
BRANCH  15  18
ATOM     18  O   UNL     1       0.684  -3.107  -0.952  0.00  0.00    -0.404 OA
BRANCH  18  22
ATOM     19  F   UNL     1       1.621  -2.661   1.086  0.00  0.00    -0.133 F 
ATOM     20  F   UNL     1       2.913  -2.907  -0.659  0.00  0.00    -0.133 F 
ATOM     21  F   UNL     1       1.918  -4.659   0.189  0.00  0.00    -0.133 F 
ATOM     22  C   UNL     1       1.776  -3.341  -0.070  0.00  0.00    +0.575 C 
ENDBRANCH  18  22
ENDBRANCH  15  18
ENDBRANCH   9  12
BRANCH   1  23
ATOM     23  C   UNL     1       1.045   1.993   1.705  0.00  0.00    +0.088 C 
BRANCH  23  25
ATOM     24  N   UNL     1       4.771   1.650  -0.453  0.00  0.00    +0.386 N 
ATOM     25  C   UNL     1       2.027   1.680   0.580  0.00  0.00    +0.015 C 
ATOM     26  C   UNL     1       3.062   0.641   1.024  0.00  0.00    -0.021 C 
ATOM     27  C   UNL     1       2.740   2.950   0.103  0.00  0.00    -0.021 C 
ATOM     28  C   UNL     1       4.109   0.397  -0.064  0.00  0.00    -0.077 C 
ATOM     29  C   UNL     1       3.798   2.630  -0.956  0.00  0.00    -0.077 C 
ATOM     30  C   UNL     1       5.804   1.393  -1.456  0.00  0.00    -0.101 C 
ATOM     31  H   UNL     1       5.213   2.043   0.378  0.00  0.00    -0.080 HD
ENDBRANCH  23  25
ENDBRANCH   1  23
TORSDOF 5
