REMARK  Name = 9909438
REMARK  10 active torsions:
REMARK  status: ('A' for Active; 'I' for Inactive)
REMARK    1  A    between atoms: C_1  and  C_2
REMARK    2  A    between atoms: C_1  and  C_18
REMARK    3  A    between atoms: C_2  and  C_7
REMARK    4  A    between atoms: N_4  and  C_10
REMARK    5  A    between atoms: C_10  and  C_11
REMARK    6  A    between atoms: C_18  and  C_19
REMARK    7  A    between atoms: C_22  and  O_25
REMARK    8  A    between atoms: O_25  and  C_26
REMARK    9  A    between atoms: C_26  and  C_30
REMARK   10  A    between atoms: C_30  and  O_31
REMARK                            x       y       z     vdW  Elec       q    Type
REMARK                         _______ _______ _______ _____ _____    ______ ____
ROOT
ATOM      1  C   UNL     1       0.715   3.213   0.032  0.00  0.00    +0.014 C 
ENDROOT
BRANCH   1   2
ATOM      2  C   UNL     1       2.121   3.659   0.425  0.00  0.00    +0.078 C 
BRANCH   2   7
ATOM      3  O   UNL     1       5.366   1.161  -1.925  0.00  0.00    -0.191 OA
ATOM      4  N   UNL     1       4.469   0.944   0.211  0.00  0.00    -0.151 N 
ATOM      5  N   UNL     1       3.528   1.645   0.900  0.00  0.00    -0.229 N 
ATOM      6  N   UNL     1       3.744   2.620  -1.113  0.00  0.00    -0.308 NA
ATOM      7  C   UNL     1       3.134   2.633   0.049  0.00  0.00    +0.187 C 
ATOM      8  C   UNL     1       4.610   1.529  -1.035  0.00  0.00    +0.286 C 
ATOM      9  H   UNL     1       3.203   1.476   1.814  0.00  0.00    +0.173 HD
BRANCH   4  10
ATOM     10  C   UNL     1       5.115  -0.198   0.795  0.00  0.00    +0.152 C 
BRANCH  10  11
ATOM     11  C   UNL     1       4.364  -1.469   0.523  0.00  0.00    +0.000 C 
ATOM     12  C   UNL     1       4.657  -2.209  -0.616  0.00  0.00    -0.003 C 
ATOM     13  C   UNL     1       3.383  -1.892   1.412  0.00  0.00    -0.003 C 
ATOM     14  C   UNL     1       2.974  -3.822   0.018  0.00  0.00    -0.022 C 
ATOM     15  C   UNL     1       3.959  -3.391  -0.869  0.00  0.00    -0.005 C 
ATOM     16  C   UNL     1       2.686  -3.073   1.159  0.00  0.00    -0.005 C 
ATOM     17  C   UNL     1       2.228  -5.085  -0.253  0.00  0.00    +0.031 C 
ENDBRANCH  10  11
ENDBRANCH   4  10
ENDBRANCH   2   7
ENDBRANCH   1   2
BRANCH   1  18
ATOM     18  C   UNL     1       0.280   1.938   0.763  0.00  0.00    +0.027 C 
BRANCH  18  19
ATOM     19  C   UNL     1      -1.133   1.550   0.410  0.00  0.00    -0.022 C 
ATOM     20  C   UNL     1      -1.358   0.707  -0.668  0.00  0.00    -0.001 C 
ATOM     21  C   UNL     1      -2.184   2.041   1.169  0.00  0.00    -0.001 C 
ATOM     22  C   UNL     1      -3.732   0.833  -0.239  0.00  0.00    +0.139 C 
ATOM     23  C   UNL     1      -2.665   0.346  -0.995  0.00  0.00    +0.037 C 
ATOM     24  C   UNL     1      -3.492   1.681   0.842  0.00  0.00    +0.037 C 
BRANCH  22  25
ATOM     25  O   UNL     1      -5.008   0.483  -0.558  0.00  0.00    -0.472 OA
BRANCH  25  26
ATOM     26  C   UNL     1      -5.533  -0.691   0.060  0.00  0.00    +0.221 C 
ATOM     27  C   UNL     1      -4.663  -1.873  -0.356  0.00  0.00    +0.055 C 
ATOM     28  C   UNL     1      -5.529  -0.472   1.570  0.00  0.00    +0.055 C 
BRANCH  26  30
ATOM     29  O   UNL     1      -7.456  -0.095  -1.309  0.00  0.00    -0.246 OA
ATOM     30  C   UNL     1      -6.952  -0.835  -0.473  0.00  0.00    +0.350 C 
BRANCH  30  31
ATOM     31  O   UNL     1      -7.628  -1.880   0.071  0.00  0.00    -0.478 OA
ATOM     32  H   UNL     1      -7.212  -2.426   0.708  0.00  0.00    +0.295 HD
ENDBRANCH  30  31
ENDBRANCH  26  30
ENDBRANCH  25  26
ENDBRANCH  22  25
ENDBRANCH  18  19
ENDBRANCH   1  18
TORSDOF 10
