REMARK  Name = 4450
REMARK  1 active torsions:
REMARK  status: ('A' for Active; 'I' for Inactive)
REMARK    1  A    between atoms: C_3  and  C_15
REMARK                            x       y       z     vdW  Elec       q    Type
REMARK                         _______ _______ _______ _____ _____    ______ ____
ROOT
ATOM      1  O   UNL     1       0.092   1.600  -0.812  0.00  0.00    -0.350 OA
ATOM      2  N   UNL     1       2.948   1.232   0.175  0.00  0.00    +0.390 N 
ATOM      3  C   UNL     1      -0.479   0.298  -0.941  0.00  0.00    +0.159 C 
ATOM      4  C   UNL     1       0.370  -0.850  -0.394  0.00  0.00    +0.003 C 
ATOM      5  C   UNL     1       1.950   0.606   1.061  0.00  0.00    -0.050 C 
ATOM      6  C   UNL     1       1.448  -0.715   0.507  0.00  0.00    -0.045 C 
ATOM      7  C   UNL     1       2.381   2.293  -0.679  0.00  0.00    -0.044 C 
ATOM      8  C   UNL     1       1.263   1.805  -1.597  0.00  0.00    +0.120 C 
ATOM      9  C   UNL     1       0.027  -2.144  -0.847  0.00  0.00    -0.002 C 
ATOM     10  C   UNL     1       2.151  -1.874   0.904  0.00  0.00    -0.007 C 
ATOM     11  C   UNL     1       4.063   1.777   0.954  0.00  0.00    -0.100 C 
ATOM     12  C   UNL     1       0.727  -3.275  -0.432  0.00  0.00    -0.000 C 
ATOM     13  C   UNL     1       1.792  -3.140   0.444  0.00  0.00    -0.000 C 
ATOM     14  H   UNL     1       3.282   0.491  -0.442  0.00  0.00    -0.079 HD
ENDROOT
BRANCH   3  15
ATOM     15  C   UNL     1      -1.859   0.350  -0.305  0.00  0.00    +0.009 C 
ATOM     16  C   UNL     1      -2.873  -0.478  -0.781  0.00  0.00    -0.002 C 
ATOM     17  C   UNL     1      -2.104   1.226   0.750  0.00  0.00    -0.002 C 
ATOM     18  C   UNL     1      -4.139  -0.430  -0.199  0.00  0.00    -0.000 C 
ATOM     19  C   UNL     1      -3.370   1.274   1.332  0.00  0.00    -0.000 C 
ATOM     20  C   UNL     1      -4.388   0.446   0.858  0.00  0.00    -0.000 C 
ENDBRANCH   3  15
TORSDOF 1
