REMARK  Name = 5282136
REMARK  11 active torsions:
REMARK  status: ('A' for Active; 'I' for Inactive)
REMARK    1  A    between atoms: C_1  and  C_2
REMARK    2  A    between atoms: C_1  and  O_18
REMARK    3  A    between atoms: C_3  and  C_4
REMARK    4  A    between atoms: C_4  and  N_6
REMARK    5  A    between atoms: C_7  and  C_9
REMARK    6  A    between atoms: C_9  and  S_10
REMARK    7  A    between atoms: S_10  and  C_12
REMARK    8  A    between atoms: C_12  and  C_14
REMARK    9  A    between atoms: O_18  and  C_23
REMARK   10  A    between atoms: C_20  and  C_25
REMARK   11  A    between atoms: C_25  and  N_26
REMARK                            x       y       z     vdW  Elec       q    Type
REMARK                         _______ _______ _______ _____ _____    ______ ____
ROOT
ATOM      1  C   UNL     1      -3.890  -0.817  -0.936  0.00  0.00    +0.233 C 
ENDROOT
BRANCH   1   2
ATOM      2  C   UNL     1      -4.364   0.178  -1.944  0.00  0.00    +0.018 C 
ATOM      3  C   UNL     1      -4.809   1.404  -1.630  0.00  0.00    -0.006 C 
BRANCH   3   4
ATOM      4  C   UNL     1      -4.884   1.923  -0.232  0.00  0.00    +0.116 C 
BRANCH   4   6
ATOM      5  O   UNL     1      -3.028   1.272   1.879  0.00  0.00    -0.274 OA
ATOM      6  N   UNL     1      -3.659   2.603   0.082  0.00  0.00    -0.300 N 
ATOM      7  C   UNL     1      -2.822   2.218   1.122  0.00  0.00    +0.236 C 
ATOM      8  H   UNL     1      -3.400   3.378  -0.467  0.00  0.00    +0.150 HD
BRANCH   7   9
ATOM      9  C   UNL     1      -1.583   3.072   1.238  0.00  0.00    +0.177 C 
BRANCH   9  10
ATOM     10  S   UNL     1      -0.238   2.366   0.246  0.00  0.00    +0.059 S 
ATOM     11  O   UNL     1       0.192   1.096   0.917  0.00  0.00    -0.255 OA
BRANCH  10  12
ATOM     12  C   UNL     1       0.975   3.641   0.661  0.00  0.00    +0.156 C 
BRANCH  12  14
ATOM     13  O   UNL     1       3.356   3.181   0.792  0.00  0.00    -0.454 OA
ATOM     14  C   UNL     1       2.283   3.369  -0.019  0.00  0.00    +0.137 C 
ATOM     15  C   UNL     1       2.652   3.263  -1.340  0.00  0.00    +0.037 C 
ATOM     16  C   UNL     1       4.041   2.993  -1.340  0.00  0.00    +0.043 C 
ATOM     17  C   UNL     1       4.422   2.952  -0.019  0.00  0.00    +0.179 C 
ENDBRANCH  12  14
ENDBRANCH  10  12
ENDBRANCH   9  10
ENDBRANCH   7   9
ENDBRANCH   4   6
ENDBRANCH   3   4
ENDBRANCH   1   2
BRANCH   1  18
ATOM     18  O   UNL     1      -2.536  -1.146  -1.220  0.00  0.00    -0.455 OA
BRANCH  18  23
ATOM     19  N   UNL     1      -2.713  -2.620   0.564  0.00  0.00    -0.210 NA
ATOM     20  C   UNL     1      -0.060  -3.408   0.173  0.00  0.00    -0.037 C 
ATOM     21  C   UNL     1      -0.631  -2.447  -0.653  0.00  0.00    +0.051 C 
ATOM     22  C   UNL     1      -0.813  -3.976   1.195  0.00  0.00    +0.015 C 
ATOM     23  C   UNL     1      -1.950  -2.091  -0.418  0.00  0.00    +0.225 C 
ATOM     24  C   UNL     1      -2.123  -3.551   1.347  0.00  0.00    +0.102 C 
BRANCH  20  25
ATOM     25  C   UNL     1       1.369  -3.833  -0.037  0.00  0.00    -0.050 C 
BRANCH  25  26
ATOM     26  N   UNL     1       2.253  -2.687  -0.252  0.00  0.00    +0.390 N 
ATOM     27  C   UNL     1       2.530  -2.007   1.021  0.00  0.00    -0.077 C 
ATOM     28  C   UNL     1       3.496  -3.112  -0.909  0.00  0.00    -0.077 C 
ATOM     29  C   UNL     1       3.413  -0.776   0.808  0.00  0.00    -0.023 C 
ATOM     30  C   UNL     1       4.411  -1.918  -1.186  0.00  0.00    -0.023 C 
ATOM     31  C   UNL     1       4.709  -1.141   0.091  0.00  0.00    -0.004 C 
ATOM     32  H   UNL     1       1.783  -2.023  -0.867  0.00  0.00    -0.079 HD
ENDBRANCH  25  26
ENDBRANCH  20  25
ENDBRANCH  18  23
ENDBRANCH   1  18
TORSDOF 11
