REMARK  Name = 162834
REMARK  1 active torsions:
REMARK  status: ('A' for Active; 'I' for Inactive)
REMARK    1  A    between atoms: N_6  and  C_15
REMARK                            x       y       z     vdW  Elec       q    Type
REMARK                         _______ _______ _______ _____ _____    ______ ____
ROOT
ATOM      1  O   UNL     1      -5.004   1.949   0.001  0.00  0.00    -0.212 OA
ATOM      2  O   UNL     1      -0.305   1.346   0.002  0.00  0.00    -0.252 OA
ATOM      3  N   UNL     1      -3.644  -1.228  -0.022  0.00  0.00    -0.254 N 
ATOM      4  N   UNL     1      -1.278  -0.758  -0.015  0.00  0.00    -0.231 N 
ATOM      5  N   UNL     1      -2.918   0.907  -0.009  0.00  0.00    -0.304 NA
ATOM      6  N   UNL     1       1.007  -0.602  -0.008  0.00  0.00    -0.268 N 
ATOM      7  C   UNL     1      -4.877  -0.476   0.009  0.00  0.00    +0.231 C 
ATOM      8  C   UNL     1      -2.586  -0.358  -0.016  0.00  0.00    +0.258 C 
ATOM      9  C   UNL     1      -4.309   0.942  -0.001  0.00  0.00    +0.204 C 
ATOM     10  C   UNL     1      -3.623  -2.664   0.044  0.00  0.00    +0.117 C 
ATOM     11  C   UNL     1      -0.188   0.123  -0.005  0.00  0.00    +0.311 C 
ATOM     12  H   UNL     1      -1.091  -1.725  -0.021  0.00  0.00    +0.160 HD
ATOM     13  H   UNL     1       0.919  -1.583  -0.015  0.00  0.00    +0.156 HD
ENDROOT
BRANCH   6  15
ATOM     14 CL   UNL     1       6.034  -1.565  -0.010  0.00  0.00    -0.082 Cl
ATOM     15  C   UNL     1       2.328  -0.097  -0.001  0.00  0.00    +0.052 C 
ATOM     16  C   UNL     1       3.394  -0.982  -0.007  0.00  0.00    +0.026 C 
ATOM     17  C   UNL     1       2.529   1.274   0.011  0.00  0.00    +0.015 C 
ATOM     18  C   UNL     1       4.697  -0.482  -0.002  0.00  0.00    +0.059 C 
ATOM     19  C   UNL     1       3.831   1.774   0.017  0.00  0.00    +0.002 C 
ATOM     20  C   UNL     1       4.915   0.896   0.010  0.00  0.00    +0.011 C 
ENDBRANCH   6  15
TORSDOF 1
