REMARK  Name = 67462786
REMARK  9 active torsions:
REMARK  status: ('A' for Active; 'I' for Inactive)
REMARK    1  A    between atoms: N_1  and  C_4
REMARK    2  A    between atoms: N_1  and  C_18
REMARK    3  A    between atoms: N_1  and  C_28
REMARK    4  A    between atoms: C_10  and  C_14
REMARK    5  A    between atoms: C_21  and  O_24
REMARK    6  A    between atoms: C_22  and  O_26
REMARK    7  A    between atoms: C_28  and  C_29
REMARK    8  A    between atoms: C_29  and  N_30
REMARK    9  A    between atoms: N_30  and  C_33
REMARK                            x       y       z     vdW  Elec       q    Type
REMARK                         _______ _______ _______ _____ _____    ______ ____
ROOT
ATOM      1  N   UNL     1      -1.766   0.524  -0.225  0.00  0.00    -0.292 N 
ENDROOT
BRANCH   1   4
ATOM      2  N   UNL     1       3.036   0.425  -0.164  0.00  0.00    -0.407 NA
ATOM      3  N   UNL     1       3.091   3.117   0.522  0.00  0.00    -0.265 NA
ATOM      4  C   UNL     1      -0.535   1.183  -0.034  0.00  0.00    +0.032 C 
ATOM      5  C   UNL     1       0.663   0.489  -0.189  0.00  0.00    +0.101 C 
ATOM      6  C   UNL     1      -0.507   2.527   0.308  0.00  0.00    -0.009 C 
ATOM      7  C   UNL     1       1.893   1.117  -0.008  0.00  0.00    +0.128 C 
ATOM      8  C   UNL     1       1.921   2.480   0.339  0.00  0.00    +0.084 C 
ATOM      9  C   UNL     1       0.718   3.165   0.492  0.00  0.00    +0.075 C 
ATOM     10  C   UNL     1       4.196   1.081   0.024  0.00  0.00    +0.136 C 
ATOM     11  C   UNL     1       4.223   2.407   0.362  0.00  0.00    +0.184 C 
BRANCH  10  14
ATOM     12  N   UNL     1       6.753  -1.342  -0.549  0.00  0.00    -0.208 N 
ATOM     13  N   UNL     1       7.586  -0.323  -0.276  0.00  0.00    -0.176 NA
ATOM     14  C   UNL     1       5.399   0.325  -0.149  0.00  0.00    +0.064 C 
ATOM     15  C   UNL     1       5.433  -1.007  -0.486  0.00  0.00    +0.088 C 
ATOM     16  C   UNL     1       6.753   0.692  -0.033  0.00  0.00    +0.121 C 
ATOM     17  C   UNL     1       7.292  -2.642  -0.869  0.00  0.00    +0.140 C 
ENDBRANCH  10  14
ENDBRANCH   1   4
BRANCH   1  18
ATOM     18  C   UNL     1      -2.036  -0.854   0.010  0.00  0.00    +0.057 C 
ATOM     19  C   UNL     1      -2.470  -1.667  -1.037  0.00  0.00    +0.052 C 
ATOM     20  C   UNL     1      -1.867  -1.391   1.286  0.00  0.00    +0.052 C 
ATOM     21  C   UNL     1      -2.132  -2.741   1.516  0.00  0.00    +0.143 C 
ATOM     22  C   UNL     1      -2.736  -3.017  -0.807  0.00  0.00    +0.143 C 
ATOM     23  C   UNL     1      -2.567  -3.554   0.469  0.00  0.00    +0.074 C 
BRANCH  21  24
ATOM     24  O   UNL     1      -1.968  -3.264   2.761  0.00  0.00    -0.471 OA
ATOM     25  C   UNL     1      -1.522  -2.377   3.785  0.00  0.00    +0.252 C 
ENDBRANCH  21  24
BRANCH  22  26
ATOM     26  O   UNL     1      -3.161  -3.811  -1.828  0.00  0.00    -0.471 OA
ATOM     27  C   UNL     1      -3.313  -3.196  -3.107  0.00  0.00    +0.252 C 
ENDBRANCH  22  26
ENDBRANCH   1  18
BRANCH   1  28
ATOM     28  C   UNL     1      -2.822   1.234  -0.967  0.00  0.00    +0.072 C 
BRANCH  28  29
ATOM     29  C   UNL     1      -4.036   1.430  -0.068  0.00  0.00    -0.059 C 
BRANCH  29  30
ATOM     30  N   UNL     1      -5.088   2.138  -0.784  0.00  0.00    +0.386 N 
ATOM     31  H   UNL     1      -5.354   1.598  -1.608  0.00  0.00    -0.084 HD
ATOM     32  H   UNL     1      -4.736   3.055  -1.058  0.00  0.00    -0.084 HD
BRANCH  30  33
ATOM     33  C   UNL     1      -6.259   2.324   0.061  0.00  0.00    -0.062 C 
ATOM     34  C   UNL     1      -7.085   1.041   0.111  0.00  0.00    -0.023 C 
ATOM     35  C   UNL     1      -7.089   3.489  -0.469  0.00  0.00    -0.023 C 
ENDBRANCH  30  33
ENDBRANCH  29  30
ENDBRANCH  28  29
ENDBRANCH   1  28
TORSDOF 9
