REMARK  Name = 10161381
REMARK  11 active torsions:
REMARK  status: ('A' for Active; 'I' for Inactive)
REMARK    1  A    between atoms: C_2  and  C_10
REMARK    2  A    between atoms: C_5  and  C_23
REMARK    3  A    between atoms: N_9  and  C_12
REMARK    4  A    between atoms: C_12  and  C_13
REMARK    5  A    between atoms: C_23  and  C_24
REMARK    6  A    between atoms: C_24  and  C_25
REMARK    7  A    between atoms: C_25  and  N_26
REMARK    8  A    between atoms: N_26  and  C_29
REMARK    9  A    between atoms: C_29  and  C_30
REMARK   10  A    between atoms: C_30  and  C_31
REMARK   11  A    between atoms: C_31  and  O_32
REMARK                            x       y       z     vdW  Elec       q    Type
REMARK                         _______ _______ _______ _____ _____    ______ ____
ROOT
ATOM      1 CL   UNL     1      -2.103  -5.055   1.162  0.00  0.00    -0.082 Cl
ATOM      2  C   UNL     1      -0.995  -2.860  -0.022  0.00  0.00    +0.064 C 
ATOM      3  C   UNL     1       0.041  -2.138  -0.585  0.00  0.00    +0.001 C 
ATOM      4  C   UNL     1      -0.818  -4.144   0.453  0.00  0.00    +0.062 C 
ATOM      5  C   UNL     1       1.303  -2.726  -0.676  0.00  0.00    -0.022 C 
ATOM      6  C   UNL     1       0.444  -4.731   0.362  0.00  0.00    +0.011 C 
ATOM      7  C   UNL     1       1.504  -4.022  -0.202  0.00  0.00    -0.003 C 
ENDROOT
BRANCH   2  10
ATOM      8  O   UNL     1      -3.281  -2.699  -0.520  0.00  0.00    -0.270 OA
ATOM      9  N   UNL     1      -2.382  -1.022   0.809  0.00  0.00    -0.301 N 
ATOM     10  C   UNL     1      -2.320  -2.192   0.054  0.00  0.00    +0.247 C 
ATOM     11  H   UNL     1      -1.557  -0.692   1.233  0.00  0.00    +0.150 HD
BRANCH   9  12
ATOM     12  C   UNL     1      -3.590  -0.281   0.996  0.00  0.00    +0.090 C 
BRANCH  12  13
ATOM     13  C   UNL     1      -3.445   1.145   0.456  0.00  0.00    +0.018 C 
ATOM     14  C   UNL     1      -4.617   3.366   0.119  0.00  0.00    +0.000 C 
ATOM     15  C   UNL     1      -2.970   2.546  -1.602  0.00  0.00    +0.000 C 
ATOM     16  C   UNL     1      -2.155   3.318   0.654  0.00  0.00    +0.000 C 
ATOM     17  C   UNL     1      -4.760   1.933   0.661  0.00  0.00    +0.002 C 
ATOM     18  C   UNL     1      -3.117   1.115  -1.056  0.00  0.00    +0.002 C 
ATOM     19  C   UNL     1      -2.304   1.885   1.194  0.00  0.00    +0.002 C 
ATOM     20  C   UNL     1      -4.287   3.310  -1.381  0.00  0.00    +0.000 C 
ATOM     21  C   UNL     1      -3.475   4.078   0.864  0.00  0.00    +0.000 C 
ATOM     22  C   UNL     1      -1.837   3.261  -0.850  0.00  0.00    +0.000 C 
ENDBRANCH  12  13
ENDBRANCH   9  12
ENDBRANCH   2  10
BRANCH   5  23
ATOM     23  C   UNL     1       2.437  -1.968  -1.279  0.00  0.00    +0.024 C 
BRANCH  23  24
ATOM     24  C   UNL     1       3.214  -1.152  -0.234  0.00  0.00    -0.019 C 
BRANCH  24  25
ATOM     25  C   UNL     1       4.397  -0.415  -0.860  0.00  0.00    -0.081 C 
BRANCH  25  26
ATOM     26  N   UNL     1       5.100   0.365   0.152  0.00  0.00    +0.384 N 
ATOM     27  H   UNL     1       5.446  -0.264   0.877  0.00  0.00    -0.085 HD
ATOM     28  H   UNL     1       4.451   1.044   0.549  0.00  0.00    -0.085 HD
BRANCH  26  29
ATOM     29  C   UNL     1       6.224   1.081  -0.433  0.00  0.00    -0.079 C 
BRANCH  29  30
ATOM     30  C   UNL     1       6.945   1.899   0.634  0.00  0.00    +0.008 C 
BRANCH  30  31
ATOM     31  C   UNL     1       8.114   2.678   0.047  0.00  0.00    +0.135 C 
BRANCH  31  32
ATOM     32  O   UNL     1       8.733   3.428   1.083  0.00  0.00    -0.382 OA
ATOM     33  H   UNL     1       9.480   3.928   0.718  0.00  0.00    +0.210 HD
ENDBRANCH  31  32
ENDBRANCH  30  31
ENDBRANCH  29  30
ENDBRANCH  26  29
ENDBRANCH  25  26
ENDBRANCH  24  25
ENDBRANCH  23  24
ENDBRANCH   5  23
TORSDOF 11
