REMARK  Name = 11152667
REMARK  4 active torsions:
REMARK  status: ('A' for Active; 'I' for Inactive)
REMARK    1  A    between atoms: C_2  and  C_22
REMARK    2  A    between atoms: C_3  and  N_14
REMARK    3  A    between atoms: C_4  and  C_7
REMARK    4  A    between atoms: N_21  and  C_25
REMARK                            x       y       z     vdW  Elec       q    Type
REMARK                         _______ _______ _______ _____ _____    ______ ____
ROOT
ATOM      1  S   UNL     1      -0.121  -0.686  -0.335  0.00  0.00    -0.081 S 
ATOM      2  C   UNL     1       0.582   0.839  -0.191  0.00  0.00    +0.096 C 
ATOM      3  C   UNL     1      -0.274   1.864  -0.056  0.00  0.00    +0.062 C 
ATOM      4  C   UNL     1      -1.678   0.018  -0.214  0.00  0.00    +0.031 C 
ATOM      5  C   UNL     1      -1.617   1.386  -0.068  0.00  0.00    +0.022 C 
ENDROOT
BRANCH   4   7
ATOM      6  F   UNL     1      -4.988  -2.732   1.969  0.00  0.00    -0.204 F 
ATOM      7  C   UNL     1      -2.838  -0.840  -0.273  0.00  0.00    +0.008 C 
ATOM      8  C   UNL     1      -3.363  -1.382   0.900  0.00  0.00    +0.030 C 
ATOM      9  C   UNL     1      -3.432  -1.124  -1.501  0.00  0.00    +0.001 C 
ATOM     10  C   UNL     1      -4.484  -2.210   0.843  0.00  0.00    +0.140 C 
ATOM     11  C   UNL     1      -4.553  -1.952  -1.558  0.00  0.00    +0.002 C 
ATOM     12  C   UNL     1      -5.079  -2.495  -0.386  0.00  0.00    +0.030 C 
ENDBRANCH   4   7
BRANCH   3  14
ATOM     13  O   UNL     1      -1.997   4.292   0.257  0.00  0.00    -0.253 OA
ATOM     14  N   UNL     1       0.080   3.192   0.077  0.00  0.00    -0.268 N 
ATOM     15  N   UNL     1      -0.049   5.484   0.328  0.00  0.00    -0.313 N 
ATOM     16  C   UNL     1      -0.769   4.301   0.221  0.00  0.00    +0.301 C 
ATOM     17  H   UNL     1       1.045   3.385   0.070  0.00  0.00    +0.156 HD
ATOM     18  H   UNL     1      -0.523   6.340   0.434  0.00  0.00    +0.146 HD
ATOM     19  H   UNL     1       0.935   5.466   0.297  0.00  0.00    +0.146 HD
ENDBRANCH   3  14
BRANCH   2  22
ATOM     20  O   UNL     1       2.626   1.986  -0.107  0.00  0.00    -0.270 OA
ATOM     21  N   UNL     1       2.719  -0.316  -0.378  0.00  0.00    -0.304 N 
ATOM     22  C   UNL     1       2.066   0.899  -0.228  0.00  0.00    +0.253 C 
ATOM     23  H   UNL     1       2.180  -1.135  -0.468  0.00  0.00    +0.150 HD
BRANCH  21  25
ATOM     24  N   UNL     1       4.289  -2.889  -0.732  0.00  0.00    +0.385 N 
ATOM     25  C   UNL     1       4.162  -0.425  -0.407  0.00  0.00    +0.051 C 
ATOM     26  C   UNL     1       4.731  -0.583   1.006  0.00  0.00    +0.015 C 
ATOM     27  C   UNL     1       4.464  -1.982   1.560  0.00  0.00    -0.022 C 
ATOM     28  C   UNL     1       4.611  -1.581  -1.309  0.00  0.00    -0.062 C 
ATOM     29  C   UNL     1       4.912  -3.063   0.580  0.00  0.00    -0.082 C 
ATOM     30  H   UNL     1       4.627  -3.620  -1.359  0.00  0.00    -0.084 HD
ATOM     31  H   UNL     1       3.278  -2.949  -0.617  0.00  0.00    -0.084 HD
ENDBRANCH  21  25
ENDBRANCH   2  22
TORSDOF 4
