REMARK  Name = 24988948
REMARK  5 active torsions:
REMARK  status: ('A' for Active; 'I' for Inactive)
REMARK    1  A    between atoms: N_2  and  C_21
REMARK    2  A    between atoms: C_6  and  O_11
REMARK    3  A    between atoms: O_11  and  C_13
REMARK    4  A    between atoms: C_16  and  C_20
REMARK    5  A    between atoms: C_21  and  C_25
REMARK                            x       y       z     vdW  Elec       q    Type
REMARK                         _______ _______ _______ _____ _____    ______ ____
ROOT
ATOM      1 CL   UNL     1       1.786  -3.962   1.736  0.00  0.00    -0.079 Cl
ATOM      2  N   UNL     1      -1.138  -0.322  -1.745  0.00  0.00    -0.205 N 
ATOM      3  N   UNL     1      -0.178   0.408  -2.338  0.00  0.00    -0.176 NA
ATOM      4  C   UNL     1      -0.667  -1.260  -0.866  0.00  0.00    +0.074 C 
ATOM      5  C   UNL     1       0.716  -1.125  -0.893  0.00  0.00    +0.071 C 
ATOM      6  C   UNL     1       1.505  -1.961  -0.085  0.00  0.00    +0.158 C 
ATOM      7  C   UNL     1       0.949  -0.084  -1.817  0.00  0.00    +0.122 C 
ATOM      8  C   UNL     1      -1.326  -2.196  -0.066  0.00  0.00    +0.017 C 
ATOM      9  C   UNL     1       0.864  -2.907   0.725  0.00  0.00    +0.092 C 
ATOM     10  C   UNL     1      -0.527  -3.021   0.733  0.00  0.00    +0.016 C 
ENDROOT
BRANCH   6  11
ATOM     11  O   UNL     1       2.869  -1.849  -0.092  0.00  0.00    -0.453 OA
BRANCH  11  13
ATOM     12 CL   UNL     1       2.864   2.075   3.174  0.00  0.00    -0.082 Cl
ATOM     13  C   UNL     1       3.409  -0.634   0.282  0.00  0.00    +0.147 C 
ATOM     14  C   UNL     1       4.442  -0.070  -0.467  0.00  0.00    +0.048 C 
ATOM     15  C   UNL     1       2.921   0.030   1.407  0.00  0.00    +0.049 C 
ATOM     16  C   UNL     1       4.987   1.157  -0.090  0.00  0.00    +0.072 C 
ATOM     17  C   UNL     1       3.466   1.257   1.785  0.00  0.00    +0.061 C 
ATOM     18  C   UNL     1       4.499   1.821   1.036  0.00  0.00    +0.022 C 
BRANCH  16  20
ATOM     19  N   UNL     1       6.905   2.202  -1.480  0.00  0.00    -0.191 NA
ATOM     20  C   UNL     1       6.046   1.734  -0.857  0.00  0.00    +0.101 C 
ENDBRANCH  16  20
ENDBRANCH  11  13
ENDBRANCH   6  11
BRANCH   2  21
ATOM     21  C   UNL     1      -2.521  -0.063  -2.073  0.00  0.00    +0.159 C 
BRANCH  21  25
ATOM     22  N   UNL     1      -2.804   1.973  -0.623  0.00  0.00    -0.230 N 
ATOM     23  N   UNL     1      -3.563   2.561   0.326  0.00  0.00    -0.128 NA
ATOM     24  N   UNL     1      -5.576   1.767   1.422  0.00  0.00    -0.192 NA
ATOM     25  C   UNL     1      -3.244   0.741  -1.021  0.00  0.00    +0.071 C 
ATOM     26  C   UNL     1      -4.369   0.515  -0.277  0.00  0.00    +0.058 C 
ATOM     27  C   UNL     1      -4.535   1.669   0.548  0.00  0.00    +0.049 C 
ATOM     28  C   UNL     1      -5.170  -0.616  -0.333  0.00  0.00    +0.065 C 
ATOM     29  C   UNL     1      -6.231  -0.495   0.571  0.00  0.00    +0.001 C 
ATOM     30  C   UNL     1      -6.380   0.656   1.381  0.00  0.00    +0.105 C 
ATOM     31  H   UNL     1      -1.998   2.397  -0.997  0.00  0.00    +0.175 HD
ENDBRANCH  21  25
ENDBRANCH   2  21
TORSDOF 5
