REMARK  Name = 56928390
REMARK  4 active torsions:
REMARK  status: ('A' for Active; 'I' for Inactive)
REMARK    1  A    between atoms: C_3  and  C_19
REMARK    2  A    between atoms: C_4  and  C_14
REMARK    3  A    between atoms: C_19  and  N_20
REMARK    4  A    between atoms: C_19  and  C_35
REMARK                            x       y       z     vdW  Elec       q    Type
REMARK                         _______ _______ _______ _____ _____    ______ ____
ROOT
ATOM      1 CL   UNL     1      -4.440  -3.300   1.424  0.00  0.00    -0.103 Cl
ATOM      2  N   UNL     1      -2.586  -1.151   0.546  0.00  0.00    -0.405 NA
ATOM      3  C   UNL     1      -0.625  -0.222  -0.512  0.00  0.00    +0.033 C 
ATOM      4  C   UNL     1      -1.807  -0.104   0.191  0.00  0.00    +0.130 C 
ATOM      5  C   UNL     1      -0.219  -1.498  -0.873  0.00  0.00    +0.002 C 
ATOM      6  C   UNL     1      -0.997  -2.611  -0.525  0.00  0.00    +0.027 C 
ATOM      7  C   UNL     1      -2.190  -2.388   0.195  0.00  0.00    +0.128 C 
ATOM      8  C   UNL     1      -0.613  -3.916  -0.876  0.00  0.00    +0.002 C 
ATOM      9  C   UNL     1      -2.962  -3.494   0.540  0.00  0.00    +0.154 C 
ATOM     10  C   UNL     1      -1.405  -5.004  -0.518  0.00  0.00    -0.003 C 
ATOM     11  C   UNL     1      -2.581  -4.792   0.191  0.00  0.00    -0.003 C 
ENDROOT
BRANCH   4  14
ATOM     12  O   UNL     1      -4.458   3.776  -0.596  0.00  0.00    -0.163 OA
ATOM     13  N   UNL     1      -3.676   3.127   0.171  0.00  0.00    -0.127 N 
ATOM     14  C   UNL     1      -2.320   1.180   0.615  0.00  0.00    +0.050 C 
ATOM     15  C   UNL     1      -3.174   1.899  -0.214  0.00  0.00    +0.124 C 
ATOM     16  C   UNL     1      -1.965   1.706   1.853  0.00  0.00    +0.006 C 
ATOM     17  C   UNL     1      -2.466   2.941   2.251  0.00  0.00    +0.022 C 
ATOM     18  C   UNL     1      -3.318   3.639   1.403  0.00  0.00    +0.121 C 
ENDBRANCH   4  14
BRANCH   3  19
ATOM     19  C   UNL     1       0.209   0.954  -0.887  0.00  0.00    +0.192 C 
BRANCH  19  20
ATOM     20  N   UNL     1       1.627   0.616  -0.904  0.00  0.00    -0.308 N 
ATOM     21  N   UNL     1       1.792   0.799   1.411  0.00  0.00    -0.228 NA
ATOM     22  N   UNL     1       4.274  -0.032  -1.121  0.00  0.00    -0.240 NA
ATOM     23  N   UNL     1       3.900   0.401   2.484  0.00  0.00    -0.247 NA
ATOM     24  C   UNL     1       2.399   0.543   0.235  0.00  0.00    +0.145 C 
ATOM     25  C   UNL     1       3.733   0.212   0.090  0.00  0.00    +0.126 C 
ATOM     26  C   UNL     1       4.459   0.154   1.286  0.00  0.00    +0.081 C 
ATOM     27  C   UNL     1       5.806  -0.176   1.183  0.00  0.00    +0.075 C 
ATOM     28  C   UNL     1       2.591   0.712   2.482  0.00  0.00    +0.252 C 
ATOM     29  C   UNL     1       5.585  -0.348  -1.168  0.00  0.00    +0.095 C 
ATOM     30  C   UNL     1       6.390  -0.432  -0.052  0.00  0.00    +0.001 C 
ATOM     31  H   UNL     1       2.053   0.431  -1.772  0.00  0.00    +0.149 HD
ENDBRANCH  19  20
BRANCH  19  35
ATOM     32  F   UNL     1       0.648   2.599  -2.557  0.00  0.00    -0.168 F 
ATOM     33  F   UNL     1      -0.022   0.641  -3.228  0.00  0.00    -0.168 F 
ATOM     34  F   UNL     1      -1.431   2.008  -2.273  0.00  0.00    -0.168 F 
ATOM     35  C   UNL     1      -0.159   1.559  -2.244  0.00  0.00    +0.418 C 
ENDBRANCH  19  35
ENDBRANCH   3  19
TORSDOF 4
