REMARK  Name = 11269353
REMARK  8 active torsions:
REMARK  status: ('A' for Active; 'I' for Inactive)
REMARK    1  A    between atoms: C_1  and  N_2
REMARK    2  A    between atoms: C_1  and  C_13
REMARK    3  A    between atoms: C_1  and  C_22
REMARK    4  A    between atoms: N_2  and  S_4
REMARK    5  A    between atoms: S_4  and  C_9
REMARK    6  A    between atoms: C_13  and  C_17
REMARK    7  A    between atoms: C_13  and  C_21
REMARK    8  A    between atoms: C_22  and  O_23
REMARK                            x       y       z     vdW  Elec       q    Type
REMARK                         _______ _______ _______ _____ _____    ______ ____
ROOT
ATOM      1  C   UNL     1       0.920  -0.894  -0.337  0.00  0.00    +0.121 C 
ENDROOT
BRANCH   1   2
ATOM      2  N   UNL     1       0.117  -1.541   0.738  0.00  0.00    -0.177 NA
ATOM      3  H   UNL     1       0.627  -2.371   1.042  0.00  0.00    +0.149 HD
BRANCH   2   4
ATOM      4  S   UNL     1      -1.473  -2.031   0.353  0.00  0.00    +0.066 S 
ATOM      5  O   UNL     1      -2.138  -2.505   1.552  0.00  0.00    -0.153 OA
ATOM      6  O   UNL     1      -1.431  -2.834  -0.853  0.00  0.00    -0.153 OA
BRANCH   4   9
ATOM      7 CL   UNL     1      -4.173   3.038   0.648  0.00  0.00    -0.075 Cl
ATOM      8  S   UNL     1      -2.692   0.509   1.129  0.00  0.00    -0.056 S 
ATOM      9  C   UNL     1      -2.375  -0.565  -0.147  0.00  0.00    +0.152 C 
ATOM     10  C   UNL     1      -2.852  -0.157  -1.347  0.00  0.00    +0.028 C 
ATOM     11  C   UNL     1      -3.514   1.099  -1.232  0.00  0.00    +0.020 C 
ATOM     12  C   UNL     1      -3.501   1.575   0.061  0.00  0.00    +0.088 C 
ENDBRANCH   4   9
ENDBRANCH   2   4
ENDBRANCH   1   2
BRANCH   1  13
ATOM     13  C   UNL     1       1.297   0.555   0.060  0.00  0.00    +0.208 C 
BRANCH  13  17
ATOM     14  F   UNL     1       1.523   0.121   2.400  0.00  0.00    -0.170 F 
ATOM     15  F   UNL     1       3.325   0.029   1.179  0.00  0.00    -0.170 F 
ATOM     16  F   UNL     1       2.426   1.952   1.630  0.00  0.00    -0.170 F 
ATOM     17  C   UNL     1       2.140   0.666   1.331  0.00  0.00    +0.407 C 
ENDBRANCH  13  17
BRANCH  13  21
ATOM     18  F   UNL     1       2.239   2.571  -0.777  0.00  0.00    -0.170 F 
ATOM     19  F   UNL     1       3.158   0.709  -1.436  0.00  0.00    -0.170 F 
ATOM     20  F   UNL     1       1.199   1.294  -2.198  0.00  0.00    -0.170 F 
ATOM     21  C   UNL     1       1.984   1.282  -1.097  0.00  0.00    +0.407 C 
ENDBRANCH  13  21
ENDBRANCH   1  13
BRANCH   1  22
ATOM     22  C   UNL     1       2.127  -1.783  -0.642  0.00  0.00    +0.155 C 
BRANCH  22  23
ATOM     23  O   UNL     1       1.693  -3.088  -1.016  0.00  0.00    -0.381 OA
ATOM     24  H   UNL     1       2.465  -3.643  -1.208  0.00  0.00    +0.211 HD
ENDBRANCH  22  23
ENDBRANCH   1  22
TORSDOF 8
