REMARK  Name = 135564985
REMARK  5 active torsions:
REMARK  status: ('A' for Active; 'I' for Inactive)
REMARK    1  A    between atoms: N_2  and  C_9
REMARK    2  A    between atoms: C_5  and  C_19
REMARK    3  A    between atoms: C_18  and  C_24
REMARK    4  A    between atoms: C_21  and  O_27
REMARK    5  A    between atoms: C_22  and  O_29
REMARK                            x       y       z     vdW  Elec       q    Type
REMARK                         _______ _______ _______ _____ _____    ______ ____
ROOT
ATOM      1  O   UNL     1      -1.177   4.154  -0.805  0.00  0.00    -0.245 OA
ATOM      2  N   UNL     1      -0.078   2.127  -0.251  0.00  0.00    -0.242 N 
ATOM      3  N   UNL     1       1.984   3.013  -0.069  0.00  0.00    -0.151 NA
ATOM      4  N   UNL     1       1.109   3.993  -0.405  0.00  0.00    -0.226 N 
ATOM      5  C   UNL     1       1.259   1.932  -0.007  0.00  0.00    +0.173 A 
ATOM      6  C   UNL     1      -0.189   3.485  -0.539  0.00  0.00    +0.349 A 
ATOM      7  H   UNL     1       1.354   4.938  -0.536  0.00  0.00    +0.194 HD
ENDROOT
BRANCH   2   9
ATOM      8  N   UNL     1      -4.241  -1.485   0.310  0.00  0.00    -0.284 N 
ATOM      9  C   UNL     1      -1.177   1.232  -0.155  0.00  0.00    +0.070 C 
ATOM     10  C   UNL     1      -3.324  -0.500   0.021  0.00  0.00    +0.052 C 
ATOM     11  C   UNL     1      -2.233  -0.691   0.873  0.00  0.00    +0.016 C 
ATOM     12  C   UNL     1      -1.140   0.193   0.783  0.00  0.00    +0.019 C 
ATOM     13  C   UNL     1      -2.278   1.398  -0.992  0.00  0.00    +0.019 C 
ATOM     14  C   UNL     1      -3.374   0.534  -0.921  0.00  0.00    +0.016 C 
ATOM     15  C   UNL     1      -2.529  -1.823   1.683  0.00  0.00    +0.017 C 
ATOM     16  C   UNL     1      -3.770  -2.289   1.313  0.00  0.00    +0.065 C 
ATOM     17  C   UNL     1      -5.522  -1.659  -0.340  0.00  0.00    +0.117 C 
ENDBRANCH   2   9
BRANCH   5  19
ATOM     18  C   UNL     1       2.306  -1.632  -0.530  0.00  0.00    +0.011 C 
ATOM     19  C   UNL     1       1.879   0.623   0.225  0.00  0.00    +0.070 C 
ATOM     20  C   UNL     1       1.726  -0.380  -0.733  0.00  0.00    +0.005 C 
ATOM     21  C   UNL     1       3.039  -1.881   0.631  0.00  0.00    +0.133 C 
ATOM     22  C   UNL     1       2.612   0.374   1.385  0.00  0.00    +0.140 C 
ATOM     23  C   UNL     1       3.192  -0.878   1.588  0.00  0.00    +0.073 C 
BRANCH  18  24
ATOM     24  C   UNL     1       2.132  -2.694  -1.565  0.00  0.00    +0.025 C 
ATOM     25  C   UNL     1       0.656  -3.087  -1.760  0.00  0.00    +0.005 C 
ATOM     26  C   UNL     1       2.753  -2.302  -2.918  0.00  0.00    +0.005 C 
ENDBRANCH  18  24
BRANCH  21  27
ATOM     27  O   UNL     1       3.612  -3.099   0.845  0.00  0.00    -0.506 OA
ATOM     28  H   UNL     1       3.516  -3.780   0.209  0.00  0.00    +0.292 HD
ENDBRANCH  21  27
BRANCH  22  29
ATOM     29  O   UNL     1       2.773   1.341   2.332  0.00  0.00    -0.505 OA
ATOM     30  H   UNL     1       2.388   2.186   2.209  0.00  0.00    +0.292 HD
ENDBRANCH  22  29
ENDBRANCH   5  19
TORSDOF 5
