REMARK  Name = 24871506
REMARK  7 active torsions:
REMARK  status: ('A' for Active; 'I' for Inactive)
REMARK    1  A    between atoms: C_4  and  C_13
REMARK    2  A    between atoms: C_7  and  O_26
REMARK    3  A    between atoms: C_10  and  O_28
REMARK    4  A    between atoms: C_16  and  O_21
REMARK    5  A    between atoms: O_21  and  C_22
REMARK    6  A    between atoms: C_22  and  C_23
REMARK    7  A    between atoms: C_23  and  O_24
REMARK                            x       y       z     vdW  Elec       q    Type
REMARK                         _______ _______ _______ _____ _____    ______ ____
ROOT
ATOM      1  O   UNL     1      -2.533   2.829   0.570  0.00  0.00    -0.209 OA
ATOM      2  N   UNL     1      -0.976  -0.816  -0.003  0.00  0.00    -0.287 N 
ATOM      3  N   UNL     1      -0.671   1.505   0.402  0.00  0.00    -0.317 NA
ATOM      4  C   UNL     1      -0.197   0.304   0.209  0.00  0.00    +0.197 C 
ATOM      5  C   UNL     1      -2.369  -0.696  -0.024  0.00  0.00    +0.068 C 
ATOM      6  C   UNL     1      -2.944   0.565   0.167  0.00  0.00    +0.142 C 
ATOM      7  C   UNL     1      -4.332   0.727   0.145  0.00  0.00    +0.155 C 
ATOM      8  C   UNL     1      -3.197  -1.800  -0.244  0.00  0.00    +0.053 C 
ATOM      9  C   UNL     1      -2.037   1.720   0.396  0.00  0.00    +0.210 C 
ATOM     10  C   UNL     1      -4.584  -1.642  -0.266  0.00  0.00    +0.143 C 
ATOM     11  C   UNL     1      -5.150  -0.382  -0.072  0.00  0.00    +0.075 C 
ATOM     12  H   UNL     1      -0.553  -1.694  -0.138  0.00  0.00    +0.155 HD
ENDROOT
BRANCH   4  13
ATOM     13  C   UNL     1       1.292   0.147   0.227  0.00  0.00    +0.045 C 
ATOM     14  C   UNL     1       3.250  -1.199   0.666  0.00  0.00    +0.012 C 
ATOM     15  C   UNL     1       3.496   1.056  -0.164  0.00  0.00    +0.012 C 
ATOM     16  C   UNL     1       4.067  -0.144   0.260  0.00  0.00    +0.131 C 
ATOM     17  C   UNL     1       1.863  -1.054   0.650  0.00  0.00    +0.003 C 
ATOM     18  C   UNL     1       2.109   1.202  -0.180  0.00  0.00    +0.003 C 
ATOM     19  C   UNL     1       3.842  -2.492   1.122  0.00  0.00    +0.034 C 
ATOM     20  C   UNL     1       4.354   2.197  -0.601  0.00  0.00    +0.034 C 
BRANCH  16  21
ATOM     21  O   UNL     1       5.423  -0.286   0.276  0.00  0.00    -0.473 OA
BRANCH  21  22
ATOM     22  C   UNL     1       6.035  -0.790  -0.908  0.00  0.00    +0.237 C 
BRANCH  22  23
ATOM     23  C   UNL     1       7.536  -0.852  -0.702  0.00  0.00    +0.185 C 
BRANCH  23  24
ATOM     24  O   UNL     1       8.024   0.460  -0.445  0.00  0.00    -0.378 OA
ATOM     25  H   UNL     1       8.984   0.427  -0.312  0.00  0.00    +0.211 HD
ENDBRANCH  23  24
ENDBRANCH  22  23
ENDBRANCH  21  22
ENDBRANCH  16  21
ENDBRANCH   4  13
BRANCH   7  26
ATOM     26  O   UNL     1      -4.938   1.933   0.327  0.00  0.00    -0.471 OA
ATOM     27  C   UNL     1      -5.182   2.719  -0.838  0.00  0.00    +0.253 C 
ENDBRANCH   7  26
BRANCH  10  28
ATOM     28  O   UNL     1      -5.387  -2.721  -0.479  0.00  0.00    -0.471 OA
ATOM     29  C   UNL     1      -6.794  -2.491  -0.490  0.00  0.00    +0.252 C 
ENDBRANCH  10  28
TORSDOF 7
