REMARK  Name = 90753074
REMARK  11 active torsions:
REMARK  status: ('A' for Active; 'I' for Inactive)
REMARK    1  A    between atoms: C_3  and  C_9
REMARK    2  A    between atoms: C_6  and  C_25
REMARK    3  A    between atoms: N_8  and  C_11
REMARK    4  A    between atoms: C_11  and  C_12
REMARK    5  A    between atoms: C_17  and  C_20
REMARK    6  A    between atoms: N_19  and  C_20
REMARK    7  A    between atoms: N_19  and  O_23
REMARK    8  A    between atoms: C_25  and  C_27
REMARK    9  A    between atoms: C_25  and  O_37
REMARK   10  A    between atoms: C_30  and  O_33
REMARK   11  A    between atoms: O_33  and  C_36
REMARK                            x       y       z     vdW  Elec       q    Type
REMARK                         _______ _______ _______ _____ _____    ______ ____
ROOT
ATOM      1  O   UNL     1       0.303   1.100  -0.138  0.00  0.00    -0.272 OA
ATOM      2  N   UNL     1       0.776   3.338  -0.374  0.00  0.00    -0.271 N 
ATOM      3  C   UNL     1      -0.225   4.024   0.434  0.00  0.00    +0.154 C 
ATOM      4  C   UNL     1       0.297   5.326  -0.199  0.00  0.00    +0.051 C 
ATOM      5  C   UNL     1       1.474   4.540  -0.781  0.00  0.00    +0.096 C 
ATOM      6  C   UNL     1       1.019   2.005  -0.565  0.00  0.00    +0.257 C 
ENDROOT
BRANCH   3   9
ATOM      7  O   UNL     1      -2.164   3.627  -0.981  0.00  0.00    -0.273 OA
ATOM      8  N   UNL     1      -2.361   3.213   1.287  0.00  0.00    -0.299 N 
ATOM      9  C   UNL     1      -1.672   3.611   0.151  0.00  0.00    +0.241 C 
ATOM     10  H   UNL     1      -1.891   3.232   2.152  0.00  0.00    +0.150 HD
BRANCH   8  11
ATOM     11  C   UNL     1      -3.738   2.772   1.264  0.00  0.00    +0.116 C 
BRANCH  11  12
ATOM     12  C   UNL     1      -3.850   1.290   1.052  0.00  0.00    -0.003 C 
ATOM     13  C   UNL     1      -4.543   0.794  -0.052  0.00  0.00    -0.003 C 
ATOM     14  C   UNL     1      -3.262   0.409   1.960  0.00  0.00    -0.003 C 
ATOM     15  C   UNL     1      -4.647  -0.583  -0.249  0.00  0.00    +0.003 C 
ATOM     16  C   UNL     1      -3.366  -0.967   1.763  0.00  0.00    +0.003 C 
ATOM     17  C   UNL     1      -4.059  -1.464   0.658  0.00  0.00    +0.036 C 
BRANCH  17  19
ATOM     18  N   UNL     1      -4.178  -3.760   1.558  0.00  0.00    -0.381 N 
ATOM     19  C   UNL     1      -4.166  -2.899   0.453  0.00  0.00    +0.160 C 
ATOM     20  H   UNL     1      -4.251  -4.732   1.424  0.00  0.00    +0.157 HD
ATOM     21  H   UNL     1      -4.114  -3.392   2.469  0.00  0.00    +0.157 HD
BRANCH  19  22
ATOM     22  N   UNL     1      -4.256  -3.354  -0.788  0.00  0.00    -0.114 NA
BRANCH  22  23
ATOM     23  O   UNL     1      -4.357  -4.752  -0.834  0.00  0.00    -0.232 OA
ATOM     24  C   UNL     1      -4.447  -5.143  -2.196  0.00  0.00    +0.211 C 
ENDBRANCH  22  23
ENDBRANCH  19  22
ENDBRANCH  17  19
ENDBRANCH  11  12
ENDBRANCH   8  11
ENDBRANCH   3   9
BRANCH   6  25
ATOM     25  C   UNL     1       2.264   1.710  -1.359  0.00  0.00    +0.210 C 
BRANCH  25  27
ATOM     26 CL   UNL     1       2.464  -3.436  -2.144  0.00  0.00    -0.082 Cl
ATOM     27  C   UNL     1       2.840   0.374  -0.983  0.00  0.00    +0.017 C 
ATOM     28  C   UNL     1       3.783   0.283   0.041  0.00  0.00    +0.036 C 
ATOM     29  C   UNL     1       2.433  -0.776  -1.659  0.00  0.00    +0.010 C 
ATOM     30  C   UNL     1       4.317  -0.957   0.390  0.00  0.00    +0.145 C 
ATOM     31  C   UNL     1       2.967  -2.017  -1.310  0.00  0.00    +0.060 C 
ATOM     32  C   UNL     1       3.910  -2.107  -0.286  0.00  0.00    +0.048 C 
BRANCH  30  33
ATOM     33  O   UNL     1       5.237  -1.045   1.389  0.00  0.00    -0.424 OA
BRANCH  33  36
ATOM     34  F   UNL     1       7.333  -1.652   1.911  0.00  0.00    -0.155 F 
ATOM     35  F   UNL     1       5.766  -3.157   2.012  0.00  0.00    -0.155 F 
ATOM     36  C   UNL     1       6.201  -2.088   1.301  0.00  0.00    +0.509 C 
ENDBRANCH  33  36
ENDBRANCH  30  33
ENDBRANCH  25  27
BRANCH  25  37
ATOM     37  O   UNL     1       1.906   1.736  -2.727  0.00  0.00    -0.372 OA
ATOM     38  H   UNL     1       1.536   2.605  -2.949  0.00  0.00    +0.211 HD
ENDBRANCH  25  37
ENDBRANCH   6  25
TORSDOF 11
