REMARK  Name = 15981237
REMARK  5 active torsions:
REMARK  status: ('A' for Active; 'I' for Inactive)
REMARK    1  A    between atoms: C_3  and  N_11
REMARK    2  A    between atoms: C_4  and  O_20
REMARK    3  A    between atoms: C_15  and  C_19
REMARK    4  A    between atoms: O_20  and  C_27
REMARK    5  A    between atoms: C_24  and  C_29
REMARK                            x       y       z     vdW  Elec       q    Type
REMARK                         _______ _______ _______ _____ _____    ______ ____
ROOT
ATOM      1 CL   UNL     1       0.816  -1.329   2.557  0.00  0.00    -0.079 Cl
ATOM      2 CL   UNL     1       1.136   3.003  -0.716  0.00  0.00    -0.079 Cl
ATOM      3  C   UNL     1      -1.882   0.608   0.337  0.00  0.00    +0.089 C 
ATOM      4  C   UNL     1       0.817   0.824   0.888  0.00  0.00    +0.168 C 
ATOM      5  C   UNL     1      -1.272  -0.300   1.203  0.00  0.00    +0.034 C 
ATOM      6  C   UNL     1      -1.130   1.624  -0.251  0.00  0.00    +0.034 C 
ATOM      7  C   UNL     1       0.091  -0.191   1.481  0.00  0.00    +0.095 C 
ATOM      8  C   UNL     1       0.233   1.734   0.027  0.00  0.00    +0.095 C 
ENDROOT
BRANCH   3  11
ATOM      9  O   UNL     1      -3.816   2.765  -0.272  0.00  0.00    -0.245 OA
ATOM     10  O   UNL     1      -7.121  -0.362  -0.800  0.00  0.00    -0.265 OA
ATOM     11  N   UNL     1      -3.292   0.494   0.049  0.00  0.00    -0.179 N 
ATOM     12  N   UNL     1      -3.756  -0.796   0.123  0.00  0.00    -0.146 NA
ATOM     13  N   UNL     1      -5.450   1.236  -0.569  0.00  0.00    -0.271 N 
ATOM     14  C   UNL     1      -4.135   1.574  -0.266  0.00  0.00    +0.350 A 
ATOM     15  C   UNL     1      -4.989  -1.052  -0.145  0.00  0.00    +0.225 A 
ATOM     16  C   UNL     1      -5.976  -0.027  -0.543  0.00  0.00    +0.290 A 
ATOM     17  H   UNL     1      -6.055   1.970  -0.825  0.00  0.00    +0.174 HD
BRANCH  15  19
ATOM     18  N   UNL     1      -5.502  -3.585   0.103  0.00  0.00    -0.189 NA
ATOM     19  C   UNL     1      -5.272  -2.453  -0.007  0.00  0.00    +0.127 C 
ENDBRANCH  15  19
ENDBRANCH   3  11
BRANCH   4  20
ATOM     20  O   UNL     1       2.176   0.933   1.166  0.00  0.00    -0.433 OA
BRANCH  20  27
ATOM     21  O   UNL     1       5.227  -1.798  -2.157  0.00  0.00    -0.269 OA
ATOM     22  N   UNL     1       3.140  -1.138  -1.482  0.00  0.00    -0.200 N 
ATOM     23  N   UNL     1       2.307  -0.455  -0.659  0.00  0.00    -0.141 NA
ATOM     24  C   UNL     1       5.120  -0.366  -0.272  0.00  0.00    +0.037 C 
ATOM     25  C   UNL     1       4.317   0.313   0.552  0.00  0.00    +0.060 C 
ATOM     26  C   UNL     1       4.515  -1.161  -1.382  0.00  0.00    +0.261 C 
ATOM     27  C   UNL     1       2.888   0.209   0.277  0.00  0.00    +0.244 C 
ATOM     28  H   UNL     1       2.730  -1.658  -2.211  0.00  0.00    +0.178 HD
BRANCH  24  29
ATOM     29  C   UNL     1       6.610  -0.374  -0.139  0.00  0.00    +0.027 C 
ATOM     30  C   UNL     1       7.166   1.038  -0.306  0.00  0.00    +0.005 C 
ATOM     31  C   UNL     1       7.034  -0.969   1.203  0.00  0.00    +0.005 C 
ENDBRANCH  24  29
ENDBRANCH  20  27
ENDBRANCH   4  20
TORSDOF 5
