REMARK  Name = 3529580
REMARK  9 active torsions:
REMARK  status: ('A' for Active; 'I' for Inactive)
REMARK    1  A    between atoms: C_1  and  S_2
REMARK    2  A    between atoms: C_1  and  C_10
REMARK    3  A    between atoms: S_2  and  N_4
REMARK    4  A    between atoms: S_2  and  C_6
REMARK    5  A    between atoms: C_6  and  C_7
REMARK    6  A    between atoms: C_7  and  C_8
REMARK    7  A    between atoms: C_10  and  CA_11
REMARK    8  A    between atoms: CA_11  and  N_12
REMARK    9  A    between atoms: CA_11  and  C_18
REMARK                            x       y       z     vdW  Elec       q    Type
REMARK                         _______ _______ _______ _____ _____    ______ ____
ROOT
ATOM      1  C   UNL     1       0.580  -0.191   0.194  0.00  0.00    +0.081 C 
ENDROOT
BRANCH   1   2
ATOM      2  S   UNL     1      -0.982  -0.668  -0.480  0.00  0.00    -0.012 S 
ATOM      3  O   UNL     1      -1.012  -0.200  -1.858  0.00  0.00    -0.156 OA
BRANCH   2   4
ATOM      4  N   UNL     1      -1.236  -2.129  -0.035  0.00  0.00    -0.183 NA
ATOM      5  H   UNL     1      -0.702  -2.861  -0.421  0.00  0.00    +0.156 HD
ENDBRANCH   2   4
BRANCH   2   6
ATOM      6  C   UNL     1      -2.128   0.347   0.428  0.00  0.00    +0.083 C 
BRANCH   6   7
ATOM      7  C   UNL     1      -3.562   0.088  -0.008  0.00  0.00    +0.014 C 
BRANCH   7   8
ATOM      8  C   UNL     1      -4.543   0.975   0.758  0.00  0.00    +0.001 C 
ATOM      9  C   UNL     1      -5.981   0.692   0.354  0.00  0.00    +0.000 C 
ENDBRANCH   7   8
ENDBRANCH   6   7
ENDBRANCH   2   6
ENDBRANCH   1   2
BRANCH   1  10
ATOM     10  C   UNL     1       1.721  -0.961  -0.463  0.00  0.00    +0.003 C 
BRANCH  10  11
ATOM     11  CA  UNL     1       3.115  -0.584   0.053  0.00  0.00    +0.041 C 
BRANCH  11  12
ATOM     12  N   UNL     1       3.271  -1.114   1.444  0.00  0.00    +0.389 N 
ATOM     13  H1  UNL     1       3.006  -2.099   1.464  0.00  0.00    -0.088 HD
ATOM     14  H2  UNL     1       2.670  -0.588   2.078  0.00  0.00    -0.088 HD
ATOM     15  H3  UNL     1       4.243  -1.017   1.738  0.00  0.00    -0.088 HD
ENDBRANCH  11  12
BRANCH  11  18
ATOM     16  O   UNL     1       4.314   1.332   0.763  0.00  0.00    -0.248 OA
ATOM     17  OXT UNL     1       2.954   1.513  -1.058  0.00  0.00    -0.248 OA
ATOM     18  C   UNL     1       3.489   0.901  -0.092  0.00  0.00    +0.345 C 
ENDBRANCH  11  18
ENDBRANCH  10  11
ENDBRANCH   1  10
TORSDOF 9
