REMARK  Name = 5639
REMARK  7 active torsions:
REMARK  status: ('A' for Active; 'I' for Inactive)
REMARK    1  A    between atoms: N_1  and  C_16
REMARK    2  A    between atoms: N_2  and  C_8
REMARK    3  A    between atoms: C_9  and  O_14
REMARK    4  A    between atoms: C_16  and  C_17
REMARK    5  A    between atoms: C_17  and  C_18
REMARK    6  A    between atoms: C_18  and  N_19
REMARK    7  A    between atoms: N_19  and  C_25
REMARK                            x       y       z     vdW  Elec       q    Type
REMARK                         _______ _______ _______ _____ _____    ______ ____
ROOT
ATOM      1  N   UNL     1       1.058  -1.571   1.257  0.00  0.00    +0.389 N 
ATOM      2  N   UNL     1       3.438  -0.178   0.514  0.00  0.00    -0.309 N 
ATOM      3  C   UNL     1       1.510  -1.564  -0.140  0.00  0.00    -0.055 C 
ATOM      4  C   UNL     1       2.217  -1.550   2.157  0.00  0.00    -0.055 C 
ATOM      5  C   UNL     1       2.337  -0.312  -0.444  0.00  0.00    +0.068 C 
ATOM      6  C   UNL     1       3.067  -0.298   1.930  0.00  0.00    +0.068 C 
ATOM      7  H   UNL     1       0.495  -0.737   1.425  0.00  0.00    -0.080 HD
ENDROOT
BRANCH   2   8
ATOM      8  C   UNL     1       4.548   0.612   0.191  0.00  0.00    +0.082 C 
ATOM      9  C   UNL     1       5.350   0.334  -0.935  0.00  0.00    +0.152 C 
ATOM     10  C   UNL     1       4.895   1.718   0.992  0.00  0.00    +0.018 C 
ATOM     11  C   UNL     1       6.453   1.129  -1.246  0.00  0.00    +0.038 C 
ATOM     12  C   UNL     1       5.998   2.514   0.681  0.00  0.00    +0.001 C 
ATOM     13  C   UNL     1       6.777   2.219  -0.438  0.00  0.00    +0.003 C 
BRANCH   9  14
ATOM     14  O   UNL     1       5.050  -0.727  -1.738  0.00  0.00    -0.470 OA
ATOM     15  C   UNL     1       5.902  -0.951  -2.859  0.00  0.00    +0.253 C 
ENDBRANCH   9  14
ENDBRANCH   2   8
BRANCH   1  16
ATOM     16  C   UNL     1       0.225  -2.744   1.520  0.00  0.00    -0.075 C 
BRANCH  16  17
ATOM     17  C   UNL     1      -1.003  -2.736   0.607  0.00  0.00    -0.002 C 
BRANCH  17  18
ATOM     18  C   UNL     1      -1.864  -1.489   0.797  0.00  0.00    +0.086 C 
BRANCH  18  19
ATOM     19  N   UNL     1      -3.002  -1.514  -0.074  0.00  0.00    -0.321 N 
ATOM     20  H   UNL     1      -3.113  -2.281  -0.680  0.00  0.00    +0.148 HD
BRANCH  19  25
ATOM     21  O   UNL     1      -7.011   0.436  -1.744  0.00  0.00    -0.252 OA
ATOM     22  O   UNL     1      -4.543   2.575   1.572  0.00  0.00    -0.269 OA
ATOM     23  N   UNL     1      -5.057  -0.542  -0.951  0.00  0.00    -0.229 N 
ATOM     24  N   UNL     1      -5.815   1.553  -0.103  0.00  0.00    -0.208 N 
ATOM     25  C   UNL     1      -3.947  -0.511  -0.099  0.00  0.00    +0.108 C 
ATOM     26  C   UNL     1      -3.790   0.533   0.731  0.00  0.00    +0.088 C 
ATOM     27  C   UNL     1      -6.032   0.475  -0.992  0.00  0.00    +0.318 C 
ATOM     28  C   UNL     1      -4.744   1.655   0.781  0.00  0.00    +0.259 C 
ATOM     29  C   UNL     1      -5.213  -1.691  -1.847  0.00  0.00    +0.123 C 
ATOM     30  C   UNL     1      -6.804   2.626  -0.119  0.00  0.00    +0.125 C 
ENDBRANCH  19  25
ENDBRANCH  18  19
ENDBRANCH  17  18
ENDBRANCH  16  17
ENDBRANCH   1  16
TORSDOF 7
