REMARK  Name = 15950826
REMARK  3 active torsions:
REMARK  status: ('A' for Active; 'I' for Inactive)
REMARK    1  A    between atoms: C_3  and  N_9
REMARK    2  A    between atoms: C_3  and  N_12
REMARK    3  A    between atoms: C_6  and  C_14
REMARK                            x       y       z     vdW  Elec       q    Type
REMARK                         _______ _______ _______ _____ _____    ______ ____
ROOT
ATOM      1  O   UNL     1      -2.858   1.191   1.191  0.00  0.00    -0.274 OA
ATOM      2  N   UNL     1      -0.969   0.554   0.053  0.00  0.00    -0.270 N 
ATOM      3  C   UNL     1       1.013   0.049   0.008  0.00  0.00    +0.318 C 
ATOM      4  C   UNL     1       0.125   0.869   0.950  0.00  0.00    +0.151 C 
ATOM      5  C   UNL     1      -0.123   0.074  -1.021  0.00  0.00    +0.151 C 
ATOM      6  C   UNL     1      -2.319   0.713   0.194  0.00  0.00    +0.237 C 
ENDROOT
BRANCH   3   9
ATOM      7  O   UNL     1       2.699   1.640   0.326  0.00  0.00    -0.129 OA
ATOM      8  O   UNL     1       2.678   0.510  -1.564  0.00  0.00    -0.129 OA
ATOM      9  N   UNL     1       2.218   0.788  -0.442  0.00  0.00    +0.060 N 
ENDBRANCH   3   9
BRANCH   3  12
ATOM     10  O   UNL     1       1.333  -1.476   1.754  0.00  0.00    -0.129 OA
ATOM     11  O   UNL     1       1.479  -2.217  -0.314  0.00  0.00    -0.129 OA
ATOM     12  N   UNL     1       1.296  -1.311   0.520  0.00  0.00    +0.060 N 
ENDBRANCH   3  12
BRANCH   6  14
ATOM     13 BR   UNL     1      -3.446  -1.630  -0.670  0.00  0.00    -0.070 Br
ATOM     14  C   UNL     1      -3.126   0.245  -0.987  0.00  0.00    +0.152 C 
ENDBRANCH   6  14
TORSDOF 3
