REMARK  Name = 25262965
REMARK  4 active torsions:
REMARK  status: ('A' for Active; 'I' for Inactive)
REMARK    1  A    between atoms: C_23  and  C_25
REMARK    2  A    between atoms: C_28  and  C_33
REMARK    3  A    between atoms: C_29  and  O_31
REMARK    4  A    between atoms: C_33  and  O_34
REMARK                            x       y       z     vdW  Elec       q    Type
REMARK                         _______ _______ _______ _____ _____    ______ ____
ROOT
ATOM      1  O   UNL     1      -4.390   4.449  -0.733  0.00  0.00    -0.350 OA
ATOM      2  O   UNL     1      -4.723  -4.600   0.468  0.00  0.00    -0.350 OA
ATOM      3  N   UNL     1      -2.698   2.287  -0.123  0.00  0.00    -0.282 N 
ATOM      4  N   UNL     1      -3.083  -2.361   0.025  0.00  0.00    -0.230 N 
ATOM      5  N   UNL     1      -2.911  -0.044  -0.051  0.00  0.00    -0.315 NA
ATOM      6  N   UNL     1      -0.946  -1.429   0.095  0.00  0.00    -0.265 NA
ATOM      7  N   UNL     1       1.179  -0.511   0.167  0.00  0.00    -0.342 NA
ATOM      8  C   UNL     1      -3.775   2.661   0.817  0.00  0.00    +0.105 C 
ATOM      9  C   UNL     1      -4.510  -2.304  -0.344  0.00  0.00    +0.114 C 
ATOM     10  C   UNL     1      -2.873   2.743  -1.512  0.00  0.00    +0.125 C 
ATOM     11  C   UNL     1      -4.109   4.150   0.633  0.00  0.00    +0.162 C 
ATOM     12  C   UNL     1      -2.093   1.022  -0.048  0.00  0.00    +0.194 C 
ATOM     13  C   UNL     1      -2.496  -3.707   0.104  0.00  0.00    +0.135 C 
ATOM     14  C   UNL     1      -5.286  -3.289   0.541  0.00  0.00    +0.163 C 
ATOM     15  C   UNL     1      -3.235   4.220  -1.537  0.00  0.00    +0.164 C 
ATOM     16  C   UNL     1      -2.278  -1.223   0.022  0.00  0.00    +0.213 C 
ATOM     17  C   UNL     1      -3.384  -4.603   0.961  0.00  0.00    +0.164 C 
ATOM     18  C   UNL     1      -3.368   2.447   2.279  0.00  0.00    +0.024 C 
ATOM     19  C   UNL     1      -0.705   0.930   0.024  0.00  0.00    +0.199 C 
ATOM     20  C   UNL     1      -4.704  -2.628  -1.829  0.00  0.00    +0.025 C 
ATOM     21  C   UNL     1      -0.150  -0.353   0.096  0.00  0.00    +0.138 C 
ATOM     22  C   UNL     1       0.135   2.053   0.025  0.00  0.00    +0.002 C 
ATOM     23  C   UNL     1       1.974   0.586   0.168  0.00  0.00    +0.143 C 
ATOM     24  C   UNL     1       1.506   1.881   0.099  0.00  0.00    +0.030 C 
ENDROOT
BRANCH  23  25
ATOM     25  C   UNL     1       3.388   0.310   0.244  0.00  0.00    +0.030 C 
ATOM     26  C   UNL     1       4.005  -0.454  -0.747  0.00  0.00    +0.004 C 
ATOM     27  C   UNL     1       4.139   0.807   1.309  0.00  0.00    +0.006 C 
ATOM     28  C   UNL     1       5.372  -0.721  -0.673  0.00  0.00    +0.041 C 
ATOM     29  C   UNL     1       6.122  -0.224   0.392  0.00  0.00    +0.137 C 
ATOM     30  C   UNL     1       5.506   0.540   1.384  0.00  0.00    +0.037 C 
BRANCH  29  31
ATOM     31  O   UNL     1       7.459  -0.475   0.480  0.00  0.00    -0.472 OA
ATOM     32  C   UNL     1       8.148   0.072   1.603  0.00  0.00    +0.252 C 
ENDBRANCH  29  31
BRANCH  28  33
ATOM     33  C   UNL     1       6.015  -1.540  -1.743  0.00  0.00    +0.167 C 
BRANCH  33  34
ATOM     34  O   UNL     1       6.769  -0.690  -2.597  0.00  0.00    -0.377 OA
ATOM     35  H   UNL     1       7.188  -1.221  -3.293  0.00  0.00    +0.211 HD
ENDBRANCH  33  34
ENDBRANCH  28  33
ENDBRANCH  23  25
TORSDOF 4
