REMARK  Name = 72435
REMARK  5 active torsions:
REMARK  status: ('A' for Active; 'I' for Inactive)
REMARK    1  A    between atoms: C_7  and  C_18
REMARK    2  A    between atoms: C_8  and  O_30
REMARK    3  A    between atoms: C_21  and  O_24
REMARK    4  A    between atoms: C_22  and  O_26
REMARK    5  A    between atoms: C_23  and  O_28
REMARK                            x       y       z     vdW  Elec       q    Type
REMARK                         _______ _______ _______ _____ _____    ______ ____
ROOT
ATOM      1  O   UNL     1       1.911  -3.792   1.321  0.00  0.00    -0.448 OA
ATOM      2  O   UNL     1      -0.361  -3.803   1.631  0.00  0.00    -0.250 OA
ATOM      3  O   UNL     1       2.587   3.515   1.242  0.00  0.00    -0.435 OA
ATOM      4  O   UNL     1       4.257   3.115  -0.447  0.00  0.00    -0.435 OA
ATOM      5  C   UNL     1       1.992  -2.589  -0.667  0.00  0.00    +0.086 C 
ATOM      6  C   UNL     1       0.639  -2.323  -0.025  0.00  0.00    +0.113 C 
ATOM      7  C   UNL     1       0.454  -0.925   0.621  0.00  0.00    +0.055 C 
ATOM      8  C   UNL     1       2.552  -1.418  -1.458  0.00  0.00    +0.137 C 
ATOM      9  C   UNL     1       1.512   0.118   0.280  0.00  0.00    -0.016 C 
ATOM     10  C   UNL     1       2.829  -3.055   0.505  0.00  0.00    +0.212 C 
ATOM     11  C   UNL     1       2.509  -0.118  -0.698  0.00  0.00    +0.004 C 
ATOM     12  C   UNL     1       0.631  -3.386   1.052  0.00  0.00    +0.317 C 
ATOM     13  C   UNL     1       1.505   1.343   0.978  0.00  0.00    +0.036 C 
ATOM     14  C   UNL     1       3.463   0.873  -0.992  0.00  0.00    +0.038 C 
ATOM     15  C   UNL     1       2.461   2.288   0.668  0.00  0.00    +0.176 C 
ATOM     16  C   UNL     1       3.413   2.060  -0.293  0.00  0.00    +0.176 C 
ATOM     17  C   UNL     1       3.727   4.036   0.529  0.00  0.00    +0.429 C 
ENDROOT
BRANCH   7  18
ATOM     18  C   UNL     1      -0.963  -0.427   0.345  0.00  0.00    -0.012 C 
ATOM     19  C   UNL     1      -1.840  -0.234   1.405  0.00  0.00    +0.036 C 
ATOM     20  C   UNL     1      -1.359  -0.174  -0.962  0.00  0.00    +0.036 C 
ATOM     21  C   UNL     1      -2.653   0.281  -1.213  0.00  0.00    +0.175 C 
ATOM     22  C   UNL     1      -3.134   0.221   1.154  0.00  0.00    +0.175 C 
ATOM     23  C   UNL     1      -3.541   0.479  -0.155  0.00  0.00    +0.206 C 
BRANCH  21  24
ATOM     24  O   UNL     1      -3.038   0.528  -2.497  0.00  0.00    -0.468 OA
ATOM     25  C   UNL     1      -3.621  -0.556  -3.218  0.00  0.00    +0.253 C 
ENDBRANCH  21  24
BRANCH  22  26
ATOM     26  O   UNL     1      -3.991   0.411   2.196  0.00  0.00    -0.468 OA
ATOM     27  C   UNL     1      -3.998   1.702   2.802  0.00  0.00    +0.253 C 
ENDBRANCH  22  26
BRANCH  23  28
ATOM     28  O   UNL     1      -4.806   0.925  -0.401  0.00  0.00    -0.465 OA
ATOM     29  C   UNL     1      -4.932   2.191  -1.043  0.00  0.00    +0.253 C 
ENDBRANCH  23  28
ENDBRANCH   7  18
BRANCH   8  30
ATOM     30  O   UNL     1       1.792  -1.288  -2.661  0.00  0.00    -0.380 OA
ATOM     31  H   UNL     1       1.819  -2.124  -3.152  0.00  0.00    +0.211 HD
ENDBRANCH   8  30
TORSDOF 5
