50312
  -OEChem-10051722553D

 29 30  0     1  0  0  0  0  0999 V2000
   -2.8253   -3.0196    0.4164 I   0  0  0  0  0  0  0  0  0  0  0  0
    1.0715    0.2589    1.8375 F   0  0  0  0  0  0  0  0  0  0  0  0
    1.5235   -0.2555   -1.0880 O   0  0  0  0  0  0  0  0  0  0  0  0
    3.7352    1.6706   -0.0212 O   0  0  0  0  0  0  0  0  0  0  0  0
    2.4843   -2.8578   -0.8031 O   0  0  0  0  0  0  0  0  0  0  0  0
   -1.1494    2.7505   -0.5360 O   0  0  0  0  0  0  0  0  0  0  0  0
   -0.5222    0.5464   -0.2782 N   0  0  0  0  0  0  0  0  0  0  0  0
   -2.8230    1.2608   -0.1885 N   0  0  0  0  0  0  0  0  0  0  0  0
   -4.5597   -0.2181    0.1624 N   0  0  0  0  0  0  0  0  0  0  0  0
    2.9964    0.6075    0.5723 C   0  0  1  0  0  0  0  0  0  0  0  0
    1.5932    1.0697    0.8781 C   0  0  1  0  0  0  0  0  0  0  0  0
    0.8704    0.8420   -0.4359 C   0  0  1  0  0  0  0  0  0  0  0  0
    2.7825   -0.5158   -0.4370 C   0  0  1  0  0  0  0  0  0  0  0  0
    2.6930   -1.8910    0.2113 C   0  0  0  0  0  0  0  0  0  0  0  0
   -0.9441   -0.7585   -0.0591 C   0  0  0  0  0  0  0  0  0  0  0  0
   -1.4879    1.5813   -0.3436 C   0  0  0  0  0  0  0  0  0  0  0  0
   -2.2262   -1.0987    0.0951 C   0  0  0  0  0  0  0  0  0  0  0  0
   -3.2121    0.0272    0.0175 C   0  0  0  0  0  0  0  0  0  0  0  0
    3.5374    0.2798    1.4653 H   0  0  0  0  0  0  0  0  0  0  0  0
    1.5147    2.1035    1.2261 H   0  0  0  0  0  0  0  0  0  0  0  0
    1.0014    1.7135   -1.0884 H   0  0  0  0  0  0  0  0  0  0  0  0
    3.5488   -0.5226   -1.2203 H   0  0  0  0  0  0  0  0  0  0  0  0
    1.8636   -1.9591    0.9205 H   0  0  0  0  0  0  0  0  0  0  0  0
    3.6246   -2.1315    0.7333 H   0  0  0  0  0  0  0  0  0  0  0  0
    4.6141    1.3221   -0.2484 H   0  0  0  0  0  0  0  0  0  0  0  0
   -0.1717   -1.5150   -0.0084 H   0  0  0  0  0  0  0  0  0  0  0  0
    2.4378   -3.7256   -0.3670 H   0  0  0  0  0  0  0  0  0  0  0  0
   -4.9185   -1.1534    0.3231 H   0  0  0  0  0  0  0  0  0  0  0  0
   -5.2358    0.5363    0.1109 H   0  0  0  0  0  0  0  0  0  0  0  0
  1 17  1  0  0  0  0
  2 11  1  0  0  0  0
  3 12  1  0  0  0  0
  3 13  1  0  0  0  0
  4 10  1  0  0  0  0
  4 25  1  0  0  0  0
  5 14  1  0  0  0  0
  5 27  1  0  0  0  0
  6 16  2  0  0  0  0
  7 12  1  0  0  0  0
  7 15  1  0  0  0  0
  7 16  1  0  0  0  0
  8 16  1  0  0  0  0
  8 18  2  0  0  0  0
  9 18  1  0  0  0  0
  9 28  1  0  0  0  0
  9 29  1  0  0  0  0
 10 11  1  0  0  0  0
 10 13  1  0  0  0  0
 10 19  1  0  0  0  0
 11 12  1  0  0  0  0
 11 20  1  0  0  0  0
 12 21  1  0  0  0  0
 13 14  1  0  0  0  0
 13 22  1  0  0  0  0
 14 23  1  0  0  0  0
 14 24  1  0  0  0  0
 15 17  2  0  0  0  0
 15 26  1  0  0  0  0
 17 18  1  0  0  0  0
M  END
> <DATABASE_ID>
DB12901

> <DATABASE_NAME>
drugbank

> <ORIGINAL_SOURCE>
PUBCHEM

> <ORIGINAL_SOURCE_URL>
https://pubchem.ncbi.nlm.nih.gov/rest/pug/compound/inchikey/GIMSJJHKKXRFGV-BYPJNBLXSA-N/SDF?record_type=3d

> <SMILES>
[H][C@]1(CO)O[C@@]([H])(N2C=C(I)C(=N)N=C2O)[C@@]([H])(F)[C@]1([H])O

> <INCHI_IDENTIFIER>
InChI=1S/C9H11FIN3O4/c10-5-6(16)4(2-15)18-8(5)14-1-3(11)7(12)13-9(14)17/h1,4-6,8,15-16H,2H2,(H2,12,13,17)/t4-,5+,6-,8-/m1/s1

> <INCHI_KEY>
GIMSJJHKKXRFGV-BYPJNBLXSA-N

> <FORMULA>
C9H11FIN3O4

> <MOLECULAR_WEIGHT>
371.107

> <EXACT_MASS>
370.97783

> <JCHEM_ACCEPTOR_COUNT>
7

> <JCHEM_ATOM_COUNT>
29

> <JCHEM_AVERAGE_POLARIZABILITY>
27.032646627692436

> <JCHEM_BIOAVAILABILITY>
1

> <JCHEM_DONOR_COUNT>
4

> <JCHEM_FORMAL_CHARGE>
0

> <JCHEM_GHOSE_FILTER>
1

> <JCHEM_IUPAC>
1-[(2R,3S,4R,5R)-3-fluoro-4-hydroxy-5-(hydroxymethyl)oxolan-2-yl]-4-imino-5-iodo-1,4-dihydropyrimidin-2-ol

> <ALOGPS_LOGP>
0.25

> <JCHEM_LOGP>
0.05739740200000004

> <ALOGPS_LOGS>
-2.90

> <JCHEM_MDDR_LIKE_RULE>
0

> <JCHEM_NUMBER_OF_RINGS>
2

> <JCHEM_PHYSIOLOGICAL_CHARGE>
-1

> <JCHEM_PKA>
12.720681337163558

> <JCHEM_PKA_STRONGEST_ACIDIC>
5.218493005668007

> <JCHEM_PKA_STRONGEST_BASIC>
0.8937401429224925

> <JCHEM_POLAR_SURFACE_AREA>
109.37000000000002

> <JCHEM_REFRACTIVITY>
77.6142

> <JCHEM_ROTATABLE_BOND_COUNT>
2

> <JCHEM_RULE_OF_FIVE>
1

> <ALOGPS_SOLUBILITY>
4.68e-01 g/l

> <JCHEM_TRADITIONAL_IUPAC>
FIAC

> <JCHEM_VEBER_RULE>
0

> <DRUGBANK_ID>
DB12901

> <DRUG_GROUPS>
investigational

> <GENERIC_NAME>
Fiacitabine

$$$$
