REMARK  Name = 10457387
REMARK  8 active torsions:
REMARK  status: ('A' for Active; 'I' for Inactive)
REMARK    1  A    between atoms: C_2  and  C_20
REMARK    2  A    between atoms: C_7  and  O_8
REMARK    3  A    between atoms: O_8  and  C_10
REMARK    4  A    between atoms: C_13  and  C_17
REMARK    5  A    between atoms: C_20  and  N_21
REMARK    6  A    between atoms: N_21  and  C_24
REMARK    7  A    between atoms: C_24  and  C_25
REMARK    8  A    between atoms: C_25  and  C_27
REMARK                            x       y       z     vdW  Elec       q    Type
REMARK                         _______ _______ _______ _____ _____    ______ ____
ROOT
ATOM      1  F   UNL     1      -2.074   2.131  -2.150  0.00  0.00    -0.201 F 
ATOM      2  C   UNL     1       0.586   2.015   0.312  0.00  0.00    -0.041 C 
ATOM      3  C   UNL     1      -0.055   2.067  -0.918  0.00  0.00    +0.026 C 
ATOM      4  C   UNL     1      -0.138   1.978   1.495  0.00  0.00    -0.003 C 
ATOM      5  C   UNL     1      -1.449   2.082  -0.965  0.00  0.00    +0.174 C 
ATOM      6  C   UNL     1      -1.532   1.993   1.448  0.00  0.00    +0.039 C 
ATOM      7  C   UNL     1      -2.188   2.045   0.217  0.00  0.00    +0.174 C 
ENDROOT
BRANCH   7   8
ATOM      8  O   UNL     1      -3.548   2.059   0.173  0.00  0.00    -0.434 OA
BRANCH   8  10
ATOM      9  N   UNL     1      -3.425  -0.257   0.091  0.00  0.00    -0.210 NA
ATOM     10  C   UNL     1      -4.203   0.841   0.106  0.00  0.00    +0.230 C 
ATOM     11  C   UNL     1      -5.581   0.837   0.060  0.00  0.00    +0.058 C 
ATOM     12  C   UNL     1      -6.215  -0.398  -0.007  0.00  0.00    +0.011 C 
ATOM     13  C   UNL     1      -5.456  -1.563  -0.024  0.00  0.00    +0.072 C 
ATOM     14  C   UNL     1      -4.077  -1.439   0.026  0.00  0.00    +0.107 C 
BRANCH  13  17
ATOM     15  O   UNL     1      -7.326  -2.989  -0.155  0.00  0.00    -0.270 OA
ATOM     16  N   UNL     1      -5.264  -3.991  -0.107  0.00  0.00    -0.325 N 
ATOM     17  C   UNL     1      -6.089  -2.869  -0.093  0.00  0.00    +0.244 C 
ATOM     18  H   UNL     1      -5.659  -4.891  -0.153  0.00  0.00    +0.145 HD
ATOM     19  H   UNL     1      -4.286  -3.883  -0.071  0.00  0.00    +0.145 HD
ENDBRANCH  13  17
ENDBRANCH   8  10
ENDBRANCH   7   8
BRANCH   2  20
ATOM     20  C   UNL     1       2.090   1.997   0.363  0.00  0.00    -0.054 C 
BRANCH  20  21
ATOM     21  N   UNL     1       2.618   0.640   0.330  0.00  0.00    +0.386 N 
ATOM     22  H   UNL     1       2.263   0.124   1.135  0.00  0.00    -0.084 HD
ATOM     23  H   UNL     1       2.319   0.195  -0.538  0.00  0.00    -0.084 HD
BRANCH  21  24
ATOM     24  C   UNL     1       4.075   0.648   0.372  0.00  0.00    -0.081 C 
BRANCH  24  25
ATOM     25  C   UNL     1       4.607  -0.781   0.372  0.00  0.00    -0.023 C 
BRANCH  25  27
ATOM     26  O   UNL     1       8.651  -1.547  -0.755  0.00  0.00    -0.354 OA
ATOM     27  C   UNL     1       6.132  -0.801   0.436  0.00  0.00    +0.003 C 
ATOM     28  C   UNL     1       6.745  -0.040  -0.744  0.00  0.00    +0.032 C 
ATOM     29  C   UNL     1       6.665  -2.238   0.461  0.00  0.00    +0.032 C 
ATOM     30  C   UNL     1       8.263  -0.173  -0.740  0.00  0.00    +0.142 C 
ATOM     31  C   UNL     1       8.188  -2.249   0.397  0.00  0.00    +0.142 C 
ENDBRANCH  25  27
ENDBRANCH  24  25
ENDBRANCH  21  24
ENDBRANCH  20  21
ENDBRANCH   2  20
TORSDOF 8
