REMARK  Name = 67335295
REMARK  6 active torsions:
REMARK  status: ('A' for Active; 'I' for Inactive)
REMARK    1  A    between atoms: N_2  and  C_14
REMARK    2  A    between atoms: C_7  and  O_20
REMARK    3  A    between atoms: O_20  and  C_21
REMARK    4  A    between atoms: C_21  and  C_23
REMARK    5  A    between atoms: C_22  and  C_28
REMARK    6  A    between atoms: C_28  and  N_30
REMARK                            x       y       z     vdW  Elec       q    Type
REMARK                         _______ _______ _______ _____ _____    ______ ____
ROOT
ATOM      1  O   UNL     1      -5.835   0.571   0.281  0.00  0.00    -0.270 OA
ATOM      2  N   UNL     1      -3.695  -0.344  -0.128  0.00  0.00    -0.265 N 
ATOM      3  C   UNL     1      -2.353   0.172  -0.370  0.00  0.00    +0.124 C 
ATOM      4  C   UNL     1      -2.574   1.645  -0.311  0.00  0.00    +0.036 C 
ATOM      5  C   UNL     1      -4.641   0.657   0.060  0.00  0.00    +0.249 C 
ATOM      6  C   UNL     1      -3.917   1.928  -0.059  0.00  0.00    +0.054 C 
ATOM      7  C   UNL     1      -1.662   2.672  -0.467  0.00  0.00    +0.137 C 
ATOM      8  C   UNL     1      -4.401   3.217   0.047  0.00  0.00    +0.004 C 
ATOM      9  C   UNL     1      -2.126   3.987  -0.365  0.00  0.00    +0.037 C 
ATOM     10  C   UNL     1      -3.484   4.257  -0.110  0.00  0.00    +0.003 C 
ENDROOT
BRANCH   2  14
ATOM     11  O   UNL     1      -2.997  -1.732   2.108  0.00  0.00    -0.273 OA
ATOM     12  O   UNL     1      -2.961  -5.754  -0.133  0.00  0.00    -0.275 OA
ATOM     13  N   UNL     1      -2.969  -3.717   0.945  0.00  0.00    -0.254 N 
ATOM     14  C   UNL     1      -4.009  -1.748  -0.087  0.00  0.00    +0.153 C 
ATOM     15  C   UNL     1      -3.642  -2.432  -1.395  0.00  0.00    +0.039 C 
ATOM     16  C   UNL     1      -3.959  -3.913  -1.294  0.00  0.00    +0.088 C 
ATOM     17  C   UNL     1      -3.260  -2.360   1.083  0.00  0.00    +0.246 C 
ATOM     18  C   UNL     1      -3.238  -4.555  -0.133  0.00  0.00    +0.228 C 
ATOM     19  H   UNL     1      -2.514  -4.136   1.711  0.00  0.00    +0.158 HD
ENDBRANCH   2  14
BRANCH   7  20
ATOM     20  O   UNL     1      -0.351   2.421  -0.715  0.00  0.00    -0.471 OA
BRANCH  20  21
ATOM     21  C   UNL     1       0.598   3.374  -0.234  0.00  0.00    +0.232 C 
BRANCH  21  23
ATOM     22  C   UNL     1       4.305   1.367   0.569  0.00  0.00    -0.043 C 
ATOM     23  C   UNL     1       1.895   2.674   0.048  0.00  0.00    +0.021 C 
ATOM     24  C   UNL     1       4.177   2.170  -0.566  0.00  0.00    -0.007 C 
ATOM     25  C   UNL     1       3.228   1.218   1.442  0.00  0.00    -0.007 C 
ATOM     26  C   UNL     1       2.972   2.823  -0.826  0.00  0.00    -0.001 C 
ATOM     27  C   UNL     1       2.023   1.872   1.182  0.00  0.00    -0.001 C 
BRANCH  22  28
ATOM     28  C   UNL     1       5.593   0.669   0.846  0.00  0.00    -0.050 C 
BRANCH  28  30
ATOM     29  O   UNL     1       6.640  -3.182  -0.455  0.00  0.00    -0.358 OA
ATOM     30  N   UNL     1       5.783  -0.505  -0.004  0.00  0.00    +0.393 N 
ATOM     31  C   UNL     1       7.208  -0.849  -0.106  0.00  0.00    -0.044 C 
ATOM     32  C   UNL     1       5.024  -1.652   0.514  0.00  0.00    -0.044 C 
ATOM     33  C   UNL     1       5.248  -2.868  -0.381  0.00  0.00    +0.119 C 
ATOM     34  C   UNL     1       7.380  -2.083  -0.987  0.00  0.00    +0.119 C 
ATOM     35  H   UNL     1       5.435  -0.277  -0.935  0.00  0.00    -0.079 HD
ENDBRANCH  28  30
ENDBRANCH  22  28
ENDBRANCH  21  23
ENDBRANCH  20  21
ENDBRANCH   7  20
TORSDOF 6
