REMARK  Name = 5280363
REMARK  16 active torsions:
REMARK  status: ('A' for Active; 'I' for Inactive)
REMARK    1  A    between atoms: C_1  and  C_20
REMARK    2  A    between atoms: C_2  and  C_10
REMARK    3  A    between atoms: C_3  and  O_6
REMARK    4  A    between atoms: C_4  and  O_8
REMARK    5  A    between atoms: C_11  and  C_12
REMARK    6  A    between atoms: C_12  and  O_13
REMARK    7  A    between atoms: C_12  and  C_15
REMARK    8  A    between atoms: C_15  and  C_16
REMARK    9  A    between atoms: C_16  and  C_17
REMARK   10  A    between atoms: C_17  and  C_18
REMARK   11  A    between atoms: C_20  and  C_21
REMARK   12  A    between atoms: C_22  and  C_23
REMARK   13  A    between atoms: C_23  and  C_24
REMARK   14  A    between atoms: C_24  and  C_25
REMARK   15  A    between atoms: C_25  and  C_27
REMARK   16  A    between atoms: C_27  and  O_28
REMARK                            x       y       z     vdW  Elec       q    Type
REMARK                         _______ _______ _______ _____ _____    ______ ____
ROOT
ATOM      1  C   UNL     1      -2.101  -0.487   0.450  0.00  0.00    +0.038 C 
ATOM      2  C   UNL     1      -2.220   1.003   0.084  0.00  0.00    +0.051 C 
ATOM      3  C   UNL     1      -3.557  -0.877   0.725  0.00  0.00    +0.114 C 
ATOM      4  C   UNL     1      -3.516   1.072  -0.746  0.00  0.00    +0.117 C 
ATOM      5  C   UNL     1      -4.328  -0.186  -0.399  0.00  0.00    +0.059 C 
ENDROOT
BRANCH   3   6
ATOM      6  O   UNL     1      -4.015  -0.417   1.991  0.00  0.00    -0.384 OA
ATOM      7  H   UNL     1      -3.519  -0.862   2.696  0.00  0.00    +0.210 HD
ENDBRANCH   3   6
BRANCH   4   8
ATOM      8  O   UNL     1      -4.261   2.232  -0.396  0.00  0.00    -0.384 OA
ATOM      9  H   UNL     1      -3.747   3.025  -0.615  0.00  0.00    +0.210 HD
ENDBRANCH   4   8
BRANCH   2  10
ATOM     10  C   UNL     1      -1.041   1.533  -0.663  0.00  0.00    -0.026 C 
ATOM     11  C   UNL     1      -0.294   2.565  -0.244  0.00  0.00    -0.002 C 
BRANCH  11  12
ATOM     12  C   UNL     1       0.891   3.096  -1.001  0.00  0.00    +0.132 C 
BRANCH  12  13
ATOM     13  O   UNL     1       0.618   4.449  -1.371  0.00  0.00    -0.380 OA
ATOM     14  H   UNL     1      -0.193   4.482  -1.901  0.00  0.00    +0.211 HD
ENDBRANCH  12  13
BRANCH  12  15
ATOM     15  C   UNL     1       2.179   3.098  -0.167  0.00  0.00    +0.034 C 
BRANCH  15  16
ATOM     16  C   UNL     1       2.545   1.716   0.384  0.00  0.00    +0.003 C 
BRANCH  16  17
ATOM     17  C   UNL     1       3.786   1.729   1.282  0.00  0.00    +0.000 C 
BRANCH  17  18
ATOM     18  C   UNL     1       4.195   0.341   1.776  0.00  0.00    +0.000 C 
ATOM     19  C   UNL     1       5.424   0.410   2.670  0.00  0.00    +0.000 C 
ENDBRANCH  17  18
ENDBRANCH  16  17
ENDBRANCH  15  16
ENDBRANCH  12  15
ENDBRANCH  11  12
ENDBRANCH   2  10
BRANCH   1  20
ATOM     20  C   UNL     1      -1.168  -0.750   1.627  0.00  0.00    +0.028 C 
BRANCH  20  21
ATOM     21  C   UNL     1      -1.038  -2.176   2.083  0.00  0.00    -0.031 C 
ATOM     22  C   UNL     1      -0.187  -3.103   1.618  0.00  0.00    -0.031 C 
BRANCH  22  23
ATOM     23  C   UNL     1       0.807  -2.844   0.523  0.00  0.00    +0.026 C 
BRANCH  23  24
ATOM     24  C   UNL     1       0.613  -3.738  -0.709  0.00  0.00    +0.016 C 
BRANCH  24  25
ATOM     25  C   UNL     1       1.637  -3.493  -1.822  0.00  0.00    +0.110 C 
BRANCH  25  27
ATOM     26  O   UNL     1       0.613  -1.373  -2.442  0.00  0.00    -0.250 OA
ATOM     27  C   UNL     1       1.603  -2.088  -2.383  0.00  0.00    +0.314 C 
BRANCH  27  28
ATOM     28  O   UNL     1       2.816  -1.712  -2.867  0.00  0.00    -0.480 OA
ATOM     29  H   UNL     1       3.548  -2.293  -2.801  0.00  0.00    +0.295 HD
ENDBRANCH  27  28
ENDBRANCH  25  27
ENDBRANCH  24  25
ENDBRANCH  23  24
ENDBRANCH  22  23
ENDBRANCH  20  21
ENDBRANCH   1  20
TORSDOF 16
