REMARK  Name = 65894
REMARK  5 active torsions:
REMARK  status: ('A' for Active; 'I' for Inactive)
REMARK    1  A    between atoms: C_5  and  C_18
REMARK    2  A    between atoms: C_7  and  C_10
REMARK    3  A    between atoms: C_8  and  C_15
REMARK    4  A    between atoms: C_15  and  O_16
REMARK    5  A    between atoms: C_18  and  O_20
REMARK                            x       y       z     vdW  Elec       q    Type
REMARK                         _______ _______ _______ _____ _____    ______ ____
ROOT
ATOM      1  S   UNL     1       0.290  -1.691   0.193  0.00  0.00    -0.094 S 
ATOM      2  O   UNL     1      -2.438   1.699  -0.942  0.00  0.00    -0.274 OA
ATOM      3  N   UNL     1      -0.978   0.583   0.543  0.00  0.00    -0.244 N 
ATOM      4  C   UNL     1      -1.219  -0.846   0.795  0.00  0.00    +0.143 C 
ATOM      5  C   UNL     1      -2.404  -0.745  -0.181  0.00  0.00    +0.133 C 
ATOM      6  C   UNL     1      -2.046   0.757  -0.290  0.00  0.00    +0.235 C 
ATOM      7  C   UNL     1       1.145  -0.158   0.057  0.00  0.00    +0.051 C 
ATOM      8  C   UNL     1       0.323   0.890   0.237  0.00  0.00    +0.135 C 
ENDROOT
BRANCH   7  10
ATOM      9  O   UNL     1       2.887  -1.331  -1.097  0.00  0.00    -0.351 OA
ATOM     10  C   UNL     1       2.592  -0.175  -0.293  0.00  0.00    +0.145 C 
ATOM     11  C   UNL     1       3.508  -0.251   0.920  0.00  0.00    +0.037 C 
ATOM     12  C   UNL     1       4.718  -0.949   0.350  0.00  0.00    +0.035 C 
ATOM     13  C   UNL     1       4.082  -1.946  -0.593  0.00  0.00    +0.143 C 
ENDBRANCH   7  10
BRANCH   8  15
ATOM     14  O   UNL     1       1.551   2.696  -0.700  0.00  0.00    -0.244 OA
ATOM     15  C   UNL     1       0.698   2.292   0.073  0.00  0.00    +0.352 C 
BRANCH  15  16
ATOM     16  O   UNL     1      -0.039   3.062   0.903  0.00  0.00    -0.476 OA
ATOM     17  H   UNL     1      -0.676   2.668   1.466  0.00  0.00    +0.295 HD
ENDBRANCH  15  16
ENDBRANCH   8  15
BRANCH   5  18
ATOM     18  C   UNL     1      -3.814  -1.018   0.294  0.00  0.00    +0.122 C 
ATOM     19  C   UNL     1      -4.841  -0.443  -0.673  0.00  0.00    +0.032 C 
BRANCH  18  20
ATOM     20  O   UNL     1      -4.011  -2.427   0.403  0.00  0.00    -0.384 OA
ATOM     21  H   UNL     1      -3.359  -2.798   1.018  0.00  0.00    +0.210 HD
ENDBRANCH  18  20
ENDBRANCH   5  18
TORSDOF 5
