REMARK  Name = 45102284
REMARK  5 active torsions:
REMARK  status: ('A' for Active; 'I' for Inactive)
REMARK    1  A    between atoms: P_1  and  O_28
REMARK    2  A    between atoms: C_10  and  N_13
REMARK    3  A    between atoms: C_21  and  O_25
REMARK    4  A    between atoms: O_25  and  C_26
REMARK    5  A    between atoms: O_28  and  C_29
REMARK                            x       y       z     vdW  Elec       q    Type
REMARK                         _______ _______ _______ _____ _____    ______ ____
ROOT
ATOM      1  P   UNL     1      -3.583  -1.053   0.109  0.00  0.00    +0.480 P 
ATOM      2  F   UNL     1      -1.941   2.895   0.011  0.00  0.00    -0.233 F 
ATOM      3  O   UNL     1      -0.314   1.125   1.887  0.00  0.00    -0.333 OA
ATOM      4  O   UNL     1      -2.947   0.358  -0.398  0.00  0.00    -0.270 OA
ATOM      5  O   UNL     1      -3.280  -1.063   1.707  0.00  0.00    -0.270 OA
ATOM      6  O   UNL     1      -3.105  -2.271  -0.626  0.00  0.00    -0.227 OA
ATOM      7  C   UNL     1      -1.015   1.925  -0.272  0.00  0.00    +0.204 C 
ATOM      8  C   UNL     1      -1.627   0.582   0.048  0.00  0.00    +0.189 C 
ATOM      9  C   UNL     1      -1.613   0.635   1.561  0.00  0.00    +0.177 C 
ATOM     10  C   UNL     1       0.088   2.025   0.809  0.00  0.00    +0.229 C 
ATOM     11  C   UNL     1      -1.961  -0.722   2.143  0.00  0.00    +0.186 C 
ATOM     12  C   UNL     1      -0.619   2.109  -1.723  0.00  0.00    +0.042 C 
ENDROOT
BRANCH  10  13
ATOM     13  N   UNL     1       1.495   1.689   0.373  0.00  0.00    -0.236 N 
ATOM     14  N   UNL     1       3.573   1.992  -0.375  0.00  0.00    -0.239 NA
ATOM     15  N   UNL     1       1.506  -0.722   0.670  0.00  0.00    -0.311 NA
ATOM     16  N   UNL     1       3.664  -1.681   0.052  0.00  0.00    -0.289 NA
ATOM     17  N   UNL     1       1.904  -3.023   0.823  0.00  0.00    -0.283 N 
ATOM     18  C   UNL     1       2.067   0.449   0.332  0.00  0.00    +0.223 C 
ATOM     19  C   UNL     1       2.439   2.582  -0.061  0.00  0.00    +0.224 C 
ATOM     20  C   UNL     1       3.355   0.658  -0.134  0.00  0.00    +0.190 C 
ATOM     21  C   UNL     1       4.165  -0.465  -0.270  0.00  0.00    +0.311 C 
ATOM     22  C   UNL     1       2.384  -1.734   0.496  0.00  0.00    +0.200 C 
ATOM     23  H   UNL     1       0.983  -3.136   1.152  0.00  0.00    +0.156 HD
ATOM     24  H   UNL     1       2.491  -3.807   0.722  0.00  0.00    +0.156 HD
BRANCH  21  25
ATOM     25  O   UNL     1       5.458  -0.390  -0.721  0.00  0.00    -0.450 OA
BRANCH  25  26
ATOM     26  C   UNL     1       6.174  -1.615  -0.813  0.00  0.00    +0.208 C 
ATOM     27  C   UNL     1       7.566  -1.334  -1.338  0.00  0.00    +0.051 C 
ENDBRANCH  25  26
ENDBRANCH  21  25
ENDBRANCH  10  13
BRANCH   1  28
ATOM     28  O   UNL     1      -5.177  -0.796   0.036  0.00  0.00    -0.276 OA
BRANCH  28  29
ATOM     29  C   UNL     1      -5.816  -1.042  -1.204  0.00  0.00    +0.126 C 
ATOM     30  C   UNL     1      -5.534   0.116  -2.151  0.00  0.00    +0.033 C 
ATOM     31  C   UNL     1      -7.306  -1.233  -0.971  0.00  0.00    +0.033 C 
ENDBRANCH  28  29
ENDBRANCH   1  28
TORSDOF 5
