REMARK  Name = 237332
REMARK  3 active torsions:
REMARK  status: ('A' for Active; 'I' for Inactive)
REMARK    1  A    between atoms: C_2  and  C_8
REMARK    2  A    between atoms: C_4  and  C_7
REMARK    3  A    between atoms: C_8  and  O_9
REMARK                            x       y       z     vdW  Elec       q    Type
REMARK                         _______ _______ _______ _____ _____    ______ ____
ROOT
ATOM      1  O   UNL     1       0.123   0.723  -0.296  0.00  0.00    -0.452 OA
ATOM      2  C   UNL     1       1.129  -0.189  -0.257  0.00  0.00    +0.153 C 
ATOM      3  C   UNL     1       0.635  -1.442   0.022  0.00  0.00    +0.039 C 
ATOM      4  C   UNL     1      -1.026   0.046  -0.039  0.00  0.00    +0.187 C 
ATOM      5  C   UNL     1      -0.765  -1.289   0.165  0.00  0.00    +0.044 C 
ENDROOT
BRANCH   4   7
ATOM      6  O   UNL     1      -3.386   0.332   0.193  0.00  0.00    -0.280 OA
ATOM      7  C   UNL     1      -2.244   0.782  -0.022  0.00  0.00    +0.271 C 
ENDBRANCH   4   7
BRANCH   2   8
ATOM      8  C   UNL     1       2.483   0.324  -0.509  0.00  0.00    +0.202 C 
BRANCH   8   9
ATOM      9  O   UNL     1       3.050   0.713   0.743  0.00  0.00    -0.375 OA
ATOM     10  H   UNL     1       3.946   1.056   0.600  0.00  0.00    +0.211 HD
ENDBRANCH   8   9
ENDBRANCH   2   8
TORSDOF 3
