9804992
  -OEChem-10051722503D

 58 60  0     0  0  0  0  0  0999 V2000
   -1.0588    1.2298   -0.0395 O   0  0  0  0  0  0  0  0  0  0  0  0
   -2.9518    2.5118    0.0143 O   0  0  0  0  0  0  0  0  0  0  0  0
   -9.3866   -0.1567    0.5573 O   0  0  0  0  0  0  0  0  0  0  0  0
  -10.3690   -2.4200   -0.5137 O   0  0  0  0  0  0  0  0  0  0  0  0
    7.4539   -1.4710   -0.3143 N   0  0  0  0  0  0  0  0  0  0  0  0
   -3.0388    0.1729   -0.0311 N   0  0  0  0  0  0  0  0  0  0  0  0
   -8.9947   -2.1424   -0.5455 N   0  0  0  0  0  0  0  0  0  0  0  0
    7.1698   -0.4239    0.6685 C   0  0  0  0  0  0  0  0  0  0  0  0
    5.7262   -0.0496    0.6981 C   0  0  0  0  0  0  0  0  0  0  0  0
    7.4893   -0.9079   -1.6630 C   0  0  0  0  0  0  0  0  0  0  0  0
    8.7193   -2.1332   -0.0022 C   0  0  0  0  0  0  0  0  0  0  0  0
    3.8966    1.3331   -0.1134 C   0  0  0  0  0  0  0  0  0  0  0  0
    3.0079    0.6541    0.7540 C   0  0  0  0  0  0  0  0  0  0  0  0
    5.2528    0.9692   -0.1293 C   0  0  0  0  0  0  0  0  0  0  0  0
    4.8524   -0.7174    1.5511 C   0  0  0  0  0  0  0  0  0  0  0  0
    3.5018   -0.3690    1.5798 C   0  0  0  0  0  0  0  0  0  0  0  0
    1.6516    1.0180    0.7698 C   0  0  0  0  0  0  0  0  0  0  0  0
    1.1783    2.0368   -0.0575 C   0  0  0  0  0  0  0  0  0  0  0  0
    3.4027    2.3560   -0.9394 C   0  0  0  0  0  0  0  0  0  0  0  0
    7.7832   -1.9804   -2.6982 C   0  0  0  0  0  0  0  0  0  0  0  0
    8.6779   -2.7757    1.3740 C   0  0  0  0  0  0  0  0  0  0  0  0
    2.0521    2.7046   -0.9104 C   0  0  0  0  0  0  0  0  0  0  0  0
   -0.2656    2.4102   -0.0283 C   0  0  0  0  0  0  0  0  0  0  0  0
   -2.4210    1.4083   -0.0154 C   0  0  0  0  0  0  0  0  0  0  0  0
   -4.4240   -0.1077   -0.0159 C   0  0  0  0  0  0  0  0  0  0  0  0
   -5.3470    0.9376    0.0192 C   0  0  0  0  0  0  0  0  0  0  0  0
   -4.8681   -1.4299   -0.0348 C   0  0  0  0  0  0  0  0  0  0  0  0
   -7.1580   -0.6616    0.0164 C   0  0  0  0  0  0  0  0  0  0  0  0
   -6.7140    0.6606    0.0353 C   0  0  0  0  0  0  0  0  0  0  0  0
   -6.2350   -1.7069   -0.0186 C   0  0  0  0  0  0  0  0  0  0  0  0
   -8.5833   -0.9498    0.0327 C   0  0  0  0  0  0  0  0  0  0  0  0
    7.7923    0.4657    0.4946 H   0  0  0  0  0  0  0  0  0  0  0  0
    7.4101   -0.7172    1.6946 H   0  0  0  0  0  0  0  0  0  0  0  0
    6.5124   -0.4945   -1.9296 H   0  0  0  0  0  0  0  0  0  0  0  0
    8.2275   -0.1011   -1.7550 H   0  0  0  0  0  0  0  0  0  0  0  0
    8.9072   -2.9577   -0.6973 H   0  0  0  0  0  0  0  0  0  0  0  0
    9.5715   -1.4452   -0.0664 H   0  0  0  0  0  0  0  0  0  0  0  0
    5.9431    1.4997   -0.7831 H   0  0  0  0  0  0  0  0  0  0  0  0
    5.2073   -1.5150    2.1987 H   0  0  0  0  0  0  0  0  0  0  0  0
    2.8367   -0.9051    2.2538 H   0  0  0  0  0  0  0  0  0  0  0  0
    0.9661    0.5041    1.4417 H   0  0  0  0  0  0  0  0  0  0  0  0
    4.0677    2.8916   -1.6138 H   0  0  0  0  0  0  0  0  0  0  0  0
    7.5628   -1.5914   -3.6989 H   0  0  0  0  0  0  0  0  0  0  0  0
    7.1607   -2.8699   -2.5524 H   0  0  0  0  0  0  0  0  0  0  0  0
    8.8366   -2.2771   -2.7079 H   0  0  0  0  0  0  0  0  0  0  0  0
    9.4807   -3.5184    1.4519 H   0  0  0  0  0  0  0  0  0  0  0  0
    7.7343   -3.3026    1.5535 H   0  0  0  0  0  0  0  0  0  0  0  0
    8.8502   -2.0602    2.1832 H   0  0  0  0  0  0  0  0  0  0  0  0
    1.6976    3.5012   -1.5592 H   0  0  0  0  0  0  0  0  0  0  0  0
   -0.5261    3.0194   -0.9022 H   0  0  0  0  0  0  0  0  0  0  0  0
   -0.4683    2.9882    0.8815 H   0  0  0  0  0  0  0  0  0  0  0  0
   -2.4240   -0.6370   -0.0564 H   0  0  0  0  0  0  0  0  0  0  0  0
   -5.0780    1.9846    0.0344 H   0  0  0  0  0  0  0  0  0  0  0  0
   -4.1588   -2.2534   -0.0563 H   0  0  0  0  0  0  0  0  0  0  0  0
   -7.4184    1.4883    0.0580 H   0  0  0  0  0  0  0  0  0  0  0  0
   -6.5392   -2.7494   -0.0087 H   0  0  0  0  0  0  0  0  0  0  0  0
   -8.4077   -2.8546   -0.9633 H   0  0  0  0  0  0  0  0  0  0  0  0
  -10.6161   -2.1623   -1.4180 H   0  0  0  0  0  0  0  0  0  0  0  0
  1 23  1  0  0  0  0
  1 24  1  0  0  0  0
  2 24  2  0  0  0  0
  3 31  2  0  0  0  0
  4  7  1  0  0  0  0
  4 58  1  0  0  0  0
  5  8  1  0  0  0  0
  5 10  1  0  0  0  0
  5 11  1  0  0  0  0
  6 24  1  0  0  0  0
  6 25  1  0  0  0  0
  6 52  1  0  0  0  0
  7 31  1  0  0  0  0
  7 57  1  0  0  0  0
  8  9  1  0  0  0  0
  8 32  1  0  0  0  0
  8 33  1  0  0  0  0
  9 14  2  0  0  0  0
  9 15  1  0  0  0  0
 10 20  1  0  0  0  0
 10 34  1  0  0  0  0
 10 35  1  0  0  0  0
 11 21  1  0  0  0  0
 11 36  1  0  0  0  0
 11 37  1  0  0  0  0
 12 13  2  0  0  0  0
 12 14  1  0  0  0  0
 12 19  1  0  0  0  0
 13 16  1  0  0  0  0
 13 17  1  0  0  0  0
 14 38  1  0  0  0  0
 15 16  2  0  0  0  0
 15 39  1  0  0  0  0
 16 40  1  0  0  0  0
 17 18  2  0  0  0  0
 17 41  1  0  0  0  0
 18 22  1  0  0  0  0
 18 23  1  0  0  0  0
 19 22  2  0  0  0  0
 19 42  1  0  0  0  0
 20 43  1  0  0  0  0
 20 44  1  0  0  0  0
 20 45  1  0  0  0  0
 21 46  1  0  0  0  0
 21 47  1  0  0  0  0
 21 48  1  0  0  0  0
 22 49  1  0  0  0  0
 23 50  1  0  0  0  0
 23 51  1  0  0  0  0
 25 26  2  0  0  0  0
 25 27  1  0  0  0  0
 26 29  1  0  0  0  0
 26 53  1  0  0  0  0
 27 30  2  0  0  0  0
 27 54  1  0  0  0  0
 28 29  2  0  0  0  0
 28 30  1  0  0  0  0
 28 31  1  0  0  0  0
 29 55  1  0  0  0  0
 30 56  1  0  0  0  0
M  END
> <DATABASE_ID>
DB12645

> <DATABASE_NAME>
drugbank

> <ORIGINAL_SOURCE>
PUBCHEM

> <ORIGINAL_SOURCE_URL>
https://pubchem.ncbi.nlm.nih.gov/rest/pug/compound/inchikey/YALNUENQHAQXEA-UHFFFAOYSA-N/SDF?record_type=3d

> <SMILES>
CCN(CC)CC1=CC=C2C=C(COC(=O)NC3=CC=C(C=C3)C(=O)NO)C=CC2=C1

> <INCHI_IDENTIFIER>
InChI=1S/C24H27N3O4/c1-3-27(4-2)15-17-5-7-21-14-18(6-8-20(21)13-17)16-31-24(29)25-22-11-9-19(10-12-22)23(28)26-30/h5-14,30H,3-4,15-16H2,1-2H3,(H,25,29)(H,26,28)

> <INCHI_KEY>
YALNUENQHAQXEA-UHFFFAOYSA-N

> <FORMULA>
C24H27N3O4

> <MOLECULAR_WEIGHT>
421.497

> <EXACT_MASS>
421.200156361

> <JCHEM_ACCEPTOR_COUNT>
5

> <JCHEM_ATOM_COUNT>
58

> <JCHEM_AVERAGE_POLARIZABILITY>
47.58959374474196

> <JCHEM_BIOAVAILABILITY>
1

> <JCHEM_DONOR_COUNT>
3

> <JCHEM_FORMAL_CHARGE>
0

> <JCHEM_GHOSE_FILTER>
1

> <JCHEM_IUPAC>
{6-[(diethylamino)methyl]naphthalen-2-yl}methyl N-[4-(hydroxycarbamoyl)phenyl]carbamate

> <ALOGPS_LOGP>
4.18

> <JCHEM_LOGP>
3.5119122360959274

> <ALOGPS_LOGS>
-4.91

> <JCHEM_MDDR_LIKE_RULE>
1

> <JCHEM_NUMBER_OF_RINGS>
3

> <JCHEM_PHYSIOLOGICAL_CHARGE>
1

> <JCHEM_PKA>
13.056962292847402

> <JCHEM_PKA_STRONGEST_ACIDIC>
9.988585994549252

> <JCHEM_PKA_STRONGEST_BASIC>
9.350867215805634

> <JCHEM_POLAR_SURFACE_AREA>
90.9

> <JCHEM_REFRACTIVITY>
122.49029999999998

> <JCHEM_ROTATABLE_BOND_COUNT>
9

> <JCHEM_RULE_OF_FIVE>
1

> <ALOGPS_SOLUBILITY>
5.20e-03 g/l

> <JCHEM_TRADITIONAL_IUPAC>
givinostat

> <JCHEM_VEBER_RULE>
0

> <DRUGBANK_ID>
DB12645

> <DRUG_GROUPS>
investigational

> <GENERIC_NAME>
Givinostat

$$$$
