REMARK  Name = 10331844
REMARK  1 active torsions:
REMARK  status: ('A' for Active; 'I' for Inactive)
REMARK    1  A    between atoms: C_11  and  C_17
REMARK                            x       y       z     vdW  Elec       q    Type
REMARK                         _______ _______ _______ _____ _____    ______ ____
ROOT
ATOM      1  O   UNL     1      -1.874   0.950   0.000  0.00  0.00    -0.447 OA
ATOM      2  O   UNL     1       0.821  -2.772   0.000  0.00  0.00    -0.286 OA
ATOM      3  O   UNL     1       0.423   2.635   0.000  0.00  0.00    -0.283 OA
ATOM      4  C   UNL     1      -0.531  -0.860   0.001  0.00  0.00    +0.080 C 
ATOM      5  C   UNL     1      -0.591   0.512   0.000  0.00  0.00    +0.187 C 
ATOM      6  C   UNL     1       1.951  -0.676   0.000  0.00  0.00    +0.042 C 
ATOM      7  C   UNL     1       1.851   0.735   0.000  0.00  0.00    +0.045 C 
ATOM      8  C   UNL     1       0.735  -1.552   0.000  0.00  0.00    +0.199 C 
ATOM      9  C   UNL     1       0.518   1.415   0.000  0.00  0.00    +0.230 C 
ATOM     10  C   UNL     1      -1.871  -1.308   0.000  0.00  0.00    +0.047 C 
ATOM     11  C   UNL     1      -2.650  -0.171   0.000  0.00  0.00    +0.180 C 
ATOM     12  C   UNL     1       3.213  -1.280  -0.001  0.00  0.00    +0.003 C 
ATOM     13  C   UNL     1       3.011   1.517   0.000  0.00  0.00    +0.003 C 
ATOM     14  C   UNL     1       4.364  -0.490  -0.001  0.00  0.00    +0.000 C 
ATOM     15  C   UNL     1       4.263   0.901   0.000  0.00  0.00    +0.000 C 
ENDROOT
BRANCH  11  17
ATOM     16  O   UNL     1      -4.875  -0.959  -0.001  0.00  0.00    -0.288 OA
ATOM     17  C   UNL     1      -4.063   0.002   0.000  0.00  0.00    +0.208 C 
ATOM     18  C   UNL     1      -4.693   1.401   0.000  0.00  0.00    +0.081 C 
ENDBRANCH  11  17
TORSDOF 1
