REMARK  Name = 9890801
REMARK  11 active torsions:
REMARK  status: ('A' for Active; 'I' for Inactive)
REMARK    1  A    between atoms: N_1  and  S_2
REMARK    2  A    between atoms: N_1  and  C_11
REMARK    3  A    between atoms: N_1  and  C_22
REMARK    4  A    between atoms: S_2  and  C_6
REMARK    5  A    between atoms: C_11  and  C_13
REMARK    6  A    between atoms: C_12  and  C_18
REMARK    7  A    between atoms: C_22  and  C_23
REMARK    8  A    between atoms: C_26  and  O_29
REMARK    9  A    between atoms: O_29  and  C_30
REMARK   10  A    between atoms: C_30  and  C_32
REMARK   11  A    between atoms: C_32  and  O_33
REMARK                            x       y       z     vdW  Elec       q    Type
REMARK                         _______ _______ _______ _____ _____    ______ ____
ROOT
ATOM      1  N   UNL     1       2.112  -0.047  -0.634  0.00  0.00    -0.147 NA
ENDROOT
BRANCH   1   2
ATOM      2  S   UNL     1       3.698   0.000  -1.311  0.00  0.00    +0.065 S 
ATOM      3  O   UNL     1       3.889   1.259  -2.008  0.00  0.00    -0.153 OA
ATOM      4  O   UNL     1       3.965  -1.247  -2.004  0.00  0.00    -0.153 OA
BRANCH   2   6
ATOM      5  N   UNL     1       5.975  -1.183   1.805  0.00  0.00    -0.241 NA
ATOM      6  C   UNL     1       4.732   0.034   0.127  0.00  0.00    +0.141 C 
ATOM      7  C   UNL     1       5.113   1.239   0.707  0.00  0.00    +0.023 C 
ATOM      8  C   UNL     1       5.186  -1.139   0.709  0.00  0.00    +0.119 C 
ATOM      9  C   UNL     1       5.926   1.234   1.836  0.00  0.00    +0.022 C 
ATOM     10  C   UNL     1       6.326   0.007   2.341  0.00  0.00    +0.099 C 
ENDBRANCH   2   6
ENDBRANCH   1   2
BRANCH   1  11
ATOM     11  C   UNL     1       1.767  -1.193   0.243  0.00  0.00    +0.122 C 
BRANCH  11  13
ATOM     12  C   UNL     1      -2.359  -2.300  -0.034  0.00  0.00    -0.023 C 
ATOM     13  C   UNL     1       0.330  -1.579   0.146  0.00  0.00    -0.004 C 
ATOM     14  C   UNL     1      -1.746  -2.201   1.215  0.00  0.00    -0.005 C 
ATOM     15  C   UNL     1      -1.628  -2.039  -1.193  0.00  0.00    -0.005 C 
ATOM     16  C   UNL     1      -0.402  -1.841   1.305  0.00  0.00    -0.003 C 
ATOM     17  C   UNL     1      -0.283  -1.678  -1.103  0.00  0.00    -0.003 C 
BRANCH  12  18
ATOM     18  C   UNL     1      -3.841  -2.700  -0.134  0.00  0.00    +0.019 C 
ATOM     19  C   UNL     1      -3.974  -3.999  -0.957  0.00  0.00    +0.004 C 
ATOM     20  C   UNL     1      -4.636  -1.574  -0.829  0.00  0.00    +0.004 C 
ATOM     21  C   UNL     1      -4.512  -2.955   1.234  0.00  0.00    +0.004 C 
ENDBRANCH  12  18
ENDBRANCH  11  13
ENDBRANCH   1  11
BRANCH   1  22
ATOM     22  C   UNL     1       1.534   1.228  -0.138  0.00  0.00    +0.123 C 
BRANCH  22  23
ATOM     23  C   UNL     1       0.237   1.567  -0.816  0.00  0.00    -0.001 C 
ATOM     24  C   UNL     1      -0.850   2.009  -0.062  0.00  0.00    +0.034 C 
ATOM     25  C   UNL     1       0.120   1.439  -2.200  0.00  0.00    -0.003 C 
ATOM     26  C   UNL     1      -2.054   2.323  -0.692  0.00  0.00    +0.139 C 
ATOM     27  C   UNL     1      -1.085   1.753  -2.830  0.00  0.00    +0.003 C 
ATOM     28  C   UNL     1      -2.172   2.195  -2.076  0.00  0.00    +0.037 C 
BRANCH  26  29
ATOM     29  O   UNL     1      -3.116   2.753   0.043  0.00  0.00    -0.464 OA
BRANCH  29  30
ATOM     30  C   UNL     1      -3.214   2.273   1.384  0.00  0.00    +0.314 C 
BRANCH  30  32
ATOM     31  O   UNL     1      -5.617   2.487   1.092  0.00  0.00    -0.246 OA
ATOM     32  C   UNL     1      -4.660   2.179   1.786  0.00  0.00    +0.359 C 
BRANCH  32  33
ATOM     33  O   UNL     1      -4.763   1.694   3.049  0.00  0.00    -0.478 OA
ATOM     34  H   UNL     1      -3.991   1.475   3.532  0.00  0.00    +0.295 HD
ENDBRANCH  32  33
ENDBRANCH  30  32
ENDBRANCH  29  30
ENDBRANCH  26  29
ENDBRANCH  22  23
ENDBRANCH   1  22
TORSDOF 11
