REMARK  Name = 71750
REMARK  1 active torsions:
REMARK  status: ('A' for Active; 'I' for Inactive)
REMARK    1  A    between atoms: C_15  and  N_19
REMARK                            x       y       z     vdW  Elec       q    Type
REMARK                         _______ _______ _______ _____ _____    ______ ____
ROOT
ATOM      1  O   UNL     1      -1.875   2.825   0.000  0.00  0.00    -0.269 OA
ATOM      2  N   UNL     1      -0.439   0.963   0.000  0.00  0.00    -0.226 N 
ATOM      3  N   UNL     1       0.335  -1.289   0.000  0.00  0.00    -0.391 NA
ATOM      4  C   UNL     1       0.873   1.583  -0.001  0.00  0.00    +0.130 C 
ATOM      5  C   UNL     1      -0.601  -0.401   0.000  0.00  0.00    +0.189 C 
ATOM      6  C   UNL     1      -2.031  -0.652   0.000  0.00  0.00    +0.049 C 
ATOM      7  C   UNL     1       1.976   0.561   0.000  0.00  0.00    +0.025 C 
ATOM      8  C   UNL     1      -2.668   0.584   0.000  0.00  0.00    +0.058 C 
ATOM      9  C   UNL     1      -1.641   1.631   0.000  0.00  0.00    +0.255 C 
ATOM     10  C   UNL     1       1.666  -0.816   0.000  0.00  0.00    +0.113 C 
ATOM     11  C   UNL     1       3.313   0.976   0.000  0.00  0.00    +0.013 C 
ATOM     12  C   UNL     1      -2.735  -1.837   0.000  0.00  0.00    +0.004 C 
ATOM     13  C   UNL     1      -4.043   0.695   0.000  0.00  0.00    +0.005 C 
ATOM     14  C   UNL     1       2.710  -1.748   0.000  0.00  0.00    +0.086 C 
ATOM     15  C   UNL     1       4.341   0.034   0.000  0.00  0.00    +0.037 C 
ATOM     16  C   UNL     1       4.040  -1.326   0.000  0.00  0.00    -0.005 C 
ATOM     17  C   UNL     1      -4.130  -1.748   0.000  0.00  0.00    +0.000 C 
ATOM     18  C   UNL     1      -4.777  -0.494   0.000  0.00  0.00    +0.000 C 
ENDROOT
BRANCH  15  19
ATOM     19  N   UNL     1       5.686   0.458   0.000  0.00  0.00    -0.357 N 
ATOM     20  H   UNL     1       5.900   1.419   0.000  0.00  0.00    +0.142 HD
ATOM     21  H   UNL     1       6.412  -0.207   0.000  0.00  0.00    +0.142 HD
ENDBRANCH  15  19
TORSDOF 1
