REMARK  Name = 11521822
REMARK  0 active torsions:
REMARK  status: ('A' for Active; 'I' for Inactive)
REMARK                            x       y       z     vdW  Elec       q    Type
REMARK                         _______ _______ _______ _____ _____    ______ ____
ROOT
ATOM      1  N   UNL     1       0.411  -1.167   0.143  0.00  0.00    -0.310 N 
ATOM      2  N   UNL     1       3.301  -0.796   0.374  0.00  0.00    +0.388 N 
ATOM      3  C   UNL     1      -1.965  -1.268   0.697  0.00  0.00    +0.024 C 
ATOM      4  C   UNL     1      -2.028   0.264   0.795  0.00  0.00    +0.025 C 
ATOM      5  C   UNL     1      -2.487  -1.634  -0.706  0.00  0.00    +0.002 C 
ATOM      6  C   UNL     1      -3.214   0.594  -0.122  0.00  0.00    +0.004 C 
ATOM      7  C   UNL     1      -0.577  -1.807   1.000  0.00  0.00    +0.091 C 
ATOM      8  C   UNL     1      -3.036  -0.344  -1.306  0.00  0.00    +0.000 C 
ATOM      9  C   UNL     1      -0.732   0.960   0.402  0.00  0.00    -0.010 C 
ATOM     10  C   UNL     1       0.445   0.225   0.094  0.00  0.00    +0.038 C 
ATOM     11  C   UNL     1       1.321  -1.986  -0.643  0.00  0.00    +0.068 C 
ATOM     12  C   UNL     1       1.619   0.951  -0.248  0.00  0.00    -0.031 C 
ATOM     13  C   UNL     1      -0.720   2.366   0.369  0.00  0.00    -0.003 C 
ATOM     14  C   UNL     1       2.701  -2.073   0.000  0.00  0.00    -0.059 C 
ATOM     15  C   UNL     1       2.962   0.299  -0.534  0.00  0.00    -0.053 C 
ATOM     16  C   UNL     1       1.578   2.357  -0.315  0.00  0.00    -0.005 C 
ATOM     17  C   UNL     1       0.422   3.059  -0.002  0.00  0.00    -0.001 C 
ATOM     18  H   UNL     1       4.315  -0.906   0.382  0.00  0.00    -0.084 HD
ATOM     19  H   UNL     1       2.931  -0.549   1.292  0.00  0.00    -0.084 HD
ENDROOT
TORSDOF 0
