REMARK  Name = 71242808
REMARK  7 active torsions:
REMARK  status: ('A' for Active; 'I' for Inactive)
REMARK    1  A    between atoms: N_1  and  C_6
REMARK    2  A    between atoms: C_2  and  N_17
REMARK    3  A    between atoms: C_11  and  C_12
REMARK    4  A    between atoms: C_12  and  C_14
REMARK    5  A    between atoms: C_14  and  O_15
REMARK    6  A    between atoms: N_17  and  C_20
REMARK    7  A    between atoms: C_20  and  C_22
REMARK                            x       y       z     vdW  Elec       q    Type
REMARK                         _______ _______ _______ _____ _____    ______ ____
ROOT
ATOM      1  N   UNL     1       1.519  -1.218   0.265  0.00  0.00    -0.310 N 
ATOM      2  C   UNL     1      -0.789  -1.335  -0.167  0.00  0.00    -0.040 C 
ATOM      3  C   UNL     1      -0.468  -2.213   1.037  0.00  0.00    +0.002 C 
ATOM      4  C   UNL     1       0.574  -1.192  -0.852  0.00  0.00    +0.070 C 
ATOM      5  C   UNL     1       0.880  -1.664   1.502  0.00  0.00    +0.089 C 
ENDROOT
BRANCH   1   6
ATOM      6  C   UNL     1       2.849  -0.868   0.163  0.00  0.00    +0.048 C 
ATOM      7  C   UNL     1       3.674  -0.929   1.286  0.00  0.00    +0.014 C 
ATOM      8  C   UNL     1       3.369  -0.454  -1.063  0.00  0.00    +0.014 C 
ATOM      9  C   UNL     1       5.019  -0.576   1.183  0.00  0.00    -0.002 C 
ATOM     10  C   UNL     1       4.714  -0.100  -1.166  0.00  0.00    -0.002 C 
ATOM     11  C   UNL     1       5.539  -0.161  -0.043  0.00  0.00    -0.011 C 
BRANCH  11  12
ATOM     12  C   UNL     1       6.977   0.218  -0.154  0.00  0.00    +0.136 C 
BRANCH  12  14
ATOM     13  O   UNL     1       6.376   2.523   0.350  0.00  0.00    -0.250 OA
ATOM     14  C   UNL     1       7.237   1.688   0.111  0.00  0.00    +0.318 C 
BRANCH  14  15
ATOM     15  O   UNL     1       8.562   1.988   0.051  0.00  0.00    -0.480 OA
ATOM     16  H   UNL     1       9.186   1.314  -0.135  0.00  0.00    +0.295 HD
ENDBRANCH  14  15
ENDBRANCH  12  14
ENDBRANCH  11  12
ENDBRANCH   1   6
BRANCH   2  17
ATOM     17  N   UNL     1      -1.807  -1.897  -1.038  0.00  0.00    +0.390 N 
ATOM     18  H   UNL     1      -1.652  -2.900  -1.132  0.00  0.00    -0.084 HD
ATOM     19  H   UNL     1      -1.748  -1.446  -1.951  0.00  0.00    -0.084 HD
BRANCH  17  20
ATOM     20  C   UNL     1      -3.148  -1.663  -0.476  0.00  0.00    -0.038 C 
ATOM     21  C   UNL     1      -4.111  -2.733  -1.018  0.00  0.00    -0.019 C 
BRANCH  20  22
ATOM     22  C   UNL     1      -3.636  -0.272  -0.739  0.00  0.00    -0.042 C 
ATOM     23  C   UNL     1      -4.483   0.402   0.156  0.00  0.00    -0.006 C 
ATOM     24  C   UNL     1      -3.216   0.341  -1.919  0.00  0.00    -0.006 C 
ATOM     25  C   UNL     1      -4.910   1.715  -0.151  0.00  0.00    -0.000 C 
ATOM     26  C   UNL     1      -4.915  -0.200   1.349  0.00  0.00    -0.000 C 
ATOM     27  C   UNL     1      -3.636   1.633  -2.221  0.00  0.00    -0.000 C 
ATOM     28  C   UNL     1      -4.478   2.317  -1.344  0.00  0.00    -0.000 C 
ATOM     29  C   UNL     1      -5.757   2.389   0.744  0.00  0.00    -0.000 C 
ATOM     30  C   UNL     1      -5.757   0.484   2.227  0.00  0.00    -0.000 C 
ATOM     31  C   UNL     1      -6.177   1.776   1.925  0.00  0.00    -0.000 C 
ENDBRANCH  20  22
ENDBRANCH  17  20
ENDBRANCH   2  17
TORSDOF 7
