REMARK  Name = 51352361
REMARK  3 active torsions:
REMARK  status: ('A' for Active; 'I' for Inactive)
REMARK    1  A    between atoms: C_2  and  C_14
REMARK    2  A    between atoms: C_5  and  N_22
REMARK    3  A    between atoms: C_23  and  C_27
REMARK                            x       y       z     vdW  Elec       q    Type
REMARK                         _______ _______ _______ _____ _____    ______ ____
ROOT
ATOM      1  F   UNL     1       3.399   2.949   0.075  0.00  0.00    -0.204 F 
ATOM      2  C   UNL     1       2.013   1.082   0.554  0.00  0.00    +0.028 C 
ATOM      3  C   UNL     1       0.741   0.509   0.573  0.00  0.00    +0.014 C 
ATOM      4  C   UNL     1       2.181   2.389   0.098  0.00  0.00    +0.138 C 
ATOM      5  C   UNL     1      -0.362   1.243   0.137  0.00  0.00    +0.050 C 
ATOM      6  C   UNL     1       1.078   3.124  -0.338  0.00  0.00    +0.031 C 
ATOM      7  C   UNL     1      -0.193   2.550  -0.319  0.00  0.00    +0.017 C 
ENDROOT
BRANCH   2  14
ATOM      8  S   UNL     1       3.743  -0.936  -1.392  0.00  0.00    +0.061 S 
ATOM      9  O   UNL     1       4.923  -1.454  -2.060  0.00  0.00    -0.154 OA
ATOM     10  O   UNL     1       2.729  -0.219  -2.139  0.00  0.00    -0.154 OA
ATOM     11  N   UNL     1       2.999  -2.205  -0.499  0.00  0.00    -0.165 N 
ATOM     12  N   UNL     1       2.866  -1.031   1.618  0.00  0.00    -0.240 NA
ATOM     13  N   UNL     1       2.348  -3.285   1.518  0.00  0.00    -0.330 N 
ATOM     14  C   UNL     1       3.225   0.270   1.034  0.00  0.00    +0.132 C 
ATOM     15  C   UNL     1       4.304   0.074  -0.042  0.00  0.00    +0.199 C 
ATOM     16  C   UNL     1       3.868   1.052   2.205  0.00  0.00    +0.031 C 
ATOM     17  C   UNL     1       2.741  -2.113   0.922  0.00  0.00    +0.197 C 
ATOM     18  C   UNL     1       2.642  -3.402  -1.318  0.00  0.00    +0.142 C 
ATOM     19  H   UNL     1       2.256  -4.104   0.979  0.00  0.00    +0.145 HD
ATOM     20  H   UNL     1       2.157  -3.308   2.483  0.00  0.00    +0.145 HD
ENDBRANCH   2  14
BRANCH   5  22
ATOM     21  O   UNL     1      -3.012   2.379  -0.683  0.00  0.00    -0.268 OA
ATOM     22  N   UNL     1      -1.633   0.669   0.155  0.00  0.00    -0.279 N 
ATOM     23  C   UNL     1      -2.847   1.247  -0.241  0.00  0.00    +0.267 C 
ATOM     24  H   UNL     1      -1.684  -0.256   0.488  0.00  0.00    +0.155 HD
BRANCH  23  27
ATOM     25  F   UNL     1      -7.193  -2.173   0.240  0.00  0.00    -0.203 F 
ATOM     26  N   UNL     1      -3.805  -0.880   0.340  0.00  0.00    -0.237 NA
ATOM     27  C   UNL     1      -4.039   0.366  -0.129  0.00  0.00    +0.135 C 
ATOM     28  C   UNL     1      -5.290   0.836  -0.494  0.00  0.00    +0.026 C 
ATOM     29  C   UNL     1      -6.372  -0.029  -0.369  0.00  0.00    +0.033 C 
ATOM     30  C   UNL     1      -4.880  -1.692   0.447  0.00  0.00    +0.129 C 
ATOM     31  C   UNL     1      -6.171  -1.319   0.109  0.00  0.00    +0.159 C 
ENDBRANCH  23  27
ENDBRANCH   5  22
TORSDOF 3
