REMARK  Name = 5318980
REMARK  7 active torsions:
REMARK  status: ('A' for Active; 'I' for Inactive)
REMARK    1  A    between atoms: C_3  and  C_26
REMARK    2  A    between atoms: C_6  and  O_20
REMARK    3  A    between atoms: C_7  and  C_12
REMARK    4  A    between atoms: C_8  and  O_22
REMARK    5  A    between atoms: C_11  and  O_24
REMARK    6  A    between atoms: C_17  and  O_18
REMARK    7  A    between atoms: C_26  and  C_27
REMARK                            x       y       z     vdW  Elec       q    Type
REMARK                         _______ _______ _______ _____ _____    ______ ____
ROOT
ATOM      1  O   UNL     1      -0.290  -0.043  -0.283  0.00  0.00    -0.450 OA
ATOM      2  O   UNL     1      -1.861   3.584   0.710  0.00  0.00    -0.283 OA
ATOM      3  C   UNL     1      -2.438  -0.949  -0.653  0.00  0.00    +0.051 C 
ATOM      4  C   UNL     1      -1.649   0.143  -0.291  0.00  0.00    +0.151 A 
ATOM      5  C   UNL     1      -2.248   1.356   0.040  0.00  0.00    +0.110 A 
ATOM      6  C   UNL     1      -3.827  -0.823  -0.681  0.00  0.00    +0.136 C 
ATOM      7  C   UNL     1       0.520   1.021   0.082  0.00  0.00    +0.182 A 
ATOM      8  C   UNL     1      -3.638   1.487   0.013  0.00  0.00    +0.143 C 
ATOM      9  C   UNL     1      -1.392   2.493   0.415  0.00  0.00    +0.238 A 
ATOM     10  C   UNL     1      -4.426   0.393  -0.349  0.00  0.00    +0.073 C 
ATOM     11  C   UNL     1       0.070   2.244   0.415  0.00  0.00    +0.208 A 
ENDROOT
BRANCH   7  12
ATOM     12  C   UNL     1       1.955   0.688   0.048  0.00  0.00    +0.038 C 
ATOM     13  C   UNL     1       2.586   0.196   1.192  0.00  0.00    +0.006 C 
ATOM     14  C   UNL     1       2.684   0.864  -1.128  0.00  0.00    +0.006 C 
ATOM     15  C   UNL     1       3.944  -0.119   1.159  0.00  0.00    +0.037 C 
ATOM     16  C   UNL     1       4.043   0.548  -1.161  0.00  0.00    +0.037 C 
ATOM     17  C   UNL     1       4.673   0.057  -0.018  0.00  0.00    +0.139 C 
BRANCH  17  18
ATOM     18  O   UNL     1       5.998  -0.251  -0.050  0.00  0.00    -0.471 OA
ATOM     19  C   UNL     1       6.683  -0.047  -1.285  0.00  0.00    +0.252 C 
ENDBRANCH  17  18
ENDBRANCH   7  12
BRANCH   6  20
ATOM     20  O   UNL     1      -4.616  -1.877  -1.031  0.00  0.00    -0.506 OA
ATOM     21  H   UNL     1      -4.227  -2.699  -1.256  0.00  0.00    +0.292 HD
ENDBRANCH   6  20
BRANCH   8  22
ATOM     22  O   UNL     1      -4.273   2.651   0.327  0.00  0.00    -0.505 OA
ATOM     23  H   UNL     1      -3.775   3.405   0.574  0.00  0.00    +0.292 HD
ENDBRANCH   8  22
BRANCH  11  24
ATOM     24  O   UNL     1       0.905   3.291   0.741  0.00  0.00    -0.501 OA
ATOM     25  H   UNL     1       1.833   3.164   0.749  0.00  0.00    +0.292 HD
ENDBRANCH  11  24
BRANCH   3  26
ATOM     26  C   UNL     1      -1.804  -2.256  -1.010  0.00  0.00    +0.058 C 
BRANCH  26  27
ATOM     27  C   UNL     1      -1.620  -3.162   0.181  0.00  0.00    -0.030 C 
ATOM     28  C   UNL     1      -0.469  -3.644   0.687  0.00  0.00    -0.048 C 
ATOM     29  C   UNL     1      -0.357  -4.546   1.883  0.00  0.00    +0.026 C 
ATOM     30  C   UNL     1       0.849  -3.298   0.046  0.00  0.00    +0.026 C 
ENDBRANCH  26  27
ENDBRANCH   3  26
TORSDOF 7
