REMARK  Name = 10116877
REMARK  6 active torsions:
REMARK  status: ('A' for Active; 'I' for Inactive)
REMARK    1  A    between atoms: C_1  and  N_3
REMARK    2  A    between atoms: C_1  and  C_20
REMARK    3  A    between atoms: N_4  and  C_12
REMARK    4  A    between atoms: C_20  and  N_22
REMARK    5  A    between atoms: C_23  and  C_30
REMARK    6  A    between atoms: C_35  and  C_37
REMARK                            x       y       z     vdW  Elec       q    Type
REMARK                         _______ _______ _______ _____ _____    ______ ____
ROOT
ATOM      1  C   UNL     1      -0.891  -0.841  -0.609  0.00  0.00    -0.037 C 
ATOM      2  C   UNL     1      -1.403  -0.577  -2.024  0.00  0.00    -0.021 C 
ENDROOT
BRANCH   1   3
ATOM      3  N   UNL     1       0.302  -0.027  -0.379  0.00  0.00    +0.392 N 
ATOM      4  N   UNL     1       3.057   0.455   0.202  0.00  0.00    -0.309 N 
ATOM      5  C   UNL     1       0.827  -0.254   0.974  0.00  0.00    -0.055 C 
ATOM      6  C   UNL     1       1.337  -0.337  -1.373  0.00  0.00    -0.055 C 
ATOM      7  C   UNL     1       2.042   0.635   1.247  0.00  0.00    +0.068 C 
ATOM      8  C   UNL     1       2.570   0.548  -1.178  0.00  0.00    +0.068 C 
ATOM      9  H   UNL     1       0.040   0.954  -0.470  0.00  0.00    -0.079 HD
BRANCH   4  12
ATOM     10  O   UNL     1       5.156  -0.873  -0.957  0.00  0.00    -0.467 OA
ATOM     11  O   UNL     1       7.858  -0.059  -0.366  0.00  0.00    -0.468 OA
ATOM     12  C   UNL     1       4.377   0.814   0.498  0.00  0.00    +0.085 C 
ATOM     13  C   UNL     1       5.452   0.148  -0.091  0.00  0.00    +0.186 C 
ATOM     14  C   UNL     1       4.614   1.848   1.404  0.00  0.00    +0.018 C 
ATOM     15  C   UNL     1       6.762   0.535   0.204  0.00  0.00    +0.174 C 
ATOM     16  C   UNL     1       5.923   2.216   1.719  0.00  0.00    +0.005 C 
ATOM     17  C   UNL     1       6.998   1.559   1.121  0.00  0.00    +0.040 C 
ATOM     18  C   UNL     1       6.296  -1.694  -1.223  0.00  0.00    +0.253 C 
ATOM     19  C   UNL     1       7.508  -0.831  -1.518  0.00  0.00    +0.253 C 
ENDBRANCH   4  12
ENDBRANCH   1   3
BRANCH   1  20
ATOM     20  C   UNL     1      -1.937  -0.503   0.456  0.00  0.00    +0.079 C 
BRANCH  20  22
ATOM     21  O   UNL     1      -5.504  -1.199  -0.085  0.00  0.00    -0.270 OA
ATOM     22  N   UNL     1      -3.146  -1.265   0.292  0.00  0.00    -0.242 N 
ATOM     23  C   UNL     1      -4.414  -0.648   0.068  0.00  0.00    +0.254 C 
ATOM     24  N   UNL     1      -3.967  -3.384  -0.362  0.00  0.00    -0.229 NA
ATOM     25  C   UNL     1      -3.074  -2.729   0.357  0.00  0.00    +0.138 C 
ATOM     26  C   UNL     1      -2.091  -3.218   1.153  0.00  0.00    +0.035 C 
ATOM     27  C   UNL     1      -2.015  -4.605   1.222  0.00  0.00    +0.004 C 
ATOM     28  C   UNL     1      -3.862  -4.729  -0.270  0.00  0.00    +0.100 C 
ATOM     29  C   UNL     1      -2.913  -5.382   0.500  0.00  0.00    +0.021 C 
BRANCH  23  30
ATOM     30  C   UNL     1      -4.441   0.826  -0.008  0.00  0.00    +0.054 C 
ATOM     31  C   UNL     1      -4.271   1.443  -1.236  0.00  0.00    +0.005 C 
ATOM     32  C   UNL     1      -4.637   1.559   1.150  0.00  0.00    +0.005 C 
ATOM     33  C   UNL     1      -4.298   2.836  -1.307  0.00  0.00    +0.010 C 
ATOM     34  C   UNL     1      -4.663   2.952   1.078  0.00  0.00    +0.010 C 
ATOM     35  C   UNL     1      -4.494   3.590  -0.151  0.00  0.00    +0.068 C 
BRANCH  35  37
ATOM     36  N   UNL     1      -4.539   6.177  -0.284  0.00  0.00    -0.191 NA
ATOM     37  C   UNL     1      -4.519   5.017  -0.224  0.00  0.00    +0.100 C 
ENDBRANCH  35  37
ENDBRANCH  23  30
ENDBRANCH  20  22
ENDBRANCH   1  20
TORSDOF 6
