REMARK  Name = 10954115
REMARK  10 active torsions:
REMARK  status: ('A' for Active; 'I' for Inactive)
REMARK    1  A    between atoms: C_1  and  O_2
REMARK    2  A    between atoms: C_1  and  C_4
REMARK    3  A    between atoms: C_1  and  C_12
REMARK    4  A    between atoms: C_4  and  O_5
REMARK    5  A    between atoms: C_4  and  C_7
REMARK    6  A    between atoms: C_7  and  O_8
REMARK    7  A    between atoms: C_7  and  C_11
REMARK    8  A    between atoms: C_12  and  O_13
REMARK    9  A    between atoms: C_12  and  C_15
REMARK   10  A    between atoms: C_15  and  O_16
REMARK                            x       y       z     vdW  Elec       q    Type
REMARK                         _______ _______ _______ _____ _____    ______ ____
ROOT
ATOM      1  C   UNL     1      -0.506  -0.264   0.331  0.00  0.00    +0.169 C 
ENDROOT
BRANCH   1   2
ATOM      2  O   UNL     1      -0.561  -0.141   1.756  0.00  0.00    -0.379 OA
ATOM      3  H   UNL     1       0.300  -0.381   2.134  0.00  0.00    +0.211 HD
ENDBRANCH   1   2
BRANCH   1   4
ATOM      4  C   UNL     1       0.678   0.554  -0.214  0.00  0.00    +0.174 C 
BRANCH   4   5
ATOM      5  O   UNL     1       0.374   1.942  -0.032  0.00  0.00    -0.379 OA
ATOM      6  H   UNL     1      -0.500   2.134  -0.407  0.00  0.00    +0.211 HD
ENDBRANCH   4   5
BRANCH   4   7
ATOM      7  C   UNL     1       2.060   0.248   0.379  0.00  0.00    +0.205 C 
BRANCH   7   8
ATOM      8  O   UNL     1       2.998   1.139  -0.215  0.00  0.00    -0.375 OA
ATOM      9  H   UNL     1       2.714   2.055  -0.063  0.00  0.00    +0.211 HD
ENDBRANCH   7   8
BRANCH   7  11
ATOM     10  O   UNL     1       3.523  -1.446  -0.559  0.00  0.00    -0.286 OA
ATOM     11  C   UNL     1       2.540  -1.165   0.118  0.00  0.00    +0.239 C 
ENDBRANCH   7  11
ENDBRANCH   4   7
ENDBRANCH   1   4
BRANCH   1  12
ATOM     12  C   UNL     1      -1.888   0.124  -0.214  0.00  0.00    +0.169 C 
BRANCH  12  13
ATOM     13  O   UNL     1      -1.907  -0.164  -1.620  0.00  0.00    -0.379 OA
ATOM     14  H   UNL     1      -1.183   0.312  -2.057  0.00  0.00    +0.211 HD
ENDBRANCH  12  13
BRANCH  12  15
ATOM     15  C   UNL     1      -3.043  -0.648   0.414  0.00  0.00    +0.169 C 
BRANCH  15  16
ATOM     16  O   UNL     1      -4.268  -0.179  -0.143  0.00  0.00    -0.379 OA
ATOM     17  H   UNL     1      -5.009  -0.665   0.251  0.00  0.00    +0.211 HD
ENDBRANCH  15  16
ENDBRANCH  12  15
ENDBRANCH   1  12
TORSDOF 10
