REMARK  Name = 84098
REMARK  5 active torsions:
REMARK  status: ('A' for Active; 'I' for Inactive)
REMARK    1  A    between atoms: C_1  and  C_16
REMARK    2  A    between atoms: C_2  and  S_7
REMARK    3  A    between atoms: C_5  and  C_14
REMARK    4  A    between atoms: C_16  and  C_20
REMARK    5  A    between atoms: C_19  and  C_22
REMARK                            x       y       z     vdW  Elec       q    Type
REMARK                         _______ _______ _______ _____ _____    ______ ____
ROOT
ATOM      1  C   UNL     1      -0.373   0.288  -0.587  0.00  0.00    +0.056 C 
ATOM      2  C   UNL     1      -1.040  -0.739   0.081  0.00  0.00    +0.109 C 
ATOM      3  C   UNL     1      -1.088   1.381  -1.077  0.00  0.00    +0.004 C 
ATOM      4  C   UNL     1      -2.422  -0.673   0.259  0.00  0.00    +0.022 C 
ATOM      5  C   UNL     1      -3.137   0.420  -0.231  0.00  0.00    +0.073 C 
ATOM      6  C   UNL     1      -2.470   1.447  -0.899  0.00  0.00    +0.004 C 
ENDROOT
BRANCH   2   7
ATOM      7  S   UNL     1      -0.177  -2.126   0.712  0.00  0.00    +0.011 S 
ATOM      8  O   UNL     1       1.020  -1.638   1.379  0.00  0.00    -0.169 OA
ATOM      9  O   UNL     1      -1.116  -2.971   1.433  0.00  0.00    -0.169 OA
ATOM     10  C   UNL     1       0.327  -3.023  -0.737  0.00  0.00    +0.182 C 
ENDBRANCH   2   7
BRANCH   5  14
ATOM     11  F   UNL     1      -5.181   1.616  -0.570  0.00  0.00    -0.166 F 
ATOM     12  F   UNL     1      -5.290  -0.550  -0.610  0.00  0.00    -0.166 F 
ATOM     13  F   UNL     1      -4.975   0.485   1.276  0.00  0.00    -0.166 F 
ATOM     14  C   UNL     1      -4.614   0.491  -0.040  0.00  0.00    +0.419 C 
ENDBRANCH   5  14
BRANCH   1  16
ATOM     15  O   UNL     1       1.510  -0.265  -1.826  0.00  0.00    -0.286 OA
ATOM     16  C   UNL     1       1.069   0.256  -0.791  0.00  0.00    +0.201 C 
BRANCH  16  20
ATOM     17  O   UNL     1       3.818   1.489   1.211  0.00  0.00    -0.358 OA
ATOM     18  N   UNL     1       2.763   1.873   2.029  0.00  0.00    -0.076 NA
ATOM     19  C   UNL     1       3.327   0.867   0.109  0.00  0.00    +0.157 C 
ATOM     20  C   UNL     1       1.988   0.844   0.204  0.00  0.00    +0.094 C 
ATOM     21  C   UNL     1       1.663   1.467   1.389  0.00  0.00    +0.147 C 
BRANCH  19  22
ATOM     22  C   UNL     1       4.197   0.303  -1.018  0.00  0.00    +0.060 C 
ATOM     23  C   UNL     1       5.615  -0.093  -0.715  0.00  0.00    +0.008 C 
ATOM     24  C   UNL     1       4.584  -1.150  -0.982  0.00  0.00    +0.008 C 
ENDBRANCH  19  22
ENDBRANCH  16  20
ENDBRANCH   1  16
TORSDOF 5
