REMARK  Name = 11417567
REMARK  5 active torsions:
REMARK  status: ('A' for Active; 'I' for Inactive)
REMARK    1  A    between atoms: C_2  and  N_17
REMARK    2  A    between atoms: C_4  and  N_24
REMARK    3  A    between atoms: C_13  and  O_28
REMARK    4  A    between atoms: C_14  and  O_30
REMARK    5  A    between atoms: C_19  and  C_23
REMARK                            x       y       z     vdW  Elec       q    Type
REMARK                         _______ _______ _______ _____ _____    ______ ____
ROOT
ATOM      1  N   UNL     1       0.193   1.062   0.393  0.00  0.00    +0.392 N 
ATOM      2  C   UNL     1       2.225  -0.322   0.660  0.00  0.00    +0.035 C 
ATOM      3  C   UNL     1      -0.558  -0.034  -0.270  0.00  0.00    -0.037 C 
ATOM      4  C   UNL     1       1.466  -1.541   0.115  0.00  0.00    -0.051 C 
ATOM      5  C   UNL     1       1.629   0.977   0.103  0.00  0.00    -0.059 C 
ATOM      6  C   UNL     1      -0.047  -1.372   0.313  0.00  0.00    -0.037 C 
ATOM      7  C   UNL     1      -0.338   2.371   0.001  0.00  0.00    -0.072 C 
ATOM      8  C   UNL     1      -2.073   0.122  -0.140  0.00  0.00    -0.042 C 
ATOM      9  C   UNL     1      -1.744   2.529   0.574  0.00  0.00    +0.003 C 
ATOM     10  C   UNL     1      -2.631   1.359   0.240  0.00  0.00    -0.027 C 
ATOM     11  C   UNL     1      -2.946  -0.926  -0.479  0.00  0.00    +0.033 C 
ATOM     12  C   UNL     1      -4.022   1.504   0.345  0.00  0.00    +0.035 C 
ATOM     13  C   UNL     1      -4.331  -0.768  -0.384  0.00  0.00    +0.172 C 
ATOM     14  C   UNL     1      -4.869   0.443   0.036  0.00  0.00    +0.172 C 
ATOM     15  H   UNL     1       0.070   0.956   1.400  0.00  0.00    -0.079 HD
ENDROOT
BRANCH   2  17
ATOM     16  O   UNL     1       4.593  -0.348   2.493  0.00  0.00    -0.275 OA
ATOM     17  N   UNL     1       3.635  -0.387   0.344  0.00  0.00    -0.285 N 
ATOM     18  C   UNL     1       4.098  -0.567  -1.013  0.00  0.00    +0.096 C 
ATOM     19  C   UNL     1       5.582  -0.233  -0.933  0.00  0.00    +0.064 C 
ATOM     20  C   UNL     1       5.955  -0.611   0.504  0.00  0.00    +0.090 C 
ATOM     21  C   UNL     1       4.670  -0.416   1.275  0.00  0.00    +0.226 C 
BRANCH  19  23
ATOM     22  F   UNL     1       5.512   1.503  -2.494  0.00  0.00    -0.234 F 
ATOM     23  C   UNL     1       5.842   1.250  -1.206  0.00  0.00    +0.195 C 
ENDBRANCH  19  23
ENDBRANCH   2  17
BRANCH   4  24
ATOM     24  N   UNL     1       1.902  -2.773   0.776  0.00  0.00    +0.383 N 
ATOM     25  H   UNL     1       2.907  -2.891   0.648  0.00  0.00    -0.089 HD
ATOM     26  H   UNL     1       1.411  -3.569   0.369  0.00  0.00    -0.089 HD
ATOM     27  H   UNL     1       1.691  -2.717   1.772  0.00  0.00    -0.089 HD
ENDBRANCH   4  24
BRANCH  13  28
ATOM     28  O   UNL     1      -5.145  -1.811  -0.711  0.00  0.00    -0.468 OA
ATOM     29  C   UNL     1      -5.565  -1.904  -2.070  0.00  0.00    +0.253 C 
ENDBRANCH  13  28
BRANCH  14  30
ATOM     30  O   UNL     1      -6.216   0.607   0.137  0.00  0.00    -0.468 OA
ATOM     31  C   UNL     1      -6.816   0.286   1.391  0.00  0.00    +0.253 C 
ENDBRANCH  14  30
TORSDOF 5
