REMARK  Name = 151118
REMARK  3 active torsions:
REMARK  status: ('A' for Active; 'I' for Inactive)
REMARK    1  A    between atoms: C_1  and  C_14
REMARK    2  A    between atoms: C_4  and  N_8
REMARK    3  A    between atoms: N_13  and  C_16
REMARK                            x       y       z     vdW  Elec       q    Type
REMARK                         _______ _______ _______ _____ _____    ______ ____
ROOT
ATOM      1  C   UNL     1      -0.391  -0.193  -0.168  0.00  0.00    +0.053 C 
ATOM      2  C   UNL     1       0.530  -1.200   0.037  0.00  0.00    +0.006 C 
ATOM      3  C   UNL     1      -0.017   1.124  -0.334  0.00  0.00    +0.006 C 
ATOM      4  C   UNL     1       2.290   0.451  -0.086  0.00  0.00    +0.050 C 
ATOM      5  C   UNL     1       1.886  -0.874   0.078  0.00  0.00    +0.015 C 
ATOM      6  C   UNL     1       1.338   1.450  -0.292  0.00  0.00    +0.015 C 
ENDROOT
BRANCH   4   8
ATOM      7  O   UNL     1       4.710  -1.294   0.320  0.00  0.00    -0.275 OA
ATOM      8  N   UNL     1       3.646   0.778  -0.045  0.00  0.00    -0.284 N 
ATOM      9  C   UNL     1       4.737  -0.079   0.149  0.00  0.00    +0.227 C 
ATOM     10  C   UNL     1       6.046   0.668   0.127  0.00  0.00    +0.095 C 
ATOM     11  H   UNL     1       3.863   1.730  -0.168  0.00  0.00    +0.155 HD
ENDBRANCH   4   8
BRANCH   1  14
ATOM     12  O   UNL     1      -2.170  -1.674  -0.544  0.00  0.00    -0.270 OA
ATOM     13  N   UNL     1      -2.703   0.469   0.160  0.00  0.00    -0.304 N 
ATOM     14  C   UNL     1      -1.835  -0.540  -0.211  0.00  0.00    +0.246 C 
ATOM     15  H   UNL     1      -2.334   1.347   0.410  0.00  0.00    +0.150 HD
BRANCH  13  16
ATOM     16  C   UNL     1      -4.142   0.278   0.194  0.00  0.00    +0.057 C 
ATOM     17  C   UNL     1      -4.809   1.545   0.741  0.00  0.00    +0.020 C 
ATOM     18  C   UNL     1      -4.643   0.000  -1.227  0.00  0.00    +0.020 C 
ATOM     19  C   UNL     1      -4.474  -0.911   1.103  0.00  0.00    +0.020 C 
ENDBRANCH  13  16
ENDBRANCH   1  14
TORSDOF 3
