REMARK  Name = 216466
REMARK  9 active torsions:
REMARK  status: ('A' for Active; 'I' for Inactive)
REMARK    1  A    between atoms: N_5  and  C_28
REMARK    2  A    between atoms: N_6  and  C_31
REMARK    3  A    between atoms: C_7  and  C_15
REMARK    4  A    between atoms: C_14  and  C_22
REMARK    5  A    between atoms: C_22  and  C_23
REMARK    6  A    between atoms: C_23  and  C_25
REMARK    7  A    between atoms: C_25  and  O_26
REMARK    8  A    between atoms: C_28  and  C_29
REMARK    9  A    between atoms: C_31  and  C_32
REMARK                            x       y       z     vdW  Elec       q    Type
REMARK                         _______ _______ _______ _____ _____    ______ ____
ROOT
ATOM      1  O   UNL     1       2.982   2.955  -0.174  0.00  0.00    -0.265 OA
ATOM      2  O   UNL     1       5.629  -0.909  -0.504  0.00  0.00    -0.246 OA
ATOM      3  N   UNL     1       0.650   1.093  -0.162  0.00  0.00    -0.313 N 
ATOM      4  N   UNL     1       0.860  -1.123  -0.290  0.00  0.00    -0.304 N 
ATOM      5  N   UNL     1       3.318  -1.163  -0.408  0.00  0.00    -0.269 N 
ATOM      6  N   UNL     1       4.333   1.035  -0.339  0.00  0.00    -0.248 N 
ATOM      7  C   UNL     1       0.017  -0.120  -0.198  0.00  0.00    +0.145 C 
ATOM      8  C   UNL     1       1.990   0.840  -0.238  0.00  0.00    +0.133 A 
ATOM      9  C   UNL     1       2.091  -0.522  -0.316  0.00  0.00    +0.132 A 
ATOM     10  C   UNL     1       3.101   1.735  -0.243  0.00  0.00    +0.280 A 
ATOM     11  C   UNL     1       4.508  -0.394  -0.423  0.00  0.00    +0.335 A 
ATOM     12  H   UNL     1       0.222   1.977  -0.095  0.00  0.00    +0.148 HD
ATOM     13  H   UNL     1       0.655  -2.085  -0.332  0.00  0.00    +0.150 HD
ENDROOT
BRANCH   7  15
ATOM     14  C   UNL     1      -4.103  -0.392  -0.023  0.00  0.00    +0.001 C 
ATOM     15  C   UNL     1      -1.459  -0.213  -0.135  0.00  0.00    +0.034 C 
ATOM     16  C   UNL     1      -3.545   0.276   1.250  0.00  0.00    +0.000 C 
ATOM     17  C   UNL     1      -3.473  -1.790  -0.144  0.00  0.00    +0.000 C 
ATOM     18  C   UNL     1      -3.661   0.439  -1.245  0.00  0.00    +0.000 C 
ATOM     19  C   UNL     1      -2.014   0.372   1.193  0.00  0.00    +0.003 C 
ATOM     20  C   UNL     1      -1.943  -1.690  -0.209  0.00  0.00    +0.003 C 
ATOM     21  C   UNL     1      -2.131   0.537  -1.317  0.00  0.00    +0.003 C 
BRANCH  14  22
ATOM     22  C   UNL     1      -5.628  -0.488   0.041  0.00  0.00    +0.012 C 
BRANCH  22  23
ATOM     23  C   UNL     1      -6.292   0.874   0.172  0.00  0.00    +0.109 C 
BRANCH  23  25
ATOM     24  O   UNL     1      -8.399  -0.300   0.281  0.00  0.00    -0.250 OA
ATOM     25  C   UNL     1      -7.795   0.764   0.235  0.00  0.00    +0.314 C 
BRANCH  25  26
ATOM     26  O   UNL     1      -8.412   1.971   0.264  0.00  0.00    -0.480 OA
ATOM     27  H   UNL     1      -7.904   2.758   0.227  0.00  0.00    +0.295 HD
ENDBRANCH  25  26
ENDBRANCH  23  25
ENDBRANCH  22  23
ENDBRANCH  14  22
ENDBRANCH   7  15
BRANCH   5  28
ATOM     28  C   UNL     1       3.374  -2.618  -0.489  0.00  0.00    +0.112 C 
BRANCH  28  29
ATOM     29  C   UNL     1       3.463  -3.272   0.884  0.00  0.00    +0.025 C 
ATOM     30  C   UNL     1       3.544  -4.790   0.808  0.00  0.00    +0.002 C 
ENDBRANCH  28  29
ENDBRANCH   5  28
BRANCH   6  31
ATOM     31  C   UNL     1       5.546   1.845  -0.354  0.00  0.00    +0.114 C 
BRANCH  31  32
ATOM     32  C   UNL     1       6.096   2.093   1.045  0.00  0.00    +0.025 C 
ATOM     33  C   UNL     1       7.350   2.956   1.040  0.00  0.00    +0.002 C 
ENDBRANCH  31  32
ENDBRANCH   6  31
TORSDOF 9
