REMARK  Name = 107930
REMARK  1 active torsions:
REMARK  status: ('A' for Active; 'I' for Inactive)
REMARK    1  A    between atoms: C_19  and  O_23
REMARK                            x       y       z     vdW  Elec       q    Type
REMARK                         _______ _______ _______ _____ _____    ______ ____
ROOT
ATOM      1 CL   UNL     1       5.082   1.583  -0.257  0.00  0.00    -0.079 Cl
ATOM      2  N   UNL     1      -0.294  -3.042  -0.248  0.00  0.00    +0.387 N 
ATOM      3  C   UNL     1      -0.782  -1.712  -0.676  0.00  0.00    -0.050 C 
ATOM      4  C   UNL     1      -0.573  -0.564   0.369  0.00  0.00    +0.025 C 
ATOM      5  C   UNL     1      -2.236  -1.802  -1.181  0.00  0.00    -0.016 C 
ATOM      6  C   UNL     1      -1.675   0.496   0.396  0.00  0.00    -0.024 C 
ATOM      7  C   UNL     1       0.846  -0.002   0.200  0.00  0.00    -0.021 C 
ATOM      8  C   UNL     1      -2.701  -0.448  -1.706  0.00  0.00    +0.024 C 
ATOM      9  C   UNL     1      -2.666   0.565  -0.598  0.00  0.00    -0.026 C 
ATOM     10  C   UNL     1       1.164  -3.121  -0.083  0.00  0.00    -0.073 C 
ATOM     11  C   UNL     1       1.789  -2.231   1.001  0.00  0.00    +0.003 C 
ATOM     12  C   UNL     1       1.959  -0.804   0.538  0.00  0.00    -0.027 C 
ATOM     13  C   UNL     1      -1.006  -3.651   0.873  0.00  0.00    -0.101 C 
ATOM     14  C   UNL     1      -1.712   1.425   1.454  0.00  0.00    -0.004 C 
ATOM     15  C   UNL     1       1.085   1.277  -0.337  0.00  0.00    +0.033 C 
ATOM     16  C   UNL     1      -3.626   1.587  -0.558  0.00  0.00    -0.005 C 
ATOM     17  C   UNL     1       3.259  -0.288   0.398  0.00  0.00    +0.010 C 
ATOM     18  C   UNL     1      -2.682   2.426   1.495  0.00  0.00    -0.000 C 
ATOM     19  C   UNL     1       2.382   1.774  -0.476  0.00  0.00    +0.144 C 
ATOM     20  C   UNL     1      -3.633   2.512   0.484  0.00  0.00    -0.000 C 
ATOM     21  C   UNL     1       3.469   0.996  -0.099  0.00  0.00    +0.091 C 
ATOM     22  H   UNL     1      -0.532  -3.625  -1.050  0.00  0.00    -0.080 HD
ENDROOT
BRANCH  19  23
ATOM     23  O   UNL     1       2.551   3.026  -0.989  0.00  0.00    -0.505 OA
ATOM     24  H   UNL     1       1.805   3.535  -1.237  0.00  0.00    +0.292 HD
ENDBRANCH  19  23
TORSDOF 1
