REMARK  Name = 3008897
REMARK  4 active torsions:
REMARK  status: ('A' for Active; 'I' for Inactive)
REMARK    1  A    between atoms: N_3  and  C_12
REMARK    2  A    between atoms: C_13  and  C_16
REMARK    3  A    between atoms: C_13  and  C_18
REMARK    4  A    between atoms: C_18  and  O_19
REMARK                            x       y       z     vdW  Elec       q    Type
REMARK                         _______ _______ _______ _____ _____    ______ ____
ROOT
ATOM      1  O   UNL     1      -1.791  -2.815   0.195  0.00  0.00    -0.252 OA
ATOM      2  O   UNL     1      -4.559   0.855   0.341  0.00  0.00    -0.270 OA
ATOM      3  N   UNL     1      -0.854  -0.701  -0.115  0.00  0.00    -0.215 N 
ATOM      4  N   UNL     1      -3.160  -0.976   0.264  0.00  0.00    -0.236 N 
ATOM      5  C   UNL     1      -1.055   0.662  -0.190  0.00  0.00    +0.072 C 
ATOM      6  C   UNL     1      -1.911  -1.590   0.118  0.00  0.00    +0.316 C 
ATOM      7  C   UNL     1      -2.251   1.246  -0.050  0.00  0.00    +0.047 C 
ATOM      8  C   UNL     1      -3.434   0.382   0.202  0.00  0.00    +0.250 C 
ATOM      9  C   UNL     1      -2.465   2.724  -0.132  0.00  0.00    +0.037 C 
ATOM     10  H   UNL     1      -3.926  -1.572   0.429  0.00  0.00    +0.159 HD
ENDROOT
BRANCH   3  12
ATOM     11  O   UNL     1       1.349  -0.641   0.737  0.00  0.00    -0.320 OA
ATOM     12  C   UNL     1       0.506  -1.198  -0.288  0.00  0.00    +0.224 C 
ATOM     13  C   UNL     1       2.389   0.142   0.106  0.00  0.00    +0.194 C 
ATOM     14  C   UNL     1       1.064  -0.735  -1.579  0.00  0.00    +0.023 C 
ATOM     15  C   UNL     1       2.138   0.022  -1.359  0.00  0.00    +0.015 C 
BRANCH  13  16
ATOM     16  C   UNL     1       3.700  -0.423   0.446  0.00  0.00    -0.045 C 
ATOM     17  C   UNL     1       4.773  -0.886   0.724  0.00  0.00    -0.011 C 
ENDBRANCH  13  16
BRANCH  13  18
ATOM     18  C   UNL     1       2.270   1.581   0.595  0.00  0.00    +0.181 C 
BRANCH  18  19
ATOM     19  O   UNL     1       3.290   2.351  -0.015  0.00  0.00    -0.378 OA
ATOM     20  H   UNL     1       3.226   3.270   0.288  0.00  0.00    +0.211 HD
ENDBRANCH  18  19
ENDBRANCH  13  18
ENDBRANCH   3  12
TORSDOF 4
