REMARK  Name = 11178958
REMARK  2 active torsions:
REMARK  status: ('A' for Active; 'I' for Inactive)
REMARK    1  A    between atoms: C_11  and  C_31
REMARK    2  A    between atoms: C_12  and  O_34
REMARK                            x       y       z     vdW  Elec       q    Type
REMARK                         _______ _______ _______ _____ _____    ______ ____
ROOT
ATOM      1  S   UNL     1       1.402   3.818   1.296  0.00  0.00    -0.080 S 
ATOM      2  S   UNL     1       2.460   2.201   2.002  0.00  0.00    -0.082 S 
ATOM      3  O   UNL     1      -0.129  -2.095   0.535  0.00  0.00    -0.447 OA
ATOM      4  O   UNL     1      -1.974   2.338  -2.083  0.00  0.00    -0.273 OA
ATOM      5  O   UNL     1      -0.933  -4.203   0.028  0.00  0.00    -0.250 OA
ATOM      6  O   UNL     1       1.593   1.716  -3.086  0.00  0.00    -0.273 OA
ATOM      7  O   UNL     1       1.685  -2.394  -2.198  0.00  0.00    -0.275 OA
ATOM      8  N   UNL     1      -1.665   0.722  -0.448  0.00  0.00    -0.302 N 
ATOM      9  N   UNL     1       1.063   1.384  -0.859  0.00  0.00    -0.296 N 
ATOM     10  N   UNL     1       2.720  -0.833  -0.830  0.00  0.00    -0.298 N 
ATOM     11  C   UNL     1      -2.982   0.091  -0.543  0.00  0.00    +0.099 C 
ATOM     12  C   UNL     1      -2.918  -1.359  -0.021  0.00  0.00    +0.139 C 
ATOM     13  C   UNL     1      -2.003  -2.239  -0.882  0.00  0.00    +0.140 C 
ATOM     14  C   UNL     1       0.050   2.426  -0.783  0.00  0.00    +0.160 C 
ATOM     15  C   UNL     1      -1.282   1.813  -1.212  0.00  0.00    +0.241 C 
ATOM     16  C   UNL     1      -0.989  -2.983  -0.047  0.00  0.00    +0.320 C 
ATOM     17  C   UNL     1      -0.105   3.043   0.613  0.00  0.00    +0.098 C 
ATOM     18  C   UNL     1       1.053  -2.629   1.164  0.00  0.00    +0.200 C 
ATOM     19  C   UNL     1       2.949   0.166  -1.862  0.00  0.00    +0.149 C 
ATOM     20  C   UNL     1       2.088  -2.997   0.088  0.00  0.00    +0.133 C 
ATOM     21  C   UNL     1       1.770   1.121  -2.021  0.00  0.00    +0.241 C 
ATOM     22  C   UNL     1       2.131  -2.054  -1.103  0.00  0.00    +0.227 C 
ATOM     23  C   UNL     1       1.611  -1.677   2.193  0.00  0.00    +0.013 C 
ATOM     24  C   UNL     1       4.217   0.957  -1.569  0.00  0.00    +0.031 C 
ATOM     25  C   UNL     1       0.991  -0.615   2.731  0.00  0.00    -0.026 C 
ATOM     26  C   UNL     1       1.622   0.249   3.793  0.00  0.00    +0.038 C 
ATOM     27  C   UNL     1       1.529   1.750   3.504  0.00  0.00    +0.073 C 
ATOM     28  H   UNL     1      -1.017   0.351   0.194  0.00  0.00    +0.150 HD
ATOM     29  H   UNL     1       1.254   0.847  -0.056  0.00  0.00    +0.150 HD
ATOM     30  H   UNL     1       2.995  -0.634   0.094  0.00  0.00    +0.150 HD
ENDROOT
BRANCH  11  31
ATOM     31  C   UNL     1      -4.003   0.923   0.238  0.00  0.00    +0.020 C 
ATOM     32  C   UNL     1      -3.650   0.942   1.722  0.00  0.00    +0.002 C 
ATOM     33  C   UNL     1      -4.072   2.341  -0.320  0.00  0.00    +0.002 C 
ENDBRANCH  11  31
BRANCH  12  34
ATOM     34  O   UNL     1      -4.230  -1.924  -0.039  0.00  0.00    -0.382 OA
ATOM     35  H   UNL     1      -4.823  -1.379   0.502  0.00  0.00    +0.210 HD
ENDBRANCH  12  34
TORSDOF 2
