REMARK  Name = 44557636
REMARK  4 active torsions:
REMARK  status: ('A' for Active; 'I' for Inactive)
REMARK    1  A    between atoms: C_4  and  C_11
REMARK    2  A    between atoms: C_11  and  C_12
REMARK    3  A    between atoms: C_12  and  C_13
REMARK    4  A    between atoms: C_14  and  C_16
REMARK                            x       y       z     vdW  Elec       q    Type
REMARK                         _______ _______ _______ _____ _____    ______ ____
ROOT
ATOM      1  F   UNL     1       5.341  -2.122  -0.776  0.00  0.00    -0.203 F 
ATOM      2  N   UNL     1       2.921   0.469  -0.159  0.00  0.00    -0.253 N 
ATOM      3  N   UNL     1       1.022   0.679   1.006  0.00  0.00    -0.394 NA
ATOM      4  C   UNL     1       1.321   1.857   0.370  0.00  0.00    +0.110 C 
ATOM      5  C   UNL     1       1.994  -0.148   0.679  0.00  0.00    +0.187 C 
ATOM      6  C   UNL     1       2.485   1.754  -0.354  0.00  0.00    +0.152 C 
ATOM      7  C   UNL     1       4.051  -0.171  -0.660  0.00  0.00    +0.098 C 
ATOM      8  C   UNL     1       2.238  -1.511   1.028  0.00  0.00    +0.050 C 
ATOM      9  C   UNL     1       4.265  -1.451  -0.322  0.00  0.00    +0.155 C 
ATOM     10  C   UNL     1       3.329  -2.138   0.547  0.00  0.00    +0.035 C 
ENDROOT
BRANCH   4  11
ATOM     11  C   UNL     1       0.440   3.026   0.511  0.00  0.00    +0.070 C 
BRANCH  11  12
ATOM     12  C   UNL     1      -0.683   3.120  -0.550  0.00  0.00    +0.084 C 
BRANCH  12  13
ATOM     13  C   UNL     1      -1.609   1.981  -0.459  0.00  0.00    -0.085 C 
ATOM     14  C   UNL     1      -2.361   1.050  -0.363  0.00  0.00    -0.045 C 
BRANCH  14  16
ATOM     15  N   UNL     1      -4.475   0.249   0.255  0.00  0.00    -0.236 NA
ATOM     16  C   UNL     1      -3.252  -0.061  -0.229  0.00  0.00    +0.123 C 
ATOM     17  C   UNL     1      -2.857  -1.343  -0.577  0.00  0.00    +0.028 C 
ATOM     18  C   UNL     1      -3.778  -2.372  -0.419  0.00  0.00    +0.004 C 
ATOM     19  C   UNL     1      -5.047  -2.093   0.076  0.00  0.00    +0.021 C 
ATOM     20  C   UNL     1      -5.343  -0.777   0.395  0.00  0.00    +0.100 C 
ENDBRANCH  14  16
ENDBRANCH  12  13
ENDBRANCH  11  12
ENDBRANCH   4  11
TORSDOF 4
