REMARK  Name = 76968809
REMARK  9 active torsions:
REMARK  status: ('A' for Active; 'I' for Inactive)
REMARK    1  A    between atoms: P_1  and  N_16
REMARK    2  A    between atoms: C_5  and  S_9
REMARK    3  A    between atoms: S_9  and  C_10
REMARK    4  A    between atoms: C_10  and  C_11
REMARK    5  A    between atoms: C_11  and  S_12
REMARK    6  A    between atoms: N_16  and  C_17
REMARK    7  A    between atoms: N_16  and  C_20
REMARK    8  A    between atoms: C_17  and  C_19
REMARK    9  A    between atoms: C_20  and  C_22
REMARK                            x       y       z     vdW  Elec       q    Type
REMARK                         _______ _______ _______ _____ _____    ______ ____
ROOT
ATOM      1  P   UNL     1      -2.004  -0.932   0.822  0.00  0.00    +0.349 P 
ATOM      2  O   UNL     1      -2.620  -2.072  -0.169  0.00  0.00    -0.292 OA
ATOM      3  O   UNL     1      -2.839  -0.836   2.076  0.00  0.00    -0.254 OA
ATOM      4  N   UNL     1      -0.431  -1.403   1.072  0.00  0.00    -0.214 NA
ATOM      5  C   UNL     1       0.325  -1.935  -0.060  0.00  0.00    +0.113 C 
ATOM      6  C   UNL     1      -0.477  -3.035  -0.773  0.00  0.00    +0.060 C 
ATOM      7  C   UNL     1      -1.830  -2.522  -1.264  0.00  0.00    +0.154 C 
ATOM      8  H   UNL     1      -0.443  -2.125   1.792  0.00  0.00    +0.134 HD
ENDROOT
BRANCH   5   9
ATOM      9  S   UNL     1       1.922  -2.613   0.495  0.00  0.00    -0.123 S 
BRANCH   9  10
ATOM     10  C   UNL     1       2.811  -1.052   0.687  0.00  0.00    +0.085 C 
BRANCH  10  11
ATOM     11  C   UNL     1       3.333  -0.570  -0.654  0.00  0.00    +0.170 C 
BRANCH  11  12
ATOM     12  S   UNL     1       4.172   0.976  -0.487  0.00  0.00    +0.023 S 
ATOM     13  O   UNL     1       4.745   1.071  -2.011  0.00  0.00    -0.069 OA
ATOM     14  O   UNL     1       5.290   0.807   0.422  0.00  0.00    -0.069 OA
ATOM     15  O   UNL     1       3.186   2.023  -0.293  0.00  0.00    -0.069 OA
ENDBRANCH  11  12
ENDBRANCH  10  11
ENDBRANCH   9  10
ENDBRANCH   5   9
BRANCH   1  16
ATOM     16  N   UNL     1      -1.951   0.469  -0.068  0.00  0.00    -0.196 NA
BRANCH  16  17
ATOM     17  C   UNL     1      -1.024   1.501   0.391  0.00  0.00    +0.099 C 
BRANCH  17  19
ATOM     18 CL   UNL     1      -0.183   3.104   2.411  0.00  0.00    -0.112 Cl
ATOM     19  C   UNL     1      -1.296   1.833   1.850  0.00  0.00    +0.113 C 
ENDBRANCH  17  19
ENDBRANCH  16  17
BRANCH  16  20
ATOM     20  C   UNL     1      -3.236   1.074  -0.412  0.00  0.00    +0.099 C 
BRANCH  20  22
ATOM     21 CL   UNL     1      -4.724   2.436  -2.226  0.00  0.00    -0.112 Cl
ATOM     22  C   UNL     1      -3.169   1.679  -1.806  0.00  0.00    +0.113 C 
ENDBRANCH  20  22
ENDBRANCH  16  20
ENDBRANCH   1  16
TORSDOF 9
