5160
  -OEChem-10051722413D

 62 63  0     1  0  0  0  0  0999 V2000
   -2.5951   -0.2290   -0.1604 O   0  0  0  0  0  0  0  0  0  0  0  0
   -0.3572   -1.5594    0.8170 O   0  0  0  0  0  0  0  0  0  0  0  0
    0.6642   -3.5237    1.4629 O   0  0  0  0  0  0  0  0  0  0  0  0
    3.6247    0.3193   -2.1392 O   0  0  0  0  0  0  0  0  0  0  0  0
    5.4972   -1.5450    1.7933 O   0  0  0  0  0  0  0  0  0  0  0  0
    4.0464    0.1138    2.3467 O   0  0  0  0  0  0  0  0  0  0  0  0
   -2.4225   -3.4350   -1.6187 N   0  0  0  0  0  0  0  0  0  0  0  0
   -1.5036   -2.2978    0.3819 C   0  0  2  0  0  0  0  0  0  0  0  0
   -1.2833   -2.7074   -1.0762 C   0  0  0  0  0  0  0  0  0  0  0  0
   -2.7454   -1.4326    0.5860 C   0  0  0  0  0  0  0  0  0  0  0  0
   -1.0137    2.0534    0.5242 C   0  0  0  0  0  0  0  0  0  0  0  0
   -2.4982    2.0201    0.6799 C   0  0  0  0  0  0  0  0  0  0  0  0
   -0.5392    2.5632   -0.8504 C   0  0  0  0  0  0  0  0  0  0  0  0
   -3.2260    0.8825    0.3310 C   0  0  0  0  0  0  0  0  0  0  0  0
    0.9624    2.5559   -1.0017 C   0  0  0  0  0  0  0  0  0  0  0  0
   -3.1569    3.1433    1.1800 C   0  0  0  0  0  0  0  0  0  0  0  0
   -2.4738   -3.3030   -3.0763 C   0  0  0  0  0  0  0  0  0  0  0  0
   -2.3609   -4.8484   -1.2402 C   0  0  0  0  0  0  0  0  0  0  0  0
   -4.6126    0.8683    0.4820 C   0  0  0  0  0  0  0  0  0  0  0  0
    0.6600   -2.3067    1.3412 C   0  0  0  0  0  0  0  0  0  0  0  0
   -4.5434    3.1291    1.3311 C   0  0  0  0  0  0  0  0  0  0  0  0
   -5.2713    1.9915    0.9821 C   0  0  0  0  0  0  0  0  0  0  0  0
    1.7842   -1.3797    1.7508 C   0  0  0  0  0  0  0  0  0  0  0  0
    1.6075    1.4267   -1.5062 C   0  0  0  0  0  0  0  0  0  0  0  0
    1.7053    3.6789   -0.6371 C   0  0  0  0  0  0  0  0  0  0  0  0
    2.9953    1.4205   -1.6462 C   0  0  0  0  0  0  0  0  0  0  0  0
    3.1653   -1.9990    1.5733 C   0  0  0  0  0  0  0  0  0  0  0  0
    3.0930    3.6727   -0.7770 C   0  0  0  0  0  0  0  0  0  0  0  0
    3.7380    2.5435   -1.2816 C   0  0  0  0  0  0  0  0  0  0  0  0
    4.2549   -1.0220    1.9403 C   0  0  0  0  0  0  0  0  0  0  0  0
    2.8048   -0.7938   -2.4923 C   0  0  0  0  0  0  0  0  0  0  0  0
   -1.6348   -3.1861    1.0121 H   0  0  0  0  0  0  0  0  0  0  0  0
   -0.3489   -3.2748   -1.1854 H   0  0  0  0  0  0  0  0  0  0  0  0
   -1.1074   -1.7857   -1.6495 H   0  0  0  0  0  0  0  0  0  0  0  0
   -3.6555   -1.9522    0.2680 H   0  0  0  0  0  0  0  0  0  0  0  0
   -2.8330   -1.1970    1.6551 H   0  0  0  0  0  0  0  0  0  0  0  0
   -0.5832    2.6878    1.3118 H   0  0  0  0  0  0  0  0  0  0  0  0
   -0.5913    1.0612    0.7198 H   0  0  0  0  0  0  0  0  0  0  0  0
   -0.9158    3.5806   -1.0212 H   0  0  0  0  0  0  0  0  0  0  0  0
   -0.9853    1.9548   -1.6487 H   0  0  0  0  0  0  0  0  0  0  0  0
   -2.6025    4.0372    1.4534 H   0  0  0  0  0  0  0  0  0  0  0  0
   -2.5910   -2.2523   -3.3645 H   0  0  0  0  0  0  0  0  0  0  0  0
   -1.5717   -3.6969   -3.5584 H   0  0  0  0  0  0  0  0  0  0  0  0
   -3.3423   -3.8348   -3.4808 H   0  0  0  0  0  0  0  0  0  0  0  0
   -2.3845   -4.9718   -0.1528 H   0  0  0  0  0  0  0  0  0  0  0  0
   -1.4612   -5.3427   -1.6250 H   0  0  0  0  0  0  0  0  0  0  0  0
   -3.2353   -5.3841   -1.6275 H   0  0  0  0  0  0  0  0  0  0  0  0
   -5.1944   -0.0069    0.2060 H   0  0  0  0  0  0  0  0  0  0  0  0
   -5.0566    4.0040    1.7194 H   0  0  0  0  0  0  0  0  0  0  0  0
   -6.3512    1.9814    1.0976 H   0  0  0  0  0  0  0  0  0  0  0  0
    1.7245   -0.4668    1.1450 H   0  0  0  0  0  0  0  0  0  0  0  0
    1.6156   -1.0925    2.7950 H   0  0  0  0  0  0  0  0  0  0  0  0
    0.9809    0.5808   -1.7696 H   0  0  0  0  0  0  0  0  0  0  0  0
    1.2140    4.5636   -0.2409 H   0  0  0  0  0  0  0  0  0  0  0  0
    3.2641   -2.8833    2.2122 H   0  0  0  0  0  0  0  0  0  0  0  0
    3.3078   -2.3037    0.5307 H   0  0  0  0  0  0  0  0  0  0  0  0
    3.6715    4.5467   -0.4923 H   0  0  0  0  0  0  0  0  0  0  0  0
    4.8193    2.5443   -1.3878 H   0  0  0  0  0  0  0  0  0  0  0  0
    3.4705   -1.5822   -2.8588 H   0  0  0  0  0  0  0  0  0  0  0  0
    2.1213   -0.5457   -3.3114 H   0  0  0  0  0  0  0  0  0  0  0  0
    2.2782   -1.2002   -1.6222 H   0  0  0  0  0  0  0  0  0  0  0  0
    6.1964   -0.9042    2.0441 H   0  0  0  0  0  0  0  0  0  0  0  0
  1 10  1  0  0  0  0
  1 14  1  0  0  0  0
  2  8  1  0  0  0  0
  2 20  1  0  0  0  0
  3 20  2  0  0  0  0
  4 26  1  0  0  0  0
  4 31  1  0  0  0  0
  5 30  1  0  0  0  0
  5 62  1  0  0  0  0
  6 30  2  0  0  0  0
  7  9  1  0  0  0  0
  7 17  1  0  0  0  0
  7 18  1  0  0  0  0
  8  9  1  0  0  0  0
  8 10  1  0  0  0  0
  8 32  1  0  0  0  0
  9 33  1  0  0  0  0
  9 34  1  0  0  0  0
 10 35  1  0  0  0  0
 10 36  1  0  0  0  0
 11 12  1  0  0  0  0
 11 13  1  0  0  0  0
 11 37  1  0  0  0  0
 11 38  1  0  0  0  0
 12 14  1  0  0  0  0
 12 16  2  0  0  0  0
 13 15  1  0  0  0  0
 13 39  1  0  0  0  0
 13 40  1  0  0  0  0
 14 19  2  0  0  0  0
 15 24  2  0  0  0  0
 15 25  1  0  0  0  0
 16 21  1  0  0  0  0
 16 41  1  0  0  0  0
 17 42  1  0  0  0  0
 17 43  1  0  0  0  0
 17 44  1  0  0  0  0
 18 45  1  0  0  0  0
 18 46  1  0  0  0  0
 18 47  1  0  0  0  0
 19 22  1  0  0  0  0
 19 48  1  0  0  0  0
 20 23  1  0  0  0  0
 21 22  2  0  0  0  0
 21 49  1  0  0  0  0
 22 50  1  0  0  0  0
 23 27  1  0  0  0  0
 23 51  1  0  0  0  0
 23 52  1  0  0  0  0
 24 26  1  0  0  0  0
 24 53  1  0  0  0  0
 25 28  2  0  0  0  0
 25 54  1  0  0  0  0
 26 29  2  0  0  0  0
 27 30  1  0  0  0  0
 27 55  1  0  0  0  0
 27 56  1  0  0  0  0
 28 29  1  0  0  0  0
 28 57  1  0  0  0  0
 29 58  1  0  0  0  0
 31 59  1  0  0  0  0
 31 60  1  0  0  0  0
 31 61  1  0  0  0  0
M  END
> <DATABASE_ID>
DB12163

> <DATABASE_NAME>
drugbank

> <ORIGINAL_SOURCE>
PUBCHEM

> <ORIGINAL_SOURCE_URL>
https://pubchem.ncbi.nlm.nih.gov/rest/pug/compound/inchikey/FFYNAVGJSYHHFO-UHFFFAOYSA-N/SDF?record_type=3d

> <SMILES>
COC1=CC(CCC2=CC=CC=C2OCC(CN(C)C)OC(=O)CCC(O)=O)=CC=C1

> <INCHI_IDENTIFIER>
InChI=1S/C24H31NO6/c1-25(2)16-21(31-24(28)14-13-23(26)27)17-30-22-10-5-4-8-19(22)12-11-18-7-6-9-20(15-18)29-3/h4-10,15,21H,11-14,16-17H2,1-3H3,(H,26,27)

> <INCHI_KEY>
FFYNAVGJSYHHFO-UHFFFAOYSA-N

> <FORMULA>
C24H31NO6

> <MOLECULAR_WEIGHT>
429.513

> <EXACT_MASS>
429.215137722

> <JCHEM_ACCEPTOR_COUNT>
6

> <JCHEM_ATOM_COUNT>
62

> <JCHEM_AVERAGE_POLARIZABILITY>
46.89105974020944

> <JCHEM_BIOAVAILABILITY>
1

> <JCHEM_DONOR_COUNT>
1

> <JCHEM_FORMAL_CHARGE>
0

> <JCHEM_GHOSE_FILTER>
1

> <JCHEM_IUPAC>
4-{[1-(dimethylamino)-3-{2-[2-(3-methoxyphenyl)ethyl]phenoxy}propan-2-yl]oxy}-4-oxobutanoic acid

> <ALOGPS_LOGP>
3.57

> <JCHEM_LOGP>
1.122808987977464

> <ALOGPS_LOGS>
-4.60

> <JCHEM_MDDR_LIKE_RULE>
0

> <JCHEM_NUMBER_OF_RINGS>
2

> <JCHEM_PHYSIOLOGICAL_CHARGE>
0

> <JCHEM_PKA_STRONGEST_ACIDIC>
3.7819445190183636

> <JCHEM_PKA_STRONGEST_BASIC>
8.151361581500653

> <JCHEM_POLAR_SURFACE_AREA>
85.3

> <JCHEM_REFRACTIVITY>
117.349

> <JCHEM_ROTATABLE_BOND_COUNT>
14

> <JCHEM_RULE_OF_FIVE>
1

> <ALOGPS_SOLUBILITY>
1.09e-02 g/l

> <JCHEM_TRADITIONAL_IUPAC>
sarpogrelate

> <JCHEM_VEBER_RULE>
0

> <DRUGBANK_ID>
DB12163

> <DRUG_GROUPS>
investigational

> <GENERIC_NAME>
Sarpogrelate

> <SALTS>
Sarpogrelate Hydrochloride

$$$$
