REMARK  Name = 65859
REMARK  6 active torsions:
REMARK  status: ('A' for Active; 'I' for Inactive)
REMARK    1  A    between atoms: N_1  and  C_14
REMARK    2  A    between atoms: N_2  and  C_8
REMARK    3  A    between atoms: C_14  and  C_15
REMARK    4  A    between atoms: C_15  and  O_16
REMARK    5  A    between atoms: C_15  and  C_18
REMARK    6  A    between atoms: C_18  and  O_19
REMARK                            x       y       z     vdW  Elec       q    Type
REMARK                         _______ _______ _______ _____ _____    ______ ____
ROOT
ATOM      1  N   UNL     1      -1.695   0.661  -0.019  0.00  0.00    +0.391 N 
ATOM      2  N   UNL     1       1.129   0.241  -0.110  0.00  0.00    -0.312 N 
ATOM      3  C   UNL     1      -1.145  -0.556  -0.628  0.00  0.00    -0.055 C 
ATOM      4  C   UNL     1      -0.783   1.789  -0.246  0.00  0.00    -0.055 C 
ATOM      5  C   UNL     1       0.216  -0.906  -0.022  0.00  0.00    +0.068 C 
ATOM      6  C   UNL     1       0.591   1.517   0.371  0.00  0.00    +0.068 C 
ATOM      7  H   UNL     1      -1.792   0.513   0.985  0.00  0.00    -0.079 HD
ENDROOT
BRANCH   2   8
ATOM      8  C   UNL     1       2.504  -0.005  -0.034  0.00  0.00    +0.048 C 
ATOM      9  C   UNL     1       3.147  -0.834  -0.976  0.00  0.00    +0.015 C 
ATOM     10  C   UNL     1       3.289   0.568   0.987  0.00  0.00    +0.015 C 
ATOM     11  C   UNL     1       4.518  -1.078  -0.900  0.00  0.00    +0.001 C 
ATOM     12  C   UNL     1       4.660   0.324   1.062  0.00  0.00    +0.001 C 
ATOM     13  C   UNL     1       5.274  -0.500   0.118  0.00  0.00    +0.000 C 
ENDBRANCH   2   8
BRANCH   1  14
ATOM     14  C   UNL     1      -3.019   0.954  -0.567  0.00  0.00    -0.045 C 
BRANCH  14  15
ATOM     15  C   UNL     1      -3.997  -0.205  -0.361  0.00  0.00    +0.119 C 
BRANCH  15  16
ATOM     16  O   UNL     1      -5.239   0.143  -0.979  0.00  0.00    -0.384 OA
ATOM     17  H   UNL     1      -5.089   0.348  -1.915  0.00  0.00    +0.210 HD
ENDBRANCH  15  16
BRANCH  15  18
ATOM     18  C   UNL     1      -4.254  -0.524   1.110  0.00  0.00    +0.164 C 
BRANCH  18  19
ATOM     19  O   UNL     1      -5.196  -1.590   1.192  0.00  0.00    -0.380 OA
ATOM     20  H   UNL     1      -5.366  -1.800   2.123  0.00  0.00    +0.211 HD
ENDBRANCH  18  19
ENDBRANCH  15  18
ENDBRANCH  14  15
ENDBRANCH   1  14
TORSDOF 6
