REMARK  Name = 2815031
REMARK  9 active torsions:
REMARK  status: ('A' for Active; 'I' for Inactive)
REMARK    1  A    between atoms: N_1  and  C_13
REMARK    2  A    between atoms: C_13  and  C_14
REMARK    3  A    between atoms: C_14  and  N_15
REMARK    4  A    between atoms: N_15  and  C_18
REMARK    5  A    between atoms: C_18  and  C_19
REMARK    6  A    between atoms: C_19  and  C_20
REMARK    7  A    between atoms: C_20  and  C_21
REMARK    8  A    between atoms: C_21  and  C_22
REMARK    9  A    between atoms: C_22  and  O_23
REMARK                            x       y       z     vdW  Elec       q    Type
REMARK                         _______ _______ _______ _____ _____    ______ ____
ROOT
ATOM      1  N   UNL     1       1.963  -0.910  -0.491  0.00  0.00    -0.274 N 
ATOM      2  N   UNL     1       3.763  -1.724   0.506  0.00  0.00    -0.242 NA
ATOM      3  N   UNL     1       2.611   1.414  -0.739  0.00  0.00    -0.228 NA
ATOM      4  N   UNL     1       4.841   1.798   0.174  0.00  0.00    -0.229 NA
ATOM      5  C   UNL     1       2.805   0.143  -0.357  0.00  0.00    +0.150 C 
ATOM      6  C   UNL     1       3.925  -0.383   0.267  0.00  0.00    +0.140 C 
ATOM      7  C   UNL     1       2.567  -2.009   0.035  0.00  0.00    +0.221 C 
ATOM      8  C   UNL     1       4.969   0.498   0.532  0.00  0.00    +0.143 C 
ATOM      9  C   UNL     1       3.687   2.170  -0.430  0.00  0.00    +0.253 C 
ATOM     10  N   UNL     1       6.144   0.050   1.161  0.00  0.00    -0.342 N 
ATOM     11  H   UNL     1       6.876   0.682   1.343  0.00  0.00    +0.144 HD
ATOM     12  H   UNL     1       6.234  -0.896   1.419  0.00  0.00    +0.144 HD
ENDROOT
BRANCH   1  13
ATOM     13  C   UNL     1       0.634  -0.882  -1.095  0.00  0.00    +0.071 C 
BRANCH  13  14
ATOM     14  C   UNL     1      -0.453  -0.578  -0.068  0.00  0.00    -0.060 C 
BRANCH  14  15
ATOM     15  N   UNL     1      -1.756  -0.534  -0.714  0.00  0.00    +0.385 N 
ATOM     16  H   UNL     1      -1.749   0.190  -1.433  0.00  0.00    -0.084 HD
ATOM     17  H   UNL     1      -1.945  -1.446  -1.130  0.00  0.00    -0.084 HD
BRANCH  15  18
ATOM     18  C   UNL     1      -2.807  -0.236   0.253  0.00  0.00    -0.082 C 
BRANCH  18  19
ATOM     19  C   UNL     1      -4.167  -0.183  -0.441  0.00  0.00    -0.023 C 
BRANCH  19  20
ATOM     20  C   UNL     1      -5.282   0.150   0.554  0.00  0.00    +0.000 C 
BRANCH  20  21
ATOM     21  C   UNL     1      -6.651   0.170  -0.132  0.00  0.00    +0.032 C 
BRANCH  21  22
ATOM     22  C   UNL     1      -7.774   0.531   0.833  0.00  0.00    +0.137 C 
BRANCH  22  23
ATOM     23  O   UNL     1      -9.021   0.516   0.153  0.00  0.00    -0.382 OA
ATOM     24  H   UNL     1      -9.730   0.747   0.773  0.00  0.00    +0.210 HD
ENDBRANCH  22  23
ENDBRANCH  21  22
ENDBRANCH  20  21
ENDBRANCH  19  20
ENDBRANCH  18  19
ENDBRANCH  15  18
ENDBRANCH  14  15
ENDBRANCH  13  14
ENDBRANCH   1  13
TORSDOF 9
