REMARK  Name = 92787
REMARK  2 active torsions:
REMARK  status: ('A' for Active; 'I' for Inactive)
REMARK    1  A    between atoms: C_10  and  C_21
REMARK    2  A    between atoms: C_19  and  O_23
REMARK                            x       y       z     vdW  Elec       q    Type
REMARK                         _______ _______ _______ _____ _____    ______ ____
ROOT
ATOM      1  C   UNL     1      -0.645  -0.359   0.279  0.00  0.00    +0.000 C 
ATOM      2  C   UNL     1       0.074   0.952  -0.178  0.00  0.00    +0.000 C 
ATOM      3  C   UNL     1       1.494   0.955   0.398  0.00  0.00    +0.000 C 
ATOM      4  C   UNL     1       2.337  -0.252  -0.069  0.00  0.00    +0.007 C 
ATOM      5  C   UNL     1      -2.134  -0.420  -0.227  0.00  0.00    +0.000 C 
ATOM      6  C   UNL     1      -2.854   0.869   0.288  0.00  0.00    +0.002 C 
ATOM      7  C   UNL     1       0.194  -1.624  -0.043  0.00  0.00    +0.000 C 
ATOM      8  C   UNL     1       1.653  -1.528   0.441  0.00  0.00    +0.000 C 
ATOM      9  C   UNL     1      -0.711   2.198   0.255  0.00  0.00    +0.000 C 
ATOM     10  C   UNL     1       3.672   0.093   0.627  0.00  0.00    +0.058 C 
ATOM     11  C   UNL     1       2.402   2.149   0.121  0.00  0.00    +0.000 C 
ATOM     12  C   UNL     1      -2.170   2.153  -0.193  0.00  0.00    +0.000 C 
ATOM     13  C   UNL     1      -2.871  -1.647   0.382  0.00  0.00    +0.002 C 
ATOM     14  C   UNL     1       3.812   1.619   0.441  0.00  0.00    +0.007 C 
ATOM     15  C   UNL     1      -4.355   0.881  -0.028  0.00  0.00    +0.029 C 
ATOM     16  C   UNL     1       2.520  -0.333  -1.608  0.00  0.00    +0.000 C 
ATOM     17  C   UNL     1      -2.187  -0.536  -1.772  0.00  0.00    +0.000 C 
ATOM     18  C   UNL     1      -4.378  -1.649   0.116  0.00  0.00    +0.029 C 
ATOM     19  C   UNL     1      -5.048  -0.350   0.552  0.00  0.00    +0.111 C 
ENDROOT
BRANCH  10  21
ATOM     20  O   UNL     1       5.525  -0.236  -0.839  0.00  0.00    -0.296 OA
ATOM     21  C   UNL     1       4.864  -0.653   0.111  0.00  0.00    +0.151 C 
ATOM     22  C   UNL     1       5.215  -1.936   0.814  0.00  0.00    +0.072 C 
ENDBRANCH  10  21
BRANCH  19  23
ATOM     23  O   UNL     1      -6.408  -0.346   0.131  0.00  0.00    -0.384 OA
ATOM     24  H   UNL     1      -6.831   0.481   0.410  0.00  0.00    +0.210 HD
ENDBRANCH  19  23
TORSDOF 2
