REMARK  Name = 107706
REMARK  10 active torsions:
REMARK  status: ('A' for Active; 'I' for Inactive)
REMARK    1  A    between atoms: N_1  and  C_3
REMARK    2  A    between atoms: N_1  and  S_18
REMARK    3  A    between atoms: C_4  and  C_11
REMARK    4  A    between atoms: N_10  and  C_13
REMARK    5  A    between atoms: C_13  and  C_15
REMARK    6  A    between atoms: C_15  and  O_16
REMARK    7  A    between atoms: S_18  and  C_21
REMARK    8  A    between atoms: C_22  and  O_27
REMARK    9  A    between atoms: O_27  and  C_29
REMARK   10  A    between atoms: C_29  and  C_30
REMARK                            x       y       z     vdW  Elec       q    Type
REMARK                         _______ _______ _______ _____ _____    ______ ____
ROOT
ATOM      1  N   UNL     1       3.472   0.284   0.729  0.00  0.00    -0.215 N 
ATOM      2  H   UNL     1       3.988  -0.335   1.294  0.00  0.00    +0.174 HD
ENDROOT
BRANCH   1   3
ATOM      3  C   UNL     1       3.102  -0.075  -0.614  0.00  0.00    +0.069 C 
ATOM      4  C   UNL     1       2.187  -1.099  -0.858  0.00  0.00    +0.068 C 
ATOM      5  C   UNL     1       3.674   0.618  -1.681  0.00  0.00    +0.016 C 
ATOM      6  C   UNL     1       1.843  -1.430  -2.168  0.00  0.00    +0.006 C 
ATOM      7  C   UNL     1       3.330   0.287  -2.992  0.00  0.00    +0.001 C 
ATOM      8  C   UNL     1       2.415  -0.738  -3.236  0.00  0.00    +0.000 C 
BRANCH   4  11
ATOM      9  O   UNL     1       2.276  -2.465   1.046  0.00  0.00    -0.270 OA
ATOM     10  N   UNL     1       0.177  -1.789   0.329  0.00  0.00    -0.291 N 
ATOM     11  C   UNL     1       1.571  -1.841   0.235  0.00  0.00    +0.247 C 
ATOM     12  H   UNL     1      -0.317  -1.275  -0.350  0.00  0.00    +0.150 HD
BRANCH  10  13
ATOM     13  C   UNL     1      -0.577  -2.451   1.369  0.00  0.00    +0.201 C 
BRANCH  13  15
ATOM     14  O   UNL     1      -1.630  -4.584   1.738  0.00  0.00    -0.248 OA
ATOM     15  C   UNL     1      -0.978  -3.856   0.999  0.00  0.00    +0.334 C 
BRANCH  15  16
ATOM     16  O   UNL     1      -0.549  -4.237  -0.227  0.00  0.00    -0.479 OA
ATOM     17  H   UNL     1      -0.053  -3.642  -0.755  0.00  0.00    +0.295 HD
ENDBRANCH  15  16
ENDBRANCH  13  15
ENDBRANCH  10  13
ENDBRANCH   4  11
ENDBRANCH   1   3
BRANCH   1  18
ATOM     18  S   UNL     1       2.986   1.828   1.319  0.00  0.00    +0.074 S 
ATOM     19  O   UNL     1       3.163   1.835   2.766  0.00  0.00    -0.150 OA
ATOM     20  O   UNL     1       3.621   2.874   0.528  0.00  0.00    -0.150 OA
BRANCH  18  21
ATOM     21  C   UNL     1       1.270   1.844   0.993  0.00  0.00    +0.125 C 
ATOM     22  C   UNL     1      -1.470   1.871   0.472  0.00  0.00    +0.149 C 
ATOM     23  C   UNL     1       0.797   2.333  -0.225  0.00  0.00    +0.023 C 
ATOM     24  C   UNL     1       0.374   1.369   1.950  0.00  0.00    +0.023 C 
ATOM     25  C   UNL     1      -0.574   2.346  -0.485  0.00  0.00    +0.039 C 
ATOM     26  C   UNL     1      -0.996   1.382   1.689  0.00  0.00    +0.039 C 
BRANCH  22  27
ATOM     27  O   UNL     1      -2.842   1.883   0.211  0.00  0.00    -0.424 OA
BRANCH  27  29
ATOM     28  O   UNL     1      -2.605  -0.256  -0.689  0.00  0.00    -0.250 OA
ATOM     29  C   UNL     1      -3.296   0.713  -0.397  0.00  0.00    +0.320 C 
BRANCH  29  30
ATOM     30  C   UNL     1      -4.806   0.813  -0.646  0.00  0.00    +0.090 C 
ATOM     31  C   UNL     1      -5.095   2.007  -1.564  0.00  0.00    +0.011 C 
ATOM     32  C   UNL     1      -5.308  -0.489  -1.284  0.00  0.00    +0.011 C 
ATOM     33  C   UNL     1      -5.531   1.024   0.693  0.00  0.00    +0.011 C 
ENDBRANCH  29  30
ENDBRANCH  27  29
ENDBRANCH  22  27
ENDBRANCH  18  21
ENDBRANCH   1  18
TORSDOF 10
