REMARK  Name = 11682175
REMARK  5 active torsions:
REMARK  status: ('A' for Active; 'I' for Inactive)
REMARK    1  A    between atoms: N_2  and  C_24
REMARK    2  A    between atoms: C_4  and  C_14
REMARK    3  A    between atoms: C_5  and  C_7
REMARK    4  A    between atoms: C_17  and  S_20
REMARK    5  A    between atoms: C_24  and  C_25
REMARK                            x       y       z     vdW  Elec       q    Type
REMARK                         _______ _______ _______ _____ _____    ______ ____
ROOT
ATOM      1  O   UNL     1       4.096   0.298   0.343  0.00  0.00    -0.270 OA
ATOM      2  N   UNL     1       2.977  -1.759   0.524  0.00  0.00    -0.272 N 
ATOM      3  C   UNL     1       1.611  -2.210   0.531  0.00  0.00    +0.121 C 
ATOM      4  C   UNL     1       0.876  -0.922   0.315  0.00  0.00    +0.002 C 
ATOM      5  C   UNL     1       1.699   0.143   0.243  0.00  0.00    +0.051 C 
ATOM      6  C   UNL     1       3.086  -0.387   0.369  0.00  0.00    +0.249 C 
ENDROOT
BRANCH   5   7
ATOM      7  C   UNL     1       1.379   1.562   0.083  0.00  0.00    +0.004 C 
ATOM      8  C   UNL     1       1.169   2.371   1.206  0.00  0.00    -0.000 C 
ATOM      9  C   UNL     1       1.280   2.124  -1.195  0.00  0.00    -0.000 C 
ATOM     10  C   UNL     1       0.864   3.723   1.052  0.00  0.00    -0.004 C 
ATOM     11  C   UNL     1       0.974   3.477  -1.348  0.00  0.00    -0.004 C 
ATOM     12  C   UNL     1       0.766   4.276  -0.225  0.00  0.00    -0.022 C 
ATOM     13  C   UNL     1       0.439   5.722  -0.388  0.00  0.00    +0.031 C 
ENDBRANCH   5   7
BRANCH   4  14
ATOM     14  C   UNL     1      -0.591  -0.933   0.210  0.00  0.00    -0.002 C 
ATOM     15  C   UNL     1      -1.207  -1.086  -1.036  0.00  0.00    +0.001 C 
ATOM     16  C   UNL     1      -1.380  -0.790   1.355  0.00  0.00    +0.001 C 
ATOM     17  C   UNL     1      -3.381  -0.951   0.010  0.00  0.00    +0.106 C 
ATOM     18  C   UNL     1      -2.598  -1.094  -1.136  0.00  0.00    +0.018 C 
ATOM     19  C   UNL     1      -2.772  -0.799   1.256  0.00  0.00    +0.018 C 
BRANCH  17  20
ATOM     20  S   UNL     1      -5.122  -0.962  -0.115  0.00  0.00    +0.010 S 
ATOM     21  O   UNL     1      -5.481  -1.691  -1.323  0.00  0.00    -0.169 OA
ATOM     22  O   UNL     1      -5.685  -1.365   1.167  0.00  0.00    -0.169 OA
ATOM     23  C   UNL     1      -5.558   0.746  -0.357  0.00  0.00    +0.182 C 
ENDBRANCH  17  20
ENDBRANCH   4  14
BRANCH   2  24
ATOM     24  C   UNL     1       4.081  -2.681   0.688  0.00  0.00    +0.094 C 
BRANCH  24  25
ATOM     25  C   UNL     1       4.142  -3.717  -0.428  0.00  0.00    +0.022 C 
ATOM     26  C   UNL     1       4.335  -3.091  -1.802  0.00  0.00    +0.002 C 
ENDBRANCH  24  25
ENDBRANCH   2  24
TORSDOF 5
