REMARK  Name = 501254
REMARK  6 active torsions:
REMARK  status: ('A' for Active; 'I' for Inactive)
REMARK    1  A    between atoms: N_3  and  C_14
REMARK    2  A    between atoms: C_14  and  C_15
REMARK    3  A    between atoms: C_15  and  C_16
REMARK    4  A    between atoms: C_16  and  C_17
REMARK    5  A    between atoms: C_17  and  C_18
REMARK    6  A    between atoms: C_18  and  O_20
REMARK                            x       y       z     vdW  Elec       q    Type
REMARK                         _______ _______ _______ _____ _____    ______ ____
ROOT
ATOM      1  O   UNL     1       0.599  -2.017   0.729  0.00  0.00    -0.272 OA
ATOM      2  O   UNL     1       0.301   2.662   0.534  0.00  0.00    -0.252 OA
ATOM      3  N   UNL     1       0.405   0.325   0.647  0.00  0.00    -0.212 N 
ATOM      4  N   UNL     1       2.304   1.663  -0.100  0.00  0.00    -0.228 N 
ATOM      5  N   UNL     1       3.397  -1.661  -0.268  0.00  0.00    -0.239 NA
ATOM      6  N   UNL     1       4.287   0.336  -0.705  0.00  0.00    -0.240 NA
ATOM      7  C   UNL     1       2.427  -0.741   0.012  0.00  0.00    +0.192 C 
ATOM      8  C   UNL     1       1.093  -0.919   0.487  0.00  0.00    +0.254 C 
ATOM      9  C   UNL     1       2.998   0.471  -0.265  0.00  0.00    +0.136 C 
ATOM     10  C   UNL     1       0.967   1.633   0.368  0.00  0.00    +0.318 C 
ATOM     11  C   UNL     1       4.497  -0.965  -0.696  0.00  0.00    +0.203 C 
ATOM     12  C   UNL     1       2.955   2.930  -0.407  0.00  0.00    +0.123 C 
ATOM     13  C   UNL     1       3.308  -3.097  -0.146  0.00  0.00    +0.092 C 
ENDROOT
BRANCH   3  14
ATOM     14  C   UNL     1      -0.951   0.274   1.121  0.00  0.00    +0.103 C 
BRANCH  14  15
ATOM     15  C   UNL     1      -1.962   0.169  -0.016  0.00  0.00    +0.022 C 
BRANCH  15  16
ATOM     16  C   UNL     1      -3.410   0.137   0.485  0.00  0.00    +0.004 C 
BRANCH  16  17
ATOM     17  C   UNL     1      -4.395   0.018  -0.685  0.00  0.00    +0.029 C 
BRANCH  17  18
ATOM     18  C   UNL     1      -5.871  -0.005  -0.267  0.00  0.00    +0.111 C 
ATOM     19  C   UNL     1      -6.834  -0.112  -1.441  0.00  0.00    +0.032 C 
BRANCH  18  20
ATOM     20  O   UNL     1      -6.115  -1.100   0.611  0.00  0.00    -0.384 OA
ATOM     21  H   UNL     1      -5.509  -1.049   1.367  0.00  0.00    +0.210 HD
ENDBRANCH  18  20
ENDBRANCH  17  18
ENDBRANCH  16  17
ENDBRANCH  15  16
ENDBRANCH  14  15
ENDBRANCH   3  14
TORSDOF 6
