REMARK  Name = 25230468
REMARK  5 active torsions:
REMARK  status: ('A' for Active; 'I' for Inactive)
REMARK    1  A    between atoms: C_2  and  C_8
REMARK    2  A    between atoms: C_3  and  C_21
REMARK    3  A    between atoms: C_5  and  N_26
REMARK    4  A    between atoms: C_27  and  C_31
REMARK    5  A    between atoms: C_32  and  C_37
REMARK                            x       y       z     vdW  Elec       q    Type
REMARK                         _______ _______ _______ _____ _____    ______ ____
ROOT
ATOM      1  N   UNL     1      -1.635  -0.179  -0.024  0.00  0.00    -0.409 NA
ATOM      2  C   UNL     1      -2.178   1.059  -0.010  0.00  0.00    +0.091 C 
ATOM      3  C   UNL     1      -0.285  -0.243  -0.037  0.00  0.00    +0.139 C 
ATOM      4  C   UNL     1      -1.437   2.230  -0.008  0.00  0.00    +0.082 C 
ATOM      5  C   UNL     1       0.544   0.867  -0.036  0.00  0.00    +0.076 C 
ATOM      6  C   UNL     1      -0.051   2.124  -0.022  0.00  0.00    -0.002 C 
ENDROOT
BRANCH   2   8
ATOM      7  O   UNL     1      -6.397   0.093   0.014  0.00  0.00    -0.363 OA
ATOM      8  C   UNL     1      -3.695   1.137   0.002  0.00  0.00    +0.053 C 
ATOM      9  C   UNL     1      -5.837   0.539   1.254  0.00  0.00    +0.093 C 
ATOM     10  C   UNL     1      -5.855   0.556  -1.227  0.00  0.00    +0.093 C 
ATOM     11  C   UNL     1      -4.299   0.480   1.250  0.00  0.00    +0.034 C 
ATOM     12  C   UNL     1      -4.317   0.496  -1.246  0.00  0.00    +0.034 C 
ATOM     13  C   UNL     1      -6.363   1.927   1.644  0.00  0.00    +0.030 C 
ATOM     14  C   UNL     1      -6.364  -0.457   2.304  0.00  0.00    +0.030 C 
ATOM     15  C   UNL     1      -6.397  -0.426  -2.282  0.00  0.00    +0.030 C 
ATOM     16  C   UNL     1      -6.386   1.949  -1.591  0.00  0.00    +0.030 C 
ENDBRANCH   2   8
BRANCH   3  21
ATOM     17  C   UNL     1       1.700  -4.175   0.002  0.00  0.00    +0.004 C 
ATOM     18  C   UNL     1       0.786  -3.786   1.183  0.00  0.00    +0.005 C 
ATOM     19  C   UNL     1       1.079  -3.643  -1.311  0.00  0.00    +0.026 C 
ATOM     20  C   UNL     1       0.553  -2.273   1.280  0.00  0.00    +0.029 C 
ATOM     21  C   UNL     1       0.269  -1.619  -0.052  0.00  0.00    +0.004 C 
ATOM     22  C   UNL     1       0.517  -2.252  -1.214  0.00  0.00    -0.028 C 
ATOM     23  C   UNL     1       3.118  -3.600   0.196  0.00  0.00    +0.000 C 
ATOM     24  C   UNL     1       1.813  -5.708  -0.073  0.00  0.00    +0.000 C 
ENDBRANCH   3  21
BRANCH   5  26
ATOM     25  O   UNL     1       2.650   3.000   0.026  0.00  0.00    -0.271 OA
ATOM     26  N   UNL     1       1.936   0.761  -0.048  0.00  0.00    -0.279 N 
ATOM     27  C   UNL     1       2.879   1.796  -0.018  0.00  0.00    +0.264 C 
ATOM     28  H   UNL     1       2.299  -0.153  -0.082  0.00  0.00    +0.155 HD
BRANCH  27  31
ATOM     29  N   UNL     1       5.384   2.196   0.016  0.00  0.00    -0.303 N 
ATOM     30  N   UNL     1       4.659   0.097  -0.035  0.00  0.00    -0.309 N 
ATOM     31  C   UNL     1       4.301   1.362  -0.012  0.00  0.00    +0.223 C 
ATOM     32  C   UNL     1       6.504   1.413   0.011  0.00  0.00    +0.130 C 
ATOM     33  C   UNL     1       6.032   0.123  -0.020  0.00  0.00    +0.085 C 
ATOM     34  H   UNL     1       5.360   3.180   0.036  0.00  0.00    +0.149 HD
ATOM     35  H   UNL     1       4.073  -0.694  -0.057  0.00  0.00    +0.149 HD
BRANCH  32  37
ATOM     36  N   UNL     1       8.933   2.270   0.052  0.00  0.00    -0.189 NA
ATOM     37  C   UNL     1       7.839   1.884   0.033  0.00  0.00    +0.116 C 
ENDBRANCH  32  37
ENDBRANCH  27  31
ENDBRANCH   5  26
TORSDOF 5
