REMARK  Name = 72942015
REMARK  0 active torsions:
REMARK  status: ('A' for Active; 'I' for Inactive)
REMARK                            x       y       z     vdW  Elec       q    Type
REMARK                         _______ _______ _______ _____ _____    ______ ____
ROOT
ATOM      1  O   UNL     1      -2.042   2.394   1.481  0.00  0.00    -0.293 OA
ATOM      2  O   UNL     1       0.961  -2.370  -1.240  0.00  0.00    -0.287 OA
ATOM      3  O   UNL     1       1.663   2.593   0.712  0.00  0.00    -0.287 OA
ATOM      4  N   UNL     1      -1.607   1.111  -1.751  0.00  0.00    +0.401 N 
ATOM      5  C   UNL     1      -1.264  -0.314  -1.432  0.00  0.00    -0.007 C 
ATOM      6  C   UNL     1      -0.951   1.811  -0.608  0.00  0.00    +0.033 C 
ATOM      7  C   UNL     1       0.120  -0.212  -0.850  0.00  0.00    -0.001 C 
ATOM      8  C   UNL     1       0.293   1.018  -0.362  0.00  0.00    +0.002 C 
ATOM      9  C   UNL     1      -2.243  -0.728  -0.341  0.00  0.00    -0.035 C 
ATOM     10  C   UNL     1      -1.887   1.565   0.591  0.00  0.00    +0.158 C 
ATOM     11  C   UNL     1      -2.551   0.218   0.668  0.00  0.00    +0.027 C 
ATOM     12  C   UNL     1       1.149  -1.249  -0.788  0.00  0.00    +0.190 C 
ATOM     13  C   UNL     1       1.531   1.457   0.279  0.00  0.00    +0.190 C 
ATOM     14  C   UNL     1      -1.073   1.538  -3.045  0.00  0.00    -0.098 C 
ATOM     15  C   UNL     1       2.426  -0.856  -0.141  0.00  0.00    +0.042 C 
ATOM     16  C   UNL     1       2.609   0.440   0.370  0.00  0.00    +0.042 C 
ATOM     17  C   UNL     1      -2.812  -2.000  -0.291  0.00  0.00    -0.006 C 
ATOM     18  C   UNL     1      -3.425  -0.105   1.703  0.00  0.00    +0.002 C 
ATOM     19  C   UNL     1      -3.689  -2.320   0.747  0.00  0.00    -0.000 C 
ATOM     20  C   UNL     1      -3.994  -1.378   1.736  0.00  0.00    +0.000 C 
ATOM     21  C   UNL     1       3.457  -1.796  -0.043  0.00  0.00    +0.003 C 
ATOM     22  C   UNL     1       3.821   0.786   0.975  0.00  0.00    +0.003 C 
ATOM     23  C   UNL     1       4.663  -1.444   0.562  0.00  0.00    +0.000 C 
ATOM     24  C   UNL     1       4.845  -0.157   1.069  0.00  0.00    +0.000 C 
ATOM     25  H   UNL     1      -2.606   1.294  -1.842  0.00  0.00    -0.078 HD
ENDROOT
TORSDOF 0
