REMARK  Name = 15942827
REMARK  5 active torsions:
REMARK  status: ('A' for Active; 'I' for Inactive)
REMARK    1  A    between atoms: C_1  and  C_3
REMARK    2  A    between atoms: C_1  and  O_5
REMARK    3  A    between atoms: C_1  and  C_7
REMARK    4  A    between atoms: C_7  and  C_9
REMARK    5  A    between atoms: C_7  and  O_11
REMARK                            x       y       z     vdW  Elec       q    Type
REMARK                         _______ _______ _______ _____ _____    ______ ____
ROOT
ATOM      1  C   UNL     1      -0.569  -0.481   0.205  0.00  0.00    +0.169 C 
ENDROOT
BRANCH   1   3
ATOM      2  O   UNL     1      -3.010  -0.504   0.263  0.00  0.00    -0.348 OA
ATOM      3  C   UNL     1      -1.856  -0.171  -0.505  0.00  0.00    +0.174 C 
ATOM      4  C   UNL     1      -2.757   0.888   0.033  0.00  0.00    +0.174 C 
ENDBRANCH   1   3
BRANCH   1   5
ATOM      5  O   UNL     1      -0.184  -1.825  -0.084  0.00  0.00    -0.379 OA
ATOM      6  H   UNL     1      -0.897  -2.429   0.177  0.00  0.00    +0.211 HD
ENDBRANCH   1   5
BRANCH   1   7
ATOM      7  C   UNL     1       0.561   0.474  -0.208  0.00  0.00    +0.169 C 
BRANCH   7   9
ATOM      8  O   UNL     1       3.013   0.504  -0.252  0.00  0.00    -0.348 OA
ATOM      9  C   UNL     1       1.850   0.175   0.502  0.00  0.00    +0.174 C 
ATOM     10  C   UNL     1       2.765  -0.886  -0.006  0.00  0.00    +0.174 C 
ENDBRANCH   7   9
BRANCH   7  11
ATOM     11  O   UNL     1       0.186   1.826   0.052  0.00  0.00    -0.379 OA
ATOM     12  H   UNL     1       0.908   2.418  -0.213  0.00  0.00    +0.211 HD
ENDBRANCH   7  11
ENDBRANCH   1   7
TORSDOF 5
