REMARK  Name = 27125
REMARK  4 active torsions:
REMARK  status: ('A' for Active; 'I' for Inactive)
REMARK    1  A    between atoms: C_5  and  O_19
REMARK    2  A    between atoms: C_6  and  O_21
REMARK    3  A    between atoms: C_8  and  O_23
REMARK    4  A    between atoms: C_18  and  O_25
REMARK                            x       y       z     vdW  Elec       q    Type
REMARK                         _______ _______ _______ _____ _____    ______ ____
ROOT
ATOM      1  C   UNL     1      -2.219  -1.004   0.223  0.00  0.00    +0.030 C 
ATOM      2  C   UNL     1      -1.674   0.378  -0.202  0.00  0.00    +0.032 C 
ATOM      3  C   UNL     1      -0.199   0.550   0.186  0.00  0.00    +0.007 C 
ATOM      4  C   UNL     1       0.641  -0.534  -0.558  0.00  0.00    +0.022 C 
ATOM      5  C   UNL     1      -3.682  -0.849  -0.234  0.00  0.00    +0.140 C 
ATOM      6  C   UNL     1      -2.724   1.349   0.349  0.00  0.00    +0.140 C 
ATOM      7  C   UNL     1      -1.430  -2.082  -0.529  0.00  0.00    +0.003 C 
ATOM      8  C   UNL     1      -4.062   0.588   0.186  0.00  0.00    +0.164 C 
ATOM      9  C   UNL     1       0.085  -1.958  -0.288  0.00  0.00    +0.004 C 
ATOM     10  C   UNL     1       0.359   1.933  -0.157  0.00  0.00    +0.005 C 
ATOM     11  C   UNL     1      -2.156  -1.291   1.745  0.00  0.00    +0.003 C 
ATOM     12  C   UNL     1       2.135  -0.370  -0.291  0.00  0.00    -0.026 C 
ATOM     13  C   UNL     1       1.780   2.072   0.382  0.00  0.00    +0.026 C 
ATOM     14  C   UNL     1       2.659   0.877   0.112  0.00  0.00    -0.023 C 
ATOM     15  C   UNL     1       3.037  -1.424  -0.525  0.00  0.00    -0.001 C 
ATOM     16  C   UNL     1       4.042   1.022   0.323  0.00  0.00    +0.032 C 
ATOM     17  C   UNL     1       4.409  -1.265  -0.321  0.00  0.00    +0.036 C 
ATOM     18  C   UNL     1       4.912  -0.043   0.108  0.00  0.00    +0.133 C 
ENDROOT
BRANCH   5  19
ATOM     19  O   UNL     1      -4.562  -1.789   0.357  0.00  0.00    -0.382 OA
ATOM     20  H   UNL     1      -4.310  -2.685   0.084  0.00  0.00    +0.210 HD
ENDBRANCH   5  19
BRANCH   6  21
ATOM     21  O   UNL     1      -2.712   2.577  -0.355  0.00  0.00    -0.382 OA
ATOM     22  H   UNL     1      -1.858   3.017  -0.224  0.00  0.00    +0.210 HD
ENDBRANCH   6  21
BRANCH   8  23
ATOM     23  O   UNL     1      -4.888   1.149  -0.824  0.00  0.00    -0.380 OA
ATOM     24  H   UNL     1      -5.712   0.640  -0.888  0.00  0.00    +0.211 HD
ENDBRANCH   8  23
BRANCH  18  25
ATOM     25  O   UNL     1       6.248   0.113   0.311  0.00  0.00    -0.506 OA
ATOM     26  H   UNL     1       6.584   0.939   0.601  0.00  0.00    +0.292 HD
ENDBRANCH  18  25
TORSDOF 4
