REMARK  Name = 16071605
REMARK  7 active torsions:
REMARK  status: ('A' for Active; 'I' for Inactive)
REMARK    1  A    between atoms: C_3  and  S_11
REMARK    2  A    between atoms: C_7  and  O_24
REMARK    3  A    between atoms: S_11  and  C_14
REMARK    4  A    between atoms: O_24  and  C_25
REMARK    5  A    between atoms: C_25  and  C_26
REMARK    6  A    between atoms: C_26  and  C_27
REMARK    7  A    between atoms: C_27  and  N_28
REMARK                            x       y       z     vdW  Elec       q    Type
REMARK                         _______ _______ _______ _____ _____    ______ ____
ROOT
ATOM      1  N   UNL     1      -2.924  -2.434  -0.279  0.00  0.00    -0.260 N 
ATOM      2  N   UNL     1      -2.524  -3.408   0.562  0.00  0.00    -0.172 NA
ATOM      3  C   UNL     1      -1.915  -1.659  -0.728  0.00  0.00    +0.186 A 
ATOM      4  C   UNL     1      -0.790  -2.132  -0.163  0.00  0.00    +0.057 A 
ATOM      5  C   UNL     1      -1.192  -3.249   0.658  0.00  0.00    +0.104 A 
ATOM      6  C   UNL     1       0.496  -1.639  -0.341  0.00  0.00    +0.041 C 
ATOM      7  C   UNL     1       1.429  -2.384   0.407  0.00  0.00    +0.139 C 
ATOM      8  C   UNL     1      -0.238  -3.975   1.395  0.00  0.00    +0.024 C 
ATOM      9  C   UNL     1       1.081  -3.498   1.235  0.00  0.00    +0.039 C 
ATOM     10  H   UNL     1      -3.863  -2.302  -0.542  0.00  0.00    +0.190 HD
ENDROOT
BRANCH   3  11
ATOM     11  S   UNL     1      -2.252  -0.310  -1.857  0.00  0.00    +0.043 S 
ATOM     12  O   UNL     1      -3.692  -0.227  -1.996  0.00  0.00    -0.163 OA
ATOM     13  O   UNL     1      -1.389  -0.581  -2.990  0.00  0.00    -0.163 OA
BRANCH  11  14
ATOM     14  C   UNL     1      -1.716   1.163  -1.062  0.00  0.00    +0.112 C 
ATOM     15  C   UNL     1      -2.376   1.710   0.051  0.00  0.00    +0.018 C 
ATOM     16  C   UNL     1      -1.881   2.901   0.633  0.00  0.00    +0.001 C 
ATOM     17  C   UNL     1      -0.585   1.782  -1.593  0.00  0.00    +0.019 C 
ATOM     18  C   UNL     1      -3.517   1.101   0.599  0.00  0.00    +0.001 C 
ATOM     19  C   UNL     1      -0.740   3.510   0.085  0.00  0.00    +0.000 C 
ATOM     20  C   UNL     1      -0.097   2.953  -1.021  0.00  0.00    +0.001 C 
ATOM     21  C   UNL     1      -2.540   3.448   1.746  0.00  0.00    +0.000 C 
ATOM     22  C   UNL     1      -4.160   1.658   1.705  0.00  0.00    +0.000 C 
ATOM     23  C   UNL     1      -3.672   2.830   2.277  0.00  0.00    +0.000 C 
ENDBRANCH  11  14
ENDBRANCH   3  11
BRANCH   7  24
ATOM     24  O   UNL     1       2.749  -2.022   0.339  0.00  0.00    -0.476 OA
BRANCH  24  25
ATOM     25  C   UNL     1       3.024  -0.646   0.108  0.00  0.00    +0.203 C 
BRANCH  25  26
ATOM     26  C   UNL     1       4.533  -0.442   0.087  0.00  0.00    +0.025 C 
BRANCH  26  27
ATOM     27  C   UNL     1       4.898   1.016  -0.173  0.00  0.00    -0.074 C 
BRANCH  27  28
ATOM     28  N   UNL     1       6.346   1.177  -0.209  0.00  0.00    +0.384 N 
ATOM     29  C   UNL     1       6.704   2.555  -0.550  0.00  0.00    -0.101 C 
ATOM     30  C   UNL     1       6.939   0.802   1.076  0.00  0.00    -0.101 C 
ATOM     31  H   UNL     1       6.717   0.558  -0.930  0.00  0.00    -0.080 HD
ENDBRANCH  27  28
ENDBRANCH  26  27
ENDBRANCH  25  26
ENDBRANCH  24  25
ENDBRANCH   7  24
TORSDOF 7
