REMARK  Name = 492405
REMARK  1 active torsions:
REMARK  status: ('A' for Active; 'I' for Inactive)
REMARK    1  A    between atoms: C_5  and  C_12
REMARK                            x       y       z     vdW  Elec       q    Type
REMARK                         _______ _______ _______ _____ _____    ______ ____
ROOT
ATOM      1  F   UNL     1       2.692   1.638  -0.002  0.00  0.00    -0.172 F 
ATOM      2  O   UNL     1      -1.019  -2.168   0.007  0.00  0.00    -0.267 OA
ATOM      3  N   UNL     1       1.234  -1.611  -0.016  0.00  0.00    -0.291 N 
ATOM      4  N   UNL     1       0.442   1.059   0.022  0.00  0.00    -0.367 NA
ATOM      5  C   UNL     1      -0.466   0.129   0.024  0.00  0.00    +0.239 C 
ATOM      6  C   UNL     1      -0.117  -1.345   0.004  0.00  0.00    +0.281 C 
ATOM      7  C   UNL     1       2.157  -0.608  -0.018  0.00  0.00    +0.181 C 
ATOM      8  C   UNL     1       1.754   0.665   0.000  0.00  0.00    +0.268 C 
ATOM      9  H   UNL     1       1.540  -2.546  -0.029  0.00  0.00    +0.150 HD
ENDROOT
BRANCH   5  12
ATOM     10  O   UNL     1      -2.403   0.802   1.129  0.00  0.00    -0.267 OA
ATOM     11  N   UNL     1      -2.402   0.815  -1.197  0.00  0.00    -0.323 N 
ATOM     12  C   UNL     1      -1.873   0.623   0.048  0.00  0.00    +0.277 C 
ATOM     13  H   UNL     1      -3.327   1.140  -1.294  0.00  0.00    +0.145 HD
ATOM     14  H   UNL     1      -1.859   0.629  -1.997  0.00  0.00    +0.145 HD
ENDBRANCH   5  12
TORSDOF 1
