REMARK  Name = 16725726
REMARK  8 active torsions:
REMARK  status: ('A' for Active; 'I' for Inactive)
REMARK    1  A    between atoms: N_1  and  C_18
REMARK    2  A    between atoms: C_4  and  O_27
REMARK    3  A    between atoms: C_7  and  C_14
REMARK    4  A    between atoms: C_9  and  C_20
REMARK    5  A    between atoms: C_21  and  C_22
REMARK    6  A    between atoms: C_22  and  O_25
REMARK    7  A    between atoms: O_27  and  C_28
REMARK    8  A    between atoms: C_28  and  C_30
REMARK                            x       y       z     vdW  Elec       q    Type
REMARK                         _______ _______ _______ _____ _____    ______ ____
ROOT
ATOM      1  N   UNL     1       0.158   1.371  -0.139  0.00  0.00    -0.271 N 
ATOM      2  N   UNL     1      -1.964   0.726   0.011  0.00  0.00    -0.385 NA
ATOM      3  N   UNL     1      -0.464  -2.659  -0.086  0.00  0.00    -0.230 NA
ATOM      4  C   UNL     1       1.234  -0.912  -0.209  0.00  0.00    +0.160 C 
ATOM      5  C   UNL     1       0.191   0.001  -0.138  0.00  0.00    +0.188 C 
ATOM      6  C   UNL     1      -1.145  -0.377  -0.044  0.00  0.00    +0.161 C 
ATOM      7  C   UNL     1      -1.150   1.757  -0.049  0.00  0.00    +0.208 C 
ATOM      8  C   UNL     1       0.821  -2.236  -0.177  0.00  0.00    +0.134 C 
ATOM      9  C   UNL     1      -1.456  -1.737  -0.019  0.00  0.00    +0.150 C 
ENDROOT
BRANCH   7  14
ATOM     10  O   UNL     1      -1.650   5.287   0.332  0.00  0.00    -0.240 OA
ATOM     11  N   UNL     1      -0.871   4.139   0.492  0.00  0.00    -0.043 NA
ATOM     12  N   UNL     1      -2.868   4.988  -0.281  0.00  0.00    -0.033 NA
ATOM     13  N   UNL     1      -3.786   2.913  -1.064  0.00  0.00    -0.339 N 
ATOM     14  C   UNL     1      -1.614   3.160  -0.021  0.00  0.00    +0.200 A 
ATOM     15  C   UNL     1      -2.822   3.673  -0.488  0.00  0.00    +0.192 A 
ATOM     16  H   UNL     1      -4.621   3.331  -1.376  0.00  0.00    +0.144 HD
ATOM     17  H   UNL     1      -3.651   1.944  -1.170  0.00  0.00    +0.144 HD
ENDBRANCH   7  14
BRANCH   1  18
ATOM     18  C   UNL     1       1.302   2.253  -0.221  0.00  0.00    +0.094 C 
ATOM     19  C   UNL     1       1.854   2.607   1.149  0.00  0.00    +0.023 C 
ENDBRANCH   1  18
BRANCH   9  20
ATOM     20  C   UNL     1      -2.795  -2.195   0.076  0.00  0.00    -0.041 C 
ATOM     21  C   UNL     1      -3.929  -2.583   0.156  0.00  0.00    -0.060 C 
BRANCH  21  22
ATOM     22  C   UNL     1      -5.319  -3.060   0.257  0.00  0.00    +0.142 C 
ATOM     23  C   UNL     1      -5.743  -3.734  -1.047  0.00  0.00    +0.043 C 
ATOM     24  C   UNL     1      -6.261  -1.905   0.595  0.00  0.00    +0.043 C 
BRANCH  22  25
ATOM     25  O   UNL     1      -5.411  -4.039   1.293  0.00  0.00    -0.375 OA
ATOM     26  H   UNL     1      -4.818  -4.780   1.092  0.00  0.00    +0.211 HD
ENDBRANCH  22  25
ENDBRANCH  21  22
ENDBRANCH   9  20
BRANCH   4  27
ATOM     27  O   UNL     1       2.559  -0.564  -0.303  0.00  0.00    -0.476 OA
BRANCH  27  28
ATOM     28  C   UNL     1       3.499  -1.620  -0.366  0.00  0.00    +0.203 C 
BRANCH  28  30
ATOM     29  N   UNL     1       7.316  -1.570  -0.661  0.00  0.00    +0.384 N 
ATOM     30  C   UNL     1       4.899  -1.018  -0.462  0.00  0.00    +0.022 C 
ATOM     31  C   UNL     1       5.195  -0.135   0.757  0.00  0.00    -0.001 C 
ATOM     32  C   UNL     1       5.960  -2.121  -0.596  0.00  0.00    -0.078 C 
ATOM     33  C   UNL     1       6.635   0.371   0.720  0.00  0.00    -0.023 C 
ATOM     34  C   UNL     1       7.620  -0.782   0.535  0.00  0.00    -0.082 C 
ATOM     35  H   UNL     1       7.394  -0.971  -1.483  0.00  0.00    -0.085 HD
ATOM     36  H   UNL     1       7.979  -2.343  -0.718  0.00  0.00    -0.085 HD
ENDBRANCH  28  30
ENDBRANCH  27  28
ENDBRANCH   4  27
TORSDOF 8
