REMARK  Name = 57899889
REMARK  1 active torsions:
REMARK  status: ('A' for Active; 'I' for Inactive)
REMARK    1  A    between atoms: C_6  and  C_18
REMARK                            x       y       z     vdW  Elec       q    Type
REMARK                         _______ _______ _______ _____ _____    ______ ____
ROOT
ATOM      1 CL   UNL     1      -5.213  -2.575   0.028  0.00  0.00    -0.082 Cl
ATOM      2  O   UNL     1      -1.501   1.924  -0.034  0.00  0.00    -0.440 OA
ATOM      3  O   UNL     1       1.103   3.129  -0.038  0.00  0.00    -0.206 OA
ATOM      4  N   UNL     1       0.538  -0.919   0.045  0.00  0.00    -0.289 N 
ATOM      5  N   UNL     1       2.014   1.004   0.017  0.00  0.00    -0.322 NA
ATOM      6  C   UNL     1       1.780  -0.285   0.043  0.00  0.00    +0.154 C 
ATOM      7  C   UNL     1      -0.520  -0.093   0.018  0.00  0.00    +0.100 A 
ATOM      8  C   UNL     1      -0.320   1.260  -0.009  0.00  0.00    +0.252 A 
ATOM      9  C   UNL     1      -1.908  -0.319   0.011  0.00  0.00    +0.053 A 
ATOM     10  C   UNL     1      -2.475   0.959  -0.022  0.00  0.00    +0.148 A 
ATOM     11  C   UNL     1       0.957   1.913  -0.013  0.00  0.00    +0.242 C 
ATOM     12  C   UNL     1      -2.763  -1.434   0.027  0.00  0.00    +0.016 C 
ATOM     13  C   UNL     1      -3.848   1.198  -0.039  0.00  0.00    +0.038 C 
ATOM     14  C   UNL     1      -4.148  -1.219   0.009  0.00  0.00    +0.058 C 
ATOM     15  C   UNL     1      -4.678   0.073  -0.023  0.00  0.00    +0.015 C 
ATOM     16  H   UNL     1       0.444  -1.899   0.066  0.00  0.00    +0.154 HD
ENDROOT
BRANCH   6  18
ATOM     17  N   UNL     1       3.742  -0.928  -1.142  0.00  0.00    +0.390 N 
ATOM     18  C   UNL     1       2.969  -1.189   0.072  0.00  0.00    +0.008 C 
ATOM     19  C   UNL     1       3.906  -0.894   1.241  0.00  0.00    -0.015 C 
ATOM     20  C   UNL     1       5.220  -0.486   0.591  0.00  0.00    -0.025 C 
ATOM     21  C   UNL     1       5.144  -1.118  -0.783  0.00  0.00    -0.081 C 
ATOM     22  H   UNL     1       3.586   0.027  -1.462  0.00  0.00    -0.084 HD
ATOM     23  H   UNL     1       3.465  -1.553  -1.899  0.00  0.00    -0.084 HD
ENDBRANCH   6  18
TORSDOF 1
