REMARK  Name = 10317383
REMARK  3 active torsions:
REMARK  status: ('A' for Active; 'I' for Inactive)
REMARK    1  A    between atoms: C_10  and  C_23
REMARK    2  A    between atoms: C_13  and  O_26
REMARK    3  A    between atoms: C_14  and  O_28
REMARK                            x       y       z     vdW  Elec       q    Type
REMARK                         _______ _______ _______ _____ _____    ______ ____
ROOT
ATOM      1  O   UNL     1       1.270  -1.756  -1.135  0.00  0.00    -0.351 OA
ATOM      2  O   UNL     1       1.023   1.520  -1.769  0.00  0.00    -0.351 OA
ATOM      3  O   UNL     1       2.618  -0.337   1.850  0.00  0.00    -0.351 OA
ATOM      4  O   UNL     1      -5.142   1.176   0.687  0.00  0.00    -0.441 OA
ATOM      5  O   UNL     1      -6.028  -0.915   0.310  0.00  0.00    -0.245 OA
ATOM      6  C   UNL     1       0.618  -0.645  -0.497  0.00  0.00    +0.149 C 
ATOM      7  C   UNL     1       1.368   0.718  -0.623  0.00  0.00    +0.169 C 
ATOM      8  C   UNL     1       1.313  -1.762   0.297  0.00  0.00    +0.172 C 
ATOM      9  C   UNL     1      -0.924  -0.619  -0.640  0.00  0.00    +0.054 C 
ATOM     10  C   UNL     1       3.392  -0.190   0.659  0.00  0.00    +0.147 C 
ATOM     11  C   UNL     1       2.644  -1.463   0.947  0.00  0.00    +0.172 C 
ATOM     12  C   UNL     1       0.560   2.007  -0.510  0.00  0.00    +0.147 C 
ATOM     13  C   UNL     1       2.869   0.772  -0.362  0.00  0.00    +0.167 C 
ATOM     14  C   UNL     1      -1.458   0.635   0.180  0.00  0.00    +0.111 C 
ATOM     15  C   UNL     1      -0.936   1.976  -0.379  0.00  0.00    +0.063 C 
ATOM     16  C   UNL     1      -1.622  -1.899  -0.068  0.00  0.00    +0.010 C 
ATOM     17  C   UNL     1      -1.279  -0.537  -2.152  0.00  0.00    +0.005 C 
ATOM     18  C   UNL     1      -2.961   0.600   0.295  0.00  0.00    +0.025 C 
ATOM     19  C   UNL     1      -3.158  -1.861  -0.171  0.00  0.00    +0.033 C 
ATOM     20  C   UNL     1      -3.682  -0.509   0.135  0.00  0.00    +0.051 C 
ATOM     21  C   UNL     1      -3.822   1.739   0.664  0.00  0.00    +0.233 C 
ATOM     22  C   UNL     1      -5.079  -0.153   0.374  0.00  0.00    +0.337 C 
ENDROOT
BRANCH  10  23
ATOM     23  C   UNL     1       4.854  -0.144   0.945  0.00  0.00    +0.030 C 
ATOM     24  C   UNL     1       5.670  -0.716  -0.221  0.00  0.00    +0.003 C 
ATOM     25  C   UNL     1       5.318   1.284   1.256  0.00  0.00    +0.003 C 
ENDBRANCH  10  23
BRANCH  13  26
ATOM     26  O   UNL     1       3.531   0.509  -1.606  0.00  0.00    -0.379 OA
ATOM     27  H   UNL     1       3.206   1.123  -2.282  0.00  0.00    +0.211 HD
ENDBRANCH  13  26
BRANCH  14  28
ATOM     28  O   UNL     1      -0.957   0.569   1.532  0.00  0.00    -0.383 OA
ATOM     29  H   UNL     1       0.013   0.588   1.519  0.00  0.00    +0.211 HD
ENDBRANCH  14  28
TORSDOF 3
