REMARK  Name = 72304
REMARK  1 active torsions:
REMARK  status: ('A' for Active; 'I' for Inactive)
REMARK    1  A    between atoms: C_3  and  C_12
REMARK                            x       y       z     vdW  Elec       q    Type
REMARK                         _______ _______ _______ _____ _____    ______ ____
ROOT
ATOM      1  O   UNL     1       1.332   1.890  -0.014  0.00  0.00    -0.450 OA
ATOM      2  O   UNL     1       0.011  -1.970  -0.065  0.00  0.00    -0.286 OA
ATOM      3  C   UNL     1      -0.542   0.346  -0.022  0.00  0.00    +0.077 C 
ATOM      4  C   UNL     1       1.836  -0.484  -0.007  0.00  0.00    +0.074 C 
ATOM      5  C   UNL     1       0.398  -0.809  -0.030  0.00  0.00    +0.202 C 
ATOM      6  C   UNL     1       2.230   0.853  -0.002  0.00  0.00    +0.148 C 
ATOM      7  C   UNL     1      -0.005   1.575  -0.013  0.00  0.00    +0.183 C 
ATOM      8  C   UNL     1       2.796  -1.500   0.005  0.00  0.00    +0.006 C 
ATOM      9  C   UNL     1       3.585   1.183   0.016  0.00  0.00    +0.038 C 
ATOM     10  C   UNL     1       4.151  -1.167   0.023  0.00  0.00    +0.000 C 
ATOM     11  C   UNL     1       4.545   0.171   0.029  0.00  0.00    +0.003 C 
ENDROOT
BRANCH   3  12
ATOM     12  C   UNL     1      -2.003   0.161  -0.004  0.00  0.00    +0.006 C 
ATOM     13  C   UNL     1      -2.715   0.089  -1.203  0.00  0.00    +0.000 C 
ATOM     14  C   UNL     1      -2.681   0.057   1.212  0.00  0.00    +0.000 C 
ATOM     15  C   UNL     1      -4.099  -0.086  -1.186  0.00  0.00    +0.000 C 
ATOM     16  C   UNL     1      -4.064  -0.119   1.230  0.00  0.00    +0.000 C 
ATOM     17  C   UNL     1      -4.773  -0.190   0.031  0.00  0.00    +0.000 C 
ENDBRANCH   3  12
TORSDOF 1
