REMARK  Name = 208953
REMARK  6 active torsions:
REMARK  status: ('A' for Active; 'I' for Inactive)
REMARK    1  A    between atoms: N_3  and  C_24
REMARK    2  A    between atoms: C_5  and  N_15
REMARK    3  A    between atoms: C_7  and  C_23
REMARK    4  A    between atoms: C_24  and  P_25
REMARK    5  A    between atoms: P_25  and  O_27
REMARK    6  A    between atoms: P_25  and  O_29
REMARK                            x       y       z     vdW  Elec       q    Type
REMARK                         _______ _______ _______ _____ _____    ______ ____
ROOT
ATOM      1  O   UNL     1      -4.698   0.266   0.742  0.00  0.00    -0.262 OA
ATOM      2  O   UNL     1      -4.366   2.777   0.116  0.00  0.00    -0.262 OA
ATOM      3  N   UNL     1      -2.406  -0.180   0.598  0.00  0.00    -0.279 N 
ATOM      4  N   UNL     1      -2.087   2.513  -0.065  0.00  0.00    -0.316 N 
ATOM      5  C   UNL     1       1.310   0.091   0.134  0.00  0.00    +0.053 C 
ATOM      6  C   UNL     1      -1.105   0.338   0.337  0.00  0.00    +0.080 A 
ATOM      7  C   UNL     1       1.433   1.438  -0.193  0.00  0.00    +0.086 C 
ATOM      8  C   UNL     1       0.051  -0.457   0.397  0.00  0.00    +0.033 C 
ATOM      9  C   UNL     1      -0.963   1.687   0.007  0.00  0.00    +0.075 A 
ATOM     10  C   UNL     1       0.296   2.239  -0.257  0.00  0.00    +0.024 C 
ATOM     11  C   UNL     1      -3.543   0.625   0.533  0.00  0.00    +0.318 A 
ATOM     12  C   UNL     1      -3.364   2.075   0.174  0.00  0.00    +0.314 A 
ATOM     13  H   UNL     1      -1.955   3.460  -0.300  0.00  0.00    +0.169 HD
ENDROOT
BRANCH   5  15
ATOM     14  O   UNL     1       4.561  -2.547   0.510  0.00  0.00    -0.350 OA
ATOM     15  N   UNL     1       2.439  -0.732   0.202  0.00  0.00    -0.303 N 
ATOM     16  C   UNL     1       3.135  -0.849   1.491  0.00  0.00    +0.123 C 
ATOM     17  C   UNL     1       2.543  -1.904  -0.673  0.00  0.00    +0.123 C 
ATOM     18  C   UNL     1       4.561  -1.335   1.263  0.00  0.00    +0.164 C 
ATOM     19  C   UNL     1       4.002  -2.335  -0.785  0.00  0.00    +0.164 C 
ENDBRANCH   5  15
BRANCH   7  23
ATOM     20  F   UNL     1       2.702   3.378  -0.783  0.00  0.00    -0.166 F 
ATOM     21  F   UNL     1       3.640   1.962   0.565  0.00  0.00    -0.166 F 
ATOM     22  F   UNL     1       3.394   1.459  -1.536  0.00  0.00    -0.166 F 
ATOM     23  C   UNL     1       2.765   2.049  -0.479  0.00  0.00    +0.420 C 
ENDBRANCH   7  23
BRANCH   3  24
ATOM     24  C   UNL     1      -2.553  -1.591   0.942  0.00  0.00    +0.225 C 
BRANCH  24  25
ATOM     25  P   UNL     1      -2.787  -2.521  -0.554  0.00  0.00    +0.360 P 
ATOM     26  O   UNL     1      -1.652  -2.409  -1.528  0.00  0.00    -0.256 OA
BRANCH  25  27
ATOM     27  O   UNL     1      -4.215  -2.013  -1.117  0.00  0.00    -0.322 OA
ATOM     28  H   UNL     1      -4.421  -2.478  -1.943  0.00  0.00    +0.220 HD
ENDBRANCH  25  27
BRANCH  25  29
ATOM     29  O   UNL     1      -3.095  -4.023  -0.042  0.00  0.00    -0.322 OA
ATOM     30  H   UNL     1      -3.237  -4.602  -0.807  0.00  0.00    +0.220 HD
ENDBRANCH  25  29
ENDBRANCH  24  25
ENDBRANCH   3  24
TORSDOF 6
