REMARK  Name = 10230
REMARK  2 active torsions:
REMARK  status: ('A' for Active; 'I' for Inactive)
REMARK    1  A    between atoms: N_3  and  N_15
REMARK    2  A    between atoms: N_4  and  N_18
REMARK                            x       y       z     vdW  Elec       q    Type
REMARK                         _______ _______ _______ _____ _____    ______ ____
ROOT
ATOM      1  N   UNL     1       0.679  -1.879  -0.031  0.00  0.00    -0.131 NA
ATOM      2  N   UNL     1      -0.679  -1.879   0.031  0.00  0.00    -0.131 NA
ATOM      3  N   UNL     1       2.752  -0.759  -0.125  0.00  0.00    -0.266 N 
ATOM      4  N   UNL     1      -2.752  -0.759   0.125  0.00  0.00    -0.266 N 
ATOM      5  C   UNL     1       0.701   0.533  -0.032  0.00  0.00    +0.037 A 
ATOM      6  C   UNL     1      -0.701   0.533   0.032  0.00  0.00    +0.037 A 
ATOM      7  C   UNL     1       1.340  -0.701  -0.061  0.00  0.00    +0.163 A 
ATOM      8  C   UNL     1      -1.340  -0.701   0.061  0.00  0.00    +0.163 A 
ATOM      9  C   UNL     1       1.395   1.754  -0.063  0.00  0.00    +0.003 C 
ATOM     10  C   UNL     1      -1.395   1.754   0.063  0.00  0.00    +0.003 C 
ATOM     11  C   UNL     1       0.696   2.962  -0.032  0.00  0.00    +0.000 C 
ATOM     12  C   UNL     1      -0.696   2.962   0.031  0.00  0.00    +0.000 C 
ATOM     13  H   UNL     1       3.255   0.046  -0.387  0.00  0.00    +0.168 HD
ATOM     14  H   UNL     1      -3.255   0.046   0.386  0.00  0.00    +0.168 HD
ENDROOT
BRANCH   3  15
ATOM     15  N   UNL     1       3.439  -1.911   0.168  0.00  0.00    -0.255 NA
ATOM     16  H   UNL     1       2.778  -2.646   0.419  0.00  0.00    +0.140 HD
ATOM     17  H   UNL     1       4.070  -1.740   0.951  0.00  0.00    +0.140 HD
ENDBRANCH   3  15
BRANCH   4  18
ATOM     18  N   UNL     1      -3.439  -1.911  -0.169  0.00  0.00    -0.255 NA
ATOM     19  H   UNL     1      -2.778  -2.646  -0.419  0.00  0.00    +0.140 HD
ATOM     20  H   UNL     1      -4.070  -1.740  -0.952  0.00  0.00    +0.140 HD
ENDBRANCH   4  18
TORSDOF 2
