REMARK  Name = 46926973
REMARK  4 active torsions:
REMARK  status: ('A' for Active; 'I' for Inactive)
REMARK    1  A    between atoms: C_4  and  C_17
REMARK    2  A    between atoms: C_6  and  C_13
REMARK    3  A    between atoms: C_17  and  C_19
REMARK    4  A    between atoms: C_21  and  C_26
REMARK                            x       y       z     vdW  Elec       q    Type
REMARK                         _______ _______ _______ _____ _____    ______ ____
ROOT
ATOM      1  O   UNL     1      -0.461   1.106  -1.852  0.00  0.00    -0.274 OA
ATOM      2  N   UNL     1      -1.474   1.860   0.132  0.00  0.00    -0.269 N 
ATOM      3  N   UNL     1      -3.566   1.442   1.154  0.00  0.00    -0.229 NA
ATOM      4  C   UNL     1      -0.451   1.773  -0.822  0.00  0.00    +0.232 C 
ATOM      5  C   UNL     1      -2.718   1.217   0.125  0.00  0.00    +0.134 C 
ATOM      6  C   UNL     1      -5.131  -0.056   0.080  0.00  0.00    +0.038 C 
ATOM      7  C   UNL     1      -3.000   0.383  -0.945  0.00  0.00    +0.035 C 
ATOM      8  C   UNL     1      -4.232  -0.261  -0.961  0.00  0.00    +0.006 C 
ATOM      9  C   UNL     1      -4.754   0.798   1.104  0.00  0.00    +0.102 C 
ATOM     10  H   UNL     1      -1.296   2.446   0.903  0.00  0.00    +0.156 HD
ENDROOT
BRANCH   6  13
ATOM     11  N   UNL     1      -6.474  -1.913  -0.514  0.00  0.00    -0.241 NA
ATOM     12  N   UNL     1      -8.723  -0.754   0.695  0.00  0.00    -0.239 NA
ATOM     13  C   UNL     1      -6.418  -0.710   0.092  0.00  0.00    +0.102 C 
ATOM     14  C   UNL     1      -7.523  -0.141   0.686  0.00  0.00    +0.118 C 
ATOM     15  C   UNL     1      -7.674  -2.526  -0.504  0.00  0.00    +0.119 C 
ATOM     16  C   UNL     1      -8.779  -1.957   0.089  0.00  0.00    +0.120 C 
ENDBRANCH   6  13
BRANCH   4  17
ATOM     17  C   UNL     1       0.737   2.635  -0.424  0.00  0.00    +0.113 C 
BRANCH  17  19
ATOM     18  N   UNL     1       4.037   0.955  -1.214  0.00  0.00    -0.244 NA
ATOM     19  C   UNL     1       2.012   1.852  -0.245  0.00  0.00    +0.006 C 
ATOM     20  C   UNL     1       3.537   0.593   1.124  0.00  0.00    -0.004 C 
ATOM     21  C   UNL     1       4.336   0.445   0.002  0.00  0.00    +0.077 C 
ATOM     22  C   UNL     1       2.354   1.312   0.989  0.00  0.00    -0.005 C 
ATOM     23  C   UNL     1       2.880   1.647  -1.306  0.00  0.00    +0.095 C 
ATOM     24  C   UNL     1       3.901   0.014   2.448  0.00  0.00    +0.033 C 
BRANCH  21  26
ATOM     25  N   UNL     1       7.994  -1.699   0.125  0.00  0.00    -0.248 NA
ATOM     26  C   UNL     1       5.583  -0.286   0.044  0.00  0.00    +0.020 C 
ATOM     27  C   UNL     1       5.601  -1.652  -0.218  0.00  0.00    +0.016 C 
ATOM     28  C   UNL     1       6.769   0.374   0.346  0.00  0.00    +0.022 C 
ATOM     29  C   UNL     1       6.822  -2.306  -0.165  0.00  0.00    +0.059 C 
ATOM     30  C   UNL     1       7.937  -0.371   0.374  0.00  0.00    +0.098 C 
ATOM     31  C   UNL     1       6.879  -3.772  -0.440  0.00  0.00    +0.052 C 
ENDBRANCH  21  26
ENDBRANCH  17  19
ENDBRANCH   4  17
TORSDOF 4
