REMARK  Name = 25221720
REMARK  8 active torsions:
REMARK  status: ('A' for Active; 'I' for Inactive)
REMARK    1  A    between atoms: C_1  and  O_7
REMARK    2  A    between atoms: C_2  and  C_15
REMARK    3  A    between atoms: O_7  and  C_8
REMARK    4  A    between atoms: C_8  and  C_9
REMARK    5  A    between atoms: C_15  and  O_16
REMARK    6  A    between atoms: C_15  and  C_18
REMARK    7  A    between atoms: C_18  and  C_19
REMARK    8  A    between atoms: C_19  and  N_20
REMARK                            x       y       z     vdW  Elec       q    Type
REMARK                         _______ _______ _______ _____ _____    ______ ____
ROOT
ATOM      1  C   UNL     1      -0.414   1.458   0.196  0.00  0.00    +0.138 C 
ATOM      2  C   UNL     1      -2.664   0.578   0.153  0.00  0.00    +0.007 C 
ATOM      3  C   UNL     1      -1.347   0.505   0.606  0.00  0.00    +0.035 C 
ATOM      4  C   UNL     1      -0.799   2.483  -0.668  0.00  0.00    +0.037 C 
ATOM      5  C   UNL     1      -3.049   1.603  -0.711  0.00  0.00    -0.002 C 
ATOM      6  C   UNL     1      -2.116   2.556  -1.121  0.00  0.00    +0.003 C 
ENDROOT
BRANCH   1   7
ATOM      7  O   UNL     1       0.883   1.387   0.642  0.00  0.00    -0.475 OA
BRANCH   7   8
ATOM      8  C   UNL     1       1.393   0.099   0.932  0.00  0.00    +0.205 C 
BRANCH   8   9
ATOM      9  C   UNL     1       2.899   0.106   0.677  0.00  0.00    +0.044 C 
ATOM     10  C   UNL     1       3.508  -1.268   0.988  0.00  0.00    +0.004 C 
ATOM     11  C   UNL     1       3.203   0.524  -0.768  0.00  0.00    +0.004 C 
ATOM     12  C   UNL     1       5.005  -1.302   0.691  0.00  0.00    +0.000 C 
ATOM     13  C   UNL     1       4.701   0.487  -1.062  0.00  0.00    +0.000 C 
ATOM     14  C   UNL     1       5.304  -0.877  -0.744  0.00  0.00    +0.000 C 
ENDBRANCH   8   9
ENDBRANCH   7   8
ENDBRANCH   1   7
BRANCH   2  15
ATOM     15  C   UNL     1      -3.661  -0.441   0.591  0.00  0.00    +0.131 C 
BRANCH  15  16
ATOM     16  O   UNL     1      -3.845  -0.324   2.010  0.00  0.00    -0.380 OA
ATOM     17  H   UNL     1      -4.091   0.588   2.230  0.00  0.00    +0.211 HD
ENDBRANCH  15  16
BRANCH  15  18
ATOM     18  C   UNL     1      -3.270  -1.902   0.272  0.00  0.00    +0.010 C 
BRANCH  18  19
ATOM     19  C   UNL     1      -3.042  -2.138  -1.222  0.00  0.00    -0.083 C 
BRANCH  19  20
ATOM     20  N   UNL     1      -2.690  -3.533  -1.462  0.00  0.00    +0.381 N 
ATOM     21  H   UNL     1      -2.540  -3.679  -2.461  0.00  0.00    -0.089 HD
ATOM     22  H   UNL     1      -3.448  -4.135  -1.141  0.00  0.00    -0.089 HD
ATOM     23  H   UNL     1      -1.836  -3.761  -0.954  0.00  0.00    -0.089 HD
ENDBRANCH  19  20
ENDBRANCH  18  19
ENDBRANCH  15  18
ENDBRANCH   2  15
TORSDOF 8
