REMARK  Name = 6035
REMARK  4 active torsions:
REMARK  status: ('A' for Active; 'I' for Inactive)
REMARK    1  A    between atoms: N_4  and  C1*_13
REMARK    2  A    between atoms: C3*_12  and  O3*_16
REMARK    3  A    between atoms: C4*_15  and  C5*_18
REMARK    4  A    between atoms: C5*_18  and  O5*_19
REMARK                            x       y       z     vdW  Elec       q    Type
REMARK                         _______ _______ _______ _____ _____    ______ ____
ROOT
ATOM      1 BR   UNL     1      -2.579  -2.868   0.345  0.00  0.00    -0.043 Br
ATOM      2  O   UNL     1      -1.116   2.858  -0.363  0.00  0.00    -0.252 OA
ATOM      3  O   UNL     1      -4.362  -0.343   0.217  0.00  0.00    -0.269 OA
ATOM      4  N   UNL     1      -0.434   0.633  -0.185  0.00  0.00    -0.218 N 
ATOM      5  N   UNL     1      -2.722   1.247  -0.074  0.00  0.00    -0.235 N 
ATOM      6  C   UNL     1      -1.395   1.666  -0.219  0.00  0.00    +0.315 C 
ATOM      7  C   UNL     1      -0.830  -0.688  -0.017  0.00  0.00    +0.082 C 
ATOM      8  C   UNL     1      -2.101  -1.082   0.121  0.00  0.00    +0.103 C 
ATOM      9  C   UNL     1      -3.175  -0.054   0.096  0.00  0.00    +0.260 C 
ATOM     10  H   UNL     1      -3.410   1.951  -0.095  0.00  0.00    +0.159 HD
ENDROOT
BRANCH   4  13
ATOM     11  O4* UNL     1       1.606  -0.176  -0.997  0.00  0.00    -0.335 OA
ATOM     12  C3* UNL     1       3.048   0.555   0.737  0.00  0.00    +0.144 C 
ATOM     13  C1* UNL     1       0.965   0.915  -0.321  0.00  0.00    +0.202 C 
ATOM     14  C2* UNL     1       1.663   1.092   1.018  0.00  0.00    +0.083 C 
ATOM     15  C4* UNL     1       2.789  -0.557  -0.269  0.00  0.00    +0.173 C 
BRANCH  12  16
ATOM     16  O3* UNL     1       3.846   1.575   0.139  0.00  0.00    -0.382 OA
ATOM     17  H3* UNL     1       4.007   2.280   0.785  0.00  0.00    +0.210 HD
ENDBRANCH  12  16
BRANCH  15  18
ATOM     18  C5* UNL     1       2.519  -1.903   0.391  0.00  0.00    +0.169 C 
BRANCH  18  19
ATOM     19  O5* UNL     1       2.280  -2.869  -0.619  0.00  0.00    -0.379 OA
ATOM     20  H5* UNL     1       2.106  -3.731  -0.208  0.00  0.00    +0.211 HD
ENDBRANCH  18  19
ENDBRANCH  15  18
ENDBRANCH   4  13
TORSDOF 4
