REMARK  Name = 3037233
REMARK  12 active torsions:
REMARK  status: ('A' for Active; 'I' for Inactive)
REMARK    1  A    between atoms: C_2  and  C_22
REMARK    2  A    between atoms: C_4  and  C_10
REMARK    3  A    between atoms: C_11  and  C_15
REMARK    4  A    between atoms: N_14  and  C_17
REMARK    5  A    between atoms: C_17  and  C_18
REMARK    6  A    between atoms: C_18  and  C_19
REMARK    7  A    between atoms: C_19  and  C_20
REMARK    8  A    between atoms: C_22  and  C_23
REMARK    9  A    between atoms: C_24  and  C_29
REMARK   10  A    between atoms: C_29  and  C_30
REMARK   11  A    between atoms: C_30  and  C_32
REMARK   12  A    between atoms: C_32  and  O_33
REMARK                            x       y       z     vdW  Elec       q    Type
REMARK                         _______ _______ _______ _____ _____    ______ ____
ROOT
ATOM      1  O   UNL     1       0.163  -3.170  -0.763  0.00  0.00    -0.358 OA
ATOM      2  C   UNL     1       1.683  -1.428  -0.801  0.00  0.00    +0.044 C 
ATOM      3  C   UNL     1       1.547  -2.917  -0.432  0.00  0.00    +0.116 C 
ATOM      4  C   UNL     1       0.783  -1.342  -2.063  0.00  0.00    +0.119 C 
ATOM      5  C   UNL     1       0.234  -2.781  -2.156  0.00  0.00    +0.125 C 
ATOM      6  C   UNL     1       2.261  -3.804  -1.453  0.00  0.00    +0.032 C 
ATOM      7  C   UNL     1       1.321  -3.734  -2.656  0.00  0.00    +0.033 C 
ENDROOT
BRANCH   4  10
ATOM      8  O   UNL     1      -0.075   0.873  -2.483  0.00  0.00    -0.447 OA
ATOM      9  N   UNL     1      -1.528  -0.532  -1.469  0.00  0.00    -0.367 NA
ATOM     10  C   UNL     1      -0.328  -0.364  -1.975  0.00  0.00    +0.255 C 
ATOM     11  C   UNL     1      -2.119   0.691  -1.658  0.00  0.00    +0.209 C 
ATOM     12  C   UNL     1      -1.240   1.547  -2.274  0.00  0.00    +0.271 C 
BRANCH  11  15
ATOM     13  O   UNL     1      -4.001   2.095  -1.454  0.00  0.00    -0.268 OA
ATOM     14  N   UNL     1      -4.181  -0.054  -0.637  0.00  0.00    -0.299 N 
ATOM     15  C   UNL     1      -3.459   0.984  -1.255  0.00  0.00    +0.275 C 
ATOM     16  H   UNL     1      -3.728  -0.916  -0.494  0.00  0.00    +0.150 HD
BRANCH  14  17
ATOM     17  C   UNL     1      -5.553   0.077  -0.200  0.00  0.00    +0.090 C 
BRANCH  17  18
ATOM     18  C   UNL     1      -5.638   0.572   1.238  0.00  0.00    +0.021 C 
BRANCH  18  19
ATOM     19  C   UNL     1      -4.948  -0.393   2.201  0.00  0.00    +0.002 C 
BRANCH  19  20
ATOM     20  C   UNL     1      -5.066   0.084   3.648  0.00  0.00    +0.000 C 
ATOM     21  C   UNL     1      -4.352  -0.856   4.606  0.00  0.00    +0.000 C 
ENDBRANCH  19  20
ENDBRANCH  18  19
ENDBRANCH  17  18
ENDBRANCH  14  17
ENDBRANCH  11  15
ENDBRANCH   4  10
BRANCH   2  22
ATOM     22  C   UNL     1       1.282  -0.536   0.373  0.00  0.00    +0.029 C 
BRANCH  22  23
ATOM     23  C   UNL     1       2.397  -0.405   1.373  0.00  0.00    -0.026 C 
ATOM     24  C   UNL     1       3.342   0.616   1.265  0.00  0.00    -0.026 C 
ATOM     25  C   UNL     1       2.477  -1.321   2.422  0.00  0.00    -0.005 C 
ATOM     26  C   UNL     1       4.367   0.720   2.205  0.00  0.00    -0.005 C 
ATOM     27  C   UNL     1       3.503  -1.217   3.362  0.00  0.00    -0.000 C 
ATOM     28  C   UNL     1       4.447  -0.197   3.254  0.00  0.00    -0.000 C 
BRANCH  24  29
ATOM     29  C   UNL     1       3.276   1.609   0.152  0.00  0.00    +0.038 C 
BRANCH  29  30
ATOM     30  C   UNL     1       2.441   2.850   0.483  0.00  0.00    +0.114 C 
BRANCH  30  32
ATOM     31  O   UNL     1       2.915   3.601  -1.764  0.00  0.00    -0.250 OA
ATOM     32  C   UNL     1       2.374   3.805  -0.684  0.00  0.00    +0.314 C 
BRANCH  32  33
ATOM     33  O   UNL     1       1.674   4.932  -0.405  0.00  0.00    -0.480 OA
ATOM     34  H   UNL     1       1.278   5.040   0.438  0.00  0.00    +0.295 HD
ENDBRANCH  32  33
ENDBRANCH  30  32
ENDBRANCH  29  30
ENDBRANCH  24  29
ENDBRANCH  22  23
ENDBRANCH   2  22
TORSDOF 12
