REMARK  Name = 10296883
REMARK  2 active torsions:
REMARK  status: ('A' for Active; 'I' for Inactive)
REMARK    1  A    between atoms: C_11  and  C_22
REMARK    2  A    between atoms: C_23  and  C_28
REMARK                            x       y       z     vdW  Elec       q    Type
REMARK                         _______ _______ _______ _____ _____    ______ ____
ROOT
ATOM      1  N   UNL     1      -3.127   0.061  -0.144  0.00  0.00    -0.238 N 
ATOM      2  N   UNL     1      -5.394  -1.665  -0.356  0.00  0.00    +0.388 N 
ATOM      3  N   UNL     1      -0.875   0.526  -0.663  0.00  0.00    -0.332 NA
ATOM      4  N   UNL     1      -2.057   1.847   0.969  0.00  0.00    -0.332 NA
ATOM      5  C   UNL     1      -2.950  -1.341  -0.543  0.00  0.00    +0.080 C 
ATOM      6  C   UNL     1      -4.348   0.356   0.613  0.00  0.00    +0.080 C 
ATOM      7  C   UNL     1      -4.220  -1.873  -1.213  0.00  0.00    -0.055 C 
ATOM      8  C   UNL     1      -5.573  -0.231  -0.093  0.00  0.00    -0.055 C 
ATOM      9  C   UNL     1      -1.980   0.836   0.060  0.00  0.00    +0.202 C 
ATOM     10  C   UNL     1      -6.591  -2.225  -0.981  0.00  0.00    -0.101 C 
ATOM     11  C   UNL     1       0.206   1.295  -0.438  0.00  0.00    +0.137 C 
ATOM     12  C   UNL     1       0.234   2.351   0.468  0.00  0.00    +0.129 C 
ATOM     13  C   UNL     1      -0.958   2.596   1.170  0.00  0.00    +0.133 C 
ATOM     14  C   UNL     1       1.376   3.141   0.686  0.00  0.00    -0.012 C 
ATOM     15  C   UNL     1      -0.970   3.645   2.086  0.00  0.00    +0.029 C 
ATOM     16  C   UNL     1       1.337   4.183   1.607  0.00  0.00    -0.004 C 
ATOM     17  C   UNL     1       0.162   4.435   2.308  0.00  0.00    +0.002 C 
ATOM     18  H   UNL     1      -5.244  -2.146   0.531  0.00  0.00    -0.080 HD
ENDROOT
BRANCH  11  22
ATOM     19  O   UNL     1       0.988   2.300  -3.172  0.00  0.00    -0.270 OA
ATOM     20  O   UNL     1       4.294  -0.695  -2.144  0.00  0.00    -0.270 OA
ATOM     21  N   UNL     1       2.818   0.879  -3.003  0.00  0.00    -0.248 N 
ATOM     22  C   UNL     1       1.369   0.915  -1.243  0.00  0.00    +0.085 C 
ATOM     23  C   UNL     1       2.342   0.036  -0.937  0.00  0.00    +0.062 C 
ATOM     24  C   UNL     1       1.663   1.470  -2.587  0.00  0.00    +0.254 C 
ATOM     25  C   UNL     1       3.295   0.002  -2.075  0.00  0.00    +0.252 C 
ATOM     26  H   UNL     1       3.254   1.063  -3.867  0.00  0.00    +0.158 HD
BRANCH  23  28
ATOM     27  N   UNL     1       3.127  -1.432   2.256  0.00  0.00    -0.312 N 
ATOM     28  C   UNL     1       2.502  -0.782   0.225  0.00  0.00    +0.020 C 
ATOM     29  C   UNL     1       2.016  -2.104   0.442  0.00  0.00    +0.015 C 
ATOM     30  C   UNL     1       2.422  -2.487   1.722  0.00  0.00    +0.048 C 
ATOM     31  C   UNL     1       3.181  -0.398   1.360  0.00  0.00    +0.062 C 
ATOM     32  C   UNL     1       1.268  -3.012  -0.332  0.00  0.00    +0.001 C 
ATOM     33  C   UNL     1       2.117  -3.738   2.269  0.00  0.00    +0.015 C 
ATOM     34  C   UNL     1       0.954  -4.268   0.202  0.00  0.00    +0.000 C 
ATOM     35  C   UNL     1       1.373  -4.623   1.482  0.00  0.00    +0.001 C 
ATOM     36  H   UNL     1       3.534  -1.422   3.153  0.00  0.00    +0.152 HD
ENDBRANCH  23  28
ENDBRANCH  11  22
TORSDOF 2
