REMARK  Name = 3276
REMARK  5 active torsions:
REMARK  status: ('A' for Active; 'I' for Inactive)
REMARK    1  A    between atoms: C_1  and  N_4
REMARK    2  A    between atoms: C_1  and  C_12
REMARK    3  A    between atoms: N_11  and  C_14
REMARK    4  A    between atoms: C_14  and  C_15
REMARK    5  A    between atoms: C_15  and  O_16
REMARK                            x       y       z     vdW  Elec       q    Type
REMARK                         _______ _______ _______ _____ _____    ______ ____
ROOT
ATOM      1  C   UNL     1       0.015  -0.675  -1.039  0.00  0.00    +0.183 C 
ENDROOT
BRANCH   1   4
ATOM      2  O   UNL     1      -2.464   2.582  -0.082  0.00  0.00    -0.123 OA
ATOM      3  O   UNL     1      -0.380   1.907   0.112  0.00  0.00    -0.123 OA
ATOM      4  N   UNL     1      -1.324  -0.731  -0.461  0.00  0.00    -0.242 N 
ATOM      5  N   UNL     1      -3.213  -0.070   0.468  0.00  0.00    -0.207 NA
ATOM      6  N   UNL     1      -1.614   1.652   0.013  0.00  0.00    +0.091 N 
ATOM      7  C   UNL     1      -2.045   0.320   0.009  0.00  0.00    +0.284 C 
ATOM      8  C   UNL     1      -2.058  -1.862  -0.301  0.00  0.00    +0.089 C 
ATOM      9  C   UNL     1      -3.227  -1.429   0.279  0.00  0.00    +0.118 C 
ENDBRANCH   1   4
BRANCH   1  12
ATOM     10  O   UNL     1       0.886  -1.002   1.193  0.00  0.00    -0.273 OA
ATOM     11  N   UNL     1       2.367  -0.761  -0.580  0.00  0.00    -0.301 N 
ATOM     12  C   UNL     1       1.108  -0.832  -0.003  0.00  0.00    +0.243 C 
ATOM     13  H   UNL     1       2.432  -0.622  -1.553  0.00  0.00    +0.150 HD
BRANCH  11  14
ATOM     14  C   UNL     1       3.587  -0.883   0.183  0.00  0.00    +0.121 C 
BRANCH  14  15
ATOM     15  C   UNL     1       4.055   0.479   0.669  0.00  0.00    +0.158 C 
BRANCH  15  16
ATOM     16  O   UNL     1       4.306   1.306  -0.460  0.00  0.00    -0.380 OA
ATOM     17  H   UNL     1       4.605   2.179  -0.161  0.00  0.00    +0.211 HD
ENDBRANCH  15  16
ENDBRANCH  14  15
ENDBRANCH  11  14
ENDBRANCH   1  12
TORSDOF 5
