REMARK  Name = 9889366
REMARK  10 active torsions:
REMARK  status: ('A' for Active; 'I' for Inactive)
REMARK    1  A    between atoms: C_1  and  C_21
REMARK    2  A    between atoms: C_4  and  C_7
REMARK    3  A    between atoms: C_8  and  C_13
REMARK    4  A    between atoms: C_13  and  C_14
REMARK    5  A    between atoms: C_14  and  N_15
REMARK    6  A    between atoms: N_15  and  S_17
REMARK    7  A    between atoms: C_21  and  C_23
REMARK    8  A    between atoms: C_23  and  N_24
REMARK    9  A    between atoms: N_24  and  S_26
REMARK   10  A    between atoms: S_26  and  C_29
REMARK                            x       y       z     vdW  Elec       q    Type
REMARK                         _______ _______ _______ _____ _____    ______ ____
ROOT
ATOM      1  C   UNL     1       2.904  -1.752  -0.042  0.00  0.00    -0.021 C 
ATOM      2  C   UNL     1       2.225  -1.894   1.168  0.00  0.00    -0.004 C 
ATOM      3  C   UNL     1       2.283  -1.123  -1.121  0.00  0.00    -0.004 C 
ATOM      4  C   UNL     1       0.302  -0.781   0.219  0.00  0.00    -0.000 C 
ATOM      5  C   UNL     1       0.924  -1.409   1.298  0.00  0.00    -0.000 C 
ATOM      6  C   UNL     1       0.982  -0.638  -0.991  0.00  0.00    -0.000 C 
ENDROOT
BRANCH   4   7
ATOM      7  C   UNL     1      -1.048  -0.279   0.354  0.00  0.00    -0.000 C 
ATOM      8  C   UNL     1      -3.651   0.690   0.617  0.00  0.00    -0.021 C 
ATOM      9  C   UNL     1      -1.940  -0.903   1.227  0.00  0.00    -0.000 C 
ATOM     10  C   UNL     1      -1.458   0.829  -0.387  0.00  0.00    -0.000 C 
ATOM     11  C   UNL     1      -3.241  -0.418   1.358  0.00  0.00    -0.004 C 
ATOM     12  C   UNL     1      -2.759   1.314  -0.256  0.00  0.00    -0.004 C 
BRANCH   8  13
ATOM     13  C   UNL     1      -5.042   1.208   0.758  0.00  0.00    +0.045 C 
BRANCH  13  14
ATOM     14  C   UNL     1      -6.038   0.574  -0.220  0.00  0.00    +0.096 C 
BRANCH  14  15
ATOM     15  N   UNL     1      -7.385   1.155  -0.025  0.00  0.00    -0.183 NA
ATOM     16  H   UNL     1      -7.443   1.454   0.949  0.00  0.00    +0.148 HD
BRANCH  15  17
ATOM     17  S   UNL     1      -8.755   0.190  -0.334  0.00  0.00    +0.043 S 
ATOM     18  O   UNL     1      -9.943   1.019  -0.383  0.00  0.00    -0.157 OA
ATOM     19  O   UNL     1      -8.697  -0.973   0.530  0.00  0.00    -0.157 OA
ATOM     20  C   UNL     1      -8.403  -0.359  -1.988  0.00  0.00    +0.196 C 
ENDBRANCH  15  17
ENDBRANCH  14  15
ENDBRANCH  13  14
ENDBRANCH   8  13
ENDBRANCH   4   7
BRANCH   1  21
ATOM     21  C   UNL     1       4.322  -2.281  -0.184  0.00  0.00    +0.040 C 
ATOM     22  C   UNL     1       4.389  -3.390  -1.240  0.00  0.00    +0.006 C 
BRANCH  21  23
ATOM     23  C   UNL     1       5.338  -1.177  -0.515  0.00  0.00    +0.095 C 
BRANCH  23  24
ATOM     24  N   UNL     1       5.334  -0.147   0.540  0.00  0.00    -0.183 NA
ATOM     25  H   UNL     1       4.414  -0.176   0.981  0.00  0.00    +0.148 HD
BRANCH  24  26
ATOM     26  S   UNL     1       5.634   1.480   0.115  0.00  0.00    +0.039 S 
ATOM     27  O   UNL     1       5.619   2.307   1.308  0.00  0.00    -0.158 OA
ATOM     28  O   UNL     1       4.803   1.816  -1.026  0.00  0.00    -0.158 OA
BRANCH  26  29
ATOM     29  C   UNL     1       7.309   1.368  -0.456  0.00  0.00    +0.146 C 
ATOM     30  C   UNL     1       8.213   0.858   0.656  0.00  0.00    +0.027 C 
ATOM     31  C   UNL     1       7.779   2.717  -0.980  0.00  0.00    +0.027 C 
ENDBRANCH  26  29
ENDBRANCH  24  26
ENDBRANCH  23  24
ENDBRANCH  21  23
ENDBRANCH   1  21
TORSDOF 10
