REMARK  Name = 15604015
REMARK  4 active torsions:
REMARK  status: ('A' for Active; 'I' for Inactive)
REMARK    1  A    between atoms: C_1  and  C_12
REMARK    2  A    between atoms: C_2  and  C_20
REMARK    3  A    between atoms: N_19  and  C_22
REMARK    4  A    between atoms: C_22  and  C_24
REMARK                            x       y       z     vdW  Elec       q    Type
REMARK                         _______ _______ _______ _____ _____    ______ ____
ROOT
ATOM      1  C   UNL     1       1.962   0.720   0.000  0.00  0.00    +0.019 C 
ATOM      2  C   UNL     1      -0.295   1.915  -0.115  0.00  0.00    +0.069 C 
ATOM      3  C   UNL     1       1.567   2.932   1.233  0.00  0.00    +0.001 C 
ATOM      4  C   UNL     1       1.707   2.919  -1.275  0.00  0.00    +0.001 C 
ATOM      5  C   UNL     1       0.416   0.548  -0.067  0.00  0.00    +0.013 C 
ATOM      6  C   UNL     1       2.274   1.567   1.272  0.00  0.00    +0.004 C 
ATOM      7  C   UNL     1       2.420   1.556  -1.231  0.00  0.00    +0.004 C 
ATOM      8  C   UNL     1       0.049   2.713   1.153  0.00  0.00    +0.009 C 
ATOM      9  C   UNL     1       0.188   2.694  -1.353  0.00  0.00    +0.009 C 
ATOM     10  C   UNL     1       2.038   3.710  -0.003  0.00  0.00    +0.000 C 
ENDROOT
BRANCH   1  12
ATOM     11 CL   UNL     1       4.660  -4.693  -0.052  0.00  0.00    -0.082 Cl
ATOM     12  C   UNL     1       2.647  -0.656  -0.013  0.00  0.00    -0.023 C 
ATOM     13  C   UNL     1       3.460  -1.041   1.054  0.00  0.00    -0.003 C 
ATOM     14  C   UNL     1       2.457  -1.520  -1.091  0.00  0.00    -0.003 C 
ATOM     15  C   UNL     1       4.082  -2.289   1.042  0.00  0.00    +0.011 C 
ATOM     16  C   UNL     1       3.080  -2.769  -1.103  0.00  0.00    +0.011 C 
ATOM     17  C   UNL     1       3.892  -3.153  -0.037  0.00  0.00    +0.058 C 
ENDBRANCH   1  12
BRANCH   2  20
ATOM     18  O   UNL     1      -2.452   2.142  -1.122  0.00  0.00    -0.275 OA
ATOM     19  N   UNL     1      -2.273   1.045   0.924  0.00  0.00    -0.300 N 
ATOM     20  C   UNL     1      -1.784   1.718  -0.182  0.00  0.00    +0.222 C 
ATOM     21  H   UNL     1      -1.636   0.753   1.615  0.00  0.00    +0.150 HD
BRANCH  19  22
ATOM     22  C   UNL     1      -3.675   0.749   1.112  0.00  0.00    +0.116 C 
BRANCH  22  24
ATOM     23  N   UNL     1      -4.757  -3.039  -0.576  0.00  0.00    -0.242 NA
ATOM     24  C   UNL     1      -4.054  -0.578   0.521  0.00  0.00    +0.001 C 
ATOM     25  C   UNL     1      -3.974  -1.724   1.295  0.00  0.00    +0.018 C 
ATOM     26  C   UNL     1      -4.482  -0.647  -0.795  0.00  0.00    +0.018 C 
ATOM     27  C   UNL     1      -4.335  -2.923   0.703  0.00  0.00    +0.099 C 
ATOM     28  C   UNL     1      -4.820  -1.895  -1.294  0.00  0.00    +0.099 C 
ENDBRANCH  22  24
ENDBRANCH  19  22
ENDBRANCH   2  20
TORSDOF 4
