REMARK  Name = 58185197
REMARK  17 active torsions:
REMARK  status: ('A' for Active; 'I' for Inactive)
REMARK    1  A    between atoms: C_1  and  C_8
REMARK    2  A    between atoms: C_2  and  C_23
REMARK    3  A    between atoms: C_7  and  C_9
REMARK    4  A    between atoms: C_9  and  O_10
REMARK    5  A    between atoms: C_9  and  C_12
REMARK    6  A    between atoms: C_12  and  O_13
REMARK    7  A    between atoms: C_12  and  C_15
REMARK    8  A    between atoms: C_15  and  C_16
REMARK    9  A    between atoms: C_16  and  C_17
REMARK   10  A    between atoms: C_17  and  C_19
REMARK   11  A    between atoms: C_19  and  O_20
REMARK   12  A    between atoms: C_22  and  C_24
REMARK   13  A    between atoms: C_24  and  O_25
REMARK   14  A    between atoms: C_24  and  C_27
REMARK   15  A    between atoms: C_27  and  C_28
REMARK   16  A    between atoms: C_28  and  C_29
REMARK   17  A    between atoms: C_29  and  C_30
REMARK                            x       y       z     vdW  Elec       q    Type
REMARK                         _______ _______ _______ _____ _____    ______ ____
ROOT
ATOM      1  C   UNL     1      -1.500   2.302   0.428  0.00  0.00    -0.000 C 
ATOM      2  C   UNL     1      -0.109   2.355   0.335  0.00  0.00    -0.000 C 
ATOM      3  C   UNL     1      -2.254   3.467   0.281  0.00  0.00    -0.000 C 
ATOM      4  C   UNL     1       0.528   3.572   0.096  0.00  0.00    -0.000 C 
ATOM      5  C   UNL     1      -1.616   4.684   0.041  0.00  0.00    -0.000 C 
ATOM      6  C   UNL     1      -0.226   4.737  -0.051  0.00  0.00    -0.000 C 
ENDROOT
BRANCH   1   8
ATOM      7  C   UNL     1      -3.136   0.506  -0.141  0.00  0.00    +0.005 C 
ATOM      8  C   UNL     1      -2.216   1.040   0.679  0.00  0.00    -0.002 C 
BRANCH   7   9
ATOM      9  C   UNL     1      -3.896  -0.778   0.089  0.00  0.00    +0.159 C 
BRANCH   9  10
ATOM     10  O   UNL     1      -5.295  -0.527   0.234  0.00  0.00    -0.378 OA
ATOM     11  H   UNL     1      -5.761  -1.365   0.381  0.00  0.00    +0.211 HD
ENDBRANCH   9  10
BRANCH   9  12
ATOM     12  C   UNL     1      -3.705  -1.817  -1.033  0.00  0.00    +0.141 C 
BRANCH  12  13
ATOM     13  O   UNL     1      -4.259  -1.301  -2.248  0.00  0.00    -0.382 OA
ATOM     14  H   UNL     1      -4.142  -1.950  -2.958  0.00  0.00    +0.210 HD
ENDBRANCH  12  13
BRANCH  12  15
ATOM     15  C   UNL     1      -2.256  -2.227  -1.329  0.00  0.00    +0.033 C 
BRANCH  15  16
ATOM     16  C   UNL     1      -1.564  -2.928  -0.158  0.00  0.00    +0.014 C 
BRANCH  16  17
ATOM     17  C   UNL     1      -0.092  -3.228  -0.447  0.00  0.00    +0.109 C 
BRANCH  17  19
ATOM     18  O   UNL     1       0.133  -4.111   1.813  0.00  0.00    -0.250 OA
ATOM     19  C   UNL     1       0.631  -3.852   0.726  0.00  0.00    +0.314 C 
BRANCH  19  20
ATOM     20  O   UNL     1       1.939  -4.080   0.438  0.00  0.00    -0.480 OA
ATOM     21  H   UNL     1       2.277  -3.866  -0.409  0.00  0.00    +0.295 HD
ENDBRANCH  19  20
ENDBRANCH  17  19
ENDBRANCH  16  17
ENDBRANCH  15  16
ENDBRANCH  12  15
ENDBRANCH   9  12
ENDBRANCH   7   9
ENDBRANCH   1   8
BRANCH   2  23
ATOM     22  C   UNL     1       1.690   0.989   1.404  0.00  0.00    +0.003 C 
ATOM     23  C   UNL     1       0.719   1.163   0.482  0.00  0.00    -0.002 C 
BRANCH  22  24
ATOM     24  C   UNL     1       2.528  -0.256   1.510  0.00  0.00    +0.132 C 
BRANCH  24  25
ATOM     25  O   UNL     1       2.262  -0.843   2.781  0.00  0.00    -0.380 OA
ATOM     26  H   UNL     1       2.789  -1.652   2.880  0.00  0.00    +0.211 HD
ENDBRANCH  24  25
BRANCH  24  27
ATOM     27  C   UNL     1       4.019   0.085   1.387  0.00  0.00    +0.034 C 
BRANCH  27  28
ATOM     28  C   UNL     1       4.421   0.754   0.065  0.00  0.00    +0.003 C 
BRANCH  28  29
ATOM     29  C   UNL     1       4.172  -0.069  -1.202  0.00  0.00    +0.000 C 
BRANCH  29  30
ATOM     30  C   UNL     1       4.635   0.628  -2.482  0.00  0.00    +0.000 C 
ATOM     31  C   UNL     1       4.448  -0.266  -3.698  0.00  0.00    +0.000 C 
ENDBRANCH  29  30
ENDBRANCH  28  29
ENDBRANCH  27  28
ENDBRANCH  24  27
ENDBRANCH  22  24
ENDBRANCH   2  23
TORSDOF 17
