REMARK  Name = 9841854
REMARK  4 active torsions:
REMARK  status: ('A' for Active; 'I' for Inactive)
REMARK    1  A    between atoms: C_5  and  C_10
REMARK    2  A    between atoms: C_6  and  C_16
REMARK    3  A    between atoms: C_19  and  S_22
REMARK    4  A    between atoms: S_22  and  N_25
REMARK                            x       y       z     vdW  Elec       q    Type
REMARK                         _______ _______ _______ _____ _____    ______ ____
ROOT
ATOM      1  O   UNL     1       1.155  -2.587   0.202  0.00  0.00    -0.475 OA
ATOM      2  O   UNL     1       4.176  -0.874  -0.120  0.00  0.00    -0.288 OA
ATOM      3  C   UNL     1       2.588  -2.688   0.140  0.00  0.00    +0.188 C 
ATOM      4  C   UNL     1       3.018  -1.256  -0.041  0.00  0.00    +0.212 C 
ATOM      5  C   UNL     1       1.848  -0.369  -0.096  0.00  0.00    +0.072 C 
ATOM      6  C   UNL     1       0.841  -1.241   0.041  0.00  0.00    +0.142 C 
ATOM      7  C   UNL     1       3.105  -3.260   1.452  0.00  0.00    +0.052 C 
ATOM      8  C   UNL     1       2.979  -3.539  -1.060  0.00  0.00    +0.052 C 
ENDROOT
BRANCH   5  10
ATOM      9  F   UNL     1       2.007   4.101   1.784  0.00  0.00    -0.204 F 
ATOM     10  C   UNL     1       1.871   1.080  -0.258  0.00  0.00    +0.008 C 
ATOM     11  C   UNL     1       1.930   1.921   0.862  0.00  0.00    +0.030 C 
ATOM     12  C   UNL     1       1.835   1.654  -1.537  0.00  0.00    +0.000 C 
ATOM     13  C   UNL     1       1.952   3.307   0.707  0.00  0.00    +0.140 C 
ATOM     14  C   UNL     1       1.857   3.039  -1.693  0.00  0.00    +0.002 C 
ATOM     15  C   UNL     1       1.916   3.866  -0.571  0.00  0.00    +0.030 C 
ENDBRANCH   5  10
BRANCH   6  16
ATOM     16  C   UNL     1      -0.596  -0.940   0.036  0.00  0.00    +0.034 C 
ATOM     17  C   UNL     1      -1.314  -0.952  -1.164  0.00  0.00    +0.004 C 
ATOM     18  C   UNL     1      -1.257  -0.639   1.231  0.00  0.00    +0.004 C 
ATOM     19  C   UNL     1      -3.333  -0.365   0.026  0.00  0.00    +0.122 C 
ATOM     20  C   UNL     1      -2.679  -0.665  -1.169  0.00  0.00    +0.020 C 
ATOM     21  C   UNL     1      -2.622  -0.353   1.226  0.00  0.00    +0.020 C 
BRANCH  19  22
ATOM     22  S   UNL     1      -5.042  -0.006   0.019  0.00  0.00    +0.057 S 
ATOM     23  O   UNL     1      -5.637  -0.625  -1.157  0.00  0.00    -0.153 OA
ATOM     24  O   UNL     1      -5.581  -0.297   1.341  0.00  0.00    -0.153 OA
BRANCH  22  25
ATOM     25  N   UNL     1      -5.018   1.688  -0.202  0.00  0.00    -0.203 NA
ATOM     26  H   UNL     1      -5.974   2.042  -0.225  0.00  0.00    +0.144 HD
ATOM     27  H   UNL     1      -4.552   1.910  -1.081  0.00  0.00    +0.144 HD
ENDBRANCH  22  25
ENDBRANCH  19  22
ENDBRANCH   6  16
TORSDOF 4
