REMARK  Name = 11633038
REMARK  6 active torsions:
REMARK  status: ('A' for Active; 'I' for Inactive)
REMARK    1  A    between atoms: C_3  and  C_18
REMARK    2  A    between atoms: C_3  and  C_30
REMARK    3  A    between atoms: C_5  and  C_7
REMARK    4  A    between atoms: N_17  and  C_22
REMARK    5  A    between atoms: C_23  and  C_27
REMARK    6  A    between atoms: C_23  and  O_28
REMARK                            x       y       z     vdW  Elec       q    Type
REMARK                         _______ _______ _______ _____ _____    ______ ____
ROOT
ATOM      1  O   UNL     1      -0.553  -1.870   1.080  0.00  0.00    -0.376 OA
ATOM      2  N   UNL     1      -1.837  -1.279   1.059  0.00  0.00    -0.086 NA
ATOM      3  C   UNL     1       0.271  -1.198   0.124  0.00  0.00    +0.234 C 
ATOM      4  C   UNL     1      -0.375   0.152  -0.093  0.00  0.00    +0.102 C 
ATOM      5  C   UNL     1      -1.743  -0.164   0.408  0.00  0.00    +0.119 C 
ENDROOT
BRANCH   5   7
ATOM      6  N   UNL     1      -2.535   2.053   0.116  0.00  0.00    -0.243 NA
ATOM      7  C   UNL     1      -2.888   0.747   0.189  0.00  0.00    +0.098 C 
ATOM      8  C   UNL     1      -4.205   0.287   0.070  0.00  0.00    +0.019 C 
ATOM      9  C   UNL     1      -5.219   1.244  -0.138  0.00  0.00    +0.003 C 
ATOM     10  C   UNL     1      -4.537  -1.076   0.150  0.00  0.00    +0.002 C 
ATOM     11  C   UNL     1      -4.868   2.597  -0.215  0.00  0.00    +0.021 C 
ATOM     12  C   UNL     1      -3.531   2.942  -0.083  0.00  0.00    +0.099 C 
ATOM     13  C   UNL     1      -6.551   0.815  -0.262  0.00  0.00    +0.000 C 
ATOM     14  C   UNL     1      -5.865  -1.485   0.026  0.00  0.00    +0.000 C 
ATOM     15  C   UNL     1      -6.869  -0.542  -0.180  0.00  0.00    +0.000 C 
ENDBRANCH   5   7
BRANCH   3  18
ATOM     16  O   UNL     1       1.867  -1.578   1.857  0.00  0.00    -0.271 OA
ATOM     17  N   UNL     1       2.496  -0.331  -0.004  0.00  0.00    -0.297 N 
ATOM     18  C   UNL     1       1.620  -1.075   0.764  0.00  0.00    +0.262 C 
ATOM     19  H   UNL     1       2.180   0.021  -0.868  0.00  0.00    +0.150 HD
BRANCH  17  22
ATOM     20  O   UNL     1       5.847   1.027  -0.065  0.00  0.00    -0.426 OA
ATOM     21  O   UNL     1       7.241  -0.797  -0.092  0.00  0.00    -0.250 OA
ATOM     22  C   UNL     1       3.844  -0.048   0.398  0.00  0.00    +0.150 C 
ATOM     23  C   UNL     1       4.428   1.232  -0.187  0.00  0.00    +0.279 C 
ATOM     24  C   UNL     1       4.835  -1.093  -0.074  0.00  0.00    +0.135 C 
ATOM     25  C   UNL     1       6.119  -0.316  -0.070  0.00  0.00    +0.321 C 
BRANCH  23  27
ATOM     26  F   UNL     1       4.611   3.545  -0.007  0.00  0.00    -0.227 F 
ATOM     27  C   UNL     1       4.021   2.480   0.583  0.00  0.00    +0.264 C 
ENDBRANCH  23  27
BRANCH  23  28
ATOM     28  O   UNL     1       4.068   1.361  -1.562  0.00  0.00    -0.351 OA
ATOM     29  H   UNL     1       4.332   0.561  -2.042  0.00  0.00    +0.214 HD
ENDBRANCH  23  28
ENDBRANCH  17  22
ENDBRANCH   3  18
BRANCH   3  30
ATOM     30  C   UNL     1       0.373  -2.042  -1.140  0.00  0.00    +0.048 C 
ATOM     31  C   UNL     1       0.923  -3.433  -0.822  0.00  0.00    +0.004 C 
ATOM     32  C   UNL     1      -0.987  -2.153  -1.831  0.00  0.00    +0.004 C 
ENDBRANCH   3  30
TORSDOF 6
