REMARK  Name = 4021
REMARK  1 active torsions:
REMARK  status: ('A' for Active; 'I' for Inactive)
REMARK    1  A    between atoms: N_2  and  C_8
REMARK                            x       y       z     vdW  Elec       q    Type
REMARK                         _______ _______ _______ _____ _____    ______ ____
ROOT
ATOM      1  O   UNL     1       0.789  -2.337  -0.384  0.00  0.00    -0.272 OA
ATOM      2  N   UNL     1       0.575  -0.006   0.001  0.00  0.00    -0.159 N 
ATOM      3  N   UNL     1       1.423   1.065   0.180  0.00  0.00    -0.180 NA
ATOM      4  C   UNL     1       2.705  -0.864  -0.134  0.00  0.00    +0.130 C 
ATOM      5  C   UNL     1       2.632   0.607   0.108  0.00  0.00    +0.064 C 
ATOM      6  C   UNL     1       1.248  -1.222  -0.198  0.00  0.00    +0.254 C 
ATOM      7  C   UNL     1       3.853   1.445   0.251  0.00  0.00    +0.049 C 
ENDROOT
BRANCH   2   8
ATOM      8  C   UNL     1      -0.806   0.105   0.015  0.00  0.00    +0.077 C 
ATOM      9  C   UNL     1      -1.597  -0.965   0.447  0.00  0.00    +0.017 C 
ATOM     10  C   UNL     1      -1.424   1.290  -0.403  0.00  0.00    +0.017 C 
ATOM     11  C   UNL     1      -2.988  -0.852   0.462  0.00  0.00    +0.001 C 
ATOM     12  C   UNL     1      -2.814   1.402  -0.389  0.00  0.00    +0.001 C 
ATOM     13  C   UNL     1      -3.596   0.331   0.044  0.00  0.00    +0.000 C 
ENDBRANCH   2   8
TORSDOF 1
