REMARK  Name = 9554809
REMARK  7 active torsions:
REMARK  status: ('A' for Active; 'I' for Inactive)
REMARK    1  A    between atoms: P_1  and  N_12
REMARK    2  A    between atoms: C_5  and  O_9
REMARK    3  A    between atoms: O_9  and  O_10
REMARK    4  A    between atoms: N_12  and  C_13
REMARK    5  A    between atoms: N_12  and  C_16
REMARK    6  A    between atoms: C_13  and  C_15
REMARK    7  A    between atoms: C_16  and  C_18
REMARK                            x       y       z     vdW  Elec       q    Type
REMARK                         _______ _______ _______ _____ _____    ______ ____
ROOT
ATOM      1  P   UNL     1       0.318   0.194   1.082  0.00  0.00    +0.350 P 
ATOM      2  O   UNL     1       0.785   1.756   1.158  0.00  0.00    -0.292 OA
ATOM      3  O   UNL     1      -0.160  -0.267   2.438  0.00  0.00    -0.254 OA
ATOM      4  N   UNL     1       1.664  -0.608   0.514  0.00  0.00    -0.197 NA
ATOM      5  C   UNL     1       2.387   0.016  -0.595  0.00  0.00    +0.219 C 
ATOM      6  C   UNL     1       2.744   1.465  -0.250  0.00  0.00    +0.083 C 
ATOM      7  C   UNL     1       1.510   2.307   0.062  0.00  0.00    +0.156 C 
ATOM      8  H   UNL     1       1.365  -1.533   0.205  0.00  0.00    +0.136 HD
ENDROOT
BRANCH   5   9
ATOM      9  O   UNL     1       3.591  -0.686  -0.889  0.00  0.00    -0.209 OA
BRANCH   9  10
ATOM     10  O   UNL     1       3.170  -2.040  -1.203  0.00  0.00    -0.248 OA
ATOM     11  H   UNL     1       3.948  -2.579  -1.415  0.00  0.00    +0.253 HD
ENDBRANCH   9  10
ENDBRANCH   5   9
BRANCH   1  12
ATOM     12  N   UNL     1      -0.838   0.117  -0.107  0.00  0.00    -0.196 NA
BRANCH  12  13
ATOM     13  C   UNL     1      -1.271  -1.219  -0.513  0.00  0.00    +0.099 C 
BRANCH  13  15
ATOM     14 CL   UNL     1      -2.731  -3.434   0.052  0.00  0.00    -0.112 Cl
ATOM     15  C   UNL     1      -2.214  -1.799   0.530  0.00  0.00    +0.113 C 
ENDBRANCH  13  15
ENDBRANCH  12  13
BRANCH  12  16
ATOM     16  C   UNL     1      -2.001   0.987   0.052  0.00  0.00    +0.099 C 
BRANCH  16  18
ATOM     17 CL   UNL     1      -4.181   2.143  -1.075  0.00  0.00    -0.112 Cl
ATOM     18  C   UNL     1      -2.773   1.068  -1.255  0.00  0.00    +0.113 C 
ENDBRANCH  16  18
ENDBRANCH  12  16
ENDBRANCH   1  12
TORSDOF 7
