REMARK  Name = 47318
REMARK  1 active torsions:
REMARK  status: ('A' for Active; 'I' for Inactive)
REMARK    1  A    between atoms: C_5  and  C_10
REMARK                            x       y       z     vdW  Elec       q    Type
REMARK                         _______ _______ _______ _____ _____    ______ ____
ROOT
ATOM      1  S   UNL     1       0.968   2.032   0.168  0.00  0.00    -0.049 S 
ATOM      2  S   UNL     1       2.929   1.618  -0.164  0.00  0.00    -0.044 S 
ATOM      3  S   UNL     1       4.188  -1.078   0.099  0.00  0.00    -0.043 S 
ATOM      4  C   UNL     1       1.382  -0.603  -0.041  0.00  0.00    -0.001 A 
ATOM      5  C   UNL     1       0.468   0.383   0.022  0.00  0.00    +0.048 A 
ATOM      6  C   UNL     1       1.086  -2.072  -0.138  0.00  0.00    +0.033 C 
ATOM      7  C   UNL     1       2.806  -0.135  -0.017  0.00  0.00    +0.068 A 
ENDROOT
BRANCH   5  10
ATOM      8  N   UNL     1      -1.582   0.010   1.213  0.00  0.00    -0.266 NA
ATOM      9  N   UNL     1      -3.027  -0.059  -1.190  0.00  0.00    -0.265 NA
ATOM     10  C   UNL     1      -0.983   0.168   0.016  0.00  0.00    +0.085 C 
ATOM     11  C   UNL     1      -1.693   0.134  -1.164  0.00  0.00    +0.171 C 
ATOM     12  C   UNL     1      -2.916  -0.183   1.188  0.00  0.00    +0.171 C 
ATOM     13  C   UNL     1      -3.626  -0.217   0.007  0.00  0.00    +0.094 C 
ENDBRANCH   5  10
TORSDOF 1
