REMARK  Name = 4888
REMARK  3 active torsions:
REMARK  status: ('A' for Active; 'I' for Inactive)
REMARK    1  A    between atoms: C_5  and  C_15
REMARK    2  A    between atoms: C_15  and  C_18
REMARK    3  A    between atoms: C_18  and  O_19
REMARK                            x       y       z     vdW  Elec       q    Type
REMARK                         _______ _______ _______ _____ _____    ______ ____
ROOT
ATOM      1  O   UNL     1       1.843  -1.462  -0.234  0.00  0.00    -0.437 OA
ATOM      2  N   UNL     1       4.074  -0.946  -0.308  0.00  0.00    -0.210 NA
ATOM      3  C   UNL     1       0.106   0.194   0.214  0.00  0.00    +0.017 C 
ATOM      4  C   UNL     1       1.104   1.305   0.350  0.00  0.00    +0.060 C 
ATOM      5  C   UNL     1      -2.195  -0.575   0.244  0.00  0.00    -0.012 C 
ATOM      6  C   UNL     1       0.525  -1.110  -0.066  0.00  0.00    +0.143 C 
ATOM      7  C   UNL     1      -1.262   0.455   0.368  0.00  0.00    -0.005 C 
ATOM      8  C   UNL     1       2.513   0.840   0.153  0.00  0.00    +0.036 C 
ATOM      9  C   UNL     1      -1.770  -1.872  -0.036  0.00  0.00    -0.001 C 
ATOM     10  C   UNL     1      -0.410  -2.140  -0.191  0.00  0.00    +0.037 C 
ATOM     11  C   UNL     1       2.812  -0.490  -0.124  0.00  0.00    +0.226 C 
ATOM     12  C   UNL     1       3.578   1.741   0.242  0.00  0.00    +0.002 C 
ATOM     13  C   UNL     1       4.882   1.299   0.058  0.00  0.00    +0.021 C 
ATOM     14  C   UNL     1       5.075  -0.043  -0.213  0.00  0.00    +0.102 C 
ENDROOT
BRANCH   5  15
ATOM     15  C   UNL     1      -3.649  -0.286   0.410  0.00  0.00    +0.121 C 
ATOM     16  C   UNL     1      -4.023   0.258   1.804  0.00  0.00    +0.016 C 
BRANCH  15  18
ATOM     17  O   UNL     1      -3.503   1.200  -1.522  0.00  0.00    -0.250 OA
ATOM     18  C   UNL     1      -4.186   0.688  -0.644  0.00  0.00    +0.317 C 
BRANCH  18  19
ATOM     19  O   UNL     1      -5.513   0.945  -0.506  0.00  0.00    -0.480 OA
ATOM     20  H   UNL     1      -6.001   0.533   0.179  0.00  0.00    +0.295 HD
ENDBRANCH  18  19
ENDBRANCH  15  18
ENDBRANCH   5  15
TORSDOF 3
