208903
  -OEChem-10061700223D

 49 50  0     0  0  0  0  0  0999 V2000
   -1.0876   -2.0580   -1.1975 O   0  0  0  0  0  0  0  0  0  0  0  0
    5.0918    0.0403   -0.0633 O   0  0  0  0  0  0  0  0  0  0  0  0
    7.7606    0.4035    0.6945 O   0  0  0  0  0  0  0  0  0  0  0  0
    1.4670    0.1716    0.5935 N   0  0  0  0  0  0  0  0  0  0  0  0
   -1.4611   -0.0716    0.0860 C   0  0  0  0  0  0  0  0  0  0  0  0
   -0.8246   -0.0038    1.4979 C   0  0  0  0  0  0  0  0  0  0  0  0
   -0.4594    0.5498   -0.9209 C   0  0  0  0  0  0  0  0  0  0  0  0
    0.6104   -0.5415    1.5455 C   0  0  0  0  0  0  0  0  0  0  0  0
    0.9687    0.0100   -0.7751 C   0  0  0  0  0  0  0  0  0  0  0  0
   -2.8288    0.6239   -0.0199 C   0  0  0  0  0  0  0  0  0  0  0  0
   -1.6724   -1.5345   -0.2505 C   0  0  0  0  0  0  0  0  0  0  0  0
    2.8486   -0.2980    0.6951 C   0  0  0  0  0  0  0  0  0  0  0  0
   -2.6358   -2.2934    0.6433 C   0  0  0  0  0  0  0  0  0  0  0  0
   -3.5169    0.6171   -1.2304 C   0  0  0  0  0  0  0  0  0  0  0  0
   -3.3723    1.2563    1.0951 C   0  0  0  0  0  0  0  0  0  0  0  0
    3.7607    0.5185   -0.2066 C   0  0  0  0  0  0  0  0  0  0  0  0
   -3.3695   -3.3991   -0.0935 C   0  0  0  0  0  0  0  0  0  0  0  0
   -4.7575    1.2476   -1.3265 C   0  0  0  0  0  0  0  0  0  0  0  0
   -4.6129    1.8866    0.9989 C   0  0  0  0  0  0  0  0  0  0  0  0
   -5.3055    1.8822   -0.2120 C   0  0  0  0  0  0  0  0  0  0  0  0
    5.9974    0.7654   -0.8838 C   0  0  0  0  0  0  0  0  0  0  0  0
    7.3989    0.2269   -0.6697 C   0  0  0  0  0  0  0  0  0  0  0  0
   -0.7727    1.0431    1.8295 H   0  0  0  0  0  0  0  0  0  0  0  0
   -1.4212   -0.5378    2.2473 H   0  0  0  0  0  0  0  0  0  0  0  0
   -0.4366    1.6399   -0.7765 H   0  0  0  0  0  0  0  0  0  0  0  0
   -0.7810    0.3920   -1.9585 H   0  0  0  0  0  0  0  0  0  0  0  0
    0.9899   -0.3939    2.5643 H   0  0  0  0  0  0  0  0  0  0  0  0
    0.6172   -1.6223    1.3548 H   0  0  0  0  0  0  0  0  0  0  0  0
    1.0467   -1.0316   -1.1046 H   0  0  0  0  0  0  0  0  0  0  0  0
    1.5514    0.6057   -1.4836 H   0  0  0  0  0  0  0  0  0  0  0  0
    2.9368   -1.3647    0.4491 H   0  0  0  0  0  0  0  0  0  0  0  0
    3.2083   -0.1954    1.7273 H   0  0  0  0  0  0  0  0  0  0  0  0
   -2.0546   -2.7266    1.4647 H   0  0  0  0  0  0  0  0  0  0  0  0
   -3.3828   -1.6296    1.0836 H   0  0  0  0  0  0  0  0  0  0  0  0
   -3.1127    0.1234   -2.1095 H   0  0  0  0  0  0  0  0  0  0  0  0
   -2.8857    1.2823    2.0629 H   0  0  0  0  0  0  0  0  0  0  0  0
    3.5036    0.4114   -1.2634 H   0  0  0  0  0  0  0  0  0  0  0  0
    3.7199    1.5797    0.0674 H   0  0  0  0  0  0  0  0  0  0  0  0
   -3.9418   -2.9939   -0.9345 H   0  0  0  0  0  0  0  0  0  0  0  0
   -2.6688   -4.1401   -0.4923 H   0  0  0  0  0  0  0  0  0  0  0  0
   -4.0622   -3.9136    0.5795 H   0  0  0  0  0  0  0  0  0  0  0  0
   -5.2977    1.2427   -2.2687 H   0  0  0  0  0  0  0  0  0  0  0  0
   -5.0418    2.3788    1.8670 H   0  0  0  0  0  0  0  0  0  0  0  0
   -6.2719    2.3722   -0.2866 H   0  0  0  0  0  0  0  0  0  0  0  0
    5.7165    0.6554   -1.9370 H   0  0  0  0  0  0  0  0  0  0  0  0
    5.9595    1.8257   -0.6079 H   0  0  0  0  0  0  0  0  0  0  0  0
    7.4403   -0.8454   -0.8826 H   0  0  0  0  0  0  0  0  0  0  0  0
    8.1278    0.7444   -1.3002 H   0  0  0  0  0  0  0  0  0  0  0  0
    7.7437    1.3577    0.8811 H   0  0  0  0  0  0  0  0  0  0  0  0
  1 11  2  0  0  0  0
  2 16  1  0  0  0  0
  2 21  1  0  0  0  0
  3 22  1  0  0  0  0
  3 49  1  0  0  0  0
  4  8  1  0  0  0  0
  4  9  1  0  0  0  0
  4 12  1  0  0  0  0
  5  6  1  0  0  0  0
  5  7  1  0  0  0  0
  5 10  1  0  0  0  0
  5 11  1  0  0  0  0
  6  8  1  0  0  0  0
  6 23  1  0  0  0  0
  6 24  1  0  0  0  0
  7  9  1  0  0  0  0
  7 25  1  0  0  0  0
  7 26  1  0  0  0  0
  8 27  1  0  0  0  0
  8 28  1  0  0  0  0
  9 29  1  0  0  0  0
  9 30  1  0  0  0  0
 10 14  2  0  0  0  0
 10 15  1  0  0  0  0
 11 13  1  0  0  0  0
 12 16  1  0  0  0  0
 12 31  1  0  0  0  0
 12 32  1  0  0  0  0
 13 17  1  0  0  0  0
 13 33  1  0  0  0  0
 13 34  1  0  0  0  0
 14 18  1  0  0  0  0
 14 35  1  0  0  0  0
 15 19  2  0  0  0  0
 15 36  1  0  0  0  0
 16 37  1  0  0  0  0
 16 38  1  0  0  0  0
 17 39  1  0  0  0  0
 17 40  1  0  0  0  0
 17 41  1  0  0  0  0
 18 20  2  0  0  0  0
 18 42  1  0  0  0  0
 19 20  1  0  0  0  0
 19 43  1  0  0  0  0
 20 44  1  0  0  0  0
 21 22  1  0  0  0  0
 21 45  1  0  0  0  0
 21 46  1  0  0  0  0
 22 47  1  0  0  0  0
 22 48  1  0  0  0  0
M  END
> <DATABASE_ID>
DB13436

> <DATABASE_NAME>
drugbank

> <ORIGINAL_SOURCE>
PUBCHEM

> <ORIGINAL_SOURCE_URL>
https://pubchem.ncbi.nlm.nih.gov/rest/pug/compound/inchikey/FVYYUBRKVVOOAV-UHFFFAOYSA-N/SDF?record_type=3d

> <SMILES>
CCC(=O)C1(CCN(CCOCCO)CC1)C1=CC=CC=C1

> <INCHI_IDENTIFIER>
InChI=1S/C18H27NO3/c1-2-17(21)18(16-6-4-3-5-7-16)8-10-19(11-9-18)12-14-22-15-13-20/h3-7,20H,2,8-15H2,1H3

> <INCHI_KEY>
FVYYUBRKVVOOAV-UHFFFAOYSA-N

> <FORMULA>
C18H27NO3

> <MOLECULAR_WEIGHT>
305.418

> <EXACT_MASS>
305.199093733

> <JCHEM_ACCEPTOR_COUNT>
4

> <JCHEM_ATOM_COUNT>
49

> <JCHEM_AVERAGE_POLARIZABILITY>
35.14787507759789

> <JCHEM_BIOAVAILABILITY>
1

> <JCHEM_DONOR_COUNT>
1

> <JCHEM_FORMAL_CHARGE>
0

> <JCHEM_GHOSE_FILTER>
1

> <JCHEM_IUPAC>
1-{1-[2-(2-hydroxyethoxy)ethyl]-4-phenylpiperidin-4-yl}propan-1-one

> <ALOGPS_LOGP>
2.25

> <JCHEM_LOGP>
2.2461822346666667

> <ALOGPS_LOGS>
-2.73

> <JCHEM_MDDR_LIKE_RULE>
0

> <JCHEM_NUMBER_OF_RINGS>
2

> <JCHEM_PHYSIOLOGICAL_CHARGE>
1

> <JCHEM_PKA>
19.174970340147304

> <JCHEM_PKA_STRONGEST_ACIDIC>
15.121189353135577

> <JCHEM_PKA_STRONGEST_BASIC>
8.062125776061722

> <JCHEM_POLAR_SURFACE_AREA>
49.77

> <JCHEM_REFRACTIVITY>
88.47980000000003

> <JCHEM_ROTATABLE_BOND_COUNT>
8

> <JCHEM_RULE_OF_FIVE>
1

> <ALOGPS_SOLUBILITY>
5.67e-01 g/l

> <JCHEM_TRADITIONAL_IUPAC>
droxypropine

> <JCHEM_VEBER_RULE>
0

> <DRUGBANK_ID>
DB13436

> <DRUG_GROUPS>
experimental

> <GENERIC_NAME>
Droxypropine

$$$$
