REMARK  Name = 68030
REMARK  2 active torsions:
REMARK  status: ('A' for Active; 'I' for Inactive)
REMARK    1  A    between atoms: C_1  and  C_5
REMARK    2  A    between atoms: C_1  and  C_8
REMARK                            x       y       z     vdW  Elec       q    Type
REMARK                         _______ _______ _______ _____ _____    ______ ____
ROOT
ATOM      1  C   UNL     1      -0.207   0.738   0.385  0.00  0.00    +0.175 C 
ENDROOT
BRANCH   1   5
ATOM      2  F   UNL     1       1.107  -1.230   0.389  0.00  0.00    -0.170 F 
ATOM      3  F   UNL     1       1.317   0.120  -1.315  0.00  0.00    -0.170 F 
ATOM      4  F   UNL     1       2.134   0.678   0.628  0.00  0.00    -0.170 F 
ATOM      5  C   UNL     1       1.096   0.067   0.016  0.00  0.00    +0.403 C 
ENDBRANCH   1   5
BRANCH   1   8
ATOM      6  F   UNL     1      -1.516  -1.196   0.097  0.00  0.00    -0.198 F 
ATOM      7  F   UNL     1      -2.533   0.727   0.097  0.00  0.00    -0.198 F 
ATOM      8  C   UNL     1      -1.398   0.096  -0.297  0.00  0.00    +0.327 C 
ENDBRANCH   1   8
TORSDOF 2
