REMARK  Name = 6861563
REMARK  4 active torsions:
REMARK  status: ('A' for Active; 'I' for Inactive)
REMARK    1  A    between atoms: N_3  and  C_6
REMARK    2  A    between atoms: N_3  and  N_13
REMARK    3  A    between atoms: N_13  and  C_16
REMARK    4  A    between atoms: C_16  and  N_17
REMARK                            x       y       z     vdW  Elec       q    Type
REMARK                         _______ _______ _______ _____ _____    ______ ____
ROOT
ATOM      1  O   UNL     1       1.128  -2.058   0.000  0.00  0.00    -0.273 OA
ATOM      2  N   UNL     1      -1.209  -1.623   0.000  0.00  0.00    -0.256 N 
ATOM      3  C   UNL     1      -1.966  -0.436   0.000  0.00  0.00    +0.052 C 
ATOM      4  C   UNL     1      -1.127   0.678   0.000  0.00  0.00    +0.018 C 
ATOM      5  C   UNL     1       0.229   0.164   0.000  0.00  0.00    +0.193 C 
ATOM      6  C   UNL     1       0.148  -1.344  -0.001  0.00  0.00    +0.251 C 
ATOM      7  C   UNL     1      -3.340  -0.279   0.000  0.00  0.00    +0.015 C 
ATOM      8  C   UNL     1      -1.598   1.974   0.000  0.00  0.00    -0.001 C 
ATOM      9  C   UNL     1      -1.797  -2.941   0.001  0.00  0.00    +0.120 C 
ATOM     10  C   UNL     1      -3.846   1.026   0.000  0.00  0.00    +0.001 C 
ATOM     11  C   UNL     1      -2.984   2.140   0.000  0.00  0.00    -0.000 C 
ENDROOT
BRANCH   5  12
ATOM     12  N   UNL     1       1.346   0.799   0.000  0.00  0.00    -0.120 NA
BRANCH  12  13
ATOM     13  N   UNL     1       2.436  -0.009   0.000  0.00  0.00    -0.244 N 
ATOM     14  H   UNL     1       2.313  -0.986  -0.001  0.00  0.00    +0.170 HD
BRANCH  13  16
ATOM     15  S   UNL     1       5.055  -0.477   0.000  0.00  0.00    -0.018 S 
ATOM     16  C   UNL     1       3.706   0.511   0.000  0.00  0.00    +0.143 C 
BRANCH  16  17
ATOM     17  N   UNL     1       3.818   1.875   0.001  0.00  0.00    -0.340 N 
ATOM     18  H   UNL     1       4.708   2.296   0.001  0.00  0.00    +0.144 HD
ATOM     19  H   UNL     1       3.009   2.435   0.001  0.00  0.00    +0.144 HD
ENDBRANCH  16  17
ENDBRANCH  13  16
ENDBRANCH  12  13
ENDBRANCH   5  12
TORSDOF 4
