REMARK  Name = 11719003
REMARK  7 active torsions:
REMARK  status: ('A' for Active; 'I' for Inactive)
REMARK    1  A    between atoms: C_2  and  C_10
REMARK    2  A    between atoms: CA_3  and  C_21
REMARK    3  A    between atoms: N_8  and  C_16
REMARK    4  A    between atoms: N_20  and  CA_23
REMARK    5  A    between atoms: CA_23  and  C_25
REMARK    6  A    between atoms: CA_23  and  C_31
REMARK    7  A    between atoms: C_31  and  O_32
REMARK                            x       y       z     vdW  Elec       q    Type
REMARK                         _______ _______ _______ _____ _____    ______ ____
ROOT
ATOM      1  N   UNL     1      -0.274  -3.027  -1.190  0.00  0.00    -0.308 N 
ATOM      2  C   UNL     1      -1.615  -1.569  -0.197  0.00  0.00    +0.017 C 
ATOM      3  CA  UNL     1       0.529  -2.046  -0.669  0.00  0.00    +0.102 C 
ATOM      4  C   UNL     1      -0.282  -1.124  -0.044  0.00  0.00    +0.021 C 
ATOM      5  C   UNL     1      -1.585  -2.745  -0.907  0.00  0.00    +0.062 C 
ATOM      6  H   UNL     1       0.042  -3.813  -1.691  0.00  0.00    +0.152 HD
ENDROOT
BRANCH   2  10
ATOM      7 CL   UNL     1      -2.641  -2.376   2.611  0.00  0.00    -0.081 Cl
ATOM      8  N   UNL     1      -5.324   1.416  -0.973  0.00  0.00    -0.320 N 
ATOM      9  N   UNL     1      -5.224   0.231   1.092  0.00  0.00    -0.229 NA
ATOM     10  C   UNL     1      -2.840  -0.971   0.266  0.00  0.00    +0.016 C 
ATOM     11  C   UNL     1      -4.686   0.521  -0.132  0.00  0.00    +0.129 C 
ATOM     12  C   UNL     1      -3.492  -0.070  -0.568  0.00  0.00    +0.035 C 
ATOM     13  C   UNL     1      -3.378  -1.272   1.512  0.00  0.00    +0.077 C 
ATOM     14  C   UNL     1      -4.562  -0.650   1.874  0.00  0.00    +0.112 C 
ATOM     15  H   UNL     1      -4.914   1.607  -1.847  0.00  0.00    +0.148 HD
BRANCH   8  16
ATOM     16  C   UNL     1      -6.561   2.088  -0.636  0.00  0.00    +0.070 C 
ATOM     17  C   UNL     1      -6.269   3.253   0.300  0.00  0.00    +0.021 C 
ATOM     18  C   UNL     1      -7.239   2.560  -1.915  0.00  0.00    +0.021 C 
ENDBRANCH   8  16
ENDBRANCH   2  10
BRANCH   3  21
ATOM     19  O   UNL     1       2.611  -2.941  -1.359  0.00  0.00    -0.269 OA
ATOM     20  N   UNL     1       2.643  -0.957  -0.202  0.00  0.00    -0.295 N 
ATOM     21  C   UNL     1       1.952  -2.038  -0.789  0.00  0.00    +0.260 C 
ATOM     22  H   UNL     1       2.116  -0.254   0.242  0.00  0.00    +0.150 HD
BRANCH  20  23
ATOM     23  CA  UNL     1       4.083  -0.825  -0.215  0.00  0.00    +0.124 C 
BRANCH  23  25
ATOM     24 CL   UNL     1       4.189   3.833   2.094  0.00  0.00    -0.082 Cl
ATOM     25  C   UNL     1       4.487   0.633  -0.261  0.00  0.00    -0.001 C 
ATOM     26  C   UNL     1       4.183   1.452   0.812  0.00  0.00    +0.009 C 
ATOM     27  C   UNL     1       5.154   1.114  -1.374  0.00  0.00    -0.003 C 
ATOM     28  C   UNL     1       4.557   2.795   0.771  0.00  0.00    +0.057 C 
ATOM     29  C   UNL     1       5.528   2.457  -1.415  0.00  0.00    +0.001 C 
ATOM     30  C   UNL     1       5.229   3.298  -0.343  0.00  0.00    +0.011 C 
ENDBRANCH  23  25
BRANCH  23  31
ATOM     31  C   UNL     1       4.705  -1.568   0.970  0.00  0.00    +0.161 C 
BRANCH  31  32
ATOM     32  O   UNL     1       6.123  -1.475   0.890  0.00  0.00    -0.380 OA
ATOM     33  H   UNL     1       6.521  -1.945   1.639  0.00  0.00    +0.211 HD
ENDBRANCH  31  32
ENDBRANCH  23  31
ENDBRANCH  20  23
ENDBRANCH   3  21
TORSDOF 7
