REMARK  Name = 20140
REMARK  4 active torsions:
REMARK  status: ('A' for Active; 'I' for Inactive)
REMARK    1  A    between atoms: C_1  and  C_4
REMARK    2  A    between atoms: C_1  and  C_7
REMARK    3  A    between atoms: C_1  and  C_11
REMARK    4  A    between atoms: C_7  and  C_9
REMARK                            x       y       z     vdW  Elec       q    Type
REMARK                         _______ _______ _______ _____ _____    ______ ____
ROOT
ATOM      1  C   UNL     1       0.475  -0.339   0.475  0.00  0.00    +0.076 C 
ENDROOT
BRANCH   1   4
ATOM      2  O   UNL     1       1.399   1.335  -1.037  0.00  0.00    -0.275 OA
ATOM      3  N   UNL     1       1.382   1.794   1.211  0.00  0.00    -0.329 N 
ATOM      4  C   UNL     1       1.133   0.997   0.114  0.00  0.00    +0.219 C 
ATOM      5  H   UNL     1       1.804   2.676   1.094  0.00  0.00    +0.145 HD
ATOM      6  H   UNL     1       1.138   1.481   2.113  0.00  0.00    +0.145 HD
ENDBRANCH   1   4
BRANCH   1   7
ATOM      7  C   UNL     1      -1.070  -0.148   0.569  0.00  0.00    +0.009 C 
ATOM      8  C   UNL     1      -1.749  -1.448   1.024  0.00  0.00    +0.000 C 
BRANCH   7   9
ATOM      9  C   UNL     1      -1.687   0.380  -0.745  0.00  0.00    +0.000 C 
ATOM     10  C   UNL     1      -3.192   0.602  -0.660  0.00  0.00    +0.000 C 
ENDBRANCH   7   9
ENDBRANCH   1   7
BRANCH   1  11
ATOM     11  C   UNL     1       0.903  -1.457  -0.496  0.00  0.00    +0.009 C 
ATOM     12  C   UNL     1       2.406  -1.716  -0.456  0.00  0.00    +0.001 C 
ENDBRANCH   1  11
TORSDOF 4
