REMARK  Name = 21777
REMARK  6 active torsions:
REMARK  status: ('A' for Active; 'I' for Inactive)
REMARK    1  A    between atoms: C_1  and  N_3
REMARK    2  A    between atoms: C_1  and  C_10
REMARK    3  A    between atoms: N_3  and  C_6
REMARK    4  A    between atoms: C_6  and  C_7
REMARK    5  A    between atoms: C_7  and  C_9
REMARK    6  A    between atoms: C_10  and  C_11
REMARK                            x       y       z     vdW  Elec       q    Type
REMARK                         _______ _______ _______ _____ _____    ______ ____
ROOT
ATOM      1  C   UNL     1       0.365   0.019  -0.016  0.00  0.00    -0.058 C 
ATOM      2  C   UNL     1       0.282  -1.409  -0.558  0.00  0.00    -0.023 C 
ENDROOT
BRANCH   1   3
ATOM      3  N   UNL     1       1.680   0.200   0.606  0.00  0.00    +0.385 N 
ATOM      4  H   UNL     1       1.782  -0.464   1.373  0.00  0.00    -0.084 HD
ATOM      5  H   UNL     1       1.749   1.156   0.955  0.00  0.00    -0.084 HD
BRANCH   3   6
ATOM      6  C   UNL     1       2.740  -0.022  -0.363  0.00  0.00    -0.080 C 
BRANCH   6   7
ATOM      7  C   UNL     1       4.107   0.171   0.292  0.00  0.00    -0.006 C 
BRANCH   7   9
ATOM      8 CL   UNL     1       6.813   0.194   0.057  0.00  0.00    -0.114 Cl
ATOM      9  C   UNL     1       5.229  -0.050  -0.715  0.00  0.00    +0.093 C 
ENDBRANCH   7   9
ENDBRANCH   6   7
ENDBRANCH   3   6
ENDBRANCH   1   3
BRANCH   1  10
ATOM     10  C   UNL     1      -0.738   0.324   1.014  0.00  0.00    +0.005 C 
BRANCH  10  11
ATOM     11  C   UNL     1      -2.136   0.205   0.457  0.00  0.00    -0.024 C 
ATOM     12  C   UNL     1      -2.737   1.316  -0.112  0.00  0.00    -0.004 C 
ATOM     13  C   UNL     1      -2.791  -1.014   0.523  0.00  0.00    -0.004 C 
ATOM     14  C   UNL     1      -4.029   1.206  -0.627  0.00  0.00    -0.000 C 
ATOM     15  C   UNL     1      -4.083  -1.125   0.008  0.00  0.00    -0.000 C 
ATOM     16  C   UNL     1      -4.702  -0.015  -0.567  0.00  0.00    -0.000 C 
ENDBRANCH  10  11
ENDBRANCH   1  10
TORSDOF 6
