REMARK  Name = 28446253
REMARK  8 active torsions:
REMARK  status: ('A' for Active; 'I' for Inactive)
REMARK    1  A    between atoms: C_5  and  C_18
REMARK    2  A    between atoms: C_7  and  C_14
REMARK    3  A    between atoms: C_8  and  C_23
REMARK    4  A    between atoms: C_14  and  O_15
REMARK    5  A    between atoms: O_15  and  C_16
REMARK    6  A    between atoms: C_18  and  N_19
REMARK    7  A    between atoms: C_23  and  S_24
REMARK    8  A    between atoms: S_24  and  C_25
REMARK                            x       y       z     vdW  Elec       q    Type
REMARK                         _______ _______ _______ _____ _____    ______ ____
ROOT
ATOM      1 BR   UNL     1      -5.557   1.597  -0.734  0.00  0.00    -0.046 Br
ATOM      2  O   UNL     1      -4.244  -1.243  -0.732  0.00  0.00    -0.286 OA
ATOM      3  N   UNL     1      -0.560   2.312   1.002  0.00  0.00    -0.328 N 
ATOM      4  C   UNL     1      -1.208   0.242   0.480  0.00  0.00    +0.020 A 
ATOM      5  C   UNL     1      -2.121  -0.736   0.035  0.00  0.00    -0.002 C 
ATOM      6  C   UNL     1      -1.627   1.573   0.543  0.00  0.00    +0.060 A 
ATOM      7  C   UNL     1       0.146   0.209   0.916  0.00  0.00    +0.089 A 
ATOM      8  C   UNL     1       0.516   1.496   1.230  0.00  0.00    +0.055 A 
ATOM      9  C   UNL     1      -3.415  -0.347  -0.328  0.00  0.00    +0.196 C 
ATOM     10  C   UNL     1      -2.918   1.976   0.184  0.00  0.00    +0.027 C 
ATOM     11  C   UNL     1      -3.806   0.989  -0.254  0.00  0.00    +0.074 C 
ATOM     12  C   UNL     1      -0.576   3.745   1.212  0.00  0.00    +0.130 C 
ENDROOT
BRANCH   7  14
ATOM     13  O   UNL     1       1.765  -1.351   0.123  0.00  0.00    -0.245 OA
ATOM     14  C   UNL     1       1.017  -0.928   1.028  0.00  0.00    +0.342 C 
BRANCH  14  15
ATOM     15  O   UNL     1       0.943  -1.521   2.267  0.00  0.00    -0.445 OA
BRANCH  15  16
ATOM     16  C   UNL     1       1.767  -2.667   2.502  0.00  0.00    +0.209 C 
ATOM     17  C   UNL     1       1.534  -3.160   3.914  0.00  0.00    +0.051 C 
ENDBRANCH  15  16
ENDBRANCH  14  15
ENDBRANCH   7  14
BRANCH   5  18
ATOM     18  C   UNL     1      -1.702  -2.178  -0.045  0.00  0.00    -0.047 C 
BRANCH  18  19
ATOM     19  N   UNL     1      -0.814  -2.459  -1.201  0.00  0.00    +0.387 N 
ATOM     20  C   UNL     1      -0.380  -3.902  -1.262  0.00  0.00    -0.100 C 
ATOM     21  C   UNL     1      -1.412  -2.013  -2.513  0.00  0.00    -0.100 C 
ATOM     22  H   UNL     1       0.024  -1.899  -1.046  0.00  0.00    -0.079 HD
ENDBRANCH  18  19
ENDBRANCH   5  18
BRANCH   8  23
ATOM     23  C   UNL     1       1.804   2.025   1.729  0.00  0.00    +0.106 C 
BRANCH  23  24
ATOM     24  S   UNL     1       2.771   2.873   0.436  0.00  0.00    -0.107 S 
BRANCH  24  25
ATOM     25  C   UNL     1       2.907   1.584  -0.795  0.00  0.00    +0.026 C 
ATOM     26  C   UNL     1       1.936   1.464  -1.790  0.00  0.00    +0.006 C 
ATOM     27  C   UNL     1       3.983   0.698  -0.761  0.00  0.00    +0.006 C 
ATOM     28  C   UNL     1       2.042   0.459  -2.751  0.00  0.00    +0.001 C 
ATOM     29  C   UNL     1       4.089  -0.308  -1.722  0.00  0.00    +0.001 C 
ATOM     30  C   UNL     1       3.119  -0.428  -2.717  0.00  0.00    +0.000 C 
ENDBRANCH  24  25
ENDBRANCH  23  24
ENDBRANCH   8  23
TORSDOF 8
