REMARK  Name = 5455
REMARK  5 active torsions:
REMARK  status: ('A' for Active; 'I' for Inactive)
REMARK    1  A    between atoms: S_1  and  C_3
REMARK    2  A    between atoms: S_1  and  S_7
REMARK    3  A    between atoms: C_3  and  N_4
REMARK    4  A    between atoms: S_7  and  C_9
REMARK    5  A    between atoms: C_9  and  N_10
REMARK                            x       y       z     vdW  Elec       q    Type
REMARK                         _______ _______ _______ _____ _____    ______ ____
ROOT
ATOM      1  S   UNL     1      -0.507   0.949   1.144  0.00  0.00    -0.027 S 
ENDROOT
BRANCH   1   3
ATOM      2  S   UNL     1      -1.894  -1.630   1.678  0.00  0.00    -0.027 S 
ATOM      3  C   UNL     1      -1.818  -0.196   0.784  0.00  0.00    +0.121 C 
BRANCH   3   4
ATOM      4  N   UNL     1      -2.729   0.190  -0.219  0.00  0.00    -0.293 N 
ATOM      5  C   UNL     1      -3.463  -0.749  -1.073  0.00  0.00    +0.113 C 
ATOM      6  C   UNL     1      -3.015   1.596  -0.518  0.00  0.00    +0.113 C 
ENDBRANCH   3   4
ENDBRANCH   1   3
BRANCH   1   7
ATOM      7  S   UNL     1       0.442   1.077  -0.683  0.00  0.00    -0.027 S 
BRANCH   7   9
ATOM      8  S   UNL     1       1.208  -1.769  -1.100  0.00  0.00    -0.027 S 
ATOM      9  C   UNL     1       1.641  -0.228  -0.552  0.00  0.00    +0.121 C 
BRANCH   9  10
ATOM     10  N   UNL     1       2.897   0.126  -0.017  0.00  0.00    -0.293 N 
ATOM     11  C   UNL     1       3.989  -0.841   0.123  0.00  0.00    +0.113 C 
ATOM     12  C   UNL     1       3.251   1.476   0.432  0.00  0.00    +0.113 C 
ENDBRANCH   9  10
ENDBRANCH   7   9
ENDBRANCH   1   7
TORSDOF 5
