REMARK  Name = 9419
REMARK  3 active torsions:
REMARK  status: ('A' for Active; 'I' for Inactive)
REMARK    1  A    between atoms: N_2  and  C_18
REMARK    2  A    between atoms: C_18  and  C_19
REMARK    3  A    between atoms: C_19  and  N_20
REMARK                            x       y       z     vdW  Elec       q    Type
REMARK                         _______ _______ _______ _____ _____    ______ ____
ROOT
ATOM      1  O   UNL     1       0.134  -2.395  -1.206  0.00  0.00    -0.270 OA
ATOM      2  N   UNL     1       0.742  -0.264  -0.507  0.00  0.00    -0.256 N 
ATOM      3  N   UNL     1      -1.920   0.991  -0.751  0.00  0.00    -0.284 N 
ATOM      4  C   UNL     1       0.445   1.064  -0.032  0.00  0.00    +0.068 C 
ATOM      5  C   UNL     1      -0.813   1.681  -0.211  0.00  0.00    +0.065 C 
ATOM      6  C   UNL     1      -2.368  -0.217  -0.191  0.00  0.00    +0.056 C 
ATOM      7  C   UNL     1      -1.499  -1.300  -0.031  0.00  0.00    +0.067 C 
ATOM      8  C   UNL     1      -0.156  -1.334  -0.644  0.00  0.00    +0.254 C 
ATOM      9  C   UNL     1       1.490   1.828   0.541  0.00  0.00    +0.016 C 
ATOM     10  C   UNL     1      -0.960   3.034   0.186  0.00  0.00    +0.016 C 
ATOM     11  C   UNL     1      -2.883   1.754  -1.549  0.00  0.00    +0.117 C 
ATOM     12  C   UNL     1      -3.689  -0.363   0.282  0.00  0.00    +0.015 C 
ATOM     13  C   UNL     1      -1.936  -2.482   0.594  0.00  0.00    +0.006 C 
ATOM     14  C   UNL     1       1.313   3.154   0.932  0.00  0.00    +0.001 C 
ATOM     15  C   UNL     1       0.085   3.761   0.750  0.00  0.00    +0.001 C 
ATOM     16  C   UNL     1      -4.120  -1.536   0.905  0.00  0.00    +0.001 C 
ATOM     17  C   UNL     1      -3.239  -2.595   1.068  0.00  0.00    +0.000 C 
ENDROOT
BRANCH   2  18
ATOM     18  C   UNL     1       2.136  -0.534  -0.887  0.00  0.00    +0.076 C 
BRANCH  18  19
ATOM     19  C   UNL     1       2.926  -1.021   0.324  0.00  0.00    -0.055 C 
BRANCH  19  20
ATOM     20  N   UNL     1       4.305  -1.306  -0.057  0.00  0.00    +0.385 N 
ATOM     21  C   UNL     1       5.062  -1.809   1.090  0.00  0.00    -0.101 C 
ATOM     22  C   UNL     1       4.946  -0.110  -0.604  0.00  0.00    -0.101 C 
ATOM     23  H   UNL     1       4.294  -2.027  -0.779  0.00  0.00    -0.080 HD
ENDBRANCH  19  20
ENDBRANCH  18  19
ENDBRANCH   2  18
TORSDOF 3
