REMARK  Name = 65718
REMARK  10 active torsions:
REMARK  status: ('A' for Active; 'I' for Inactive)
REMARK    1  A    between atoms: C_1  and  C_17
REMARK    2  A    between atoms: C_4  and  O_7
REMARK    3  A    between atoms: O_7  and  C_8
REMARK    4  A    between atoms: C_11  and  N_16
REMARK    5  A    between atoms: C_17  and  N_19
REMARK    6  A    between atoms: N_19  and  C_24
REMARK    7  A    between atoms: C_20  and  C_23
REMARK    8  A    between atoms: C_24  and  C_25
REMARK    9  A    between atoms: C_25  and  O_26
REMARK   10  A    between atoms: O_26  and  C_27
REMARK                            x       y       z     vdW  Elec       q    Type
REMARK                         _______ _______ _______ _____ _____    ______ ____
ROOT
ATOM      1  C   UNL     1       1.179  -1.548   0.571  0.00  0.00    -0.002 C 
ATOM      2  C   UNL     1       0.656  -2.111   1.735  0.00  0.00    +0.001 C 
ATOM      3  C   UNL     1       0.328  -1.185  -0.472  0.00  0.00    +0.001 C 
ATOM      4  C   UNL     1      -1.571  -1.946   0.813  0.00  0.00    +0.145 C 
ATOM      5  C   UNL     1      -0.719  -2.310   1.856  0.00  0.00    +0.037 C 
ATOM      6  C   UNL     1      -1.047  -1.383  -0.351  0.00  0.00    +0.037 C 
ENDROOT
BRANCH   4   7
ATOM      7  O   UNL     1      -2.913  -2.141   0.930  0.00  0.00    -0.453 OA
BRANCH   7   8
ATOM      8  C   UNL     1      -3.750  -1.109   0.538  0.00  0.00    +0.145 C 
ATOM      9  C   UNL     1      -3.468   0.202   0.923  0.00  0.00    +0.039 C 
ATOM     10  C   UNL     1      -4.875  -1.381  -0.240  0.00  0.00    +0.039 C 
ATOM     11  C   UNL     1      -5.436   0.969  -0.250  0.00  0.00    +0.143 C 
ATOM     12  C   UNL     1      -4.311   1.240   0.529  0.00  0.00    +0.027 C 
ATOM     13  C   UNL     1      -5.718  -0.342  -0.634  0.00  0.00    +0.027 C 
BRANCH  11  16
ATOM     14  O   UNL     1      -6.022   3.199  -0.294  0.00  0.00    -0.126 OA
ATOM     15  O   UNL     1      -7.301   1.761  -1.351  0.00  0.00    -0.126 OA
ATOM     16  N   UNL     1      -6.294   2.027  -0.651  0.00  0.00    +0.058 N 
ENDBRANCH  11  16
ENDBRANCH   7   8
ENDBRANCH   4   7
BRANCH   1  17
ATOM     17  C   UNL     1       2.660  -1.335   0.442  0.00  0.00    +0.120 C 
BRANCH  17  19
ATOM     18  O   UNL     1       3.898   1.343  -1.731  0.00  0.00    -0.272 OA
ATOM     19  N   UNL     1       2.976  -0.017  -0.099  0.00  0.00    -0.271 N 
ATOM     20  C   UNL     1       3.648   0.211  -1.305  0.00  0.00    +0.256 C 
BRANCH  20  23
ATOM     21 CL   UNL     1       4.101  -0.560  -3.810  0.00  0.00    -0.087 Cl
ATOM     22 CL   UNL     1       5.682  -1.525  -1.558  0.00  0.00    -0.087 Cl
ATOM     23  C   UNL     1       4.066  -1.014  -2.098  0.00  0.00    +0.234 C 
ENDBRANCH  20  23
BRANCH  19  24
ATOM     24  C   UNL     1       2.588   1.115   0.733  0.00  0.00    +0.126 C 
BRANCH  24  25
ATOM     25  C   UNL     1       3.677   1.476   1.727  0.00  0.00    +0.164 C 
BRANCH  25  26
ATOM     26  O   UNL     1       4.873   1.786   1.025  0.00  0.00    -0.352 OA
BRANCH  26  27
ATOM     27  C   UNL     1       5.926   2.131   1.915  0.00  0.00    +0.142 C 
ATOM     28  C   UNL     1       7.168   2.450   1.111  0.00  0.00    +0.035 C 
ENDBRANCH  26  27
ENDBRANCH  25  26
ENDBRANCH  24  25
ENDBRANCH  19  24
ENDBRANCH  17  19
ENDBRANCH   1  17
TORSDOF 10
