REMARK  Name = 5315
REMARK  7 active torsions:
REMARK  status: ('A' for Active; 'I' for Inactive)
REMARK    1  A    between atoms: C_1  and  S_17
REMARK    2  A    between atoms: C_2  and  N_8
REMARK    3  A    between atoms: C_9  and  C_11
REMARK    4  A    between atoms: C_11  and  C_12
REMARK    5  A    between atoms: C_12  and  C_14
REMARK    6  A    between atoms: C_14  and  O_15
REMARK    7  A    between atoms: S_17  and  N_21
REMARK                            x       y       z     vdW  Elec       q    Type
REMARK                         _______ _______ _______ _____ _____    ______ ____
ROOT
ATOM      1  C   UNL     1       1.390  -0.830  -0.385  0.00  0.00    +0.125 C 
ATOM      2  C   UNL     1      -1.343  -0.799   0.071  0.00  0.00    +0.050 C 
ATOM      3  C   UNL     1       0.792  -1.861   0.339  0.00  0.00    +0.021 C 
ATOM      4  C   UNL     1       0.612   0.217  -0.880  0.00  0.00    +0.021 C 
ATOM      5  C   UNL     1      -0.584  -1.845   0.569  0.00  0.00    +0.016 C 
ATOM      6  C   UNL     1      -0.764   0.233  -0.651  0.00  0.00    +0.016 C 
ENDROOT
BRANCH   2   8
ATOM      7  O   UNL     1      -3.439   1.183  -0.779  0.00  0.00    -0.275 OA
ATOM      8  N   UNL     1      -2.738  -0.782   0.304  0.00  0.00    -0.284 N 
ATOM      9  C   UNL     1      -3.655   0.174  -0.114  0.00  0.00    +0.227 C 
ATOM     10  H   UNL     1      -3.101  -1.537   0.822  0.00  0.00    +0.155 HD
BRANCH   9  11
ATOM     11  C   UNL     1      -5.067  -0.165   0.336  0.00  0.00    +0.097 C 
BRANCH  11  12
ATOM     12  C   UNL     1      -6.059   0.892  -0.129  0.00  0.00    +0.119 C 
BRANCH  12  14
ATOM     13  O   UNL     1      -7.768  -0.402   0.986  0.00  0.00    -0.250 OA
ATOM     14  C   UNL     1      -7.467   0.574   0.311  0.00  0.00    +0.314 C 
BRANCH  14  15
ATOM     15  O   UNL     1      -8.368   1.495  -0.113  0.00  0.00    -0.480 OA
ATOM     16  H   UNL     1      -8.085   2.225  -0.628  0.00  0.00    +0.295 HD
ENDBRANCH  14  15
ENDBRANCH  12  14
ENDBRANCH  11  12
ENDBRANCH   9  11
ENDBRANCH   2   8
BRANCH   1  17
ATOM     17  S   UNL     1       3.112  -0.849  -0.672  0.00  0.00    +0.075 S 
ATOM     18  O   UNL     1       3.578  -2.228  -0.594  0.00  0.00    -0.150 OA
ATOM     19  O   UNL     1       3.369  -0.072  -1.878  0.00  0.00    -0.150 OA
BRANCH  17  21
ATOM     20  S   UNL     1       6.134   0.523   1.908  0.00  0.00    -0.050 S 
ATOM     21  N   UNL     1       3.688   0.007   0.703  0.00  0.00    -0.194 N 
ATOM     22  N   UNL     1       5.465   1.113  -0.519  0.00  0.00    -0.221 NA
ATOM     23  C   UNL     1       5.052   0.568   0.591  0.00  0.00    +0.179 C 
ATOM     24  C   UNL     1       7.297   1.311   0.923  0.00  0.00    +0.059 C 
ATOM     25  C   UNL     1       6.764   1.543  -0.327  0.00  0.00    +0.108 C 
ATOM     26  H   UNL     1       3.143   0.118   1.515  0.00  0.00    +0.176 HD
ENDBRANCH  17  21
ENDBRANCH   1  17
TORSDOF 7
