65709
  -OEChem-10061700313D

 54 56  0     0  0  0  0  0  0999 V2000
    0.2042    0.7742   -2.0483 O   0  0  0  0  0  0  0  0  0  0  0  0
   -5.4071    2.1680    1.4117 O   0  0  0  0  0  0  0  0  0  0  0  0
    1.5343   -0.6406   -0.7432 N   0  0  0  0  0  0  0  0  0  0  0  0
    3.8941    2.0521    0.3246 N   0  0  0  0  0  0  0  0  0  0  0  0
   -0.7389   -2.3214   -0.6600 N   0  0  0  0  0  0  0  0  0  0  0  0
    2.7058    0.2262   -0.7862 C   0  0  0  0  0  0  0  0  0  0  0  0
    2.7018    1.2155    0.3699 C   0  0  0  0  0  0  0  0  0  0  0  0
    1.5896   -1.8697   -0.0283 C   0  0  0  0  0  0  0  0  0  0  0  0
    3.9795    2.7608   -0.9539 C   0  0  0  0  0  0  0  0  0  0  0  0
    3.8972    3.0072    1.4346 C   0  0  0  0  0  0  0  0  0  0  0  0
    0.3733   -0.2536   -1.4035 C   0  0  0  0  0  0  0  0  0  0  0  0
   -0.7908   -1.2061   -1.3098 C   0  0  0  0  0  0  0  0  0  0  0  0
    0.4461   -2.6795   -0.0065 C   0  0  0  0  0  0  0  0  0  0  0  0
   -2.0594   -0.8131   -2.0143 C   0  0  0  0  0  0  0  0  0  0  0  0
    2.7425   -2.2949    0.6515 C   0  0  0  0  0  0  0  0  0  0  0  0
    5.2528    3.5851   -1.0406 C   0  0  0  0  0  0  0  0  0  0  0  0
    3.8092    2.2935    2.7731 C   0  0  0  0  0  0  0  0  0  0  0  0
    0.4711   -3.8962    0.6899 C   0  0  0  0  0  0  0  0  0  0  0  0
   -2.9487   -0.0213   -1.1046 C   0  0  0  0  0  0  0  0  0  0  0  0
    2.7551   -3.5084    1.3416 C   0  0  0  0  0  0  0  0  0  0  0  0
    1.6195   -4.3096    1.3613 C   0  0  0  0  0  0  0  0  0  0  0  0
   -2.8337    1.3644   -1.0612 C   0  0  0  0  0  0  0  0  0  0  0  0
   -3.8827   -0.6781   -0.3096 C   0  0  0  0  0  0  0  0  0  0  0  0
   -3.6612    2.1011   -0.2136 C   0  0  0  0  0  0  0  0  0  0  0  0
   -4.7101    0.0586    0.5378 C   0  0  0  0  0  0  0  0  0  0  0  0
   -4.5995    1.4482    0.5859 C   0  0  0  0  0  0  0  0  0  0  0  0
   -6.3443    1.4377    2.2018 C   0  0  0  0  0  0  0  0  0  0  0  0
    2.6218    0.7500   -1.7436 H   0  0  0  0  0  0  0  0  0  0  0  0
    3.6315   -0.3539   -0.8572 H   0  0  0  0  0  0  0  0  0  0  0  0
    2.6689    0.6265    1.2919 H   0  0  0  0  0  0  0  0  0  0  0  0
    1.7857    1.8212    0.3440 H   0  0  0  0  0  0  0  0  0  0  0  0
    4.0631    2.0641   -1.7920 H   0  0  0  0  0  0  0  0  0  0  0  0
    3.1056    3.3994   -1.1324 H   0  0  0  0  0  0  0  0  0  0  0  0
    3.0803    3.7349    1.3514 H   0  0  0  0  0  0  0  0  0  0  0  0
    4.8382    3.5663    1.4592 H   0  0  0  0  0  0  0  0  0  0  0  0
   -2.5761   -1.7244   -2.3425 H   0  0  0  0  0  0  0  0  0  0  0  0
   -1.8399   -0.2577   -2.9330 H   0  0  0  0  0  0  0  0  0  0  0  0
    3.6524   -1.7050    0.6861 H   0  0  0  0  0  0  0  0  0  0  0  0
    5.2054    4.4935   -0.4322 H   0  0  0  0  0  0  0  0  0  0  0  0
    6.1341    3.0047   -0.7466 H   0  0  0  0  0  0  0  0  0  0  0  0
    5.4091    3.9126   -2.0750 H   0  0  0  0  0  0  0  0  0  0  0  0
    4.0520    2.9962    3.5784 H   0  0  0  0  0  0  0  0  0  0  0  0
    4.5216    1.4640    2.8406 H   0  0  0  0  0  0  0  0  0  0  0  0
    2.8024    1.9190    2.9830 H   0  0  0  0  0  0  0  0  0  0  0  0
   -0.4122   -4.5306    0.7121 H   0  0  0  0  0  0  0  0  0  0  0  0
    3.6518   -3.8242    1.8668 H   0  0  0  0  0  0  0  0  0  0  0  0
    1.6266   -5.2532    1.8984 H   0  0  0  0  0  0  0  0  0  0  0  0
   -2.1180    1.8906   -1.6851 H   0  0  0  0  0  0  0  0  0  0  0  0
   -3.9763   -1.7604   -0.3378 H   0  0  0  0  0  0  0  0  0  0  0  0
   -3.5724    3.1836   -0.1825 H   0  0  0  0  0  0  0  0  0  0  0  0
   -5.4164   -0.5117    1.1316 H   0  0  0  0  0  0  0  0  0  0  0  0
   -6.9023    2.1672    2.7979 H   0  0  0  0  0  0  0  0  0  0  0  0
   -7.0732    0.9108    1.5768 H   0  0  0  0  0  0  0  0  0  0  0  0
   -5.8404    0.7675    2.9066 H   0  0  0  0  0  0  0  0  0  0  0  0
  1 11  2  0  0  0  0
  2 26  1  0  0  0  0
  2 27  1  0  0  0  0
  3  6  1  0  0  0  0
  3  8  1  0  0  0  0
  3 11  1  0  0  0  0
  4  7  1  0  0  0  0
  4  9  1  0  0  0  0
  4 10  1  0  0  0  0
  5 12  2  0  0  0  0
  5 13  1  0  0  0  0
  6  7  1  0  0  0  0
  6 28  1  0  0  0  0
  6 29  1  0  0  0  0
  7 30  1  0  0  0  0
  7 31  1  0  0  0  0
  8 13  1  0  0  0  0
  8 15  2  0  0  0  0
  9 16  1  0  0  0  0
  9 32  1  0  0  0  0
  9 33  1  0  0  0  0
 10 17  1  0  0  0  0
 10 34  1  0  0  0  0
 10 35  1  0  0  0  0
 11 12  1  0  0  0  0
 12 14  1  0  0  0  0
 13 18  2  0  0  0  0
 14 19  1  0  0  0  0
 14 36  1  0  0  0  0
 14 37  1  0  0  0  0
 15 20  1  0  0  0  0
 15 38  1  0  0  0  0
 16 39  1  0  0  0  0
 16 40  1  0  0  0  0
 16 41  1  0  0  0  0
 17 42  1  0  0  0  0
 17 43  1  0  0  0  0
 17 44  1  0  0  0  0
 18 21  1  0  0  0  0
 18 45  1  0  0  0  0
 19 22  2  0  0  0  0
 19 23  1  0  0  0  0
 20 21  2  0  0  0  0
 20 46  1  0  0  0  0
 21 47  1  0  0  0  0
 22 24  1  0  0  0  0
 22 48  1  0  0  0  0
 23 25  2  0  0  0  0
 23 49  1  0  0  0  0
 24 26  2  0  0  0  0
 24 50  1  0  0  0  0
 25 26  1  0  0  0  0
 25 51  1  0  0  0  0
 27 52  1  0  0  0  0
 27 53  1  0  0  0  0
 27 54  1  0  0  0  0
M  END
> <DATABASE_ID>
DB13835

> <DATABASE_NAME>
drugbank

> <ORIGINAL_SOURCE>
PUBCHEM

> <ORIGINAL_SOURCE_URL>
https://pubchem.ncbi.nlm.nih.gov/rest/pug/compound/inchikey/MSPRUJDUTKRMLM-UHFFFAOYSA-N/SDF?record_type=3d

> <SMILES>
CCN(CC)CCN1C(=O)C(CC2=CC=C(OC)C=C2)=NC2=CC=CC=C12

> <INCHI_IDENTIFIER>
InChI=1S/C22H27N3O2/c1-4-24(5-2)14-15-25-21-9-7-6-8-19(21)23-20(22(25)26)16-17-10-12-18(27-3)13-11-17/h6-13H,4-5,14-16H2,1-3H3

> <INCHI_KEY>
MSPRUJDUTKRMLM-UHFFFAOYSA-N

> <FORMULA>
C22H27N3O2

> <MOLECULAR_WEIGHT>
365.477

> <EXACT_MASS>
365.210327121

> <JCHEM_ACCEPTOR_COUNT>
4

> <JCHEM_ATOM_COUNT>
54

> <JCHEM_AVERAGE_POLARIZABILITY>
41.44257363384286

> <JCHEM_BIOAVAILABILITY>
1

> <JCHEM_DONOR_COUNT>
0

> <JCHEM_FORMAL_CHARGE>
0

> <JCHEM_GHOSE_FILTER>
1

> <JCHEM_IUPAC>
1-[2-(diethylamino)ethyl]-3-[(4-methoxyphenyl)methyl]-1,2-dihydroquinoxalin-2-one

> <ALOGPS_LOGP>
3.13

> <JCHEM_LOGP>
3.501950324000001

> <ALOGPS_LOGS>
-4.09

> <JCHEM_MDDR_LIKE_RULE>
1

> <JCHEM_NUMBER_OF_RINGS>
3

> <JCHEM_PHYSIOLOGICAL_CHARGE>
1

> <JCHEM_PKA_STRONGEST_BASIC>
8.681566490904373

> <JCHEM_POLAR_SURFACE_AREA>
45.14

> <JCHEM_REFRACTIVITY>
110.77189999999997

> <JCHEM_ROTATABLE_BOND_COUNT>
8

> <JCHEM_RULE_OF_FIVE>
1

> <ALOGPS_SOLUBILITY>
3.00e-02 g/l

> <JCHEM_TRADITIONAL_IUPAC>
caroverine

> <JCHEM_VEBER_RULE>
0

> <DRUGBANK_ID>
DB13835

> <DRUG_GROUPS>
experimental

> <GENERIC_NAME>
Caroverine

$$$$
