REMARK  Name = 854498
REMARK  3 active torsions:
REMARK  status: ('A' for Active; 'I' for Inactive)
REMARK    1  A    between atoms: C_1  and  C_8
REMARK    2  A    between atoms: C_4  and  O_13
REMARK    3  A    between atoms: C_8  and  O_11
REMARK                            x       y       z     vdW  Elec       q    Type
REMARK                         _______ _______ _______ _____ _____    ______ ____
ROOT
ATOM      1  C   UNL     1      -0.645  -0.002  -0.295  0.00  0.00    +0.032 C 
ATOM      2  C   UNL     1       0.098   0.948   0.653  0.00  0.00    +0.036 C 
ATOM      3  C   UNL     1      -0.087  -1.428  -0.158  0.00  0.00    +0.028 C 
ATOM      4  C   UNL     1       1.604   0.968   0.355  0.00  0.00    +0.129 C 
ATOM      5  C   UNL     1       2.189  -0.399   0.099  0.00  0.00    -0.022 C 
ATOM      6  C   UNL     1       1.412  -1.476  -0.111  0.00  0.00    -0.032 C 
ATOM      7  C   UNL     1       3.687  -0.499   0.106  0.00  0.00    +0.028 C 
ENDROOT
BRANCH   1   8
ATOM      8  C   UNL     1      -2.148   0.018  -0.030  0.00  0.00    +0.089 C 
ATOM      9  C   UNL     1      -2.890  -0.879  -1.021  0.00  0.00    +0.029 C 
ATOM     10  C   UNL     1      -2.686   1.446  -0.093  0.00  0.00    +0.029 C 
BRANCH   8  11
ATOM     11  O   UNL     1      -2.385  -0.472   1.290  0.00  0.00    -0.387 OA
ATOM     12  H   UNL     1      -2.053  -1.381   1.362  0.00  0.00    +0.210 HD
ENDBRANCH   8  11
ENDBRANCH   1   8
BRANCH   4  13
ATOM     13  O   UNL     1       1.851   1.775  -0.796  0.00  0.00    -0.380 OA
ATOM     14  H   UNL     1       1.483   2.661  -0.655  0.00  0.00    +0.211 HD
ENDBRANCH   4  13
TORSDOF 3
