REMARK  Name = 65600
REMARK  4 active torsions:
REMARK  status: ('A' for Active; 'I' for Inactive)
REMARK    1  A    between atoms: C_1  and  C_4
REMARK    2  A    between atoms: C_1  and  C_11
REMARK    3  A    between atoms: C_1  and  C_17
REMARK    4  A    between atoms: C_1  and  O_23
REMARK                            x       y       z     vdW  Elec       q    Type
REMARK                         _______ _______ _______ _____ _____    ______ ____
ROOT
ATOM      1  C   UNL     1      -0.209   0.016  -0.338  0.00  0.00    +0.124 C 
ENDROOT
BRANCH   1   4
ATOM      2  N   UNL     1       3.299   1.165  -0.173  0.00  0.00    +0.387 N 
ATOM      3  C   UNL     1       2.034  -1.062   0.277  0.00  0.00    -0.003 C 
ATOM      4  C   UNL     1       1.093   0.153   0.449  0.00  0.00    +0.012 C 
ATOM      5  C   UNL     1       1.862   1.436   0.059  0.00  0.00    -0.074 C 
ATOM      6  C   UNL     1       2.650  -1.048  -1.132  0.00  0.00    -0.023 C 
ATOM      7  C   UNL     1       3.194  -0.872   1.272  0.00  0.00    -0.023 C 
ATOM      8  C   UNL     1       3.422   0.264  -1.340  0.00  0.00    -0.077 C 
ATOM      9  C   UNL     1       3.863   0.489   1.015  0.00  0.00    -0.077 C 
ATOM     10  H   UNL     1       3.799   2.038  -0.342  0.00  0.00    -0.080 HD
ENDBRANCH   1   4
BRANCH   1  11
ATOM     11  C   UNL     1      -1.095   1.248  -0.084  0.00  0.00    +0.005 C 
ATOM     12  C   UNL     1      -1.121   1.781   1.180  0.00  0.00    -0.002 C 
ATOM     13  C   UNL     1      -1.816   1.758  -1.133  0.00  0.00    -0.002 C 
ATOM     14  C   UNL     1      -1.923   2.898   1.411  0.00  0.00    -0.000 C 
ATOM     15  C   UNL     1      -2.619   2.876  -0.903  0.00  0.00    -0.000 C 
ATOM     16  C   UNL     1      -2.672   3.446   0.369  0.00  0.00    -0.000 C 
ENDBRANCH   1  11
BRANCH   1  17
ATOM     17  C   UNL     1      -0.999  -1.280  -0.088  0.00  0.00    +0.005 C 
ATOM     18  C   UNL     1      -1.680  -1.840  -1.139  0.00  0.00    -0.002 C 
ATOM     19  C   UNL     1      -0.984  -1.818   1.175  0.00  0.00    -0.002 C 
ATOM     20  C   UNL     1      -2.396  -3.016  -0.912  0.00  0.00    -0.000 C 
ATOM     21  C   UNL     1      -1.700  -2.993   1.401  0.00  0.00    -0.000 C 
ATOM     22  C   UNL     1      -2.406  -3.592   0.358  0.00  0.00    -0.000 C 
ENDBRANCH   1  17
BRANCH   1  23
ATOM     23  O   UNL     1       0.202  -0.009  -1.722  0.00  0.00    -0.379 OA
ATOM     24  H   UNL     1       0.706   0.794  -1.925  0.00  0.00    +0.211 HD
ENDBRANCH   1  23
TORSDOF 4
