REMARK  Name = 36109
REMARK  6 active torsions:
REMARK  status: ('A' for Active; 'I' for Inactive)
REMARK    1  A    between atoms: C_1  and  O_2
REMARK    2  A    between atoms: C_1  and  O_9
REMARK    3  A    between atoms: C_1  and  C_16
REMARK    4  A    between atoms: O_2  and  C_3
REMARK    5  A    between atoms: O_9  and  C_10
REMARK    6  A    between atoms: C_16  and  N_17
REMARK                            x       y       z     vdW  Elec       q    Type
REMARK                         _______ _______ _______ _____ _____    ______ ____
ROOT
ATOM      1  C   UNL     1      -1.173  -0.221   0.230  0.00  0.00    +0.319 C 
ENDROOT
BRANCH   1   2
ATOM      2  O   UNL     1      -0.440   0.644   1.121  0.00  0.00    -0.445 OA
BRANCH   2   3
ATOM      3  C   UNL     1       0.225   1.714   0.587  0.00  0.00    +0.142 C 
ATOM      4  C   UNL     1      -0.484   2.690  -0.107  0.00  0.00    +0.037 C 
ATOM      5  C   UNL     1       1.603   1.818   0.741  0.00  0.00    +0.037 C 
ATOM      6  C   UNL     1       0.193   3.781  -0.652  0.00  0.00    +0.003 C 
ATOM      7  C   UNL     1       2.280   2.909   0.196  0.00  0.00    +0.003 C 
ATOM      8  C   UNL     1       1.575   3.890  -0.500  0.00  0.00    +0.000 C 
ENDBRANCH   2   3
ENDBRANCH   1   2
BRANCH   1   9
ATOM      9  O   UNL     1      -0.725  -1.577   0.378  0.00  0.00    -0.445 OA
BRANCH   9  10
ATOM     10  C   UNL     1       0.578  -1.882   0.091  0.00  0.00    +0.142 C 
ATOM     11  C   UNL     1       1.074  -1.653  -1.188  0.00  0.00    +0.037 C 
ATOM     12  C   UNL     1       1.395  -2.419   1.081  0.00  0.00    +0.037 C 
ATOM     13  C   UNL     1       2.402  -1.965  -1.481  0.00  0.00    +0.003 C 
ATOM     14  C   UNL     1       2.722  -2.730   0.788  0.00  0.00    +0.003 C 
ATOM     15  C   UNL     1       3.226  -2.504  -0.493  0.00  0.00    +0.000 C 
ENDBRANCH   9  10
ENDBRANCH   1   9
BRANCH   1  16
ATOM     16  C   UNL     1      -2.642  -0.148   0.679  0.00  0.00    +0.016 C 
BRANCH  16  17
ATOM     17  N   UNL     1      -3.497  -0.951  -0.194  0.00  0.00    +0.389 N 
ATOM     18  C   UNL     1      -3.433  -0.457  -1.568  0.00  0.00    -0.100 C 
ATOM     19  C   UNL     1      -4.877  -0.939   0.291  0.00  0.00    -0.100 C 
ATOM     20  H   UNL     1      -3.159  -1.914  -0.180  0.00  0.00    -0.080 HD
ENDBRANCH  16  17
ENDBRANCH   1  16
TORSDOF 6
