REMARK  Name = 6713928
REMARK  6 active torsions:
REMARK  status: ('A' for Active; 'I' for Inactive)
REMARK    1  A    between atoms: CA_6  and  C_25
REMARK    2  A    between atoms: CA_7  and  N_12
REMARK    3  A    between atoms: C_13  and  CA_15
REMARK    4  A    between atoms: CA_15  and  C_16
REMARK    5  A    between atoms: CA_15  and  N_22
REMARK    6  A    between atoms: C_25  and  O_26
REMARK                            x       y       z     vdW  Elec       q    Type
REMARK                         _______ _______ _______ _____ _____    ______ ____
ROOT
ATOM      1  S   UNL     1      -0.841   0.760   1.071  0.00  0.00    -0.118 S 
ATOM      2  O   UNL     1      -2.167  -2.296  -1.812  0.00  0.00    -0.273 OA
ATOM      3  N   UNL     1      -2.531  -0.944   0.088  0.00  0.00    -0.260 N 
ATOM      4  C   UNL     1      -1.497  -0.947   1.127  0.00  0.00    +0.151 C 
ATOM      5  C   UNL     1      -2.504   1.424   0.556  0.00  0.00    +0.068 C 
ATOM      6  CA  UNL     1      -3.065   0.323  -0.369  0.00  0.00    +0.184 C 
ATOM      7  CA  UNL     1      -0.754  -2.001   0.294  0.00  0.00    +0.178 C 
ATOM      8  C   UNL     1      -1.922  -1.873  -0.705  0.00  0.00    +0.247 C 
ATOM      9  C   UNL     1      -3.328   1.668   1.828  0.00  0.00    +0.013 C 
ATOM     10  C   UNL     1      -2.303   2.739  -0.199  0.00  0.00    +0.013 C 
ENDROOT
BRANCH   7  12
ATOM     11  O   UNL     1       1.738  -1.707   1.727  0.00  0.00    -0.273 OA
ATOM     12  N   UNL     1       0.552  -1.627  -0.265  0.00  0.00    -0.295 N 
ATOM     13  C   UNL     1       1.705  -1.511   0.513  0.00  0.00    +0.243 C 
ATOM     14  H   UNL     1       0.618  -1.451  -1.231  0.00  0.00    +0.150 HD
BRANCH  13  15
ATOM     15  CA  UNL     1       2.937  -1.131  -0.294  0.00  0.00    +0.171 C 
BRANCH  15  16
ATOM     16  C   UNL     1       3.126   0.368  -0.325  0.00  0.00    +0.002 C 
ATOM     17  C   UNL     1       2.534   1.105  -1.337  0.00  0.00    -0.002 C 
ATOM     18  C   UNL     1       3.886   0.975   0.661  0.00  0.00    -0.002 C 
ATOM     19  C   UNL     1       2.709   2.489  -1.365  0.00  0.00    -0.000 C 
ATOM     20  C   UNL     1       4.060   2.359   0.633  0.00  0.00    -0.000 C 
ATOM     21  C   UNL     1       3.471   3.116  -0.380  0.00  0.00    -0.000 C 
ENDBRANCH  15  16
BRANCH  15  22
ATOM     22  N   UNL     1       4.072  -1.834   0.322  0.00  0.00    -0.205 NA
ATOM     23  C   UNL     1       4.982  -2.185  -0.504  0.00  0.00    +0.108 C 
ENDBRANCH  15  22
ENDBRANCH  13  15
ENDBRANCH   7  12
BRANCH   6  25
ATOM     24  OXT UNL     1      -5.179  -0.781   0.005  0.00  0.00    -0.248 OA
ATOM     25  C   UNL     1      -4.555   0.196  -0.382  0.00  0.00    +0.333 C 
BRANCH  25  26
ATOM     26  O   UNL     1      -5.127   1.317  -0.886  0.00  0.00    -0.479 OA
ATOM     27  H   UNL     1      -4.589   2.032  -1.165  0.00  0.00    +0.295 HD
ENDBRANCH  25  26
ENDBRANCH   6  25
TORSDOF 6
