REMARK  Name = 15671
REMARK  6 active torsions:
REMARK  status: ('A' for Active; 'I' for Inactive)
REMARK    1  A    between atoms: C_7  and  C_22
REMARK    2  A    between atoms: C_12  and  S_16
REMARK    3  A    between atoms: S_16  and  N_19
REMARK    4  A    between atoms: C_22  and  S_23
REMARK    5  A    between atoms: S_23  and  C_24
REMARK    6  A    between atoms: C_24  and  C_28
REMARK                            x       y       z     vdW  Elec       q    Type
REMARK                         _______ _______ _______ _____ _____    ______ ____
ROOT
ATOM      1 CL   UNL     1       3.410  -2.949   1.150  0.00  0.00    -0.081 Cl
ATOM      2  S   UNL     1       0.574   2.437  -0.318  0.00  0.00    +0.063 S 
ATOM      3  O   UNL     1       0.780   2.640  -1.738  0.00  0.00    -0.153 OA
ATOM      4  O   UNL     1       0.994   3.419   0.662  0.00  0.00    -0.153 OA
ATOM      5  N   UNL     1      -1.068   2.036  -0.064  0.00  0.00    -0.162 NA
ATOM      6  N   UNL     1      -0.619   0.138   1.388  0.00  0.00    -0.319 N 
ATOM      7  C   UNL     1      -1.355   1.379   1.232  0.00  0.00    +0.158 C 
ATOM      8  C   UNL     1       1.356   0.920   0.134  0.00  0.00    +0.136 C 
ATOM      9  C   UNL     1       0.678  -0.022   0.923  0.00  0.00    +0.065 C 
ATOM     10  C   UNL     1       2.652   0.699  -0.343  0.00  0.00    +0.042 C 
ATOM     11  C   UNL     1       1.356  -1.219   1.207  0.00  0.00    +0.028 C 
ATOM     12  C   UNL     1       3.301  -0.491  -0.033  0.00  0.00    +0.134 C 
ATOM     13  C   UNL     1       2.654  -1.451   0.740  0.00  0.00    +0.078 C 
ATOM     14  H   UNL     1      -1.359   1.405  -0.810  0.00  0.00    +0.151 HD
ATOM     15  H   UNL     1      -1.057  -0.619   1.840  0.00  0.00    +0.148 HD
ENDROOT
BRANCH  12  16
ATOM     16  S   UNL     1       4.925  -0.729  -0.646  0.00  0.00    +0.058 S 
ATOM     17  O   UNL     1       5.514   0.579  -0.888  0.00  0.00    -0.153 OA
ATOM     18  O   UNL     1       5.603  -1.684   0.216  0.00  0.00    -0.153 OA
BRANCH  16  19
ATOM     19  N   UNL     1       4.594  -1.475  -2.146  0.00  0.00    -0.203 NA
ATOM     20  H   UNL     1       5.471  -1.676  -2.626  0.00  0.00    +0.144 HD
ATOM     21  H   UNL     1       4.028  -0.850  -2.719  0.00  0.00    +0.144 HD
ENDBRANCH  16  19
ENDBRANCH  12  16
BRANCH   7  22
ATOM     22  C   UNL     1      -2.850   1.100   1.315  0.00  0.00    +0.096 C 
BRANCH  22  23
ATOM     23  S   UNL     1      -3.348  -0.057   0.013  0.00  0.00    -0.128 S 
BRANCH  23  24
ATOM     24  C   UNL     1      -5.111  -0.153   0.402  0.00  0.00    +0.161 C 
BRANCH  24  28
ATOM     25  F   UNL     1      -7.160  -1.122  -0.295  0.00  0.00    -0.169 F 
ATOM     26  F   UNL     1      -5.696  -0.634  -1.845  0.00  0.00    -0.169 F 
ATOM     27  F   UNL     1      -5.345  -2.310  -0.499  0.00  0.00    -0.169 F 
ATOM     28  C   UNL     1      -5.840  -1.053  -0.569  0.00  0.00    +0.408 C 
ENDBRANCH  24  28
ENDBRANCH  23  24
ENDBRANCH  22  23
ENDBRANCH   7  22
TORSDOF 6
