REMARK  Name = 68778
REMARK  3 active torsions:
REMARK  status: ('A' for Active; 'I' for Inactive)
REMARK    1  A    between atoms: N_1  and  C_20
REMARK    2  A    between atoms: C_2  and  C_8
REMARK    3  A    between atoms: C_2  and  C_14
REMARK                            x       y       z     vdW  Elec       q    Type
REMARK                         _______ _______ _______ _____ _____    ______ ____
ROOT
ATOM      1  N   UNL     1      -2.453   1.086   0.044  0.00  0.00    +0.389 N 
ATOM      2  C   UNL     1       0.473   0.326   0.025  0.00  0.00    +0.034 C 
ATOM      3  C   UNL     1      -0.346   0.787   1.281  0.00  0.00    -0.015 C 
ATOM      4  C   UNL     1      -0.300   0.955  -1.186  0.00  0.00    -0.015 C 
ATOM      5  C   UNL     1      -1.836   0.436   1.202  0.00  0.00    -0.077 C 
ATOM      6  C   UNL     1      -1.808   0.661  -1.200  0.00  0.00    -0.077 C 
ATOM      7  H   UNL     1      -2.323   2.093   0.139  0.00  0.00    -0.080 HD
ENDROOT
BRANCH   2   8
ATOM      8  C   UNL     1       0.576  -1.222  -0.003  0.00  0.00    -0.019 C 
ATOM      9  C   UNL     1       0.638  -1.936   1.192  0.00  0.00    -0.004 C 
ATOM     10  C   UNL     1       0.605  -1.894  -1.223  0.00  0.00    -0.004 C 
ATOM     11  C   UNL     1       0.731  -3.328   1.167  0.00  0.00    -0.000 C 
ATOM     12  C   UNL     1       0.697  -3.286  -1.248  0.00  0.00    -0.000 C 
ATOM     13  C   UNL     1       0.760  -4.003  -0.053  0.00  0.00    -0.000 C 
ENDBRANCH   2   8
BRANCH   2  14
ATOM     14  C   UNL     1       1.918   0.895   0.016  0.00  0.00    -0.019 C 
ATOM     15  C   UNL     1       2.547   1.171  -1.196  0.00  0.00    -0.004 C 
ATOM     16  C   UNL     1       2.580   1.130   1.219  0.00  0.00    -0.004 C 
ATOM     17  C   UNL     1       3.845   1.683  -1.206  0.00  0.00    -0.000 C 
ATOM     18  C   UNL     1       3.878   1.642   1.210  0.00  0.00    -0.000 C 
ATOM     19  C   UNL     1       4.510   1.918  -0.002  0.00  0.00    -0.000 C 
ENDBRANCH   2  14
BRANCH   1  20
ATOM     20  C   UNL     1      -3.889   0.811   0.001  0.00  0.00    -0.043 C 
ATOM     21  C   UNL     1      -4.528   1.351   1.285  0.00  0.00    -0.021 C 
ATOM     22  C   UNL     1      -4.485   1.518  -1.221  0.00  0.00    -0.021 C 
ATOM     23  C   UNL     1      -4.114  -0.702  -0.104  0.00  0.00    -0.021 C 
ENDBRANCH   1  20
TORSDOF 3
