REMARK  Name = 5911905
REMARK  5 active torsions:
REMARK  status: ('A' for Active; 'I' for Inactive)
REMARK    1  A    between atoms: N_3  and  C_20
REMARK    2  A    between atoms: C_4  and  N_8
REMARK    3  A    between atoms: C_7  and  C_16
REMARK    4  A    between atoms: C_16  and  O_17
REMARK    5  A    between atoms: O_17  and  C_18
REMARK                            x       y       z     vdW  Elec       q    Type
REMARK                         _______ _______ _______ _____ _____    ______ ____
ROOT
ATOM      1  S   UNL     1       0.218   0.221  -1.268  0.00  0.00    -0.112 S 
ATOM      2  O   UNL     1      -2.168  -2.636  -0.230  0.00  0.00    -0.276 OA
ATOM      3  N   UNL     1       0.093  -2.049  -0.043  0.00  0.00    -0.255 N 
ATOM      4  C   UNL     1      -1.407  -0.575  -1.219  0.00  0.00    +0.076 C 
ATOM      5  C   UNL     1      -1.233  -1.869  -0.449  0.00  0.00    +0.220 C 
ATOM      6  C   UNL     1       0.986  -1.055  -0.390  0.00  0.00    +0.085 C 
ATOM      7  C   UNL     1       2.293  -1.030  -0.105  0.00  0.00    +0.103 C 
ENDROOT
BRANCH   4   8
ATOM      8  N   UNL     1      -2.406   0.235  -0.522  0.00  0.00    +0.400 N 
ATOM      9  C   UNL     1      -2.677   1.472  -1.269  0.00  0.00    -0.075 C 
ATOM     10  C   UNL     1      -1.964   0.529   0.849  0.00  0.00    -0.075 C 
ATOM     11  C   UNL     1      -3.756   2.308  -0.579  0.00  0.00    -0.023 C 
ATOM     12  C   UNL     1      -3.019   1.335   1.608  0.00  0.00    -0.023 C 
ATOM     13  C   UNL     1      -3.379   2.617   0.865  0.00  0.00    -0.004 C 
ATOM     14  H   UNL     1      -3.275  -0.295  -0.465  0.00  0.00    -0.078 HD
ENDBRANCH   4   8
BRANCH   7  16
ATOM     15  O   UNL     1       3.715   0.183  -1.611  0.00  0.00    -0.245 OA
ATOM     16  C   UNL     1       3.123   0.109  -0.546  0.00  0.00    +0.343 C 
BRANCH  16  17
ATOM     17  O   UNL     1       3.098   1.042   0.444  0.00  0.00    -0.445 OA
BRANCH  17  18
ATOM     18  C   UNL     1       3.854   2.230   0.188  0.00  0.00    +0.209 C 
ATOM     19  C   UNL     1       3.726   3.162   1.375  0.00  0.00    +0.051 C 
ENDBRANCH  17  18
ENDBRANCH  16  17
ENDBRANCH   7  16
BRANCH   3  20
ATOM     20  C   UNL     1       0.511  -3.225   0.706  0.00  0.00    +0.099 C 
ATOM     21  C   UNL     1       0.392  -3.002   2.199  0.00  0.00    +0.024 C 
ENDBRANCH   3  20
TORSDOF 5
