REMARK  Name = 71954
REMARK  7 active torsions:
REMARK  status: ('A' for Active; 'I' for Inactive)
REMARK    1  A    between atoms: C_1  and  C_2
REMARK    2  A    between atoms: C_1  and  O_8
REMARK    3  A    between atoms: C_1  and  C_15
REMARK    4  A    between atoms: O_8  and  C_9
REMARK    5  A    between atoms: C_9  and  C_10
REMARK    6  A    between atoms: C_10  and  N_11
REMARK    7  A    between atoms: C_15  and  C_16
REMARK                            x       y       z     vdW  Elec       q    Type
REMARK                         _______ _______ _______ _____ _____    ______ ____
ROOT
ATOM      1  C   UNL     1       0.424  -0.694   0.050  0.00  0.00    +0.142 C 
ENDROOT
BRANCH   1   2
ATOM      2  C   UNL     1      -0.635  -1.773   0.015  0.00  0.00    +0.005 C 
ATOM      3  C   UNL     1      -1.546  -1.795  -1.027  0.00  0.00    -0.002 C 
ATOM      4  C   UNL     1      -0.671  -2.717   1.028  0.00  0.00    -0.002 C 
ATOM      5  C   UNL     1      -2.522  -2.790  -1.058  0.00  0.00    -0.000 C 
ATOM      6  C   UNL     1      -1.648  -3.713   0.997  0.00  0.00    -0.000 C 
ATOM      7  C   UNL     1      -2.573  -3.749  -0.046  0.00  0.00    -0.000 C 
ENDBRANCH   1   2
BRANCH   1   8
ATOM      8  O   UNL     1      -0.110   0.476  -0.556  0.00  0.00    -0.354 OA
BRANCH   8   9
ATOM      9  C   UNL     1      -1.266   0.938   0.131  0.00  0.00    +0.120 C 
BRANCH   9  10
ATOM     10  C   UNL     1      -1.798   2.183  -0.551  0.00  0.00    -0.041 C 
BRANCH  10  11
ATOM     11  N   UNL     1      -3.011   2.694   0.213  0.00  0.00    +0.387 N 
ATOM     12  C   UNL     1      -2.615   2.999   1.650  0.00  0.00    -0.096 C 
ATOM     13  C   UNL     1      -3.530   3.962  -0.450  0.00  0.00    -0.096 C 
ATOM     14  C   UNL     1      -4.102   1.633   0.201  0.00  0.00    -0.096 C 
ENDBRANCH  10  11
ENDBRANCH   9  10
ENDBRANCH   8   9
ENDBRANCH   1   8
BRANCH   1  15
ATOM     15  C   UNL     1       1.720  -1.088  -0.678  0.00  0.00    +0.060 C 
BRANCH  15  16
ATOM     16  C   UNL     1       2.900  -0.221  -0.317  0.00  0.00    -0.019 C 
ATOM     17  C   UNL     1       3.155   0.924  -1.056  0.00  0.00    -0.004 C 
ATOM     18  C   UNL     1       3.710  -0.584   0.748  0.00  0.00    -0.004 C 
ATOM     19  C   UNL     1       4.247   1.725  -0.722  0.00  0.00    -0.000 C 
ATOM     20  C   UNL     1       4.801   0.218   1.083  0.00  0.00    -0.000 C 
ATOM     21  C   UNL     1       5.070   1.372   0.347  0.00  0.00    -0.000 C 
ENDBRANCH  15  16
ENDBRANCH   1  15
TORSDOF 7
