REMARK  Name = 6235
REMARK  3 active torsions:
REMARK  status: ('A' for Active; 'I' for Inactive)
REMARK    1  A    between atoms: C_3  and  N_9
REMARK    2  A    between atoms: C_4  and  N_12
REMARK    3  A    between atoms: C_5  and  N_15
REMARK                            x       y       z     vdW  Elec       q    Type
REMARK                         _______ _______ _______ _____ _____    ______ ____
ROOT
ATOM      1  O   UNL     1      -1.035  -2.224  -0.533  0.00  0.00    -0.284 OA
ATOM      2  O   UNL     1       0.263   2.809   0.594  0.00  0.00    -0.285 OA
ATOM      3  C   UNL     1       0.707  -0.664  -0.132  0.00  0.00    +0.105 C 
ATOM      4  C   UNL     1       1.045   0.606   0.153  0.00  0.00    +0.104 C 
ATOM      5  C   UNL     1      -1.780  -0.028  -0.077  0.00  0.00    +0.092 C 
ATOM      6  C   UNL     1      -0.728  -1.063  -0.268  0.00  0.00    +0.223 C 
ATOM      7  C   UNL     1      -0.011   1.639   0.338  0.00  0.00    +0.212 C 
ATOM      8  C   UNL     1      -1.418   1.227   0.205  0.00  0.00    +0.061 C 
ENDROOT
BRANCH   3   9
ATOM      9  N   UNL     1       1.602  -1.683  -0.319  0.00  0.00    -0.301 N 
ATOM     10  C   UNL     1       1.513  -2.828   0.581  0.00  0.00    +0.112 C 
ATOM     11  C   UNL     1       2.640  -1.857   0.693  0.00  0.00    +0.112 C 
ENDBRANCH   3   9
BRANCH   4  12
ATOM     12  N   UNL     1       2.327   1.062   0.296  0.00  0.00    -0.301 N 
ATOM     13  C   UNL     1       2.770   2.117  -0.610  0.00  0.00    +0.112 C 
ATOM     14  C   UNL     1       3.282   0.723  -0.755  0.00  0.00    +0.112 C 
ENDBRANCH   4  12
BRANCH   5  15
ATOM     15  N   UNL     1      -3.072  -0.447  -0.208  0.00  0.00    -0.301 N 
ATOM     16  C   UNL     1      -4.051   0.524  -0.693  0.00  0.00    +0.112 C 
ATOM     17  C   UNL     1      -4.054   0.087   0.734  0.00  0.00    +0.112 C 
ENDBRANCH   5  15
TORSDOF 3
