REMARK  Name = 4855
REMARK  3 active torsions:
REMARK  status: ('A' for Active; 'I' for Inactive)
REMARK    1  A    between atoms: N_3  and  C_21
REMARK    2  A    between atoms: C_16  and  C_18
REMARK    3  A    between atoms: C_18  and  O_19
REMARK                            x       y       z     vdW  Elec       q    Type
REMARK                         _______ _______ _______ _____ _____    ______ ____
ROOT
ATOM      1  O   UNL     1       2.567  -2.329  -0.284  0.00  0.00    -0.286 OA
ATOM      2  N   UNL     1      -3.320  -0.272   0.020  0.00  0.00    -0.244 N 
ATOM      3  N   UNL     1       1.099   1.422   0.271  0.00  0.00    -0.260 N 
ATOM      4  N   UNL     1      -1.165   0.573   0.145  0.00  0.00    -0.322 NA
ATOM      5  N   UNL     1      -1.576  -1.777  -0.202  0.00  0.00    -0.170 NA
ATOM      6  C   UNL     1      -5.394   0.826  -0.125  0.00  0.00    +0.024 C 
ATOM      7  C   UNL     1      -5.631  -0.619   0.279  0.00  0.00    +0.024 C 
ATOM      8  C   UNL     1      -3.922   1.045   0.216  0.00  0.00    +0.102 C 
ATOM      9  C   UNL     1      -4.334  -1.311  -0.134  0.00  0.00    +0.102 C 
ATOM     10  C   UNL     1      -1.962  -0.504  -0.014  0.00  0.00    +0.149 C 
ATOM     11  C   UNL     1       0.174   0.358   0.114  0.00  0.00    +0.204 C 
ATOM     12  C   UNL     1       0.670  -0.936  -0.077  0.00  0.00    +0.104 C 
ATOM     13  C   UNL     1      -0.244  -1.965  -0.230  0.00  0.00    +0.119 C 
ATOM     14  C   UNL     1       2.456   1.171   0.235  0.00  0.00    +0.077 C 
ATOM     15  C   UNL     1       2.128  -1.199  -0.116  0.00  0.00    +0.208 C 
ATOM     16  C   UNL     1       3.025  -0.028   0.058  0.00  0.00    +0.129 C 
ENDROOT
BRANCH  16  18
ATOM     17  O   UNL     1       5.229   0.773  -0.329  0.00  0.00    -0.245 OA
ATOM     18  C   UNL     1       4.485  -0.116   0.046  0.00  0.00    +0.342 C 
BRANCH  18  19
ATOM     19  O   UNL     1       4.871  -1.324   0.510  0.00  0.00    -0.477 OA
ATOM     20  H   UNL     1       4.228  -1.951   0.778  0.00  0.00    +0.295 HD
ENDBRANCH  18  19
ENDBRANCH  16  18
BRANCH   3  21
ATOM     21  C   UNL     1       0.531   2.749   0.468  0.00  0.00    +0.098 C 
ATOM     22  C   UNL     1       0.314   3.462  -0.851  0.00  0.00    +0.024 C 
ENDBRANCH   3  21
TORSDOF 3
