6762
  -OEChem-10061700253D

 58 61  0     0  0  0  0  0  0999 V2000
   -0.3936    3.6897    0.7852 Cl  0  0  0  0  0  0  0  0  0  0  0  0
    5.3566    1.7091   -0.8322 S   0  0  0  0  0  0  0  0  0  0  0  0
   -7.1353    0.2331   -0.6797 O   0  0  0  0  0  0  0  0  0  0  0  0
   -8.1835    0.8582    1.2819 O   0  0  0  0  0  0  0  0  0  0  0  0
   -1.0653   -1.8949    0.2019 N   0  0  0  0  0  0  0  0  0  0  0  0
   -3.8947   -1.4530   -0.1958 N   0  0  0  0  0  0  0  0  0  0  0  0
    2.9321   -0.1443   -0.2394 N   0  0  0  0  0  0  0  0  0  0  0  0
   -1.8220   -0.9766    1.0618 C   0  0  0  0  0  0  0  0  0  0  0  0
   -1.9393   -2.9597   -0.3056 C   0  0  0  0  0  0  0  0  0  0  0  0
   -3.0205   -0.3876    0.3097 C   0  0  0  0  0  0  0  0  0  0  0  0
   -3.1384   -2.3708   -1.0565 C   0  0  0  0  0  0  0  0  0  0  0  0
    0.0755   -2.4582    0.9211 C   0  0  0  0  0  0  0  0  0  0  0  0
    1.2559   -1.4835    0.9759 C   0  0  0  0  0  0  0  0  0  0  0  0
   -5.0368   -0.8905   -0.9137 C   0  0  0  0  0  0  0  0  0  0  0  0
    1.7702   -1.0299   -0.3899 C   0  0  0  0  0  0  0  0  0  0  0  0
   -6.0532   -0.3166    0.0604 C   0  0  0  0  0  0  0  0  0  0  0  0
    2.6827    1.2474   -0.1327 C   0  0  0  0  0  0  0  0  0  0  0  0
    4.2091   -0.7530   -0.1441 C   0  0  0  0  0  0  0  0  0  0  0  0
    3.7082    2.1879   -0.3542 C   0  0  0  0  0  0  0  0  0  0  0  0
    5.3857   -0.0107   -0.3671 C   0  0  0  0  0  0  0  0  0  0  0  0
    1.4165    1.7543    0.2330 C   0  0  0  0  0  0  0  0  0  0  0  0
    4.3656   -2.1107    0.2109 C   0  0  0  0  0  0  0  0  0  0  0  0
    3.4574    3.5668   -0.2388 C   0  0  0  0  0  0  0  0  0  0  0  0
    6.6501   -0.6175   -0.2637 C   0  0  0  0  0  0  0  0  0  0  0  0
    1.1740    3.1257    0.3513 C   0  0  0  0  0  0  0  0  0  0  0  0
    5.6249   -2.7076    0.3173 C   0  0  0  0  0  0  0  0  0  0  0  0
    2.1949    4.0330    0.1122 C   0  0  0  0  0  0  0  0  0  0  0  0
    6.7682   -1.9609    0.0767 C   0  0  0  0  0  0  0  0  0  0  0  0
   -8.1397    0.7927    0.0609 C   0  0  0  0  0  0  0  0  0  0  0  0
   -9.2051    1.3283   -0.8470 C   0  0  0  0  0  0  0  0  0  0  0  0
   -2.1769   -1.4900    1.9661 H   0  0  0  0  0  0  0  0  0  0  0  0
   -1.1933   -0.1434    1.3910 H   0  0  0  0  0  0  0  0  0  0  0  0
   -1.3827   -3.5987   -1.0020 H   0  0  0  0  0  0  0  0  0  0  0  0
   -2.2929   -3.5989    0.5149 H   0  0  0  0  0  0  0  0  0  0  0  0
   -3.5520    0.2605    1.0135 H   0  0  0  0  0  0  0  0  0  0  0  0
   -2.6607    0.2484   -0.5108 H   0  0  0  0  0  0  0  0  0  0  0  0
   -2.7920   -1.8586   -1.9645 H   0  0  0  0  0  0  0  0  0  0  0  0
   -3.7825   -3.1998   -1.3742 H   0  0  0  0  0  0  0  0  0  0  0  0
   -0.2006   -2.7793    1.9338 H   0  0  0  0  0  0  0  0  0  0  0  0
    0.4369   -3.3574    0.4040 H   0  0  0  0  0  0  0  0  0  0  0  0
    0.9819   -0.6245    1.5965 H   0  0  0  0  0  0  0  0  0  0  0  0
    2.0437   -1.9686    1.5602 H   0  0  0  0  0  0  0  0  0  0  0  0
   -5.5488   -1.6728   -1.4906 H   0  0  0  0  0  0  0  0  0  0  0  0
   -4.7328   -0.1353   -1.6507 H   0  0  0  0  0  0  0  0  0  0  0  0
    2.0234   -1.9022   -1.0077 H   0  0  0  0  0  0  0  0  0  0  0  0
    0.9779   -0.5392   -0.9697 H   0  0  0  0  0  0  0  0  0  0  0  0
   -5.6217    0.4824    0.6713 H   0  0  0  0  0  0  0  0  0  0  0  0
   -6.4297   -1.1061    0.7227 H   0  0  0  0  0  0  0  0  0  0  0  0
    0.5757    1.0956    0.4184 H   0  0  0  0  0  0  0  0  0  0  0  0
    3.5234   -2.7709    0.3851 H   0  0  0  0  0  0  0  0  0  0  0  0
    4.2461    4.2941   -0.4214 H   0  0  0  0  0  0  0  0  0  0  0  0
    7.5589   -0.0479   -0.4477 H   0  0  0  0  0  0  0  0  0  0  0  0
    5.7065   -3.7580    0.5812 H   0  0  0  0  0  0  0  0  0  0  0  0
    2.0257    5.1031    0.1957 H   0  0  0  0  0  0  0  0  0  0  0  0
    7.7486   -2.4206    0.1543 H   0  0  0  0  0  0  0  0  0  0  0  0
   -8.7851    2.1017   -1.4949 H   0  0  0  0  0  0  0  0  0  0  0  0
  -10.0040    1.7727   -0.2464 H   0  0  0  0  0  0  0  0  0  0  0  0
   -9.6280    0.5150   -1.4420 H   0  0  0  0  0  0  0  0  0  0  0  0
  1 25  1  0  0  0  0
  2 19  1  0  0  0  0
  2 20  1  0  0  0  0
  3 16  1  0  0  0  0
  3 29  1  0  0  0  0
  4 29  2  0  0  0  0
  5  8  1  0  0  0  0
  5  9  1  0  0  0  0
  5 12  1  0  0  0  0
  6 10  1  0  0  0  0
  6 11  1  0  0  0  0
  6 14  1  0  0  0  0
  7 15  1  0  0  0  0
  7 17  1  0  0  0  0
  7 18  1  0  0  0  0
  8 10  1  0  0  0  0
  8 31  1  0  0  0  0
  8 32  1  0  0  0  0
  9 11  1  0  0  0  0
  9 33  1  0  0  0  0
  9 34  1  0  0  0  0
 10 35  1  0  0  0  0
 10 36  1  0  0  0  0
 11 37  1  0  0  0  0
 11 38  1  0  0  0  0
 12 13  1  0  0  0  0
 12 39  1  0  0  0  0
 12 40  1  0  0  0  0
 13 15  1  0  0  0  0
 13 41  1  0  0  0  0
 13 42  1  0  0  0  0
 14 16  1  0  0  0  0
 14 43  1  0  0  0  0
 14 44  1  0  0  0  0
 15 45  1  0  0  0  0
 15 46  1  0  0  0  0
 16 47  1  0  0  0  0
 16 48  1  0  0  0  0
 17 19  2  0  0  0  0
 17 21  1  0  0  0  0
 18 20  1  0  0  0  0
 18 22  2  0  0  0  0
 19 23  1  0  0  0  0
 20 24  2  0  0  0  0
 21 25  2  0  0  0  0
 21 49  1  0  0  0  0
 22 26  1  0  0  0  0
 22 50  1  0  0  0  0
 23 27  2  0  0  0  0
 23 51  1  0  0  0  0
 24 28  1  0  0  0  0
 24 52  1  0  0  0  0
 25 27  1  0  0  0  0
 26 28  2  0  0  0  0
 26 53  1  0  0  0  0
 27 54  1  0  0  0  0
 28 55  1  0  0  0  0
 29 30  1  0  0  0  0
 30 56  1  0  0  0  0
 30 57  1  0  0  0  0
 30 58  1  0  0  0  0
M  END
> <DATABASE_ID>
DB13557

> <DATABASE_NAME>
drugbank

> <ORIGINAL_SOURCE>
PUBCHEM

> <ORIGINAL_SOURCE_URL>
https://pubchem.ncbi.nlm.nih.gov/rest/pug/compound/inchikey/AIUHRQHVWSUTGJ-UHFFFAOYSA-N/SDF?record_type=3d

> <SMILES>
CC(=O)OCCN1CCN(CCCN2C3=CC=CC=C3SC3=C2C=C(Cl)C=C3)CC1

> <INCHI_IDENTIFIER>
InChI=1S/C23H28ClN3O2S/c1-18(28)29-16-15-26-13-11-25(12-14-26)9-4-10-27-20-5-2-3-6-22(20)30-23-8-7-19(24)17-21(23)27/h2-3,5-8,17H,4,9-16H2,1H3

> <INCHI_KEY>
AIUHRQHVWSUTGJ-UHFFFAOYSA-N

> <FORMULA>
C23H28ClN3O2S

> <MOLECULAR_WEIGHT>
446.01

> <EXACT_MASS>
445.159076

> <JCHEM_ACCEPTOR_COUNT>
4

> <JCHEM_ATOM_COUNT>
58

> <JCHEM_AVERAGE_POLARIZABILITY>
49.23231156821052

> <JCHEM_BIOAVAILABILITY>
1

> <JCHEM_DONOR_COUNT>
0

> <JCHEM_FORMAL_CHARGE>
0

> <JCHEM_GHOSE_FILTER>
1

> <JCHEM_IUPAC>
2-{4-[3-(2-chloro-10H-phenothiazin-10-yl)propyl]piperazin-1-yl}ethyl acetate

> <ALOGPS_LOGP>
4.64

> <JCHEM_LOGP>
4.133143219666666

> <ALOGPS_LOGS>
-4.84

> <JCHEM_MDDR_LIKE_RULE>
1

> <JCHEM_NUMBER_OF_RINGS>
4

> <JCHEM_PHYSIOLOGICAL_CHARGE>
1

> <JCHEM_PKA_STRONGEST_BASIC>
7.501661538298876

> <JCHEM_POLAR_SURFACE_AREA>
36.019999999999996

> <JCHEM_REFRACTIVITY>
125.25019999999996

> <JCHEM_ROTATABLE_BOND_COUNT>
8

> <JCHEM_RULE_OF_FIVE>
1

> <ALOGPS_SOLUBILITY>
6.39e-03 g/l

> <JCHEM_TRADITIONAL_IUPAC>
thiopropazate

> <JCHEM_VEBER_RULE>
1

> <DRUGBANK_ID>
DB13557

> <DRUG_GROUPS>
experimental

> <GENERIC_NAME>
Thiopropazate

> <SYNONYMS>
Thiopropazate; tiopropazato

$$$$
