REMARK  Name = 65772
REMARK  7 active torsions:
REMARK  status: ('A' for Active; 'I' for Inactive)
REMARK    1  A    between atoms: C_2  and  C_17
REMARK    2  A    between atoms: C_9  and  O_13
REMARK    3  A    between atoms: C_10  and  O_15
REMARK    4  A    between atoms: C_17  and  C_18
REMARK    5  A    between atoms: C_21  and  O_24
REMARK    6  A    between atoms: C_22  and  O_26
REMARK    7  A    between atoms: C_23  and  O_28
REMARK                            x       y       z     vdW  Elec       q    Type
REMARK                         _______ _______ _______ _____ _____    ______ ____
ROOT
ATOM      1  N   UNL     1      -0.647   2.913  -0.269  0.00  0.00    +0.388 N 
ATOM      2  C   UNL     1      -1.269   1.946  -1.195  0.00  0.00    -0.034 C 
ATOM      3  C   UNL     1      -2.030   0.831  -0.490  0.00  0.00    -0.043 C 
ATOM      4  C   UNL     1      -2.387   0.962   0.868  0.00  0.00    -0.027 C 
ATOM      5  C   UNL     1      -1.968   2.176   1.657  0.00  0.00    +0.003 C 
ATOM      6  C   UNL     1      -1.597   3.347   0.752  0.00  0.00    -0.076 C 
ATOM      7  C   UNL     1      -2.461  -0.309  -1.189  0.00  0.00    +0.033 C 
ATOM      8  C   UNL     1      -3.101  -0.060   1.509  0.00  0.00    +0.035 C 
ATOM      9  C   UNL     1      -3.182  -1.316  -0.545  0.00  0.00    +0.167 C 
ATOM     10  C   UNL     1      -3.496  -1.195   0.805  0.00  0.00    +0.167 C 
ATOM     11  H   UNL     1      -0.331   3.726  -0.798  0.00  0.00    -0.084 HD
ATOM     12  H   UNL     1       0.142   2.460   0.193  0.00  0.00    -0.084 HD
ENDROOT
BRANCH   9  13
ATOM     13  O   UNL     1      -3.576  -2.412  -1.252  0.00  0.00    -0.503 OA
ATOM     14  H   UNL     1      -3.360  -2.486  -2.160  0.00  0.00    +0.292 HD
ENDBRANCH   9  13
BRANCH  10  15
ATOM     15  O   UNL     1      -4.195  -2.173   1.445  0.00  0.00    -0.503 OA
ATOM     16  H   UNL     1      -4.402  -2.082   2.354  0.00  0.00    +0.292 HD
ENDBRANCH  10  15
BRANCH   2  17
ATOM     17  C   UNL     1      -0.150   1.433  -2.111  0.00  0.00    +0.009 C 
BRANCH  17  18
ATOM     18  C   UNL     1       0.890   0.679  -1.334  0.00  0.00    -0.018 C 
ATOM     19  C   UNL     1       0.753  -0.692  -1.152  0.00  0.00    +0.036 C 
ATOM     20  C   UNL     1       1.980   1.360  -0.805  0.00  0.00    +0.036 C 
ATOM     21  C   UNL     1       2.947   0.660  -0.083  0.00  0.00    +0.175 C 
ATOM     22  C   UNL     1       1.720  -1.392  -0.430  0.00  0.00    +0.175 C 
ATOM     23  C   UNL     1       2.817  -0.716   0.105  0.00  0.00    +0.206 C 
BRANCH  21  24
ATOM     24  O   UNL     1       4.013   1.333   0.434  0.00  0.00    -0.468 OA
ATOM     25  C   UNL     1       3.869   1.860   1.752  0.00  0.00    +0.253 C 
ENDBRANCH  21  24
BRANCH  22  26
ATOM     26  O   UNL     1       1.581  -2.736  -0.255  0.00  0.00    -0.468 OA
ATOM     27  C   UNL     1       0.866  -3.168   0.901  0.00  0.00    +0.253 C 
ENDBRANCH  22  26
BRANCH  23  28
ATOM     28  O   UNL     1       3.762  -1.401   0.809  0.00  0.00    -0.465 OA
ATOM     29  C   UNL     1       4.860  -1.932   0.071  0.00  0.00    +0.253 C 
ENDBRANCH  23  28
ENDBRANCH  17  18
ENDBRANCH   2  17
TORSDOF 7
