118984411
  -OEChem-10061700223D

 54 57  0     1  0  0  0  0  0999 V2000
   -3.8474   -1.2253   -1.5712 S   0  0  0  0  0  0  0  0  0  0  0  0
   -3.2742    2.5799    0.7624 S   0  0  0  0  0  0  0  0  0  0  0  0
   -0.0974   -0.0187    0.8699 O   0  0  0  0  0  0  0  0  0  0  0  0
   -0.9846   -1.9445   -0.0200 O   0  0  0  0  0  0  0  0  0  0  0  0
   -2.4991    0.0136    2.0317 O   0  0  0  0  0  0  0  0  0  0  0  0
    3.6085    0.9246    0.3497 N   0  0  2  0  0  0  0  0  0  0  0  0
    3.2498   -0.2221   -0.4963 C   0  0  2  0  0  0  0  0  0  0  0  0
    4.5594   -0.6733   -1.1223 C   0  0  0  0  0  0  0  0  0  0  0  0
    3.6074    0.3586    1.6755 C   0  0  2  0  0  0  0  0  0  0  0  0
    5.5149   -0.8189    0.1705 C   0  0  0  0  0  0  0  0  0  0  0  0
    1.7662   -0.3035   -0.7113 C   0  0  0  0  0  0  0  0  0  0  0  0
    4.7452   -0.7475    1.5902 C   0  0  0  0  0  0  0  0  0  0  0  0
    2.1273   -0.1020    1.9710 C   0  0  0  0  0  0  0  0  0  0  0  0
    1.2101   -0.5671    0.7448 C   0  0  1  0  0  0  0  0  0  0  0  0
    5.1309    0.3421   -2.1211 C   0  0  0  0  0  0  0  0  0  0  0  0
    4.4126   -2.0270   -1.8374 C   0  0  0  0  0  0  0  0  0  0  0  0
    2.9197    2.1856    0.1720 C   0  0  0  0  0  0  0  0  0  0  0  0
   -1.1282   -0.8203    0.4452 C   0  0  0  0  0  0  0  0  0  0  0  0
   -2.4704   -0.0993    0.5943 C   0  0  0  0  0  0  0  0  0  0  0  0
   -3.6710   -0.9114    0.1028 C   0  0  0  0  0  0  0  0  0  0  0  0
   -2.4635    1.2973   -0.0313 C   0  0  0  0  0  0  0  0  0  0  0  0
   -4.6945   -1.4617    0.8427 C   0  0  0  0  0  0  0  0  0  0  0  0
   -1.8711    1.7080   -1.2052 C   0  0  0  0  0  0  0  0  0  0  0  0
   -5.6358   -2.1505    0.0243 C   0  0  0  0  0  0  0  0  0  0  0  0
   -2.0855    3.0939   -1.4563 C   0  0  0  0  0  0  0  0  0  0  0  0
   -5.2959   -2.1002   -1.3097 C   0  0  0  0  0  0  0  0  0  0  0  0
   -2.8335    3.6897   -0.4649 C   0  0  0  0  0  0  0  0  0  0  0  0
    3.2096   -1.1608    0.0823 H   0  0  0  0  0  0  0  0  0  0  0  0
    3.9147    1.0883    2.4346 H   0  0  0  0  0  0  0  0  0  0  0  0
    6.2521   -0.0048    0.1646 H   0  0  0  0  0  0  0  0  0  0  0  0
    6.0844   -1.7546    0.1270 H   0  0  0  0  0  0  0  0  0  0  0  0
    1.4924   -1.1397   -1.3655 H   0  0  0  0  0  0  0  0  0  0  0  0
    1.3335    0.5931   -1.1657 H   0  0  0  0  0  0  0  0  0  0  0  0
    4.3263   -1.7367    1.8153 H   0  0  0  0  0  0  0  0  0  0  0  0
    5.4987   -0.5443    2.3611 H   0  0  0  0  0  0  0  0  0  0  0  0
    2.1432   -0.9023    2.7214 H   0  0  0  0  0  0  0  0  0  0  0  0
    1.6124    0.7405    2.4537 H   0  0  0  0  0  0  0  0  0  0  0  0
    1.1581   -1.6598    0.8653 H   0  0  0  0  0  0  0  0  0  0  0  0
    3.7019   -1.9562   -2.6682 H   0  0  0  0  0  0  0  0  0  0  0  0
    4.4357    0.5035   -2.9525 H   0  0  0  0  0  0  0  0  0  0  0  0
    4.0560   -2.8086   -1.1572 H   0  0  0  0  0  0  0  0  0  0  0  0
    5.3735   -2.3622   -2.2436 H   0  0  0  0  0  0  0  0  0  0  0  0
    6.0797   -0.0130   -2.5386 H   0  0  0  0  0  0  0  0  0  0  0  0
    5.3274    1.3150   -1.6589 H   0  0  0  0  0  0  0  0  0  0  0  0
    3.4060    2.9620    0.7731 H   0  0  0  0  0  0  0  0  0  0  0  0
    1.8636    2.1677    0.4572 H   0  0  0  0  0  0  0  0  0  0  0  0
    2.9865    2.5129   -0.8712 H   0  0  0  0  0  0  0  0  0  0  0  0
   -1.8204    0.6568    2.3014 H   0  0  0  0  0  0  0  0  0  0  0  0
   -4.7749   -1.3803    1.9191 H   0  0  0  0  0  0  0  0  0  0  0  0
   -1.3081    1.0538   -1.8587 H   0  0  0  0  0  0  0  0  0  0  0  0
   -6.5174   -2.6569    0.3951 H   0  0  0  0  0  0  0  0  0  0  0  0
   -1.7097    3.6268   -2.3200 H   0  0  0  0  0  0  0  0  0  0  0  0
   -5.8290   -2.5353   -2.1432 H   0  0  0  0  0  0  0  0  0  0  0  0
   -3.1423    4.7237   -0.4025 H   0  0  0  0  0  0  0  0  0  0  0  0
  1 20  1  0  0  0  0
  1 26  1  0  0  0  0
  2 21  1  0  0  0  0
  2 27  1  0  0  0  0
  3 14  1  0  0  0  0
  3 18  1  0  0  0  0
  4 18  2  0  0  0  0
  5 19  1  0  0  0  0
  5 48  1  0  0  0  0
  6  7  1  0  0  0  0
  6  9  1  0  0  0  0
  6 17  1  0  0  0  0
  7  8  1  0  0  0  0
  7 11  1  0  0  0  0
  7 28  1  0  0  0  0
  8 10  1  0  0  0  0
  8 15  1  0  0  0  0
  8 16  1  0  0  0  0
  9 12  1  0  0  0  0
  9 13  1  0  0  0  0
  9 29  1  0  0  0  0
 10 12  1  0  0  0  0
 10 30  1  0  0  0  0
 10 31  1  0  0  0  0
 11 14  1  0  0  0  0
 11 32  1  0  0  0  0
 11 33  1  0  0  0  0
 12 34  1  0  0  0  0
 12 35  1  0  0  0  0
 13 14  1  0  0  0  0
 13 36  1  0  0  0  0
 13 37  1  0  0  0  0
 14 38  1  0  0  0  0
 15 40  1  0  0  0  0
 15 43  1  0  0  0  0
 15 44  1  0  0  0  0
 16 39  1  0  0  0  0
 16 41  1  0  0  0  0
 16 42  1  0  0  0  0
 17 45  1  0  0  0  0
 17 46  1  0  0  0  0
 17 47  1  0  0  0  0
 18 19  1  0  0  0  0
 19 20  1  0  0  0  0
 19 21  1  0  0  0  0
 20 22  2  0  0  0  0
 21 23  2  0  0  0  0
 22 24  1  0  0  0  0
 22 49  1  0  0  0  0
 23 25  1  0  0  0  0
 23 50  1  0  0  0  0
 24 26  2  0  0  0  0
 24 51  1  0  0  0  0
 25 27  2  0  0  0  0
 25 52  1  0  0  0  0
 26 53  1  0  0  0  0
 27 54  1  0  0  0  0
M  END
> <DATABASE_ID>
DB13448

> <DATABASE_NAME>
drugbank

> <ORIGINAL_SOURCE>
PUBCHEM

> <ORIGINAL_SOURCE_URL>
https://pubchem.ncbi.nlm.nih.gov/rest/pug/compound/inchikey/AMHPTVWBZSYFSS-OAGGEKHMSA-N/SDF?record_type=3d

> <SMILES>
CN1[C@@H]2CCC(C)(C)[C@@H]1C[C@@H](C2)OC(=O)C(O)(C1=CC=CS1)C1=CC=CS1

> <INCHI_IDENTIFIER>
InChI=1S/C21H27NO3S2/c1-20(2)9-8-14-12-15(13-16(20)22(14)3)25-19(23)21(24,17-6-4-10-26-17)18-7-5-11-27-18/h4-7,10-11,14-16,24H,8-9,12-13H2,1-3H3/t14-,15-,16+/m1/s1

> <INCHI_KEY>
AMHPTVWBZSYFSS-OAGGEKHMSA-N

> <FORMULA>
C21H27NO3S2

> <MOLECULAR_WEIGHT>
405.57

> <EXACT_MASS>
405.143236081

> <JCHEM_ACCEPTOR_COUNT>
3

> <JCHEM_ATOM_COUNT>
54

> <JCHEM_AVERAGE_POLARIZABILITY>
43.46190086510783

> <JCHEM_BIOAVAILABILITY>
1

> <JCHEM_DONOR_COUNT>
1

> <JCHEM_FORMAL_CHARGE>
0

> <JCHEM_GHOSE_FILTER>
1

> <JCHEM_IUPAC>
(1R,3R,5S)-6,6,9-trimethyl-9-azabicyclo[3.3.1]nonan-3-yl 2-hydroxy-2,2-bis(thiophen-2-yl)acetate

> <ALOGPS_LOGP>
4.18

> <JCHEM_LOGP>
4.01014221691052

> <ALOGPS_LOGS>
-3.95

> <JCHEM_MDDR_LIKE_RULE>
0

> <JCHEM_NUMBER_OF_RINGS>
4

> <JCHEM_PHYSIOLOGICAL_CHARGE>
1

> <JCHEM_PKA_STRONGEST_ACIDIC>
10.398250063108035

> <JCHEM_PKA_STRONGEST_BASIC>
9.36256818935029

> <JCHEM_POLAR_SURFACE_AREA>
49.769999999999996

> <JCHEM_REFRACTIVITY>
107.83420000000001

> <JCHEM_ROTATABLE_BOND_COUNT>
5

> <JCHEM_RULE_OF_FIVE>
1

> <ALOGPS_SOLUBILITY>
4.57e-02 g/l

> <JCHEM_TRADITIONAL_IUPAC>
(1R,3R,5S)-6,6,9-trimethyl-9-azabicyclo[3.3.1]nonan-3-yl hydroxybis(thiophen-2-yl)acetate

> <JCHEM_VEBER_RULE>
0

> <DRUGBANK_ID>
DB13448

> <DRUG_GROUPS>
experimental

> <GENERIC_NAME>
Mazaticol

$$$$
