REMARK  Name = 35949
REMARK  8 active torsions:
REMARK  status: ('A' for Active; 'I' for Inactive)
REMARK    1  A    between atoms: C_1  and  O_20
REMARK    2  A    between atoms: C_2  and  O_7
REMARK    3  A    between atoms: C_3  and  O_9
REMARK    4  A    between atoms: C_4  and  C_12
REMARK    5  A    between atoms: C_12  and  C_14
REMARK    6  A    between atoms: O_20  and  C_21
REMARK    7  A    between atoms: C_21  and  C_22
REMARK    8  A    between atoms: C_22  and  N_24
REMARK                            x       y       z     vdW  Elec       q    Type
REMARK                         _______ _______ _______ _____ _____    ______ ____
ROOT
ATOM      1  C   UNL     1      -0.686   0.956   0.529  0.00  0.00    +0.206 C 
ATOM      2  C   UNL     1      -0.253   2.084  -0.161  0.00  0.00    +0.176 C 
ATOM      3  C   UNL     1       0.193  -0.090   0.793  0.00  0.00    +0.176 C 
ATOM      4  C   UNL     1       1.957   1.122  -0.328  0.00  0.00    +0.045 C 
ATOM      5  C   UNL     1       1.071   2.167  -0.591  0.00  0.00    +0.043 C 
ATOM      6  C   UNL     1       1.518  -0.007   0.364  0.00  0.00    +0.043 C 
ENDROOT
BRANCH   2   7
ATOM      7  O   UNL     1      -1.108   3.112  -0.423  0.00  0.00    -0.468 OA
ATOM      8  C   UNL     1      -1.191   4.150   0.551  0.00  0.00    +0.253 C 
ENDBRANCH   2   7
BRANCH   3   9
ATOM      9  O   UNL     1      -0.223  -1.198   1.468  0.00  0.00    -0.468 OA
ATOM     10  C   UNL     1      -0.099  -1.176   2.889  0.00  0.00    +0.253 C 
ENDBRANCH   3   9
BRANCH   4  12
ATOM     11  O   UNL     1       3.734   2.211  -1.390  0.00  0.00    -0.287 OA
ATOM     12  C   UNL     1       3.338   1.210  -0.774  0.00  0.00    +0.196 C 
BRANCH  12  14
ATOM     13 CL   UNL     1       7.307  -3.125   0.240  0.00  0.00    -0.082 Cl
ATOM     14  C   UNL     1       4.332   0.124  -0.520  0.00  0.00    +0.039 C 
ATOM     15  C   UNL     1       5.074   0.169   0.637  0.00  0.00    +0.004 C 
ATOM     16  C   UNL     1       4.466  -0.877  -1.454  0.00  0.00    +0.004 C 
ATOM     17  C   UNL     1       6.002  -0.845   0.875  0.00  0.00    +0.011 C 
ATOM     18  C   UNL     1       5.394  -1.891  -1.216  0.00  0.00    +0.011 C 
ATOM     19  C   UNL     1       6.162  -1.875  -0.052  0.00  0.00    +0.058 C 
ENDBRANCH  12  14
ENDBRANCH   4  12
BRANCH   1  20
ATOM     20  O   UNL     1      -1.987   0.873   0.950  0.00  0.00    -0.472 OA
BRANCH  20  21
ATOM     21  C   UNL     1      -2.917   0.286   0.049  0.00  0.00    +0.183 C 
BRANCH  21  22
ATOM     22  C   UNL     1      -4.288   0.267   0.706  0.00  0.00    -0.029 C 
BRANCH  22  24
ATOM     23  O   UNL     1      -7.295  -2.221  -0.837  0.00  0.00    -0.358 OA
ATOM     24  N   UNL     1      -5.283  -0.314  -0.194  0.00  0.00    +0.393 N 
ATOM     25  C   UNL     1      -6.626  -0.243   0.398  0.00  0.00    -0.044 C 
ATOM     26  C   UNL     1      -4.946  -1.708  -0.513  0.00  0.00    -0.044 C 
ATOM     27  C   UNL     1      -7.644  -0.866  -0.552  0.00  0.00    +0.119 C 
ATOM     28  C   UNL     1      -6.004  -2.295  -1.443  0.00  0.00    +0.119 C 
ATOM     29  H   UNL     1      -5.278   0.229  -1.057  0.00  0.00    -0.079 HD
ENDBRANCH  22  24
ENDBRANCH  21  22
ENDBRANCH  20  21
ENDBRANCH   1  20
TORSDOF 8
