REMARK  Name = 9796068
REMARK  2 active torsions:
REMARK  status: ('A' for Active; 'I' for Inactive)
REMARK    1  A    between atoms: C_2  and  C_10
REMARK    2  A    between atoms: C_3  and  N_15
REMARK                            x       y       z     vdW  Elec       q    Type
REMARK                         _______ _______ _______ _____ _____    ______ ____
ROOT
ATOM      1  I   UNL     1      -3.144  -1.937   0.004  0.00  0.00    -0.041 I 
ATOM      2  C   UNL     1       1.405  -0.152  -0.003  0.00  0.00    +0.055 C 
ATOM      3  C   UNL     1      -0.978   0.252  -0.001  0.00  0.00    +0.148 C 
ATOM      4  C   UNL     1       0.330   0.738  -0.003  0.00  0.00    +0.029 C 
ATOM      5  C   UNL     1       1.171  -1.527  -0.001  0.00  0.00    +0.005 C 
ATOM      6  C   UNL     1      -1.211  -1.123   0.001  0.00  0.00    +0.052 C 
ATOM      7  C   UNL     1      -0.136  -2.013   0.001  0.00  0.00    +0.008 C 
ENDROOT
BRANCH   2  10
ATOM      8  O   UNL     1       3.007   1.574   0.011  0.00  0.00    -0.270 OA
ATOM      9  N   UNL     1       3.804  -0.576  -0.003  0.00  0.00    -0.325 N 
ATOM     10  C   UNL     1       2.768   0.354  -0.004  0.00  0.00    +0.243 C 
ATOM     11  H   UNL     1       4.740  -0.271  -0.004  0.00  0.00    +0.145 HD
ATOM     12  H   UNL     1       3.600  -1.540  -0.002  0.00  0.00    +0.145 HD
ENDBRANCH   2  10
BRANCH   3  15
ATOM     13  O   UNL     1      -1.757   2.422  -0.003  0.00  0.00    -0.126 OA
ATOM     14  O   UNL     1      -3.221   0.786   0.000  0.00  0.00    -0.126 OA
ATOM     15  N   UNL     1      -2.039   1.202  -0.001  0.00  0.00    +0.058 N 
ENDBRANCH   3  15
TORSDOF 2
