REMARK  Name = 30951
REMARK  6 active torsions:
REMARK  status: ('A' for Active; 'I' for Inactive)
REMARK    1  A    between atoms: C_2  and  C_12
REMARK    2  A    between atoms: C_5  and  O_8
REMARK    3  A    between atoms: O_8  and  C_9
REMARK    4  A    between atoms: C_9  and  C_10
REMARK    5  A    between atoms: C_12  and  C_14
REMARK    6  A    between atoms: C_14  and  O_15
REMARK                            x       y       z     vdW  Elec       q    Type
REMARK                         _______ _______ _______ _____ _____    ______ ____
ROOT
ATOM      1 CL   UNL     1      -1.371   2.532  -0.605  0.00  0.00    -0.079 Cl
ATOM      2  C   UNL     1       1.639   0.209   0.620  0.00  0.00    -0.010 C 
ATOM      3  C   UNL     1       0.906   1.254   0.058  0.00  0.00    +0.011 C 
ATOM      4  C   UNL     1       0.979  -0.864   1.220  0.00  0.00    -0.001 C 
ATOM      5  C   UNL     1      -1.149   0.154   0.696  0.00  0.00    +0.149 C 
ATOM      6  C   UNL     1      -0.488   1.226   0.096  0.00  0.00    +0.091 C 
ATOM      7  C   UNL     1      -0.415  -0.891   1.258  0.00  0.00    +0.037 C 
ENDROOT
BRANCH   5   8
ATOM      8  O   UNL     1      -2.510   0.101   0.748  0.00  0.00    -0.470 OA
BRANCH   8   9
ATOM      9  C   UNL     1      -3.139  -1.010   0.114  0.00  0.00    +0.232 C 
BRANCH   9  10
ATOM     10  C   UNL     1      -4.507  -0.602  -0.322  0.00  0.00    +0.021 C 
ATOM     11  C   UNL     1      -4.924  -0.626  -1.593  0.00  0.00    -0.001 C 
ENDBRANCH   9  10
ENDBRANCH   8   9
ENDBRANCH   5   8
BRANCH   2  12
ATOM     12  C   UNL     1       3.130   0.238   0.580  0.00  0.00    +0.136 C 
BRANCH  12  14
ATOM     13  O   UNL     1       3.065  -0.971  -1.534  0.00  0.00    -0.250 OA
ATOM     14  C   UNL     1       3.714  -0.420  -0.655  0.00  0.00    +0.318 C 
BRANCH  14  15
ATOM     15  O   UNL     1       5.070  -0.331  -0.683  0.00  0.00    -0.480 OA
ATOM     16  H   UNL     1       5.525   0.101   0.013  0.00  0.00    +0.295 HD
ENDBRANCH  14  15
ENDBRANCH  12  14
ENDBRANCH   2  12
TORSDOF 6
