REMARK  Name = 5902
REMARK  12 active torsions:
REMARK  status: ('A' for Active; 'I' for Inactive)
REMARK    1  A    between atoms: C_1  and  C_2
REMARK    2  A    between atoms: C_1  and  N_8
REMARK    3  A    between atoms: C_1  and  C_20
REMARK    4  A    between atoms: N_8  and  C_11
REMARK    5  A    between atoms: C_11  and  C_12
REMARK    6  A    between atoms: C_12  and  N_13
REMARK    7  A    between atoms: N_13  and  C_15
REMARK    8  A    between atoms: N_13  and  C_17
REMARK    9  A    between atoms: C_20  and  O_21
REMARK   10  A    between atoms: O_21  and  C_22
REMARK   11  A    between atoms: C_22  and  C_23
REMARK   12  A    between atoms: C_23  and  C_24
REMARK                            x       y       z     vdW  Elec       q    Type
REMARK                         _______ _______ _______ _____ _____    ______ ____
ROOT
ATOM      1  C   UNL     1      -0.107   1.032  -0.346  0.00  0.00    +0.063 C 
ENDROOT
BRANCH   1   2
ATOM      2  C   UNL     1       0.613   2.354  -0.181  0.00  0.00    -0.032 C 
ATOM      3  C   UNL     1       0.645   3.267  -1.236  0.00  0.00    -0.006 C 
ATOM      4  C   UNL     1       1.244   2.659   1.025  0.00  0.00    -0.006 C 
ATOM      5  C   UNL     1       1.308   4.484  -1.084  0.00  0.00    -0.000 C 
ATOM      6  C   UNL     1       1.907   3.877   1.176  0.00  0.00    -0.000 C 
ATOM      7  C   UNL     1       1.939   4.790   0.122  0.00  0.00    -0.000 C 
ENDBRANCH   1   2
BRANCH   1   8
ATOM      8  N   UNL     1       0.526  -0.024   0.448  0.00  0.00    +0.393 N 
ATOM      9  H   UNL     1       0.796   0.355   1.356  0.00  0.00    -0.083 HD
ATOM     10  H   UNL     1      -0.140  -0.788   0.569  0.00  0.00    -0.083 HD
BRANCH   8  11
ATOM     11  C   UNL     1       1.707  -0.535  -0.227  0.00  0.00    -0.104 C 
BRANCH  11  12
ATOM     12  C   UNL     1       2.356  -1.636   0.607  0.00  0.00    -0.101 C 
BRANCH  12  13
ATOM     13  N   UNL     1       3.531  -2.161  -0.080  0.00  0.00    +0.385 N 
ATOM     14  H   UNL     1       4.030  -1.378  -0.502  0.00  0.00    -0.080 HD
BRANCH  13  15
ATOM     15  C   UNL     1       3.135  -3.087  -1.142  0.00  0.00    -0.078 C 
ATOM     16  C   UNL     1       4.346  -3.592  -1.909  0.00  0.00    -0.025 C 
ENDBRANCH  13  15
BRANCH  13  17
ATOM     17  C   UNL     1       4.426  -2.826   0.868  0.00  0.00    -0.078 C 
ATOM     18  C   UNL     1       3.751  -4.025   1.512  0.00  0.00    -0.025 C 
ENDBRANCH  13  17
ENDBRANCH  12  13
ENDBRANCH  11  12
ENDBRANCH   8  11
ENDBRANCH   1   8
BRANCH   1  20
ATOM     19  O   UNL     1      -2.136   2.126   0.459  0.00  0.00    -0.252 OA
ATOM     20  C   UNL     1      -1.569   1.115   0.063  0.00  0.00    +0.301 C 
BRANCH  20  21
ATOM     21  O   UNL     1      -2.164  -0.110  -0.098  0.00  0.00    -0.450 OA
BRANCH  21  22
ATOM     22  C   UNL     1      -3.547  -0.177   0.230  0.00  0.00    +0.208 C 
BRANCH  22  23
ATOM     23  C   UNL     1      -4.037  -1.601  -0.006  0.00  0.00    +0.047 C 
BRANCH  23  24
ATOM     24  C   UNL     1      -5.531  -1.799   0.294  0.00  0.00    +0.004 C 
ATOM     25  C   UNL     1      -6.367  -0.881  -0.600  0.00  0.00    +0.000 C 
ATOM     26  C   UNL     1      -5.976  -3.250   0.105  0.00  0.00    +0.000 C 
ENDBRANCH  23  24
ENDBRANCH  22  23
ENDBRANCH  21  22
ENDBRANCH  20  21
ENDBRANCH   1  20
TORSDOF 12
