REMARK  Name = 6446788
REMARK  6 active torsions:
REMARK  status: ('A' for Active; 'I' for Inactive)
REMARK    1  A    between atoms: C_1  and  C_5
REMARK    2  A    between atoms: C_2  and  C_13
REMARK    3  A    between atoms: C_2  and  C_16
REMARK    4  A    between atoms: C_6  and  N_11
REMARK    5  A    between atoms: C_16  and  O_17
REMARK    6  A    between atoms: O_17  and  C_18
REMARK                            x       y       z     vdW  Elec       q    Type
REMARK                         _______ _______ _______ _____ _____    ______ ____
ROOT
ATOM      1  C   UNL     1       0.285  -0.634   0.415  0.00  0.00    +0.044 C 
ATOM      2  C   UNL     1       1.466  -0.039   0.161  0.00  0.00    +0.113 C 
ENDROOT
BRANCH   1   5
ATOM      3  N   UNL     1      -2.072  -0.684   0.026  0.00  0.00    -0.251 N 
ATOM      4  N   UNL     1      -1.250   1.272   0.680  0.00  0.00    -0.226 NA
ATOM      5  C   UNL     1      -0.979   0.032   0.392  0.00  0.00    +0.137 C 
ATOM      6  C   UNL     1      -3.138   0.169   0.085  0.00  0.00    +0.218 C 
ATOM      7  C   UNL     1      -2.129  -2.080  -0.357  0.00  0.00    +0.120 C 
ATOM      8  C   UNL     1      -2.606   1.370   0.491  0.00  0.00    +0.140 C 
BRANCH   6  11
ATOM      9  O   UNL     1      -5.378   0.654  -0.141  0.00  0.00    -0.125 OA
ATOM     10  O   UNL     1      -4.696  -1.391  -0.581  0.00  0.00    -0.125 OA
ATOM     11  N   UNL     1      -4.451  -0.203  -0.223  0.00  0.00    +0.074 N 
ENDBRANCH   6  11
ENDBRANCH   1   5
BRANCH   2  13
ATOM     12  O   UNL     1       1.675   2.266   0.704  0.00  0.00    -0.291 OA
ATOM     13  C   UNL     1       1.548   1.416  -0.176  0.00  0.00    +0.180 C 
ATOM     14  C   UNL     1       1.455   1.798  -1.630  0.00  0.00    +0.077 C 
ENDBRANCH   2  13
BRANCH   2  16
ATOM     15  O   UNL     1       2.664  -2.103   0.487  0.00  0.00    -0.245 OA
ATOM     16  C   UNL     1       2.676  -0.909   0.225  0.00  0.00    +0.344 C 
BRANCH  16  17
ATOM     17  O   UNL     1       3.775  -0.163  -0.072  0.00  0.00    -0.445 OA
BRANCH  17  18
ATOM     18  C   UNL     1       5.021  -0.868  -0.071  0.00  0.00    +0.209 C 
ATOM     19  C   UNL     1       6.134   0.098  -0.418  0.00  0.00    +0.051 C 
ENDBRANCH  17  18
ENDBRANCH  16  17
ENDBRANCH   2  16
TORSDOF 6
