REMARK  Name = 6465
REMARK  2 active torsions:
REMARK  status: ('A' for Active; 'I' for Inactive)
REMARK    1  A    between atoms: C_4  and  C_10
REMARK    2  A    between atoms: C_4  and  C_12
REMARK                            x       y       z     vdW  Elec       q    Type
REMARK                         _______ _______ _______ _____ _____    ______ ____
ROOT
ATOM      1  O   UNL     1       1.353   1.973  -0.731  0.00  0.00    -0.296 OA
ATOM      2  O   UNL     1      -1.476  -1.377   1.125  0.00  0.00    -0.275 OA
ATOM      3  N   UNL     1       0.634  -1.884   0.414  0.00  0.00    -0.304 N 
ATOM      4  C   UNL     1      -0.327   0.314  -0.186  0.00  0.00    +0.120 C 
ATOM      5  C   UNL     1       1.110   0.830  -0.338  0.00  0.00    +0.160 C 
ATOM      6  C   UNL     1      -0.451  -1.040   0.530  0.00  0.00    +0.228 C 
ATOM      7  C   UNL     1       2.237  -0.100   0.043  0.00  0.00    +0.086 C 
ATOM      8  C   UNL     1       1.845  -1.523  -0.286  0.00  0.00    +0.097 C 
ATOM      9  H   UNL     1       0.580  -2.775   0.828  0.00  0.00    +0.149 HD
ENDROOT
BRANCH   4  10
ATOM     10  C   UNL     1      -1.133   1.362   0.597  0.00  0.00    +0.016 C 
ATOM     11  C   UNL     1      -0.519   1.618   1.956  0.00  0.00    +0.001 C 
ENDBRANCH   4  10
BRANCH   4  12
ATOM     12  C   UNL     1      -0.919   0.153  -1.594  0.00  0.00    +0.016 C 
ATOM     13  C   UNL     1      -2.354  -0.324  -1.528  0.00  0.00    +0.001 C 
ENDBRANCH   4  12
TORSDOF 2
