31796
  -OEChem-10061700313D

 54 56  0     1  0  0  0  0  0999 V2000
   -4.8037    1.4637   -1.3027 O   0  0  0  0  0  0  0  0  0  0  0  0
   -0.5029    0.9805    0.1999 O   0  0  0  0  0  0  0  0  0  0  0  0
    6.4580   -0.1888   -0.2475 O   0  0  0  0  0  0  0  0  0  0  0  0
   -2.2392    1.6227    1.5819 O   0  0  0  0  0  0  0  0  0  0  0  0
    3.6613    0.3380   -0.3011 N   0  0  0  0  0  0  0  0  0  0  0  0
   -2.5889   -0.0592   -0.1273 C   0  0  0  0  0  0  0  0  0  0  0  0
   -4.0431   -0.0902    0.4106 C   0  0  0  0  0  0  0  0  0  0  0  0
   -2.6295    0.4311   -1.5979 C   0  0  0  0  0  0  0  0  0  0  0  0
   -1.9147   -1.4283    0.0596 C   0  0  0  0  0  0  0  0  0  0  0  0
   -4.8226    1.1843    0.0928 C   0  0  0  0  0  0  0  0  0  0  0  0
   -3.4803    1.6854   -1.7790 C   0  0  0  0  0  0  0  0  0  0  0  0
   -1.7837    0.9504    0.6667 C   0  0  0  0  0  0  0  0  0  0  0  0
    0.3722    1.8975    0.8643 C   0  0  1  0  0  0  0  0  0  0  0  0
    1.7673    1.8048    0.2380 C   0  0  0  0  0  0  0  0  0  0  0  0
    2.3400    0.3876    0.3213 C   0  0  0  0  0  0  0  0  0  0  0  0
    4.5988    1.2319    0.3928 C   0  0  0  0  0  0  0  0  0  0  0  0
    4.1849   -1.0352   -0.3053 C   0  0  0  0  0  0  0  0  0  0  0  0
   -1.7926   -1.9714    1.3359 C   0  0  0  0  0  0  0  0  0  0  0  0
   -1.4300   -2.1187   -1.0482 C   0  0  0  0  0  0  0  0  0  0  0  0
    5.9726    1.1540   -0.2669 C   0  0  0  0  0  0  0  0  0  0  0  0
    5.5690   -1.0601   -0.9476 C   0  0  0  0  0  0  0  0  0  0  0  0
   -0.1987    3.3031    0.7337 C   0  0  0  0  0  0  0  0  0  0  0  0
   -1.1812   -3.2137    1.5057 C   0  0  0  0  0  0  0  0  0  0  0  0
   -0.8187   -3.3610   -0.8784 C   0  0  0  0  0  0  0  0  0  0  0  0
   -0.6943   -3.9084    0.3986 C   0  0  0  0  0  0  0  0  0  0  0  0
   -4.5672   -0.9344   -0.0589 H   0  0  0  0  0  0  0  0  0  0  0  0
   -4.0773   -0.2627    1.4931 H   0  0  0  0  0  0  0  0  0  0  0  0
   -1.6285    0.6166   -2.0054 H   0  0  0  0  0  0  0  0  0  0  0  0
   -3.0998   -0.3431   -2.2195 H   0  0  0  0  0  0  0  0  0  0  0  0
   -4.4574    2.0567    0.6436 H   0  0  0  0  0  0  0  0  0  0  0  0
   -5.8696    1.0465    0.3833 H   0  0  0  0  0  0  0  0  0  0  0  0
   -3.0437    2.5528   -1.2710 H   0  0  0  0  0  0  0  0  0  0  0  0
   -3.5490    1.9327   -2.8434 H   0  0  0  0  0  0  0  0  0  0  0  0
    0.4440    1.6192    1.9237 H   0  0  0  0  0  0  0  0  0  0  0  0
    1.7149    2.1065   -0.8163 H   0  0  0  0  0  0  0  0  0  0  0  0
    2.3904    2.5312    0.7667 H   0  0  0  0  0  0  0  0  0  0  0  0
    2.3795    0.0606    1.3685 H   0  0  0  0  0  0  0  0  0  0  0  0
    1.6695   -0.3001   -0.2084 H   0  0  0  0  0  0  0  0  0  0  0  0
    4.6828    0.9552    1.4517 H   0  0  0  0  0  0  0  0  0  0  0  0
    4.3019    2.2814    0.3300 H   0  0  0  0  0  0  0  0  0  0  0  0
    3.5186   -1.6953   -0.8722 H   0  0  0  0  0  0  0  0  0  0  0  0
    4.2523   -1.4196    0.7209 H   0  0  0  0  0  0  0  0  0  0  0  0
   -2.1592   -1.4455    2.2128 H   0  0  0  0  0  0  0  0  0  0  0  0
   -1.4880   -1.7377   -2.0610 H   0  0  0  0  0  0  0  0  0  0  0  0
    6.6875    1.7729    0.2851 H   0  0  0  0  0  0  0  0  0  0  0  0
    5.9474    1.5192   -1.3010 H   0  0  0  0  0  0  0  0  0  0  0  0
    5.5297   -0.7706   -2.0049 H   0  0  0  0  0  0  0  0  0  0  0  0
    5.9853   -2.0712   -0.8965 H   0  0  0  0  0  0  0  0  0  0  0  0
   -1.0044    3.5093    1.4421 H   0  0  0  0  0  0  0  0  0  0  0  0
    0.5715    4.0547    0.9409 H   0  0  0  0  0  0  0  0  0  0  0  0
   -0.5894    3.4842   -0.2738 H   0  0  0  0  0  0  0  0  0  0  0  0
   -1.0827   -3.6393    2.5000 H   0  0  0  0  0  0  0  0  0  0  0  0
   -0.4363   -3.9013   -1.7395 H   0  0  0  0  0  0  0  0  0  0  0  0
   -0.2170   -4.8750    0.5309 H   0  0  0  0  0  0  0  0  0  0  0  0
  1 10  1  0  0  0  0
  1 11  1  0  0  0  0
  2 12  1  0  0  0  0
  2 13  1  0  0  0  0
  3 20  1  0  0  0  0
  3 21  1  0  0  0  0
  4 12  2  0  0  0  0
  5 15  1  0  0  0  0
  5 16  1  0  0  0  0
  5 17  1  0  0  0  0
  6  7  1  0  0  0  0
  6  8  1  0  0  0  0
  6  9  1  0  0  0  0
  6 12  1  0  0  0  0
  7 10  1  0  0  0  0
  7 26  1  0  0  0  0
  7 27  1  0  0  0  0
  8 11  1  0  0  0  0
  8 28  1  0  0  0  0
  8 29  1  0  0  0  0
  9 18  2  0  0  0  0
  9 19  1  0  0  0  0
 10 30  1  0  0  0  0
 10 31  1  0  0  0  0
 11 32  1  0  0  0  0
 11 33  1  0  0  0  0
 13 14  1  0  0  0  0
 13 22  1  0  0  0  0
 13 34  1  0  0  0  0
 14 15  1  0  0  0  0
 14 35  1  0  0  0  0
 14 36  1  0  0  0  0
 15 37  1  0  0  0  0
 15 38  1  0  0  0  0
 16 20  1  0  0  0  0
 16 39  1  0  0  0  0
 16 40  1  0  0  0  0
 17 21  1  0  0  0  0
 17 41  1  0  0  0  0
 17 42  1  0  0  0  0
 18 23  1  0  0  0  0
 18 43  1  0  0  0  0
 19 24  2  0  0  0  0
 19 44  1  0  0  0  0
 20 45  1  0  0  0  0
 20 46  1  0  0  0  0
 21 47  1  0  0  0  0
 21 48  1  0  0  0  0
 22 49  1  0  0  0  0
 22 50  1  0  0  0  0
 22 51  1  0  0  0  0
 23 25  2  0  0  0  0
 23 52  1  0  0  0  0
 24 25  1  0  0  0  0
 24 53  1  0  0  0  0
 25 54  1  0  0  0  0
M  END
> <DATABASE_ID>
DB13825

> <DATABASE_NAME>
drugbank

> <ORIGINAL_SOURCE>
PUBCHEM

> <ORIGINAL_SOURCE_URL>
https://pubchem.ncbi.nlm.nih.gov/rest/pug/compound/inchikey/RDEOYUSTRWNWLX-UHFFFAOYSA-N/SDF?record_type=3d

> <SMILES>
CC(CCN1CCOCC1)OC(=O)C1(CCOCC1)C1=CC=CC=C1

> <INCHI_IDENTIFIER>
InChI=1S/C20H29NO4/c1-17(7-10-21-11-15-24-16-12-21)25-19(22)20(8-13-23-14-9-20)18-5-3-2-4-6-18/h2-6,17H,7-16H2,1H3

> <INCHI_KEY>
RDEOYUSTRWNWLX-UHFFFAOYSA-N

> <FORMULA>
C20H29NO4

> <MOLECULAR_WEIGHT>
347.455

> <EXACT_MASS>
347.209658418

> <JCHEM_ACCEPTOR_COUNT>
4

> <JCHEM_ATOM_COUNT>
54

> <JCHEM_AVERAGE_POLARIZABILITY>
38.22701375962073

> <JCHEM_BIOAVAILABILITY>
1

> <JCHEM_DONOR_COUNT>
0

> <JCHEM_FORMAL_CHARGE>
0

> <JCHEM_GHOSE_FILTER>
1

> <JCHEM_IUPAC>
4-(morpholin-4-yl)butan-2-yl 4-phenyloxane-4-carboxylate

> <ALOGPS_LOGP>
2.49

> <JCHEM_LOGP>
2.3100512449999995

> <ALOGPS_LOGS>
-3.17

> <JCHEM_MDDR_LIKE_RULE>
1

> <JCHEM_NUMBER_OF_RINGS>
3

> <JCHEM_PHYSIOLOGICAL_CHARGE>
1

> <JCHEM_PKA_STRONGEST_BASIC>
7.360210940520279

> <JCHEM_POLAR_SURFACE_AREA>
48.0

> <JCHEM_REFRACTIVITY>
97.1373

> <JCHEM_ROTATABLE_BOND_COUNT>
7

> <JCHEM_RULE_OF_FIVE>
1

> <ALOGPS_SOLUBILITY>
2.37e-01 g/l

> <JCHEM_TRADITIONAL_IUPAC>
fedrilate

> <JCHEM_VEBER_RULE>
0

> <DRUGBANK_ID>
DB13825

> <DRUG_GROUPS>
experimental

> <GENERIC_NAME>
Fedrilate

$$$$
