REMARK  Name = 5489013
REMARK  9 active torsions:
REMARK  status: ('A' for Active; 'I' for Inactive)
REMARK    1  A    between atoms: N_1  and  C_4
REMARK    2  A    between atoms: N_1  and  C_15
REMARK    3  A    between atoms: C_4  and  C_6
REMARK    4  A    between atoms: C_6  and  C_7
REMARK    5  A    between atoms: C_6  and  O_13
REMARK    6  A    between atoms: C_15  and  C_16
REMARK    7  A    between atoms: C_16  and  C_18
REMARK    8  A    between atoms: C_18  and  C_19
REMARK    9  A    between atoms: C_22  and  O_25
REMARK                            x       y       z     vdW  Elec       q    Type
REMARK                         _______ _______ _______ _____ _____    ______ ____
ROOT
ATOM      1  N   UNL     1      -1.655   1.054   0.536  0.00  0.00    +0.387 N 
ATOM      2  H   UNL     1      -1.764   0.075   0.268  0.00  0.00    -0.084 HD
ATOM      3  H   UNL     1      -1.778   1.158   1.543  0.00  0.00    -0.084 HD
ENDROOT
BRANCH   1   4
ATOM      4  C   UNL     1      -2.672   1.859  -0.152  0.00  0.00    -0.030 C 
ATOM      5  C   UNL     1      -2.455   1.706  -1.659  0.00  0.00    -0.021 C 
BRANCH   4   6
ATOM      6  C   UNL     1      -4.080   1.407   0.294  0.00  0.00    +0.113 C 
BRANCH   6   7
ATOM      7  C   UNL     1      -4.396  -0.032  -0.057  0.00  0.00    +0.002 C 
ATOM      8  C   UNL     1      -4.989  -0.315  -1.275  0.00  0.00    -0.002 C 
ATOM      9  C   UNL     1      -4.086  -1.032   0.849  0.00  0.00    -0.002 C 
ATOM     10  C   UNL     1      -5.280  -1.641  -1.598  0.00  0.00    -0.000 C 
ATOM     11  C   UNL     1      -4.377  -2.357   0.525  0.00  0.00    -0.000 C 
ATOM     12  C   UNL     1      -4.974  -2.661  -0.698  0.00  0.00    -0.000 C 
ENDBRANCH   6   7
BRANCH   6  13
ATOM     13  O   UNL     1      -4.205   1.522   1.714  0.00  0.00    -0.382 OA
ATOM     14  H   UNL     1      -4.010   2.433   1.983  0.00  0.00    +0.211 HD
ENDBRANCH   6  13
ENDBRANCH   4   6
ENDBRANCH   1   4
BRANCH   1  15
ATOM     15  C   UNL     1      -0.321   1.502   0.177  0.00  0.00    -0.073 C 
BRANCH  15  16
ATOM     16  C   UNL     1       0.748   0.675   0.891  0.00  0.00    +0.046 C 
BRANCH  16  18
ATOM     17  O   UNL     1       2.420   2.271   0.207  0.00  0.00    -0.291 OA
ATOM     18  C   UNL     1       2.156   1.110   0.511  0.00  0.00    +0.171 C 
BRANCH  18  19
ATOM     19  C   UNL     1       3.245   0.090   0.509  0.00  0.00    +0.038 C 
ATOM     20  C   UNL     1       4.295   0.248  -0.367  0.00  0.00    +0.040 C 
ATOM     21  C   UNL     1       3.159  -0.968   1.385  0.00  0.00    +0.003 C 
ATOM     22  C   UNL     1       5.314  -0.705  -0.368  0.00  0.00    +0.139 C 
ATOM     23  C   UNL     1       4.178  -1.921   1.384  0.00  0.00    +0.003 C 
ATOM     24  C   UNL     1       5.255  -1.790   0.507  0.00  0.00    +0.037 C 
BRANCH  22  25
ATOM     25  O   UNL     1       6.364  -0.577  -1.224  0.00  0.00    -0.471 OA
ATOM     26  C   UNL     1       6.360   0.555  -2.092  0.00  0.00    +0.252 C 
ENDBRANCH  22  25
ENDBRANCH  18  19
ENDBRANCH  16  18
ENDBRANCH  15  16
ENDBRANCH   1  15
TORSDOF 9
