REMARK  Name = 2569
REMARK  7 active torsions:
REMARK  status: ('A' for Active; 'I' for Inactive)
REMARK    1  A    between atoms: C_3  and  N_10
REMARK    2  A    between atoms: C_4  and  N_13
REMARK    3  A    between atoms: C_5  and  C_16
REMARK    4  A    between atoms: C_16  and  O_17
REMARK    5  A    between atoms: C_16  and  C_19
REMARK    6  A    between atoms: C_19  and  O_20
REMARK    7  A    between atoms: O_20  and  C_23
REMARK                            x       y       z     vdW  Elec       q    Type
REMARK                         _______ _______ _______ _____ _____    ______ ____
ROOT
ATOM      1  O   UNL     1       0.232   1.488  -1.534  0.00  0.00    -0.285 OA
ATOM      2  O   UNL     1      -2.658  -1.855   1.415  0.00  0.00    -0.286 OA
ATOM      3  C   UNL     1      -0.600  -1.450   0.324  0.00  0.00    +0.089 C 
ATOM      4  C   UNL     1      -1.827   1.082  -0.443  0.00  0.00    +0.086 C 
ATOM      5  C   UNL     1       0.121  -0.596  -0.421  0.00  0.00    +0.065 C 
ATOM      6  C   UNL     1      -2.549   0.229   0.303  0.00  0.00    +0.035 C 
ATOM      7  C   UNL     1      -0.440   0.716  -0.850  0.00  0.00    +0.208 C 
ATOM      8  C   UNL     1      -1.986  -1.083   0.732  0.00  0.00    +0.206 C 
ATOM      9  C   UNL     1      -3.956   0.488   0.773  0.00  0.00    +0.036 C 
ENDROOT
BRANCH   3  10
ATOM     10  N   UNL     1      -0.189  -2.675   0.772  0.00  0.00    -0.302 N 
ATOM     11  C   UNL     1       0.184  -3.667  -0.232  0.00  0.00    +0.112 C 
ATOM     12  C   UNL     1      -1.082  -3.807   0.544  0.00  0.00    +0.112 C 
ENDBRANCH   3  10
BRANCH   4  13
ATOM     13  N   UNL     1      -2.238   2.307  -0.891  0.00  0.00    -0.302 N 
ATOM     14  C   UNL     1      -1.345   3.440  -0.663  0.00  0.00    +0.112 C 
ATOM     15  C   UNL     1      -2.612   3.299   0.112  0.00  0.00    +0.112 C 
ENDBRANCH   4  13
BRANCH   5  16
ATOM     16  C   UNL     1       1.529  -0.856  -0.892  0.00  0.00    +0.186 C 
BRANCH  16  17
ATOM     17  O   UNL     1       1.507  -0.905  -2.311  0.00  0.00    -0.345 OA
ATOM     18  C   UNL     1       2.801  -1.149  -2.845  0.00  0.00    +0.175 C 
ENDBRANCH  16  17
BRANCH  16  19
ATOM     19  C   UNL     1       2.466   0.243  -0.426  0.00  0.00    +0.244 C 
BRANCH  19  20
ATOM     20  O   UNL     1       2.417   0.295   0.997  0.00  0.00    -0.432 OA
BRANCH  20  23
ATOM     21  O   UNL     1       3.939   2.022   0.991  0.00  0.00    -0.227 OA
ATOM     22  N   UNL     1       3.078   1.194   2.955  0.00  0.00    -0.295 N 
ATOM     23  C   UNL     1       3.209   1.239   1.590  0.00  0.00    +0.399 C 
ATOM     24  H   UNL     1       2.473   0.538   3.370  0.00  0.00    +0.148 HD
ATOM     25  H   UNL     1       3.590   1.818   3.520  0.00  0.00    +0.148 HD
ENDBRANCH  20  23
ENDBRANCH  19  20
ENDBRANCH  16  19
ENDBRANCH   5  16
TORSDOF 7
