REMARK  Name = 7151
REMARK  2 active torsions:
REMARK  status: ('A' for Active; 'I' for Inactive)
REMARK    1  A    between atoms: C_2  and  C_8
REMARK    2  A    between atoms: C_8  and  O_9
REMARK                            x       y       z     vdW  Elec       q    Type
REMARK                         _______ _______ _______ _____ _____    ______ ____
ROOT
ATOM      1  N   UNL     1      -1.939   1.384   0.000  0.00  0.00    -0.242 NA
ATOM      2  C   UNL     1      -0.089  -0.171   0.000  0.00  0.00    +0.095 C 
ATOM      3  C   UNL     1      -0.978  -1.240   0.000  0.00  0.00    +0.010 C 
ATOM      4  C   UNL     1      -0.615   1.110   0.001  0.00  0.00    +0.105 C 
ATOM      5  C   UNL     1      -2.347  -0.999  -0.001  0.00  0.00    +0.021 C 
ATOM      6  C   UNL     1      -2.773   0.320   0.000  0.00  0.00    +0.099 C 
ENDROOT
BRANCH   2   8
ATOM      7  O   UNL     1       1.887  -1.507   0.001  0.00  0.00    -0.245 OA
ATOM      8  C   UNL     1       1.347  -0.391   0.001  0.00  0.00    +0.343 C 
BRANCH   8   9
ATOM      9  O   UNL     1       2.039   0.790   0.000  0.00  0.00    -0.441 OA
ATOM     10  C   UNL     1       3.468   0.704  -0.001  0.00  0.00    +0.256 C 
ENDBRANCH   8   9
ENDBRANCH   2   8
TORSDOF 2
