REMARK  Name = 19667
REMARK  6 active torsions:
REMARK  status: ('A' for Active; 'I' for Inactive)
REMARK    1  A    between atoms: N_1  and  C_4
REMARK    2  A    between atoms: N_1  and  C_13
REMARK    3  A    between atoms: C_4  and  C_5
REMARK    4  A    between atoms: C_5  and  O_6
REMARK    5  A    between atoms: O_6  and  C_7
REMARK    6  A    between atoms: C_13  and  C_14
REMARK                            x       y       z     vdW  Elec       q    Type
REMARK                         _______ _______ _______ _____ _____    ______ ____
ROOT
ATOM      1  N   UNL     1       1.290   1.780   0.042  0.00  0.00    +0.392 N 
ATOM      2  C   UNL     1       1.162   1.560  -1.458  0.00  0.00    -0.095 C 
ATOM      3  C   UNL     1       0.881   3.206   0.383  0.00  0.00    -0.095 C 
ENDROOT
BRANCH   1   4
ATOM      4  C   UNL     1       0.383   0.804   0.778  0.00  0.00    -0.025 C 
BRANCH   4   5
ATOM      5  C   UNL     1      -1.056   1.056   0.374  0.00  0.00    +0.183 C 
BRANCH   5   6
ATOM      6  O   UNL     1      -1.912   0.171   1.085  0.00  0.00    -0.478 OA
BRANCH   6   7
ATOM      7  C   UNL     1      -3.075  -0.198   0.461  0.00  0.00    +0.138 C 
ATOM      8  C   UNL     1      -3.685   0.677  -0.430  0.00  0.00    +0.037 C 
ATOM      9  C   UNL     1      -3.633  -1.443   0.727  0.00  0.00    +0.037 C 
ATOM     10  C   UNL     1      -4.869   0.302  -1.064  0.00  0.00    +0.003 C 
ATOM     11  C   UNL     1      -4.817  -1.818   0.093  0.00  0.00    +0.003 C 
ATOM     12  C   UNL     1      -5.436  -0.945  -0.803  0.00  0.00    +0.000 C 
ENDBRANCH   6   7
ENDBRANCH   5   6
ENDBRANCH   4   5
ENDBRANCH   1   4
BRANCH   1  13
ATOM     13  C   UNL     1       2.733   1.552   0.467  0.00  0.00    -0.046 C 
BRANCH  13  14
ATOM     14  C   UNL     1       3.221   0.165   0.168  0.00  0.00    -0.043 C 
ATOM     15  C   UNL     1       3.067  -0.839   1.117  0.00  0.00    -0.006 C 
ATOM     16  C   UNL     1       3.824  -0.104  -1.056  0.00  0.00    -0.006 C 
ATOM     17  C   UNL     1       3.520  -2.129   0.839  0.00  0.00    -0.000 C 
ATOM     18  C   UNL     1       4.277  -1.393  -1.335  0.00  0.00    -0.000 C 
ATOM     19  C   UNL     1       4.125  -2.406  -0.387  0.00  0.00    -0.000 C 
ENDBRANCH  13  14
ENDBRANCH   1  13
TORSDOF 6
