REMARK  Name = 183797
REMARK  10 active torsions:
REMARK  status: ('A' for Active; 'I' for Inactive)
REMARK    1  A    between atoms: C_3  and  C_9
REMARK    2  A    between atoms: C_6  and  C_24
REMARK    3  A    between atoms: N_8  and  C_11
REMARK    4  A    between atoms: C_11  and  C_12
REMARK    5  A    between atoms: C_17  and  C_20
REMARK    6  A    between atoms: C_24  and  C_25
REMARK    7  A    between atoms: C_24  and  N_31
REMARK    8  A    between atoms: N_31  and  C_34
REMARK    9  A    between atoms: C_34  and  C_36
REMARK   10  A    between atoms: C_36  and  O_37
REMARK                            x       y       z     vdW  Elec       q    Type
REMARK                         _______ _______ _______ _____ _____    ______ ____
ROOT
ATOM      1  O   UNL     1       1.582   0.804   1.598  0.00  0.00    -0.277 OA
ATOM      2  N   UNL     1       1.694   1.780  -0.477  0.00  0.00    -0.275 N 
ATOM      3  C   UNL     1       1.234   3.147  -0.340  0.00  0.00    +0.153 C 
ATOM      4  C   UNL     1       1.935   1.864  -1.903  0.00  0.00    +0.096 C 
ATOM      5  C   UNL     1       1.815   3.384  -1.740  0.00  0.00    +0.051 C 
ATOM      6  C   UNL     1       1.825   0.735   0.395  0.00  0.00    +0.206 C 
ENDROOT
BRANCH   3   9
ATOM      7  O   UNL     1      -1.021   3.785  -1.020  0.00  0.00    -0.273 OA
ATOM      8  N   UNL     1      -0.744   2.796   1.053  0.00  0.00    -0.299 N 
ATOM      9  C   UNL     1      -0.286   3.288  -0.160  0.00  0.00    +0.241 C 
ATOM     10  H   UNL     1      -0.088   2.416   1.682  0.00  0.00    +0.150 HD
BRANCH   8  11
ATOM     11  C   UNL     1      -2.137   2.813   1.440  0.00  0.00    +0.116 C 
BRANCH  11  12
ATOM     12  C   UNL     1      -2.854   1.565   1.015  0.00  0.00    -0.003 C 
ATOM     13  C   UNL     1      -2.901   0.463   1.869  0.00  0.00    -0.003 C 
ATOM     14  C   UNL     1      -3.472   1.506  -0.234  0.00  0.00    -0.003 C 
ATOM     15  C   UNL     1      -3.566  -0.698   1.474  0.00  0.00    +0.002 C 
ATOM     16  C   UNL     1      -4.137   0.345  -0.629  0.00  0.00    +0.002 C 
ATOM     17  C   UNL     1      -4.184  -0.757   0.225  0.00  0.00    +0.031 C 
BRANCH  17  20
ATOM     18  N   UNL     1      -4.942  -3.084   0.645  0.00  0.00    -0.343 N 
ATOM     19  N   UNL     1      -5.459  -2.022  -1.372  0.00  0.00    -0.285 NA
ATOM     20  C   UNL     1      -4.878  -1.967  -0.186  0.00  0.00    +0.117 C 
ATOM     21  H   UNL     1      -5.417  -3.893   0.346  0.00  0.00    +0.144 HD
ATOM     22  H   UNL     1      -4.513  -3.064   1.531  0.00  0.00    +0.144 HD
ATOM     23  H   UNL     1      -5.929  -2.840  -1.652  0.00  0.00    +0.188 HD
ENDBRANCH  17  20
ENDBRANCH  11  12
ENDBRANCH   8  11
ENDBRANCH   3   9
BRANCH   6  24
ATOM     24  C   UNL     1       2.295  -0.548  -0.239  0.00  0.00    +0.018 C 
BRANCH  24  25
ATOM     25  C   UNL     1       3.603  -1.004   0.404  0.00  0.00    -0.011 C 
ATOM     26  C   UNL     1       4.072  -2.332  -0.205  0.00  0.00    -0.002 C 
ATOM     27  C   UNL     1       4.684   0.076   0.259  0.00  0.00    -0.002 C 
ATOM     28  C   UNL     1       5.407  -2.782   0.385  0.00  0.00    -0.000 C 
ATOM     29  C   UNL     1       6.017  -0.378   0.847  0.00  0.00    -0.000 C 
ATOM     30  C   UNL     1       6.476  -1.703   0.246  0.00  0.00    -0.000 C 
ENDBRANCH  24  25
BRANCH  24  31
ATOM     31  N   UNL     1       1.255  -1.544  -0.037  0.00  0.00    +0.398 N 
ATOM     32  H   UNL     1       0.869  -1.438   0.901  0.00  0.00    -0.083 HD
ATOM     33  H   UNL     1       1.666  -2.470  -0.153  0.00  0.00    -0.083 HD
BRANCH  31  34
ATOM     34  C   UNL     1       0.183  -1.387  -1.013  0.00  0.00    +0.031 C 
BRANCH  34  36
ATOM     35  O   UNL     1      -0.767  -3.291   0.120  0.00  0.00    -0.253 OA
ATOM     36  C   UNL     1      -0.852  -2.449  -0.765  0.00  0.00    +0.292 C 
BRANCH  36  37
ATOM     37  O   UNL     1      -1.877  -2.406  -1.654  0.00  0.00    -0.482 OA
ATOM     38  H   UNL     1      -1.897  -1.742  -2.315  0.00  0.00    +0.295 HD
ENDBRANCH  36  37
ENDBRANCH  34  36
ENDBRANCH  31  34
ENDBRANCH  24  31
ENDBRANCH   6  24
TORSDOF 10
