REMARK  Name = 5283734
REMARK  8 active torsions:
REMARK  status: ('A' for Active; 'I' for Inactive)
REMARK    1  A    between atoms: C_2  and  C_24
REMARK    2  A    between atoms: C_11  and  C_12
REMARK    3  A    between atoms: C_16  and  O_20
REMARK    4  A    between atoms: C_17  and  O_22
REMARK    5  A    between atoms: C_24  and  C_26
REMARK    6  A    between atoms: C_27  and  C_28
REMARK    7  A    between atoms: C_28  and  C_29
REMARK    8  A    between atoms: C_28  and  O_32
REMARK                            x       y       z     vdW  Elec       q    Type
REMARK                         _______ _______ _______ _____ _____    ______ ____
ROOT
ATOM      1  C   UNL     1       0.967  -0.896  -0.299  0.00  0.00    +0.004 C 
ATOM      2  C   UNL     1       2.289  -0.117  -0.099  0.00  0.00    +0.004 C 
ATOM      3  C   UNL     1       0.109  -0.231   0.805  0.00  0.00    +0.018 C 
ATOM      4  C   UNL     1       1.831   1.340   0.143  0.00  0.00    +0.001 C 
ATOM      5  C   UNL     1       0.360   1.264   0.593  0.00  0.00    +0.004 C 
ATOM      6  C   UNL     1       1.067  -2.405   0.004  0.00  0.00    +0.001 C 
ATOM      7  C   UNL     1      -1.276  -0.818   0.852  0.00  0.00    -0.045 C 
ATOM      8  C   UNL     1       0.397  -0.689  -1.726  0.00  0.00    +0.000 C 
ATOM      9  C   UNL     1      -0.324  -3.057   0.116  0.00  0.00    +0.004 C 
ATOM     10  C   UNL     1      -1.267  -2.316   1.078  0.00  0.00    +0.022 C 
ATOM     11  C   UNL     1      -2.413  -0.122   0.719  0.00  0.00    -0.009 C 
ENDROOT
BRANCH  11  12
ATOM     12  C   UNL     1      -3.721  -0.726   0.778  0.00  0.00    -0.005 C 
ATOM     13  C   UNL     1      -4.861  -0.030   0.645  0.00  0.00    -0.021 C 
ATOM     14  C   UNL     1      -6.211  -0.702   0.669  0.00  0.00    +0.055 C 
ATOM     15  C   UNL     1      -4.889   1.415   0.426  0.00  0.00    +0.000 C 
ATOM     16  C   UNL     1      -7.085  -0.285  -0.516  0.00  0.00    +0.118 C 
ATOM     17  C   UNL     1      -5.793   1.890  -0.688  0.00  0.00    +0.135 C 
ATOM     18  C   UNL     1      -7.180   1.242  -0.615  0.00  0.00    +0.063 C 
ATOM     19  C   UNL     1      -4.204   2.277   1.195  0.00  0.00    -0.003 C 
BRANCH  16  20
ATOM     20  O   UNL     1      -8.388  -0.831  -0.333  0.00  0.00    -0.384 OA
ATOM     21  H   UNL     1      -8.328  -1.797  -0.271  0.00  0.00    +0.210 HD
ENDBRANCH  16  20
BRANCH  17  22
ATOM     22  O   UNL     1      -5.177   1.564  -1.934  0.00  0.00    -0.380 OA
ATOM     23  H   UNL     1      -4.299   1.975  -1.978  0.00  0.00    +0.211 HD
ENDBRANCH  17  22
ENDBRANCH  11  12
BRANCH   2  24
ATOM     24  C   UNL     1       3.321  -0.236  -1.212  0.00  0.00    +0.022 C 
ATOM     25  C   UNL     1       3.669  -1.711  -1.448  0.00  0.00    +0.005 C 
BRANCH  24  26
ATOM     26  C   UNL     1       4.612   0.554  -0.910  0.00  0.00    -0.029 C 
ATOM     27  C   UNL     1       5.405   0.079   0.312  0.00  0.00    -0.002 C 
BRANCH  27  28
ATOM     28  C   UNL     1       6.643   0.914   0.676  0.00  0.00    +0.132 C 
BRANCH  28  29
ATOM     29  C   UNL     1       7.753   0.945  -0.399  0.00  0.00    +0.031 C 
ATOM     30  C   UNL     1       8.218  -0.451  -0.823  0.00  0.00    +0.003 C 
ATOM     31  C   UNL     1       8.962   1.748   0.099  0.00  0.00    +0.003 C 
ENDBRANCH  28  29
BRANCH  28  32
ATOM     32  O   UNL     1       7.184   0.392   1.894  0.00  0.00    -0.380 OA
ATOM     33  H   UNL     1       6.491   0.370   2.572  0.00  0.00    +0.211 HD
ENDBRANCH  28  32
ENDBRANCH  27  28
ENDBRANCH  24  26
ENDBRANCH   2  24
TORSDOF 8
