REMARK  Name = 71835
REMARK  6 active torsions:
REMARK  status: ('A' for Active; 'I' for Inactive)
REMARK    1  A    between atoms: C_1  and  N_2
REMARK    2  A    between atoms: C_1  and  C_12
REMARK    3  A    between atoms: N_2  and  N_4
REMARK    4  A    between atoms: N_4  and  C_7
REMARK    5  A    between atoms: C_12  and  O_13
REMARK    6  A    between atoms: O_13  and  C_16
REMARK                            x       y       z     vdW  Elec       q    Type
REMARK                         _______ _______ _______ _____ _____    ______ ____
ROOT
ATOM      1  C   UNL     1       1.576   0.157   0.809  0.00  0.00    +0.139 C 
ENDROOT
BRANCH   1   2
ATOM      2  N   UNL     1       2.734   0.151  -0.068  0.00  0.00    -0.195 NA
ATOM      3  H   UNL     1       2.650   0.188  -1.048  0.00  0.00    +0.150 HD
BRANCH   2   4
ATOM      4  N   UNL     1       3.933   0.090   0.550  0.00  0.00    -0.165 NA
BRANCH   4   7
ATOM      5  N   UNL     1       6.237  -0.093   0.252  0.00  0.00    -0.369 N 
ATOM      6  N   UNL     1       4.941  -0.140  -1.626  0.00  0.00    -0.369 N 
ATOM      7  C   UNL     1       4.959  -0.038  -0.252  0.00  0.00    +0.205 C 
ATOM      8  H   UNL     1       6.386  -0.031   1.223  0.00  0.00    +0.159 HD
ATOM      9  H   UNL     1       7.003  -0.195  -0.358  0.00  0.00    +0.159 HD
ATOM     10  H   UNL     1       4.085  -0.114  -2.111  0.00  0.00    +0.159 HD
ATOM     11  H   UNL     1       5.785  -0.239  -2.123  0.00  0.00    +0.159 HD
ENDBRANCH   4   7
ENDBRANCH   2   4
ENDBRANCH   1   2
BRANCH   1  12
ATOM     12  C   UNL     1       0.290   0.071   0.002  0.00  0.00    +0.224 C 
BRANCH  12  13
ATOM     13  O   UNL     1      -0.813   0.063   0.899  0.00  0.00    -0.472 OA
BRANCH  13  16
ATOM     14 CL   UNL     1      -1.851  -2.703   0.478  0.00  0.00    -0.079 Cl
ATOM     15 CL   UNL     1      -2.018   2.731   0.317  0.00  0.00    -0.079 Cl
ATOM     16  C   UNL     1      -2.063   0.008   0.340  0.00  0.00    +0.159 C 
ATOM     17  C   UNL     1      -2.657  -1.227   0.093  0.00  0.00    +0.092 C 
ATOM     18  C   UNL     1      -2.732   1.187   0.022  0.00  0.00    +0.092 C 
ATOM     19  C   UNL     1      -3.930  -1.283  -0.476  0.00  0.00    +0.015 C 
ATOM     20  C   UNL     1      -4.004   1.131  -0.547  0.00  0.00    +0.015 C 
ATOM     21  C   UNL     1      -4.603  -0.104  -0.796  0.00  0.00    +0.002 C 
ENDBRANCH  13  16
ENDBRANCH  12  13
ENDBRANCH   1  12
TORSDOF 6
