REMARK  Name = 13314
REMARK  2 active torsions:
REMARK  status: ('A' for Active; 'I' for Inactive)
REMARK    1  A    between atoms: C_7  and  C_16
REMARK    2  A    between atoms: C_8  and  O_22
REMARK                            x       y       z     vdW  Elec       q    Type
REMARK                         _______ _______ _______ _____ _____    ______ ____
ROOT
ATOM      1 CL   UNL     1      -0.251   4.677  -0.686  0.00  0.00    -0.082 Cl
ATOM      2  O   UNL     1       2.780  -2.775   0.252  0.00  0.00    -0.270 OA
ATOM      3  N   UNL     1       2.367  -0.528   0.689  0.00  0.00    -0.253 N 
ATOM      4  N   UNL     1       0.130  -1.554  -1.078  0.00  0.00    -0.235 NA
ATOM      5  C   UNL     1       0.435   0.745  -0.265  0.00  0.00    +0.032 C 
ATOM      6  C   UNL     1       1.692   0.700   0.372  0.00  0.00    +0.055 C 
ATOM      7  C   UNL     1      -0.360  -0.485  -0.548  0.00  0.00    +0.081 C 
ATOM      8  C   UNL     1       1.545  -1.572  -1.409  0.00  0.00    +0.296 C 
ATOM      9  C   UNL     1       2.270  -1.700  -0.076  0.00  0.00    +0.281 C 
ATOM     10  C   UNL     1      -0.151   1.978  -0.605  0.00  0.00    +0.014 C 
ATOM     11  C   UNL     1       2.290   1.928   0.719  0.00  0.00    +0.016 C 
ATOM     12  C   UNL     1       3.261  -0.538   1.847  0.00  0.00    +0.120 C 
ATOM     13  C   UNL     1       0.479   3.174  -0.276  0.00  0.00    +0.058 C 
ATOM     14  C   UNL     1       1.693   3.149   0.397  0.00  0.00    +0.013 C 
ENDROOT
BRANCH   7  16
ATOM     15 CL   UNL     1      -1.140  -1.479   2.272  0.00  0.00    -0.082 Cl
ATOM     16  C   UNL     1      -1.807  -0.507  -0.189  0.00  0.00    +0.028 C 
ATOM     17  C   UNL     1      -2.245  -0.938   1.059  0.00  0.00    +0.059 C 
ATOM     18  C   UNL     1      -2.721  -0.077  -1.147  0.00  0.00    +0.002 C 
ATOM     19  C   UNL     1      -3.609  -0.940   1.352  0.00  0.00    +0.011 C 
ATOM     20  C   UNL     1      -4.084  -0.079  -0.854  0.00  0.00    +0.000 C 
ATOM     21  C   UNL     1      -4.529  -0.510   0.396  0.00  0.00    +0.001 C 
ENDBRANCH   7  16
BRANCH   8  22
ATOM     22  O   UNL     1       1.953  -2.670  -2.222  0.00  0.00    -0.357 OA
ATOM     23  H   UNL     1       1.508  -2.619  -3.082  0.00  0.00    +0.213 HD
ENDBRANCH   8  22
TORSDOF 2
