REMARK  Name = 16406
REMARK  6 active torsions:
REMARK  status: ('A' for Active; 'I' for Inactive)
REMARK    1  A    between atoms: N_2  and  C_15
REMARK    2  A    between atoms: C_15  and  C_16
REMARK    3  A    between atoms: C_16  and  N_18
REMARK    4  A    between atoms: N_18  and  C_21
REMARK    5  A    between atoms: C_21  and  C_22
REMARK    6  A    between atoms: C_22  and  O_23
REMARK                            x       y       z     vdW  Elec       q    Type
REMARK                         _______ _______ _______ _____ _____    ______ ____
ROOT
ATOM      1  S   UNL     1       3.425  -0.287  -1.050  0.00  0.00    -0.084 S 
ATOM      2  N   UNL     1       0.660  -0.063   0.353  0.00  0.00    -0.288 N 
ATOM      3  C   UNL     1       1.195  -1.372   0.255  0.00  0.00    +0.058 C 
ATOM      4  C   UNL     1       1.418   1.134   0.294  0.00  0.00    +0.058 C 
ATOM      5  C   UNL     1       2.452  -1.600  -0.340  0.00  0.00    +0.043 C 
ATOM      6  C   UNL     1       2.698   1.155  -0.296  0.00  0.00    +0.043 C 
ATOM      7  C   UNL     1       0.518  -2.497   0.773  0.00  0.00    +0.015 C 
ATOM      8  C   UNL     1       0.950   2.345   0.850  0.00  0.00    +0.015 C 
ATOM      9  C   UNL     1       2.982  -2.900  -0.428  0.00  0.00    +0.008 C 
ATOM     10  C   UNL     1       3.449   2.342  -0.344  0.00  0.00    +0.008 C 
ATOM     11  C   UNL     1       1.051  -3.786   0.688  0.00  0.00    +0.001 C 
ATOM     12  C   UNL     1       1.703   3.521   0.803  0.00  0.00    +0.001 C 
ATOM     13  C   UNL     1       2.283  -3.988   0.083  0.00  0.00    +0.001 C 
ATOM     14  C   UNL     1       2.953   3.521   0.203  0.00  0.00    +0.001 C 
ENDROOT
BRANCH   2  15
ATOM     15  C   UNL     1      -0.781   0.062   0.607  0.00  0.00    +0.075 C 
BRANCH  15  16
ATOM     16  C   UNL     1      -1.503   0.777  -0.534  0.00  0.00    -0.034 C 
ATOM     17  C   UNL     1      -1.352   0.091  -1.885  0.00  0.00    -0.021 C 
BRANCH  16  18
ATOM     18  N   UNL     1      -2.954   0.875  -0.211  0.00  0.00    +0.391 N 
ATOM     19  C   UNL     1      -3.160   1.560   1.145  0.00  0.00    -0.096 C 
ATOM     20  C   UNL     1      -3.691   1.690  -1.279  0.00  0.00    -0.096 C 
BRANCH  18  21
ATOM     21  C   UNL     1      -3.587  -0.520  -0.146  0.00  0.00    -0.041 C 
BRANCH  21  22
ATOM     22  C   UNL     1      -5.062  -0.385   0.181  0.00  0.00    +0.115 C 
BRANCH  22  23
ATOM     23  O   UNL     1      -5.648  -1.676   0.278  0.00  0.00    -0.384 OA
ATOM     24  H   UNL     1      -6.591  -1.588   0.487  0.00  0.00    +0.210 HD
ENDBRANCH  22  23
ENDBRANCH  21  22
ENDBRANCH  18  21
ENDBRANCH  16  18
ENDBRANCH  15  16
ENDBRANCH   2  15
TORSDOF 6
