REMARK  Name = 25803
REMARK  11 active torsions:
REMARK  status: ('A' for Active; 'I' for Inactive)
REMARK    1  A    between atoms: N_4  and  C_19
REMARK    2  A    between atoms: C_6  and  C_11
REMARK    3  A    between atoms: C_6  and  C_17
REMARK    4  A    between atoms: C_19  and  C_20
REMARK    5  A    between atoms: C_20  and  O_21
REMARK    6  A    between atoms: C_20  and  C_27
REMARK    7  A    between atoms: O_21  and  C_24
REMARK    8  A    between atoms: C_27  and  O_28
REMARK    9  A    between atoms: O_28  and  C_29
REMARK   10  A    between atoms: C_29  and  C_30
REMARK   11  A    between atoms: C_30  and  C_31
REMARK                            x       y       z     vdW  Elec       q    Type
REMARK                         _______ _______ _______ _____ _____    ______ ____
ROOT
ATOM      1  O   UNL     1      -1.276  -1.478  -2.110  0.00  0.00    -0.274 OA
ATOM      2  O   UNL     1      -3.991  -2.156   1.505  0.00  0.00    -0.274 OA
ATOM      3  O   UNL     1       0.420  -1.190   2.206  0.00  0.00    -0.252 OA
ATOM      4  N   UNL     1      -0.380  -1.153   0.013  0.00  0.00    -0.210 N 
ATOM      5  N   UNL     1      -1.807  -1.554   1.850  0.00  0.00    -0.239 N 
ATOM      6  C   UNL     1      -2.830  -1.010  -0.307  0.00  0.00    +0.157 C 
ATOM      7  C   UNL     1      -1.436  -1.260  -0.908  0.00  0.00    +0.244 C 
ATOM      8  C   UNL     1      -2.955  -1.647   1.080  0.00  0.00    +0.241 C 
ATOM      9  C   UNL     1      -0.518  -1.269   1.409  0.00  0.00    +0.316 C 
ATOM     10  H   UNL     1      -1.915  -1.707   2.816  0.00  0.00    +0.159 HD
ENDROOT
BRANCH   6  11
ATOM     11  C   UNL     1      -3.156   0.499  -0.223  0.00  0.00    -0.006 C 
ATOM     12  C   UNL     1      -2.548   1.382  -1.106  0.00  0.00    -0.003 C 
ATOM     13  C   UNL     1      -4.053   0.954   0.735  0.00  0.00    -0.003 C 
ATOM     14  C   UNL     1      -2.842   2.744  -1.029  0.00  0.00    -0.000 C 
ATOM     15  C   UNL     1      -4.348   2.315   0.812  0.00  0.00    -0.000 C 
ATOM     16  C   UNL     1      -3.742   3.210  -0.070  0.00  0.00    -0.000 C 
ENDBRANCH   6  11
BRANCH   6  17
ATOM     17  C   UNL     1      -3.873  -1.664  -1.243  0.00  0.00    +0.022 C 
ATOM     18  C   UNL     1      -3.644  -3.156  -1.355  0.00  0.00    +0.001 C 
ENDBRANCH   6  17
BRANCH   4  19
ATOM     19  C   UNL     1       0.974  -1.061  -0.518  0.00  0.00    +0.149 C 
BRANCH  19  20
ATOM     20  C   UNL     1       1.429   0.381  -0.737  0.00  0.00    +0.220 C 
BRANCH  20  21
ATOM     21  O   UNL     1       1.395   1.087   0.504  0.00  0.00    -0.434 OA
BRANCH  21  24
ATOM     22  O   UNL     1       1.577   3.141  -0.518  0.00  0.00    -0.227 OA
ATOM     23  N   UNL     1       2.313   2.803   1.634  0.00  0.00    -0.295 N 
ATOM     24  C   UNL     1       1.744   2.406   0.449  0.00  0.00    +0.398 C 
ATOM     25  H   UNL     1       2.417   2.158   2.371  0.00  0.00    +0.148 HD
ATOM     26  H   UNL     1       2.618   3.732   1.747  0.00  0.00    +0.148 HD
ENDBRANCH  21  24
ENDBRANCH  20  21
BRANCH  20  27
ATOM     27  C   UNL     1       2.838   0.484  -1.313  0.00  0.00    +0.187 C 
BRANCH  27  28
ATOM     28  O   UNL     1       3.754  -0.108  -0.397  0.00  0.00    -0.350 OA
BRANCH  28  29
ATOM     29  C   UNL     1       5.085  -0.056  -0.888  0.00  0.00    +0.142 C 
BRANCH  29  30
ATOM     30  C   UNL     1       6.011  -0.702   0.133  0.00  0.00    +0.032 C 
BRANCH  30  31
ATOM     31  C   UNL     1       7.467  -0.667  -0.326  0.00  0.00    +0.003 C 
ATOM     32  C   UNL     1       8.393  -1.273   0.716  0.00  0.00    +0.000 C 
ENDBRANCH  30  31
ENDBRANCH  29  30
ENDBRANCH  28  29
ENDBRANCH  27  28
ENDBRANCH  20  27
ENDBRANCH  19  20
ENDBRANCH   4  19
TORSDOF 11
