REMARK  Name = 457954
REMARK  6 active torsions:
REMARK  status: ('A' for Active; 'I' for Inactive)
REMARK    1  A    between atoms: C_2  and  O_16
REMARK    2  A    between atoms: C_3  and  O_18
REMARK    3  A    between atoms: C_4  and  C_20
REMARK    4  A    between atoms: C_5  and  C_8
REMARK    5  A    between atoms: C_9  and  C_13
REMARK    6  A    between atoms: C_20  and  O_21
REMARK                            x       y       z     vdW  Elec       q    Type
REMARK                         _______ _______ _______ _____ _____    ______ ____
ROOT
ATOM      1  O   UNL     1      -1.410   0.531  -1.029  0.00  0.00    -0.343 OA
ATOM      2  C   UNL     1      -3.069  -0.166   0.530  0.00  0.00    +0.170 C 
ATOM      3  C   UNL     1      -1.788  -0.938   0.788  0.00  0.00    +0.174 C 
ATOM      4  C   UNL     1      -2.584   0.999  -0.326  0.00  0.00    +0.174 C 
ATOM      5  C   UNL     1      -1.047  -0.772  -0.530  0.00  0.00    +0.202 C 
ENDROOT
BRANCH   5   8
ATOM      6  S   UNL     1       1.246  -2.349  -0.654  0.00  0.00    -0.077 S 
ATOM      7  N   UNL     1       1.228   0.173  -0.086  0.00  0.00    -0.396 NA
ATOM      8  C   UNL     1       0.455  -0.847  -0.395  0.00  0.00    +0.164 C 
ATOM      9  C   UNL     1       2.541  -0.255  -0.049  0.00  0.00    +0.173 C 
ATOM     10  C   UNL     1       2.749  -1.589  -0.330  0.00  0.00    +0.128 C 
BRANCH   9  13
ATOM     11  O   UNL     1       4.801   0.350   0.294  0.00  0.00    -0.268 OA
ATOM     12  N   UNL     1       3.238   1.992   0.529  0.00  0.00    -0.323 N 
ATOM     13  C   UNL     1       3.595   0.669   0.266  0.00  0.00    +0.269 C 
ATOM     14  H   UNL     1       3.932   2.655   0.749  0.00  0.00    +0.145 HD
ATOM     15  H   UNL     1       2.292   2.262   0.495  0.00  0.00    +0.145 HD
ENDBRANCH   9  13
ENDBRANCH   5   8
BRANCH   2  16
ATOM     16  O   UNL     1      -3.993  -0.953  -0.221  0.00  0.00    -0.379 OA
ATOM     17  H   UNL     1      -4.303  -1.695   0.322  0.00  0.00    +0.211 HD
ENDBRANCH   2  16
BRANCH   3  18
ATOM     18  O   UNL     1      -2.018  -2.298   1.097  0.00  0.00    -0.379 OA
ATOM     19  H   UNL     1      -2.491  -2.363   1.941  0.00  0.00    +0.211 HD
ENDBRANCH   3  18
BRANCH   4  20
ATOM     20  C   UNL     1      -2.194   2.218   0.498  0.00  0.00    +0.169 C 
BRANCH  20  21
ATOM     21  O   UNL     1      -1.750   3.236  -0.381  0.00  0.00    -0.379 OA
ATOM     22  H   UNL     1      -1.498   4.019   0.133  0.00  0.00    +0.211 HD
ENDBRANCH  20  21
ENDBRANCH   4  20
TORSDOF 6
