REMARK  Name = 30131
REMARK  5 active torsions:
REMARK  status: ('A' for Active; 'I' for Inactive)
REMARK    1  A    between atoms: C_1  and  C_7
REMARK    2  A    between atoms: C_1  and  C_18
REMARK    3  A    between atoms: C_2  and  N_13
REMARK    4  A    between atoms: C_18  and  O_19
REMARK    5  A    between atoms: O_19  and  C_20
REMARK                            x       y       z     vdW  Elec       q    Type
REMARK                         _______ _______ _______ _____ _____    ______ ____
ROOT
ATOM      1  C   UNL     1      -0.283  -0.247   0.086  0.00  0.00    +0.095 C 
ATOM      2  C   UNL     1      -1.599   0.129  -0.688  0.00  0.00    -0.021 C 
ATOM      3  C   UNL     1      -0.658  -0.765   1.502  0.00  0.00    +0.018 C 
ATOM      4  C   UNL     1      -1.633  -1.952   1.475  0.00  0.00    +0.026 C 
ATOM      5  C   UNL     1      -2.697  -0.895  -0.521  0.00  0.00    -0.051 C 
ATOM      6  C   UNL     1      -2.702  -1.832   0.436  0.00  0.00    -0.033 C 
ENDROOT
BRANCH   1   7
ATOM      7  C   UNL     1       0.721   0.922   0.083  0.00  0.00    -0.014 C 
ATOM      8  C   UNL     1       1.180   1.432  -1.126  0.00  0.00    -0.004 C 
ATOM      9  C   UNL     1       1.159   1.457   1.290  0.00  0.00    -0.004 C 
ATOM     10  C   UNL     1       2.090   2.490  -1.129  0.00  0.00    -0.000 C 
ATOM     11  C   UNL     1       2.068   2.515   1.287  0.00  0.00    -0.000 C 
ATOM     12  C   UNL     1       2.533   3.031   0.078  0.00  0.00    -0.000 C 
ENDBRANCH   1   7
BRANCH   2  13
ATOM     13  N   UNL     1      -2.115   1.448  -0.290  0.00  0.00    +0.388 N 
ATOM     14  C   UNL     1      -2.545   1.419   1.104  0.00  0.00    -0.100 C 
ATOM     15  C   UNL     1      -3.216   1.841  -1.164  0.00  0.00    -0.100 C 
ATOM     16  H   UNL     1      -1.370   2.139  -0.382  0.00  0.00    -0.079 HD
ENDBRANCH   2  13
BRANCH   1  18
ATOM     17  O   UNL     1      -0.032  -1.936  -1.642  0.00  0.00    -0.250 OA
ATOM     18  C   UNL     1       0.399  -1.406  -0.626  0.00  0.00    +0.318 C 
BRANCH  18  19
ATOM     19  O   UNL     1       1.539  -1.744   0.041  0.00  0.00    -0.448 OA
BRANCH  19  20
ATOM     20  C   UNL     1       2.284  -2.828  -0.523  0.00  0.00    +0.209 C 
ATOM     21  C   UNL     1       3.511  -3.078   0.327  0.00  0.00    +0.051 C 
ENDBRANCH  19  20
ENDBRANCH  18  19
ENDBRANCH   1  18
TORSDOF 5
