REMARK  Name = 3282
REMARK  3 active torsions:
REMARK  status: ('A' for Active; 'I' for Inactive)
REMARK    1  A    between atoms: C_1  and  O_12
REMARK    2  A    between atoms: C_2  and  C_9
REMARK    3  A    between atoms: O_12  and  C_13
REMARK                            x       y       z     vdW  Elec       q    Type
REMARK                         _______ _______ _______ _____ _____    ______ ____
ROOT
ATOM      1  C   UNL     1      -0.094   0.636  -0.274  0.00  0.00    +0.143 C 
ATOM      2  C   UNL     1       0.661  -0.512  -0.034  0.00  0.00    +0.087 C 
ATOM      3  C   UNL     1       0.518   1.890  -0.251  0.00  0.00    +0.037 C 
ATOM      4  C   UNL     1       2.027  -0.407   0.229  0.00  0.00    +0.008 C 
ATOM      5  C   UNL     1       1.883   1.995   0.012  0.00  0.00    +0.003 C 
ATOM      6  C   UNL     1       2.638   0.847   0.252  0.00  0.00    +0.000 C 
ENDROOT
BRANCH   2   9
ATOM      7  O   UNL     1      -1.167  -1.974  -0.301  0.00  0.00    -0.270 OA
ATOM      8  N   UNL     1       0.858  -2.930   0.192  0.00  0.00    -0.325 N 
ATOM      9  C   UNL     1       0.043  -1.831  -0.055  0.00  0.00    +0.246 C 
ATOM     10  H   UNL     1       0.477  -3.838   0.186  0.00  0.00    +0.145 HD
ATOM     11  H   UNL     1       1.818  -2.801   0.372  0.00  0.00    +0.145 HD
ENDBRANCH   2   9
BRANCH   1  12
ATOM     12  O   UNL     1      -1.429   0.554  -0.534  0.00  0.00    -0.475 OA
BRANCH  12  13
ATOM     13  C   UNL     1      -2.306   1.232   0.363  0.00  0.00    +0.206 C 
ATOM     14  C   UNL     1      -3.632   0.501   0.403  0.00  0.00    +0.051 C 
ENDBRANCH  12  13
ENDBRANCH   1  12
TORSDOF 3
