REMARK  Name = 3034047
REMARK  0 active torsions:
REMARK  status: ('A' for Active; 'I' for Inactive)
REMARK                            x       y       z     vdW  Elec       q    Type
REMARK                         _______ _______ _______ _____ _____    ______ ____
ROOT
ATOM      1  S   UNL     1       2.662   0.471   1.954  0.00  0.00    -0.109 S 
ATOM      2  N   UNL     1      -3.798   0.006  -0.449  0.00  0.00    +0.389 N 
ATOM      3  C   UNL     1      -3.067   1.174   0.083  0.00  0.00    -0.054 C 
ATOM      4  C   UNL     1      -3.058  -1.129   0.138  0.00  0.00    -0.054 C 
ATOM      5  C   UNL     1      -2.801   0.824   1.554  0.00  0.00    -0.023 C 
ATOM      6  C   UNL     1      -2.795  -0.707   1.590  0.00  0.00    -0.023 C 
ATOM      7  C   UNL     1      -1.754   1.287  -0.727  0.00  0.00    +0.001 C 
ATOM      8  C   UNL     1      -1.743  -1.269  -0.665  0.00  0.00    +0.001 C 
ATOM      9  C   UNL     1      -0.939   0.013  -0.656  0.00  0.00    -0.048 C 
ATOM     10  C   UNL     1      -5.213   0.009  -0.084  0.00  0.00    -0.100 C 
ATOM     11  C   UNL     1       0.395   0.023  -0.520  0.00  0.00    -0.008 C 
ATOM     12  C   UNL     1       1.054  -1.296  -0.466  0.00  0.00    -0.004 C 
ATOM     13  C   UNL     1       1.104   1.317  -0.345  0.00  0.00    +0.005 C 
ATOM     14  C   UNL     1       1.575  -1.757   0.755  0.00  0.00    -0.011 C 
ATOM     15  C   UNL     1       2.067   1.574   0.657  0.00  0.00    +0.026 C 
ATOM     16  C   UNL     1       1.167  -2.089  -1.618  0.00  0.00    -0.000 C 
ATOM     17  C   UNL     1       0.826   2.333  -1.290  0.00  0.00    +0.000 C 
ATOM     18  C   UNL     1       1.474  -0.902   1.987  0.00  0.00    +0.088 C 
ATOM     19  C   UNL     1       2.206  -3.008   0.802  0.00  0.00    -0.003 C 
ATOM     20  C   UNL     1       2.692   2.841   0.686  0.00  0.00    +0.006 C 
ATOM     21  C   UNL     1       1.794  -3.333  -1.555  0.00  0.00    -0.000 C 
ATOM     22  C   UNL     1       1.454   3.576  -1.238  0.00  0.00    +0.000 C 
ATOM     23  C   UNL     1       2.313  -3.791  -0.347  0.00  0.00    -0.000 C 
ATOM     24  C   UNL     1       2.386   3.832  -0.246  0.00  0.00    +0.001 C 
ATOM     25  H   UNL     1      -3.826  -0.019  -1.468  0.00  0.00    -0.080 HD
ENDROOT
TORSDOF 0
