REMARK  Name = 20055036
REMARK  6 active torsions:
REMARK  status: ('A' for Active; 'I' for Inactive)
REMARK    1  A    between atoms: N_2  and  CA_11
REMARK    2  A    between atoms: C_3  and  C_19
REMARK    3  A    between atoms: CA_10  and  C_16
REMARK    4  A    between atoms: C_16  and  O_17
REMARK    5  A    between atoms: C_19  and  C_20
REMARK    6  A    between atoms: C_19  and  S_26
REMARK                            x       y       z     vdW  Elec       q    Type
REMARK                         _______ _______ _______ _____ _____    ______ ____
ROOT
ATOM      1  O   UNL     1       1.732  -1.580   1.634  0.00  0.00    -0.273 OA
ATOM      2  N   UNL     1       0.237  -1.102  -0.074  0.00  0.00    -0.295 N 
ATOM      3  C   UNL     1       1.511  -1.179   0.493  0.00  0.00    +0.249 C 
ATOM      4  H   UNL     1       0.152  -0.769  -0.997  0.00  0.00    +0.150 HD
ENDROOT
BRANCH   2  11
ATOM      5  S   UNL     1      -1.526   1.323   0.635  0.00  0.00    -0.118 S 
ATOM      6  O   UNL     1      -2.360  -2.595  -1.200  0.00  0.00    -0.273 OA
ATOM      7  N   UNL     1      -2.914  -0.839   0.277  0.00  0.00    -0.260 N 
ATOM      8  C   UNL     1      -1.873  -0.382   1.202  0.00  0.00    +0.151 C 
ATOM      9  C   UNL     1      -3.290   1.536   0.076  0.00  0.00    +0.068 C 
ATOM     10  CA  UNL     1      -3.670   0.144  -0.471  0.00  0.00    +0.184 C 
ATOM     11  CA  UNL     1      -0.976  -1.494   0.640  0.00  0.00    +0.178 C 
ATOM     12  C   UNL     1      -2.169  -1.843  -0.271  0.00  0.00    +0.247 C 
ATOM     13  C   UNL     1      -3.338   2.600  -1.022  0.00  0.00    +0.013 C 
ATOM     14  C   UNL     1      -4.117   1.992   1.286  0.00  0.00    +0.013 C 
BRANCH  10  16
ATOM     15  OXT UNL     1      -5.628  -0.722   0.645  0.00  0.00    -0.248 OA
ATOM     16  C   UNL     1      -5.115  -0.221  -0.345  0.00  0.00    +0.333 C 
BRANCH  16  17
ATOM     17  O   UNL     1      -5.786   0.079  -1.484  0.00  0.00    -0.479 OA
ATOM     18  H   UNL     1      -5.331   0.463  -2.208  0.00  0.00    +0.295 HD
ENDBRANCH  16  17
ENDBRANCH  10  16
ENDBRANCH   2  11
BRANCH   3  19
ATOM     19  C   UNL     1       2.601  -0.709  -0.451  0.00  0.00    +0.233 C 
BRANCH  19  20
ATOM     20  C   UNL     1       2.950   0.749  -0.282  0.00  0.00    +0.009 C 
ATOM     21  C   UNL     1       3.406   1.488  -1.374  0.00  0.00    -0.002 C 
ATOM     22  C   UNL     1       2.815   1.359   0.966  0.00  0.00    -0.002 C 
ATOM     23  C   UNL     1       3.729   2.836  -1.218  0.00  0.00    -0.000 C 
ATOM     24  C   UNL     1       3.137   2.707   1.121  0.00  0.00    -0.000 C 
ATOM     25  C   UNL     1       3.594   3.446   0.030  0.00  0.00    -0.000 C 
ENDBRANCH  19  20
BRANCH  19  26
ATOM     26  S   UNL     1       4.094  -1.632  -0.234  0.00  0.00    +0.033 S 
ATOM     27  O   UNL     1       3.426  -3.119  -0.259  0.00  0.00    -0.069 OA
ATOM     28  O   UNL     1       4.613  -1.374   1.096  0.00  0.00    -0.069 OA
ATOM     29  O   UNL     1       4.917  -1.469  -1.417  0.00  0.00    -0.069 OA
ENDBRANCH  19  26
ENDBRANCH   3  19
TORSDOF 6
