REMARK  Name = 71490
REMARK  6 active torsions:
REMARK  status: ('A' for Active; 'I' for Inactive)
REMARK    1  A    between atoms: C_1  and  C_2
REMARK    2  A    between atoms: C_1  and  C_8
REMARK    3  A    between atoms: C_1  and  C_16
REMARK    4  A    between atoms: C_1  and  C_19
REMARK    5  A    between atoms: C_19  and  C_20
REMARK    6  A    between atoms: C_20  and  N_21
REMARK                            x       y       z     vdW  Elec       q    Type
REMARK                         _______ _______ _______ _____ _____    ______ ____
ROOT
ATOM      1  C   UNL     1       0.950  -0.094   0.461  0.00  0.00    +0.104 C 
ENDROOT
BRANCH   1   2
ATOM      2  C   UNL     1       1.272   1.329  -0.078  0.00  0.00    -0.011 C 
ATOM      3  C   UNL     1       0.690   1.710  -1.251  0.00  0.00    -0.004 C 
ATOM      4  C   UNL     1       2.118   2.108   0.657  0.00  0.00    -0.004 C 
ATOM      5  C   UNL     1       0.980   2.986  -1.734  0.00  0.00    -0.000 C 
ATOM      6  C   UNL     1       2.408   3.384   0.174  0.00  0.00    -0.000 C 
ATOM      7  C   UNL     1       1.839   3.823  -1.022  0.00  0.00    -0.000 C 
ENDBRANCH   1   2
BRANCH   1   8
ATOM      8  C   UNL     1       2.018  -1.056  -0.138  0.00  0.00    -0.011 C 
ATOM      9  C   UNL     1       3.326  -0.809   0.156  0.00  0.00    -0.004 C 
ATOM     10  C   UNL     1       1.577  -2.083  -0.919  0.00  0.00    -0.004 C 
ATOM     11  C   UNL     1       4.283  -1.671  -0.380  0.00  0.00    -0.000 C 
ATOM     12  C   UNL     1       2.534  -2.945  -1.455  0.00  0.00    -0.000 C 
ATOM     13  C   UNL     1       3.887  -2.739  -1.186  0.00  0.00    -0.000 C 
ENDBRANCH   1   8
BRANCH   1  16
ATOM     14  O   UNL     1       0.620   0.815   2.732  0.00  0.00    -0.275 OA
ATOM     15  N   UNL     1       1.343  -1.342   2.573  0.00  0.00    -0.328 N 
ATOM     16  C   UNL     1       0.972  -0.129   2.025  0.00  0.00    +0.226 C 
ATOM     17  H   UNL     1       1.382  -1.449   3.551  0.00  0.00    +0.145 HD
ATOM     18  H   UNL     1       1.567  -2.100   1.986  0.00  0.00    +0.145 HD
ENDBRANCH   1  16
BRANCH   1  19
ATOM     19  C   UNL     1      -0.509  -0.582   0.097  0.00  0.00    -0.005 C 
BRANCH  19  20
ATOM     20  C   UNL     1      -1.643   0.252   0.706  0.00  0.00    -0.072 C 
BRANCH  20  21
ATOM     21  N   UNL     1      -2.985  -0.384   0.322  0.00  0.00    +0.389 N 
ATOM     22  C   UNL     1      -3.074  -0.418  -1.208  0.00  0.00    -0.073 C 
ATOM     23  C   UNL     1      -4.106   0.479   0.911  0.00  0.00    -0.073 C 
ATOM     24  C   UNL     1      -4.451  -0.862  -1.687  0.00  0.00    -0.022 C 
ATOM     25  C   UNL     1      -5.480   0.033   0.427  0.00  0.00    -0.022 C 
ATOM     26  C   UNL     1      -5.562  -0.008  -1.092  0.00  0.00    -0.004 C 
ATOM     27  C   UNL     1      -3.004  -1.795   0.910  0.00  0.00    -0.096 C 
ENDBRANCH  20  21
ENDBRANCH  19  20
ENDBRANCH   1  19
TORSDOF 6
