REMARK  Name = 36054
REMARK  3 active torsions:
REMARK  status: ('A' for Active; 'I' for Inactive)
REMARK    1  A    between atoms: C_2  and  C_11
REMARK    2  A    between atoms: C_11  and  N_12
REMARK    3  A    between atoms: N_12  and  C_15
REMARK                            x       y       z     vdW  Elec       q    Type
REMARK                         _______ _______ _______ _____ _____    ______ ____
ROOT
ATOM      1  N   UNL     1       1.206   1.418  -0.265  0.00  0.00    +0.386 N 
ATOM      2  C   UNL     1       0.186   0.721   0.514  0.00  0.00    -0.037 C 
ATOM      3  C   UNL     1       0.581  -0.653   1.085  0.00  0.00    -0.019 C 
ATOM      4  C   UNL     1       0.980  -1.746   0.093  0.00  0.00    -0.002 C 
ATOM      5  C   UNL     1       2.192  -1.481  -0.803  0.00  0.00    -0.000 C 
ATOM      6  C   UNL     1       3.406  -0.882  -0.092  0.00  0.00    -0.002 C 
ATOM      7  C   UNL     1       3.578   0.629  -0.276  0.00  0.00    -0.023 C 
ATOM      8  C   UNL     1       2.514   1.523   0.366  0.00  0.00    -0.082 C 
ATOM      9  H   UNL     1       0.869   2.363  -0.450  0.00  0.00    -0.084 HD
ATOM     10  H   UNL     1       1.345   0.859  -1.107  0.00  0.00    -0.084 HD
ENDROOT
BRANCH   2  11
ATOM     11  C   UNL     1      -1.082   0.622  -0.341  0.00  0.00    +0.107 C 
BRANCH  11  12
ATOM     12  N   UNL     1      -2.166   0.129   0.499  0.00  0.00    -0.242 NA
BRANCH  12  15
ATOM     13  N   UNL     1      -4.402  -0.484   0.660  0.00  0.00    -0.370 N 
ATOM     14  N   UNL     1      -3.664   0.227  -1.376  0.00  0.00    -0.370 N 
ATOM     15  C   UNL     1      -3.327  -0.023  -0.065  0.00  0.00    +0.188 C 
ATOM     16  H   UNL     1      -4.295  -0.701   1.614  0.00  0.00    +0.159 HD
ATOM     17  H   UNL     1      -5.277  -0.596   0.224  0.00  0.00    +0.159 HD
ATOM     18  H   UNL     1      -2.983   0.562  -2.004  0.00  0.00    +0.159 HD
ATOM     19  H   UNL     1      -4.585   0.071  -1.687  0.00  0.00    +0.159 HD
ENDBRANCH  12  15
ENDBRANCH  11  12
ENDBRANCH   2  11
TORSDOF 3
