REMARK  Name = 5484
REMARK  2 active torsions:
REMARK  status: ('A' for Active; 'I' for Inactive)
REMARK    1  A    between atoms: C_7  and  C_11
REMARK    2  A    between atoms: C_7  and  C_16
REMARK                            x       y       z     vdW  Elec       q    Type
REMARK                         _______ _______ _______ _____ _____    ______ ____
ROOT
ATOM      1  N   UNL     1       2.988  -0.716   0.287  0.00  0.00    +0.388 N 
ATOM      2  C   UNL     1       0.544  -2.134  -0.524  0.00  0.00    +0.018 C 
ATOM      3  C   UNL     1       1.622  -2.777   0.348  0.00  0.00    -0.019 C 
ATOM      4  C   UNL     1       0.625  -0.635  -0.415  0.00  0.00    -0.064 C 
ATOM      5  C   UNL     1       3.005  -2.172   0.079  0.00  0.00    -0.077 C 
ATOM      6  C   UNL     1       2.009  -0.063  -0.600  0.00  0.00    -0.054 C 
ATOM      7  C   UNL     1      -0.448   0.128  -0.156  0.00  0.00    +0.002 C 
ATOM      8  C   UNL     1       4.322  -0.153   0.080  0.00  0.00    -0.100 C 
ATOM      9  H   UNL     1       2.706  -0.539   1.251  0.00  0.00    -0.079 HD
ENDROOT
BRANCH   7  11
ATOM     10  S   UNL     1       0.097   2.238   1.440  0.00  0.00    -0.086 S 
ATOM     11  C   UNL     1      -0.270   1.559  -0.071  0.00  0.00    +0.029 C 
ATOM     12  C   UNL     1      -0.362   2.464  -1.078  0.00  0.00    +0.007 C 
ATOM     13  C   UNL     1      -0.122   3.784  -0.600  0.00  0.00    +0.007 C 
ATOM     14  C   UNL     1       0.140   3.805   0.752  0.00  0.00    +0.035 C 
ENDBRANCH   7  11
BRANCH   7  16
ATOM     15  S   UNL     1      -2.708  -0.762  -1.337  0.00  0.00    -0.086 S 
ATOM     16  C   UNL     1      -1.726  -0.521   0.025  0.00  0.00    +0.029 C 
ATOM     17  C   UNL     1      -2.263  -0.979   1.184  0.00  0.00    +0.007 C 
ATOM     18  C   UNL     1      -3.544  -1.559   0.958  0.00  0.00    +0.007 C 
ATOM     19  C   UNL     1      -3.909  -1.508  -0.369  0.00  0.00    +0.035 C 
ENDBRANCH   7  16
TORSDOF 2
