2467
  -OEChem-10061700243D

 47 48  0     0  0  0  0  0  0999 V2000
   -0.2395    1.3440   -1.3923 O   0  0  0  0  0  0  0  0  0  0  0  0
    0.4845   -1.7428   -0.2425 O   0  0  0  0  0  0  0  0  0  0  0  0
    2.4334    2.6243    0.1621 O   0  0  0  0  0  0  0  0  0  0  0  0
    5.1586   -1.2642    0.5416 O   0  0  0  0  0  0  0  0  0  0  0  0
   -4.1591   -0.0296   -0.1048 N   0  0  0  0  0  0  0  0  0  0  0  0
   -4.6618   -1.3184   -0.5796 C   0  0  0  0  0  0  0  0  0  0  0  0
   -4.9590    0.2764    1.0809 C   0  0  0  0  0  0  0  0  0  0  0  0
   -6.1692   -1.1716   -0.4337 C   0  0  0  0  0  0  0  0  0  0  0  0
   -6.3645   -0.1209    0.6549 C   0  0  0  0  0  0  0  0  0  0  0  0
   -2.7323   -0.0605    0.1804 C   0  0  0  0  0  0  0  0  0  0  0  0
   -2.2574    1.3149    0.6533 C   0  0  0  0  0  0  0  0  0  0  0  0
   -0.7583    1.3364    0.9646 C   0  0  0  0  0  0  0  0  0  0  0  0
    0.1154    1.0599   -0.2508 C   0  0  0  0  0  0  0  0  0  0  0  0
    1.4559    0.4422   -0.0409 C   0  0  0  0  0  0  0  0  0  0  0  0
    1.5633   -0.9325   -0.0488 C   0  0  0  0  0  0  0  0  0  0  0  0
    2.5444    1.2658    0.1551 C   0  0  0  0  0  0  0  0  0  0  0  0
    2.8173   -1.5105    0.1485 C   0  0  0  0  0  0  0  0  0  0  0  0
    3.7985    0.6879    0.3522 C   0  0  0  0  0  0  0  0  0  0  0  0
    3.9349   -0.7002    0.3490 C   0  0  0  0  0  0  0  0  0  0  0  0
    0.1797   -2.1042   -1.5878 C   0  0  0  0  0  0  0  0  0  0  0  0
    2.5886    3.2930   -1.0877 C   0  0  0  0  0  0  0  0  0  0  0  0
    5.2265   -2.6892    0.5264 C   0  0  0  0  0  0  0  0  0  0  0  0
   -4.3745   -1.5172   -1.6169 H   0  0  0  0  0  0  0  0  0  0  0  0
   -4.3086   -2.1483    0.0460 H   0  0  0  0  0  0  0  0  0  0  0  0
   -4.6516   -0.3208    1.9490 H   0  0  0  0  0  0  0  0  0  0  0  0
   -4.9372    1.3359    1.3536 H   0  0  0  0  0  0  0  0  0  0  0  0
   -6.6193   -0.8228   -1.3706 H   0  0  0  0  0  0  0  0  0  0  0  0
   -6.6412   -2.1230   -0.1683 H   0  0  0  0  0  0  0  0  0  0  0  0
   -6.9437   -0.5128    1.4971 H   0  0  0  0  0  0  0  0  0  0  0  0
   -6.9067    0.7397    0.2456 H   0  0  0  0  0  0  0  0  0  0  0  0
   -2.4900   -0.8182    0.9371 H   0  0  0  0  0  0  0  0  0  0  0  0
   -2.1999   -0.3375   -0.7359 H   0  0  0  0  0  0  0  0  0  0  0  0
   -2.7729    1.6158    1.5721 H   0  0  0  0  0  0  0  0  0  0  0  0
   -2.4866    2.0705   -0.1088 H   0  0  0  0  0  0  0  0  0  0  0  0
   -0.4799    2.3246    1.3481 H   0  0  0  0  0  0  0  0  0  0  0  0
   -0.5347    0.5984    1.7434 H   0  0  0  0  0  0  0  0  0  0  0  0
    2.8601   -2.5948    0.1368 H   0  0  0  0  0  0  0  0  0  0  0  0
    4.6704    1.3180    0.5095 H   0  0  0  0  0  0  0  0  0  0  0  0
   -0.7647   -2.6555   -1.5878 H   0  0  0  0  0  0  0  0  0  0  0  0
    0.9632   -2.7539   -1.9903 H   0  0  0  0  0  0  0  0  0  0  0  0
    0.0672   -1.2201   -2.2222 H   0  0  0  0  0  0  0  0  0  0  0  0
    1.9137    2.8854   -1.8458 H   0  0  0  0  0  0  0  0  0  0  0  0
    3.6248    3.2122   -1.4310 H   0  0  0  0  0  0  0  0  0  0  0  0
    2.3513    4.3504   -0.9416 H   0  0  0  0  0  0  0  0  0  0  0  0
    6.2729   -2.9645    0.6943 H   0  0  0  0  0  0  0  0  0  0  0  0
    4.6455   -3.1287    1.3443 H   0  0  0  0  0  0  0  0  0  0  0  0
    4.9424   -3.0954   -0.4504 H   0  0  0  0  0  0  0  0  0  0  0  0
  1 13  2  0  0  0  0
  2 15  1  0  0  0  0
  2 20  1  0  0  0  0
  3 16  1  0  0  0  0
  3 21  1  0  0  0  0
  4 19  1  0  0  0  0
  4 22  1  0  0  0  0
  5  6  1  0  0  0  0
  5  7  1  0  0  0  0
  5 10  1  0  0  0  0
  6  8  1  0  0  0  0
  6 23  1  0  0  0  0
  6 24  1  0  0  0  0
  7  9  1  0  0  0  0
  7 25  1  0  0  0  0
  7 26  1  0  0  0  0
  8  9  1  0  0  0  0
  8 27  1  0  0  0  0
  8 28  1  0  0  0  0
  9 29  1  0  0  0  0
  9 30  1  0  0  0  0
 10 11  1  0  0  0  0
 10 31  1  0  0  0  0
 10 32  1  0  0  0  0
 11 12  1  0  0  0  0
 11 33  1  0  0  0  0
 11 34  1  0  0  0  0
 12 13  1  0  0  0  0
 12 35  1  0  0  0  0
 12 36  1  0  0  0  0
 13 14  1  0  0  0  0
 14 15  2  0  0  0  0
 14 16  1  0  0  0  0
 15 17  1  0  0  0  0
 16 18  2  0  0  0  0
 17 19  2  0  0  0  0
 17 37  1  0  0  0  0
 18 19  1  0  0  0  0
 18 38  1  0  0  0  0
 20 39  1  0  0  0  0
 20 40  1  0  0  0  0
 20 41  1  0  0  0  0
 21 42  1  0  0  0  0
 21 43  1  0  0  0  0
 21 44  1  0  0  0  0
 22 45  1  0  0  0  0
 22 46  1  0  0  0  0
 22 47  1  0  0  0  0
M  END
> <DATABASE_ID>
DB13510

> <DATABASE_NAME>
drugbank

> <ORIGINAL_SOURCE>
PUBCHEM

> <ORIGINAL_SOURCE_URL>
https://pubchem.ncbi.nlm.nih.gov/rest/pug/compound/inchikey/OWYLAEYXIQKAOL-UHFFFAOYSA-N/SDF?record_type=3d

> <SMILES>
COC1=CC(OC)=C(C(=O)CCCN2CCCC2)C(OC)=C1

> <INCHI_IDENTIFIER>
InChI=1S/C17H25NO4/c1-20-13-11-15(21-2)17(16(12-13)22-3)14(19)7-6-10-18-8-4-5-9-18/h11-12H,4-10H2,1-3H3

> <INCHI_KEY>
OWYLAEYXIQKAOL-UHFFFAOYSA-N

> <FORMULA>
C17H25NO4

> <MOLECULAR_WEIGHT>
307.39

> <EXACT_MASS>
307.178358289

> <JCHEM_ACCEPTOR_COUNT>
5

> <JCHEM_ATOM_COUNT>
47

> <JCHEM_AVERAGE_POLARIZABILITY>
34.46371855875033

> <JCHEM_BIOAVAILABILITY>
1

> <JCHEM_DONOR_COUNT>
0

> <JCHEM_FORMAL_CHARGE>
0

> <JCHEM_GHOSE_FILTER>
1

> <JCHEM_IUPAC>
4-(pyrrolidin-1-yl)-1-(2,4,6-trimethoxyphenyl)butan-1-one

> <ALOGPS_LOGP>
2.33

> <JCHEM_LOGP>
1.8808494339999995

> <ALOGPS_LOGS>
-2.80

> <JCHEM_MDDR_LIKE_RULE>
0

> <JCHEM_NUMBER_OF_RINGS>
2

> <JCHEM_PHYSIOLOGICAL_CHARGE>
1

> <JCHEM_PKA_STRONGEST_ACIDIC>
15.614276039910465

> <JCHEM_PKA_STRONGEST_BASIC>
8.694064765263184

> <JCHEM_POLAR_SURFACE_AREA>
48.0

> <JCHEM_REFRACTIVITY>
86.2748

> <JCHEM_ROTATABLE_BOND_COUNT>
8

> <JCHEM_RULE_OF_FIVE>
1

> <ALOGPS_SOLUBILITY>
4.86e-01 g/l

> <JCHEM_TRADITIONAL_IUPAC>
lofton

> <JCHEM_VEBER_RULE>
0

> <DRUGBANK_ID>
DB13510

> <DRUG_GROUPS>
experimental

> <GENERIC_NAME>
Buflomedil

$$$$
