REMARK  Name = 9395
REMARK  7 active torsions:
REMARK  status: ('A' for Active; 'I' for Inactive)
REMARK    1  A    between atoms: O_1  and  C_2
REMARK    2  A    between atoms: O_1  and  P_11
REMARK    3  A    between atoms: C_5  and  N_10
REMARK    4  A    between atoms: P_11  and  O_13
REMARK    5  A    between atoms: P_11  and  O_16
REMARK    6  A    between atoms: O_13  and  C_14
REMARK    7  A    between atoms: O_16  and  C_17
REMARK                            x       y       z     vdW  Elec       q    Type
REMARK                         _______ _______ _______ _____ _____    ______ ____
ROOT
ATOM      1  O   UNL     1       0.912  -1.018   0.226  0.00  0.00    -0.402 OA
ENDROOT
BRANCH   1   2
ATOM      2  C   UNL     1      -0.419  -0.717   0.127  0.00  0.00    +0.149 C 
ATOM      3  C   UNL     1      -0.873   0.538   0.520  0.00  0.00    +0.039 C 
ATOM      4  C   UNL     1      -1.307  -1.667  -0.367  0.00  0.00    +0.039 C 
ATOM      5  C   UNL     1      -3.125  -0.102  -0.075  0.00  0.00    +0.143 C 
ATOM      6  C   UNL     1      -2.230   0.846   0.419  0.00  0.00    +0.027 C 
ATOM      7  C   UNL     1      -2.664  -1.359  -0.469  0.00  0.00    +0.027 C 
BRANCH   5  10
ATOM      8  O   UNL     1      -4.902   1.345   0.182  0.00  0.00    -0.126 OA
ATOM      9  O   UNL     1      -5.294  -0.658  -0.626  0.00  0.00    -0.126 OA
ATOM     10  N   UNL     1      -4.506   0.210  -0.178  0.00  0.00    +0.058 N 
ENDBRANCH   5  10
ENDBRANCH   1   2
BRANCH   1  11
ATOM     11  P   UNL     1       2.051  -0.015   0.779  0.00  0.00    +0.535 P 
ATOM     12  O   UNL     1       1.853   0.454   2.193  0.00  0.00    -0.215 OA
BRANCH  11  13
ATOM     13  O   UNL     1       2.119   1.160  -0.336  0.00  0.00    -0.264 OA
BRANCH  13  14
ATOM     14  C   UNL     1       3.138   2.138  -0.224  0.00  0.00    +0.155 C 
ATOM     15  C   UNL     1       3.016   3.114  -1.343  0.00  0.00    +0.035 C 
ENDBRANCH  13  14
ENDBRANCH  11  13
BRANCH  11  16
ATOM     16  O   UNL     1       3.426  -0.846   0.558  0.00  0.00    -0.264 OA
BRANCH  16  17
ATOM     17  C   UNL     1       3.750  -1.353  -0.725  0.00  0.00    +0.155 C 
ATOM     18  C   UNL     1       5.053  -2.072  -0.661  0.00  0.00    +0.035 C 
ENDBRANCH  16  17
ENDBRANCH  11  16
ENDBRANCH   1  11
TORSDOF 7
