REMARK  Name = 6719
REMARK  4 active torsions:
REMARK  status: ('A' for Active; 'I' for Inactive)
REMARK    1  A    between atoms: C_1  and  C_2
REMARK    2  A    between atoms: C_1  and  C_8
REMARK    3  A    between atoms: C_1  and  C_15
REMARK    4  A    between atoms: C_15  and  C_18
REMARK                            x       y       z     vdW  Elec       q    Type
REMARK                         _______ _______ _______ _____ _____    ______ ____
ROOT
ATOM      1  C   UNL     1       1.348   0.121  -0.403  0.00  0.00    +0.103 C 
ENDROOT
BRANCH   1   2
ATOM      2  C   UNL     1       2.170   1.337   0.004  0.00  0.00    -0.011 C 
ATOM      3  C   UNL     1       1.981   2.525  -0.671  0.00  0.00    -0.004 C 
ATOM      4  C   UNL     1       3.078   1.213   1.036  0.00  0.00    -0.004 C 
ATOM      5  C   UNL     1       2.734   3.638  -0.299  0.00  0.00    -0.000 C 
ATOM      6  C   UNL     1       3.830   2.326   1.408  0.00  0.00    -0.000 C 
ATOM      7  C   UNL     1       3.659   3.539   0.741  0.00  0.00    -0.000 C 
ENDBRANCH   1   2
BRANCH   1   8
ATOM      8  C   UNL     1       2.155  -1.169  -0.391  0.00  0.00    -0.011 C 
ATOM      9  C   UNL     1       2.973  -1.454  -1.465  0.00  0.00    -0.004 C 
ATOM     10  C   UNL     1       2.045  -2.016   0.694  0.00  0.00    -0.004 C 
ATOM     11  C   UNL     1       3.712  -2.637  -1.455  0.00  0.00    -0.000 C 
ATOM     12  C   UNL     1       2.784  -3.198   0.704  0.00  0.00    -0.000 C 
ATOM     13  C   UNL     1       3.618  -3.509  -0.370  0.00  0.00    -0.000 C 
ENDBRANCH   1   8
BRANCH   1  15
ATOM     14  O   UNL     1      -0.094   0.362   1.541  0.00  0.00    -0.294 OA
ATOM     15  C   UNL     1       0.028   0.016   0.365  0.00  0.00    +0.173 C 
BRANCH  15  18
ATOM     16  O   UNL     1      -1.596   1.311  -1.934  0.00  0.00    -0.290 OA
ATOM     17  O   UNL     1      -1.943  -2.221   1.205  0.00  0.00    -0.290 OA
ATOM     18  C   UNL     1      -1.140  -0.532  -0.382  0.00  0.00    +0.181 C 
ATOM     19  C   UNL     1      -1.972   0.525  -1.085  0.00  0.00    +0.187 C 
ATOM     20  C   UNL     1      -2.147  -1.254   0.496  0.00  0.00    +0.187 C 
ATOM     21  C   UNL     1      -3.340   0.450  -0.570  0.00  0.00    +0.038 C 
ATOM     22  C   UNL     1      -3.442  -0.588   0.352  0.00  0.00    +0.038 C 
ATOM     23  C   UNL     1      -4.426   1.237  -0.900  0.00  0.00    +0.003 C 
ATOM     24  C   UNL     1      -4.634  -0.883   0.984  0.00  0.00    +0.003 C 
ATOM     25  C   UNL     1      -5.640   0.955  -0.269  0.00  0.00    +0.000 C 
ATOM     26  C   UNL     1      -5.743  -0.095   0.664  0.00  0.00    +0.000 C 
ENDBRANCH  15  18
ENDBRANCH   1  15
TORSDOF 4
