REMARK  Name = 25430
REMARK  8 active torsions:
REMARK  status: ('A' for Active; 'I' for Inactive)
REMARK    1  A    between atoms: C_1  and  C_3
REMARK    2  A    between atoms: C_1  and  C_6
REMARK    3  A    between atoms: C_1  and  C_11
REMARK    4  A    between atoms: C_3  and  C_4
REMARK    5  A    between atoms: C_6  and  O_7
REMARK    6  A    between atoms: O_7  and  N_10
REMARK    7  A    between atoms: C_11  and  O_12
REMARK    8  A    between atoms: O_12  and  N_15
REMARK                            x       y       z     vdW  Elec       q    Type
REMARK                         _______ _______ _______ _____ _____    ______ ____
ROOT
ATOM      1  C   UNL     1      -0.237  -0.969   0.407  0.00  0.00    +0.087 C 
ATOM      2  C   UNL     1       0.016  -1.742   1.717  0.00  0.00    +0.008 C 
ENDROOT
BRANCH   1   3
ATOM      3  C   UNL     1      -1.258  -1.729  -0.491  0.00  0.00    +0.007 C 
BRANCH   3   4
ATOM      4  C   UNL     1      -2.657  -1.915   0.108  0.00  0.00    +0.000 C 
ATOM      5  C   UNL     1      -3.586  -2.619  -0.871  0.00  0.00    +0.000 C 
ENDBRANCH   3   4
ENDBRANCH   1   3
BRANCH   1   6
ATOM      6  C   UNL     1       1.116  -0.879  -0.347  0.00  0.00    +0.247 C 
BRANCH   6   7
ATOM      7  O   UNL     1       2.102  -0.192   0.411  0.00  0.00    -0.336 OA
BRANCH   7  10
ATOM      8  O   UNL     1       3.359  -0.617  -1.361  0.00  0.00    -0.090 OA
ATOM      9  O   UNL     1       4.268   0.494   0.345  0.00  0.00    -0.090 OA
ATOM     10  N   UNL     1       3.358  -0.089  -0.248  0.00  0.00    +0.218 N 
ENDBRANCH   7  10
ENDBRANCH   6   7
ENDBRANCH   1   6
BRANCH   1  11
ATOM     11  C   UNL     1      -0.738   0.450   0.770  0.00  0.00    +0.247 C 
BRANCH  11  12
ATOM     12  O   UNL     1      -1.003   1.226  -0.390  0.00  0.00    -0.336 OA
BRANCH  12  15
ATOM     13  O   UNL     1      -1.553   2.763   1.107  0.00  0.00    -0.090 OA
ATOM     14  O   UNL     1      -1.720   3.278  -1.056  0.00  0.00    -0.090 OA
ATOM     15  N   UNL     1      -1.466   2.540  -0.102  0.00  0.00    +0.218 N 
ENDBRANCH  12  15
ENDBRANCH  11  12
ENDBRANCH   1  11
TORSDOF 8
