REMARK  Name = 2097
REMARK  6 active torsions:
REMARK  status: ('A' for Active; 'I' for Inactive)
REMARK    1  A    between atoms: C_1  and  C_13
REMARK    2  A    between atoms: C_2  and  N_7
REMARK    3  A    between atoms: N_7  and  C_9
REMARK    4  A    between atoms: C_9  and  C_10
REMARK    5  A    between atoms: C_13  and  C_16
REMARK    6  A    between atoms: C_16  and  O_17
REMARK                            x       y       z     vdW  Elec       q    Type
REMARK                         _______ _______ _______ _____ _____    ______ ____
ROOT
ATOM      1  C   UNL     1      -1.719   0.504   0.107  0.00  0.00    -0.012 C 
ATOM      2  C   UNL     1       1.057   0.365   0.241  0.00  0.00    +0.045 C 
ATOM      3  C   UNL     1      -1.038   1.143   1.143  0.00  0.00    -0.002 C 
ATOM      4  C   UNL     1      -1.008  -0.205  -0.861  0.00  0.00    -0.002 C 
ATOM      5  C   UNL     1       0.354   1.074   1.210  0.00  0.00    +0.014 C 
ATOM      6  C   UNL     1       0.383  -0.275  -0.794  0.00  0.00    +0.014 C 
ENDROOT
BRANCH   2   7
ATOM      7  N   UNL     1       2.471   0.294   0.310  0.00  0.00    -0.329 N 
ATOM      8  H   UNL     1       2.917   0.758   1.055  0.00  0.00    +0.147 HD
BRANCH   7   9
ATOM      9  C   UNL     1       3.305  -0.409  -0.634  0.00  0.00    +0.110 C 
BRANCH   9  10
ATOM     10  C   UNL     1       4.744  -0.308  -0.208  0.00  0.00    -0.025 C 
ATOM     11  C   UNL     1       5.103  -0.892   1.128  0.00  0.00    +0.028 C 
ATOM     12  C   UNL     1       5.673   0.250  -1.000  0.00  0.00    -0.007 C 
ENDBRANCH   9  10
ENDBRANCH   7   9
ENDBRANCH   2   7
BRANCH   1  13
ATOM     13  C   UNL     1      -3.206   0.579   0.034  0.00  0.00    +0.121 C 
ATOM     14  C   UNL     1      -3.737   1.254  -1.247  0.00  0.00    +0.016 C 
BRANCH  13  16
ATOM     15  O   UNL     1      -3.271  -1.849   0.295  0.00  0.00    -0.250 OA
ATOM     16  C   UNL     1      -3.877  -0.793   0.165  0.00  0.00    +0.317 C 
BRANCH  16  17
ATOM     17  O   UNL     1      -5.234  -0.731   0.112  0.00  0.00    -0.480 OA
ATOM     18  H   UNL     1      -5.661   0.097   0.012  0.00  0.00    +0.295 HD
ENDBRANCH  16  17
ENDBRANCH  13  16
ENDBRANCH   1  13
TORSDOF 6
