REMARK  Name = 6762
REMARK  8 active torsions:
REMARK  status: ('A' for Active; 'I' for Inactive)
REMARK    1  A    between atoms: C_1  and  C_2
REMARK    2  A    between atoms: C_1  and  C_17
REMARK    3  A    between atoms: C_2  and  N_3
REMARK    4  A    between atoms: N_4  and  C_11
REMARK    5  A    between atoms: C_11  and  C_12
REMARK    6  A    between atoms: C_12  and  O_13
REMARK    7  A    between atoms: O_13  and  C_15
REMARK    8  A    between atoms: C_17  and  N_20
REMARK                            x       y       z     vdW  Elec       q    Type
REMARK                         _______ _______ _______ _____ _____    ______ ____
ROOT
ATOM      1  C   UNL     1       1.256  -1.484   0.976  0.00  0.00    -0.001 C 
ENDROOT
BRANCH   1   2
ATOM      2  C   UNL     1       0.075  -2.458   0.921  0.00  0.00    -0.076 C 
BRANCH   2   3
ATOM      3  N   UNL     1      -1.065  -1.895   0.202  0.00  0.00    +0.384 N 
ATOM      4  N   UNL     1      -3.895  -1.453  -0.196  0.00  0.00    +0.387 N 
ATOM      5  C   UNL     1      -1.822  -0.977   1.062  0.00  0.00    -0.101 C 
ATOM      6  C   UNL     1      -1.939  -2.960  -0.306  0.00  0.00    -0.101 C 
ATOM      7  C   UNL     1      -3.021  -0.388   0.310  0.00  0.00    -0.101 C 
ATOM      8  C   UNL     1      -3.138  -2.371  -1.056  0.00  0.00    -0.101 C 
ATOM      9  H   UNL     1      -0.706  -1.367  -0.594  0.00  0.00    -0.080 HD
ATOM     10  H   UNL     1      -4.252  -1.980   0.601  0.00  0.00    -0.080 HD
BRANCH   4  11
ATOM     11  C   UNL     1      -5.037  -0.890  -0.914  0.00  0.00    -0.029 C 
BRANCH  11  12
ATOM     12  C   UNL     1      -6.053  -0.317   0.060  0.00  0.00    +0.186 C 
BRANCH  12  13
ATOM     13  O   UNL     1      -7.135   0.233  -0.680  0.00  0.00    -0.451 OA
BRANCH  13  15
ATOM     14  O   UNL     1      -8.184   0.858   1.282  0.00  0.00    -0.250 OA
ATOM     15  C   UNL     1      -8.140   0.793   0.061  0.00  0.00    +0.317 C 
ATOM     16  C   UNL     1      -9.205   1.328  -0.847  0.00  0.00    +0.121 C 
ENDBRANCH  13  15
ENDBRANCH  12  13
ENDBRANCH  11  12
ENDBRANCH   4  11
ENDBRANCH   2   3
ENDBRANCH   1   2
BRANCH   1  17
ATOM     17  C   UNL     1       1.770  -1.030  -0.390  0.00  0.00    +0.093 C 
BRANCH  17  20
ATOM     18 CL   UNL     1      -0.394   3.690   0.785  0.00  0.00    -0.082 Cl
ATOM     19  S   UNL     1       5.357   1.709  -0.832  0.00  0.00    -0.084 S 
ATOM     20  N   UNL     1       2.932  -0.144  -0.239  0.00  0.00    -0.286 N 
ATOM     21  C   UNL     1       2.683   1.247  -0.133  0.00  0.00    +0.058 C 
ATOM     22  C   UNL     1       4.209  -0.753  -0.144  0.00  0.00    +0.058 C 
ATOM     23  C   UNL     1       3.708   2.188  -0.354  0.00  0.00    +0.043 C 
ATOM     24  C   UNL     1       5.386  -0.011  -0.367  0.00  0.00    +0.043 C 
ATOM     25  C   UNL     1       1.417   1.754   0.233  0.00  0.00    +0.027 C 
ATOM     26  C   UNL     1       4.366  -2.111   0.211  0.00  0.00    +0.015 C 
ATOM     27  C   UNL     1       3.457   3.567  -0.239  0.00  0.00    +0.009 C 
ATOM     28  C   UNL     1       6.650  -0.618  -0.264  0.00  0.00    +0.008 C 
ATOM     29  C   UNL     1       1.174   3.126   0.351  0.00  0.00    +0.059 C 
ATOM     30  C   UNL     1       5.625  -2.708   0.317  0.00  0.00    +0.001 C 
ATOM     31  C   UNL     1       2.195   4.033   0.112  0.00  0.00    +0.012 C 
ATOM     32  C   UNL     1       6.768  -1.961   0.077  0.00  0.00    +0.001 C 
ENDBRANCH  17  20
ENDBRANCH   1  17
TORSDOF 8
