REMARK  Name = 11703306
REMARK  5 active torsions:
REMARK  status: ('A' for Active; 'I' for Inactive)
REMARK    1  A    between atoms: N_2  and  C_16
REMARK    2  A    between atoms: C_3  and  C_7
REMARK    3  A    between atoms: C_10  and  C_15
REMARK    4  A    between atoms: C_19  and  C_25
REMARK    5  A    between atoms: C_20  and  C_27
REMARK                            x       y       z     vdW  Elec       q    Type
REMARK                         _______ _______ _______ _____ _____    ______ ____
ROOT
ATOM      1  O   UNL     1       1.115  -2.394  -0.102  0.00  0.00    -0.273 OA
ATOM      2  N   UNL     1       0.174  -0.341   0.558  0.00  0.00    -0.283 N 
ATOM      3  C   UNL     1       1.190  -1.273   0.392  0.00  0.00    +0.244 C 
ATOM      4  H   UNL     1       0.430   0.513   0.976  0.00  0.00    +0.155 HD
ENDROOT
BRANCH   3   7
ATOM      5  N   UNL     1       3.522  -1.701   0.484  0.00  0.00    -0.252 N 
ATOM      6  N   UNL     1       4.647  -1.099   0.034  0.00  0.00    -0.185 NA
ATOM      7  C   UNL     1       2.496  -0.747   0.907  0.00  0.00    +0.145 C 
ATOM      8  C   UNL     1       2.931   0.523   0.189  0.00  0.00    +0.080 C 
ATOM      9  C   UNL     1       2.458  -0.588   2.424  0.00  0.00    +0.031 C 
ATOM     10  C   UNL     1       4.334   0.140  -0.168  0.00  0.00    +0.149 C 
ATOM     11  H   UNL     1       3.407  -2.678   0.524  0.00  0.00    +0.169 HD
BRANCH  10  15
ATOM     12  F   UNL     1       4.713   2.362  -0.827  0.00  0.00    -0.165 F 
ATOM     13  F   UNL     1       6.375   1.280   0.077  0.00  0.00    -0.165 F 
ATOM     14  F   UNL     1       5.727   0.790  -1.947  0.00  0.00    -0.165 F 
ATOM     15  C   UNL     1       5.290   1.144  -0.717  0.00  0.00    +0.433 C 
ENDBRANCH  10  15
ENDBRANCH   3   7
BRANCH   2  16
ATOM     16  C   UNL     1      -1.187  -0.477   0.196  0.00  0.00    +0.050 C 
ATOM     17  C   UNL     1      -2.062   0.569   0.441  0.00  0.00    +0.019 C 
ATOM     18  C   UNL     1      -1.616  -1.654  -0.396  0.00  0.00    +0.015 C 
ATOM     19  C   UNL     1      -3.404   0.434   0.083  0.00  0.00    +0.082 C 
ATOM     20  C   UNL     1      -3.851  -0.745  -0.514  0.00  0.00    +0.072 C 
ATOM     21  C   UNL     1      -2.958  -1.788  -0.753  0.00  0.00    +0.011 C 
BRANCH  19  25
ATOM     22  F   UNL     1      -3.724   2.643   0.944  0.00  0.00    -0.166 F 
ATOM     23  F   UNL     1      -4.927   2.070  -0.768  0.00  0.00    -0.166 F 
ATOM     24  F   UNL     1      -5.354   1.225   1.190  0.00  0.00    -0.166 F 
ATOM     25  C   UNL     1      -4.333   1.573   0.356  0.00  0.00    +0.419 C 
ENDBRANCH  19  25
BRANCH  20  27
ATOM     26  N   UNL     1      -6.334  -1.038  -1.195  0.00  0.00    -0.191 NA
ATOM     27  C   UNL     1      -5.223  -0.907  -0.890  0.00  0.00    +0.100 C 
ENDBRANCH  20  27
ENDBRANCH   2  16
TORSDOF 5
