REMARK  Name = 155774
REMARK  10 active torsions:
REMARK  status: ('A' for Active; 'I' for Inactive)
REMARK    1  A    between atoms: N_1  and  C_4
REMARK    2  A    between atoms: N_1  and  C_16
REMARK    3  A    between atoms: C_4  and  C_5
REMARK    4  A    between atoms: C_5  and  N_9
REMARK    5  A    between atoms: C_16  and  C_17
REMARK    6  A    between atoms: C_17  and  O_18
REMARK    7  A    between atoms: C_17  and  C_20
REMARK    8  A    between atoms: C_20  and  O_21
REMARK    9  A    between atoms: O_21  and  C_22
REMARK   10  A    between atoms: C_27  and  O_28
REMARK                            x       y       z     vdW  Elec       q    Type
REMARK                         _______ _______ _______ _____ _____    ______ ____
ROOT
ATOM      1  N   UNL     1       2.413  -2.022   0.402  0.00  0.00    +0.387 N 
ATOM      2  H   UNL     1       2.672  -2.466   1.283  0.00  0.00    -0.084 HD
ATOM      3  H   UNL     1       1.727  -1.285   0.562  0.00  0.00    -0.084 HD
ENDROOT
BRANCH   1   4
ATOM      4  C   UNL     1       1.825  -3.021  -0.481  0.00  0.00    -0.060 C 
BRANCH   4   5
ATOM      5  C   UNL     1       0.582  -3.623   0.156  0.00  0.00    +0.068 C 
BRANCH   5   9
ATOM      6  O   UNL     1      -4.450   0.296   0.872  0.00  0.00    -0.350 OA
ATOM      7  O   UNL     1      -1.452  -2.773  -1.593  0.00  0.00    -0.253 OA
ATOM      8  N   UNL     1      -2.264  -1.234  -0.059  0.00  0.00    -0.259 N 
ATOM      9  N   UNL     1      -0.405  -2.606   0.442  0.00  0.00    -0.291 N 
ATOM     10  C   UNL     1      -3.319  -0.784  -0.970  0.00  0.00    +0.127 C 
ATOM     11  C   UNL     1      -2.156  -0.448   1.178  0.00  0.00    +0.127 C 
ATOM     12  C   UNL     1      -4.634  -0.594  -0.230  0.00  0.00    +0.164 C 
ATOM     13  C   UNL     1      -3.527  -0.249   1.815  0.00  0.00    +0.164 C 
ATOM     14  C   UNL     1      -1.380  -2.243  -0.479  0.00  0.00    +0.304 C 
ATOM     15  H   UNL     1      -0.386  -2.156   1.317  0.00  0.00    +0.151 HD
ENDBRANCH   5   9
ENDBRANCH   4   5
ENDBRANCH   1   4
BRANCH   1  16
ATOM     16  C   UNL     1       3.599  -1.429  -0.200  0.00  0.00    -0.048 C 
BRANCH  16  17
ATOM     17  C   UNL     1       4.205  -0.333   0.680  0.00  0.00    +0.133 C 
BRANCH  17  18
ATOM     18  O   UNL     1       5.335   0.216  -0.004  0.00  0.00    -0.383 OA
ATOM     19  H   UNL     1       5.964  -0.494  -0.209  0.00  0.00    +0.210 HD
ENDBRANCH  17  18
BRANCH  17  20
ATOM     20  C   UNL     1       3.229   0.800   0.992  0.00  0.00    +0.232 C 
BRANCH  20  21
ATOM     21  O   UNL     1       2.840   1.421  -0.229  0.00  0.00    -0.473 OA
BRANCH  21  22
ATOM     22  C   UNL     1       1.581   1.959  -0.272  0.00  0.00    +0.139 C 
ATOM     23  C   UNL     1       0.995   2.455   0.893  0.00  0.00    +0.040 C 
ATOM     24  C   UNL     1       0.885   2.010  -1.479  0.00  0.00    +0.040 C 
ATOM     25  C   UNL     1      -0.287   3.003   0.849  0.00  0.00    +0.040 C 
ATOM     26  C   UNL     1      -0.397   2.558  -1.523  0.00  0.00    +0.040 C 
ATOM     27  C   UNL     1      -0.983   3.054  -0.358  0.00  0.00    +0.134 C 
BRANCH  27  28
ATOM     28  O   UNL     1      -2.234   3.588  -0.401  0.00  0.00    -0.506 OA
ATOM     29  H   UNL     1      -2.628   3.921   0.381  0.00  0.00    +0.292 HD
ENDBRANCH  27  28
ENDBRANCH  21  22
ENDBRANCH  20  21
ENDBRANCH  17  20
ENDBRANCH  16  17
ENDBRANCH   1  16
TORSDOF 10
