REMARK  Name = 45266826
REMARK  3 active torsions:
REMARK  status: ('A' for Active; 'I' for Inactive)
REMARK    1  A    between atoms: C_2  and  C_3
REMARK    2  A    between atoms: C_2  and  C_10
REMARK    3  A    between atoms: C_10  and  N_12
REMARK                            x       y       z     vdW  Elec       q    Type
REMARK                         _______ _______ _______ _____ _____    ______ ____
ROOT
ATOM      1  O   UNL     1       1.609   1.766  -0.539  0.00  0.00    -0.294 OA
ATOM      2  C   UNL     1       1.214   0.594  -0.361  0.00  0.00    +0.153 C 
ENDROOT
BRANCH   2   3
ATOM      3  C   UNL     1      -0.205   0.314  -0.214  0.00  0.00    +0.033 C 
ATOM      4  C   UNL     1      -0.719  -0.919  -0.616  0.00  0.00    +0.002 C 
ATOM      5  C   UNL     1      -1.053   1.279   0.329  0.00  0.00    +0.002 C 
ATOM      6  C   UNL     1      -2.928  -0.221   0.068  0.00  0.00    -0.022 C 
ATOM      7  C   UNL     1      -2.080  -1.187  -0.475  0.00  0.00    -0.004 C 
ATOM      8  C   UNL     1      -2.415   1.012   0.469  0.00  0.00    -0.004 C 
ATOM      9  C   UNL     1      -4.384  -0.508   0.218  0.00  0.00    +0.031 C 
ENDBRANCH   2   3
BRANCH   2  10
ATOM     10  C   UNL     1       2.257  -0.543  -0.284  0.00  0.00    +0.002 C 
ATOM     11  C   UNL     1       3.089  -0.587  -1.559  0.00  0.00    -0.016 C 
BRANCH  10  12
ATOM     12  N   UNL     1       3.131  -0.294   0.864  0.00  0.00    +0.388 N 
ATOM     13  C   UNL     1       2.485  -0.705   2.100  0.00  0.00    -0.105 C 
ATOM     14  H   UNL     1       3.344   0.702   0.913  0.00  0.00    -0.084 HD
ATOM     15  H   UNL     1       3.989  -0.834   0.747  0.00  0.00    -0.084 HD
ENDBRANCH  10  12
ENDBRANCH   2  10
TORSDOF 3
