REMARK  Name = 69550
REMARK  3 active torsions:
REMARK  status: ('A' for Active; 'I' for Inactive)
REMARK    1  A    between atoms: N_3  and  C_14
REMARK    2  A    between atoms: C_14  and  C_16
REMARK    3  A    between atoms: C_16  and  O_17
REMARK                            x       y       z     vdW  Elec       q    Type
REMARK                         _______ _______ _______ _____ _____    ______ ____
ROOT
ATOM      1  O   UNL     1      -0.526  -2.158  -0.509  0.00  0.00    -0.272 OA
ATOM      2  O   UNL     1       3.805  -0.607   0.412  0.00  0.00    -0.252 OA
ATOM      3  N   UNL     1      -1.317   0.727  -0.537  0.00  0.00    -0.230 NA
ATOM      4  N   UNL     1       2.110   0.965   0.148  0.00  0.00    -0.228 N 
ATOM      5  N   UNL     1       1.651  -1.405  -0.047  0.00  0.00    -0.211 N 
ATOM      6  N   UNL     1       0.128   2.387  -0.179  0.00  0.00    -0.240 NA
ATOM      7  C   UNL     1      -0.103   0.138  -0.325  0.00  0.00    +0.192 C 
ATOM      8  C   UNL     1       0.762   1.176  -0.108  0.00  0.00    +0.136 C 
ATOM      9  C   UNL     1       0.266  -1.240  -0.313  0.00  0.00    +0.254 C 
ATOM     10  C   UNL     1       2.615  -0.359   0.188  0.00  0.00    +0.318 C 
ATOM     11  C   UNL     1      -1.126   2.081  -0.439  0.00  0.00    +0.203 C 
ATOM     12  C   UNL     1       2.993   2.103   0.372  0.00  0.00    +0.123 C 
ATOM     13  C   UNL     1       2.151  -2.775  -0.009  0.00  0.00    +0.124 C 
ENDROOT
BRANCH   3  14
ATOM     14  C   UNL     1      -2.574   0.074  -0.812  0.00  0.00    +0.185 C 
BRANCH  14  16
ATOM     15  O   UNL     1      -2.988  -0.004   1.587  0.00  0.00    -0.249 OA
ATOM     16  C   UNL     1      -3.340  -0.245   0.442  0.00  0.00    +0.330 C 
BRANCH  16  17
ATOM     17  O   UNL     1      -4.509  -0.859   0.127  0.00  0.00    -0.479 OA
ATOM     18  H   UNL     1      -4.727  -1.019  -0.770  0.00  0.00    +0.295 HD
ENDBRANCH  16  17
ENDBRANCH  14  16
ENDBRANCH   3  14
TORSDOF 3
