REMARK  Name = 3590
REMARK  6 active torsions:
REMARK  status: ('A' for Active; 'I' for Inactive)
REMARK    1  A    between atoms: C_1  and  C_2
REMARK    2  A    between atoms: C_1  and  C_8
REMARK    3  A    between atoms: C_2  and  C_3
REMARK    4  A    between atoms: C_3  and  O_6
REMARK    5  A    between atoms: C_8  and  C_9
REMARK    6  A    between atoms: C_9  and  N_11
REMARK                            x       y       z     vdW  Elec       q    Type
REMARK                         _______ _______ _______ _____ _____    ______ ____
ROOT
ATOM      1  C   UNL     1      -0.273   0.086   0.151  0.00  0.00    +0.000 C 
ENDROOT
BRANCH   1   2
ATOM      2  C   UNL     1       0.964  -0.598  -0.441  0.00  0.00    +0.027 C 
BRANCH   2   3
ATOM      3  C   UNL     1       2.321  -0.011  -0.003  0.00  0.00    +0.088 C 
ATOM      4  C   UNL     1       2.495  -0.011   1.517  0.00  0.00    +0.029 C 
ATOM      5  C   UNL     1       2.553   1.393  -0.563  0.00  0.00    +0.029 C 
BRANCH   3   6
ATOM      6  O   UNL     1       3.346  -0.846  -0.557  0.00  0.00    -0.387 OA
ATOM      7  H   UNL     1       3.239  -1.752  -0.227  0.00  0.00    +0.210 HD
ENDBRANCH   3   6
ENDBRANCH   2   3
ENDBRANCH   1   2
BRANCH   1   8
ATOM      8  C   UNL     1      -1.559  -0.624  -0.293  0.00  0.00    -0.022 C 
BRANCH   8   9
ATOM      9  C   UNL     1      -2.828  -0.022   0.333  0.00  0.00    -0.066 C 
ATOM     10  C   UNL     1      -3.007   1.431  -0.107  0.00  0.00    -0.024 C 
BRANCH   9  11
ATOM     11  N   UNL     1      -4.012  -0.797  -0.038  0.00  0.00    +0.382 N 
ATOM     12  H   UNL     1      -3.891  -1.766   0.257  0.00  0.00    -0.089 HD
ATOM     13  H   UNL     1      -4.138  -0.762  -1.049  0.00  0.00    -0.089 HD
ATOM     14  H   UNL     1      -4.834  -0.403   0.420  0.00  0.00    -0.089 HD
ENDBRANCH   9  11
ENDBRANCH   8   9
ENDBRANCH   1   8
TORSDOF 6
