20737
  -OEChem-10061700243D

 16 16  0     0  0  0  0  0  0999 V2000
   -0.0597    3.0515    0.0020 Br  0  0  0  0  0  0  0  0  0  0  0  0
   -2.7577   -2.0239    0.0000 Br  0  0  0  0  0  0  0  0  0  0  0  0
    2.8878   -1.8546   -0.0002 Br  0  0  0  0  0  0  0  0  0  0  0  0
    2.3706    1.1919   -0.0007 O   0  0  0  0  0  0  0  0  0  0  0  0
   -1.2114    0.4159   -0.0006 C   0  0  0  0  0  0  0  0  0  0  0  0
   -0.0229    1.1463   -0.0012 C   0  0  0  0  0  0  0  0  0  0  0  0
   -1.1733   -0.9784    0.0006 C   0  0  0  0  0  0  0  0  0  0  0  0
    1.2038    0.4821   -0.0006 C   0  0  0  0  0  0  0  0  0  0  0  0
    0.0533   -1.6425    0.0011 C   0  0  0  0  0  0  0  0  0  0  0  0
   -2.5323    1.1241   -0.0009 C   0  0  0  0  0  0  0  0  0  0  0  0
    1.2419   -0.9123    0.0005 C   0  0  0  0  0  0  0  0  0  0  0  0
    0.0840   -2.7301    0.0017 H   0  0  0  0  0  0  0  0  0  0  0  0
   -2.5298    1.9788    0.6837 H   0  0  0  0  0  0  0  0  0  0  0  0
   -2.7686    1.4750   -1.0111 H   0  0  0  0  0  0  0  0  0  0  0  0
   -3.3728    0.5234    0.3513 H   0  0  0  0  0  0  0  0  0  0  0  0
    2.1543    2.1402   -0.0015 H   0  0  0  0  0  0  0  0  0  0  0  0
  1  6  1  0  0  0  0
  2  7  1  0  0  0  0
  3 11  1  0  0  0  0
  4  8  1  0  0  0  0
  4 16  1  0  0  0  0
  5  6  2  0  0  0  0
  5  7  1  0  0  0  0
  5 10  1  0  0  0  0
  6  8  1  0  0  0  0
  7  9  2  0  0  0  0
  8 11  2  0  0  0  0
  9 11  1  0  0  0  0
  9 12  1  0  0  0  0
 10 13  1  0  0  0  0
 10 14  1  0  0  0  0
 10 15  1  0  0  0  0
M  END
> <DATABASE_ID>
DB13513

> <DATABASE_NAME>
drugbank

> <ORIGINAL_SOURCE>
PUBCHEM

> <ORIGINAL_SOURCE_URL>
https://pubchem.ncbi.nlm.nih.gov/rest/pug/compound/inchikey/QKHROXOPRBWBDD-UHFFFAOYSA-N/SDF?record_type=3d

> <SMILES>
CC1=C(Br)C=C(Br)C(O)=C1Br

> <INCHI_IDENTIFIER>
InChI=1S/C7H5Br3O/c1-3-4(8)2-5(9)7(11)6(3)10/h2,11H,1H3

> <INCHI_KEY>
QKHROXOPRBWBDD-UHFFFAOYSA-N

> <FORMULA>
C7H5Br3O

> <MOLECULAR_WEIGHT>
344.828

> <EXACT_MASS>
341.789054

> <JCHEM_ACCEPTOR_COUNT>
1

> <JCHEM_ATOM_COUNT>
16

> <JCHEM_AVERAGE_POLARIZABILITY>
21.830008940522518

> <JCHEM_BIOAVAILABILITY>
1

> <JCHEM_DONOR_COUNT>
1

> <JCHEM_FORMAL_CHARGE>
0

> <JCHEM_GHOSE_FILTER>
0

> <JCHEM_IUPAC>
2,4,6-tribromo-3-methylphenol

> <ALOGPS_LOGP>
4.46

> <JCHEM_LOGP>
4.489359759666666

> <ALOGPS_LOGS>
-4.36

> <JCHEM_MDDR_LIKE_RULE>
0

> <JCHEM_NUMBER_OF_RINGS>
1

> <JCHEM_PHYSIOLOGICAL_CHARGE>
-1

> <JCHEM_PKA_STRONGEST_ACIDIC>
6.511330804395475

> <JCHEM_PKA_STRONGEST_BASIC>
-7.704587987386643

> <JCHEM_POLAR_SURFACE_AREA>
20.23

> <JCHEM_REFRACTIVITY>
55.948499999999996

> <JCHEM_ROTATABLE_BOND_COUNT>
0

> <JCHEM_RULE_OF_FIVE>
1

> <ALOGPS_SOLUBILITY>
1.49e-02 g/l

> <JCHEM_TRADITIONAL_IUPAC>
tribromometacresol

> <JCHEM_VEBER_RULE>
1

> <DRUGBANK_ID>
DB13513

> <DRUG_GROUPS>
experimental

> <GENERIC_NAME>
Tribromometacresol

> <SYNONYMS>
2,4,6-tribromo-m-cresol

$$$$
