REMARK  Name = 83435
REMARK  5 active torsions:
REMARK  status: ('A' for Active; 'I' for Inactive)
REMARK    1  A    between atoms: N_3  and  C_14
REMARK    2  A    between atoms: C_14  and  C_15
REMARK    3  A    between atoms: C_15  and  O_16
REMARK    4  A    between atoms: O_16  and  C_18
REMARK    5  A    between atoms: C_18  and  C_20
REMARK                            x       y       z     vdW  Elec       q    Type
REMARK                         _______ _______ _______ _____ _____    ______ ____
ROOT
ATOM      1  O   UNL     1       0.266  -0.092   2.046  0.00  0.00    -0.272 OA
ATOM      2  O   UNL     1       3.167  -3.010  -0.208  0.00  0.00    -0.252 OA
ATOM      3  N   UNL     1       1.448   2.056   0.333  0.00  0.00    -0.236 NA
ATOM      4  N   UNL     1       3.208  -0.757  -0.788  0.00  0.00    -0.228 N 
ATOM      5  N   UNL     1       1.709  -1.573   0.931  0.00  0.00    -0.211 N 
ATOM      6  N   UNL     1       3.032   1.665  -1.186  0.00  0.00    -0.240 NA
ATOM      7  C   UNL     1       1.707   0.717   0.387  0.00  0.00    +0.192 C 
ATOM      8  C   UNL     1       2.680   0.505  -0.551  0.00  0.00    +0.136 C 
ATOM      9  C   UNL     1       1.138  -0.302   1.208  0.00  0.00    +0.254 C 
ATOM     10  C   UNL     1       2.270   2.584  -0.629  0.00  0.00    +0.203 C 
ATOM     11  C   UNL     1       2.733  -1.864  -0.041  0.00  0.00    +0.318 C 
ATOM     12  C   UNL     1       4.244  -0.933  -1.798  0.00  0.00    +0.123 C 
ATOM     13  C   UNL     1       1.208  -2.700   1.710  0.00  0.00    +0.124 C 
ENDROOT
BRANCH   3  14
ATOM     14  C   UNL     1       0.497   2.800   1.124  0.00  0.00    +0.122 C 
BRANCH  14  15
ATOM     15  C   UNL     1      -0.877   2.870   0.470  0.00  0.00    +0.226 C 
BRANCH  15  16
ATOM     16  O   UNL     1      -1.408   1.559   0.330  0.00  0.00    -0.444 OA
BRANCH  16  18
ATOM     17  O   UNL     1      -3.316   2.408  -0.640  0.00  0.00    -0.245 OA
ATOM     18  C   UNL     1      -2.640   1.471  -0.244  0.00  0.00    +0.343 C 
BRANCH  18  20
ATOM     19  N   UNL     1      -4.881  -1.516  -0.348  0.00  0.00    -0.242 NA
ATOM     20  C   UNL     1      -3.080   0.056  -0.331  0.00  0.00    +0.095 C 
ATOM     21  C   UNL     1      -2.147  -0.944  -0.468  0.00  0.00    +0.010 C 
ATOM     22  C   UNL     1      -4.414  -0.249  -0.275  0.00  0.00    +0.105 C 
ATOM     23  C   UNL     1      -2.589  -2.260  -0.548  0.00  0.00    +0.021 C 
ATOM     24  C   UNL     1      -3.954  -2.491  -0.483  0.00  0.00    +0.099 C 
ENDBRANCH  18  20
ENDBRANCH  16  18
ENDBRANCH  15  16
ENDBRANCH  14  15
ENDBRANCH   3  14
TORSDOF 5
