REMARK  Name = 6918191
REMARK  3 active torsions:
REMARK  status: ('A' for Active; 'I' for Inactive)
REMARK    1  A    between atoms: C_1  and  C_5
REMARK    2  A    between atoms: C_1  and  C_13
REMARK    3  A    between atoms: C_1  and  N_19
REMARK                            x       y       z     vdW  Elec       q    Type
REMARK                         _______ _______ _______ _____ _____    ______ ____
ROOT
ATOM      1  C   UNL     1       0.764   0.863  -0.757  0.00  0.00    +0.142 C 
ENDROOT
BRANCH   1   5
ATOM      2  N   UNL     1      -3.317  -1.524   0.906  0.00  0.00    -0.200 N 
ATOM      3  N   UNL     1      -4.684  -0.495  -0.404  0.00  0.00    -0.146 NA
ATOM      4  N   UNL     1      -4.608  -1.416   0.551  0.00  0.00    -0.045 NA
ATOM      5  C   UNL     1      -0.694   0.542  -0.707  0.00  0.00    -0.001 C 
ATOM      6  C   UNL     1      -1.151  -0.426   0.194  0.00  0.00    +0.015 C 
ATOM      7  C   UNL     1      -2.521  -0.677   0.191  0.00  0.00    +0.084 C 
ATOM      8  C   UNL     1      -1.575   1.215  -1.560  0.00  0.00    -0.022 C 
ATOM      9  C   UNL     1      -3.419  -0.026  -0.643  0.00  0.00    +0.099 C 
ATOM     10  C   UNL     1      -2.949   0.942  -1.542  0.00  0.00    +0.075 C 
ATOM     11  C   UNL     1      -2.923  -2.457   1.933  0.00  0.00    +0.139 C 
ENDBRANCH   1   5
BRANCH   1  13
ATOM     12 CL   UNL     1       4.647  -3.594   0.285  0.00  0.00    -0.082 Cl
ATOM     13  C   UNL     1       1.760  -0.278  -0.491  0.00  0.00    +0.002 C 
ATOM     14  C   UNL     1       2.166  -1.049  -1.551  0.00  0.00    -0.001 C 
ATOM     15  C   UNL     1       2.196  -0.474   0.795  0.00  0.00    -0.001 C 
ATOM     16  C   UNL     1       3.068  -2.085  -1.309  0.00  0.00    +0.011 C 
ATOM     17  C   UNL     1       3.099  -1.510   1.038  0.00  0.00    +0.011 C 
ATOM     18  C   UNL     1       3.534  -2.315  -0.014  0.00  0.00    +0.058 C 
ENDBRANCH   1  13
BRANCH   1  19
ATOM     19  N   UNL     1       1.099   2.088   0.037  0.00  0.00    -0.184 N 
ATOM     20  N   UNL     1       0.441   2.318   1.150  0.00  0.00    -0.153 NA
ATOM     21  N   UNL     1       2.012   3.908   0.665  0.00  0.00    -0.203 NA
ATOM     22  C   UNL     1       2.018   2.992  -0.275  0.00  0.00    +0.186 C 
ATOM     23  C   UNL     1       1.038   3.457   1.509  0.00  0.00    +0.218 C 
ENDBRANCH   1  19
TORSDOF 3
