REMARK  Name = 9687
REMARK  8 active torsions:
REMARK  status: ('A' for Active; 'I' for Inactive)
REMARK    1  A    between atoms: P_1  and  O_27
REMARK    2  A    between atoms: C_7  and  O_29
REMARK    3  A    between atoms: C_9  and  N_11
REMARK    4  A    between atoms: C_22  and  C_24
REMARK    5  A    between atoms: C_24  and  C_25
REMARK    6  A    between atoms: O_29  and  C_31
REMARK    7  A    between atoms: C_31  and  C_32
REMARK    8  A    between atoms: C_32  and  C_33
REMARK                            x       y       z     vdW  Elec       q    Type
REMARK                         _______ _______ _______ _____ _____    ______ ____
ROOT
ATOM      1  P   UNL     1       5.078   2.474  -0.884  0.00  0.00    +0.477 P 
ATOM      2  O   UNL     1       1.902   1.230   1.773  0.00  0.00    -0.332 OA
ATOM      3  O   UNL     1       4.154   1.140  -0.999  0.00  0.00    -0.269 OA
ATOM      4  O   UNL     1       4.971   2.953   0.666  0.00  0.00    -0.271 OA
ATOM      5  O   UNL     1       6.487   2.291  -1.372  0.00  0.00    -0.227 OA
ATOM      6  C   UNL     1       2.925   1.185  -0.310  0.00  0.00    +0.200 C 
ATOM      7  C   UNL     1       2.134  -0.101  -0.229  0.00  0.00    +0.245 C 
ATOM      8  C   UNL     1       3.166   1.471   1.157  0.00  0.00    +0.179 C 
ATOM      9  C   UNL     1       1.284   0.143   1.032  0.00  0.00    +0.239 C 
ATOM     10  C   UNL     1       3.713   2.872   1.339  0.00  0.00    +0.186 C 
ENDROOT
BRANCH   9  11
ATOM     11  N   UNL     1      -0.110   0.482   0.740  0.00  0.00    -0.246 N 
ATOM     12  N   UNL     1      -1.895   1.727   0.258  0.00  0.00    -0.242 NA
ATOM     13  N   UNL     1      -1.150  -1.710   0.857  0.00  0.00    -0.228 NA
ATOM     14  N   UNL     1      -3.547  -1.579   0.418  0.00  0.00    -0.228 NA
ATOM     15  C   UNL     1      -1.166  -0.382   0.672  0.00  0.00    +0.152 C 
ATOM     16  C   UNL     1      -0.598   1.736   0.484  0.00  0.00    +0.223 C 
ATOM     17  C   UNL     1      -2.263   0.410   0.372  0.00  0.00    +0.140 C 
ATOM     18  C   UNL     1      -3.489  -0.236   0.245  0.00  0.00    +0.152 C 
ATOM     19  C   UNL     1      -2.391  -2.223   0.709  0.00  0.00    +0.253 C 
ATOM     20  O   UNL     1      -6.322  -1.156  -0.126  0.00  0.00    -0.275 OA
ATOM     21  N   UNL     1      -4.642   0.490  -0.054  0.00  0.00    -0.268 N 
ATOM     22  C   UNL     1      -5.952   0.010  -0.218  0.00  0.00    +0.227 C 
ATOM     23  H   UNL     1      -4.523   1.461  -0.164  0.00  0.00    +0.156 HD
BRANCH  22  24
ATOM     24  C   UNL     1      -6.913   1.139  -0.569  0.00  0.00    +0.085 C 
BRANCH  24  25
ATOM     25  C   UNL     1      -8.358   0.685  -0.762  0.00  0.00    +0.010 C 
ATOM     26  C   UNL     1      -9.290   1.837  -1.111  0.00  0.00    +0.001 C 
ENDBRANCH  24  25
ENDBRANCH  22  24
ENDBRANCH   9  11
BRANCH   1  27
ATOM     27  O   UNL     1       4.255   3.605  -1.699  0.00  0.00    -0.302 OA
ATOM     28  H   UNL     1       3.358   3.676  -1.338  0.00  0.00    +0.222 HD
ENDBRANCH   1  27
BRANCH   7  29
ATOM     29  O   UNL     1       3.010  -1.202  -0.003  0.00  0.00    -0.445 OA
BRANCH  29  31
ATOM     30  O   UNL     1       1.489  -2.627  -0.994  0.00  0.00    -0.250 OA
ATOM     31  C   UNL     1       2.559  -2.419  -0.438  0.00  0.00    +0.317 C 
BRANCH  31  32
ATOM     32  C   UNL     1       3.597  -3.473  -0.123  0.00  0.00    +0.110 C 
BRANCH  32  33
ATOM     33  C   UNL     1       3.149  -4.865  -0.560  0.00  0.00    +0.012 C 
ATOM     34  C   UNL     1       4.213  -5.910  -0.268  0.00  0.00    +0.001 C 
ENDBRANCH  32  33
ENDBRANCH  31  32
ENDBRANCH  29  31
ENDBRANCH   7  29
TORSDOF 8
