9863672
  -OEChem-10051723433D

 40 42  0     1  0  0  0  0  0999 V2000
   -0.3975    1.0589   -0.1738 S   0  0  0  0  0  0  0  0  0  0  0  0
    1.9374    2.3075    0.4681 F   0  0  0  0  0  0  0  0  0  0  0  0
   -0.0666    1.7565    1.0546 O   0  0  0  0  0  0  0  0  0  0  0  0
   -0.3226    1.7165   -1.4647 O   0  0  0  0  0  0  0  0  0  0  0  0
   -1.9412    0.3196    0.0048 N   0  0  2  0  0  0  0  0  0  0  0  0
   -4.9767   -0.4703    0.0757 N   0  0  0  0  0  0  0  0  0  0  0  0
    4.9229    0.2857    0.4477 N   0  0  0  0  0  0  0  0  0  0  0  0
   -3.1148    1.1531   -0.4210 C   0  0  2  0  0  0  0  0  0  0  0  0
   -2.0916   -0.5451    1.2039 C   0  0  0  0  0  0  0  0  0  0  0  0
   -4.4293    0.8638    0.3188 C   0  0  0  0  0  0  0  0  0  0  0  0
   -2.9743   -1.7475    0.8896 C   0  0  0  0  0  0  0  0  0  0  0  0
   -4.4687   -1.4660    1.0153 C   0  0  0  0  0  0  0  0  0  0  0  0
   -3.2855    0.9988   -1.9362 C   0  0  0  0  0  0  0  0  0  0  0  0
    0.8230   -0.2477   -0.2926 C   0  0  0  0  0  0  0  0  0  0  0  0
    2.1688   -0.0352   -0.0412 C   0  0  0  0  0  0  0  0  0  0  0  0
    0.3089   -1.4779   -0.6541 C   0  0  0  0  0  0  0  0  0  0  0  0
    3.0449   -1.1336   -0.1634 C   0  0  0  0  0  0  0  0  0  0  0  0
    1.1775   -2.5601   -0.7738 C   0  0  0  0  0  0  0  0  0  0  0  0
    2.6911    1.2103    0.3256 C   0  0  0  0  0  0  0  0  0  0  0  0
    2.5404   -2.3921   -0.5303 C   0  0  0  0  0  0  0  0  0  0  0  0
    4.3992   -0.9091    0.0923 C   0  0  0  0  0  0  0  0  0  0  0  0
    4.0546    1.3139    0.5549 C   0  0  0  0  0  0  0  0  0  0  0  0
   -2.8766    2.2043   -0.2094 H   0  0  0  0  0  0  0  0  0  0  0  0
   -2.4746    0.0348    2.0505 H   0  0  0  0  0  0  0  0  0  0  0  0
   -1.1184   -0.9235    1.5308 H   0  0  0  0  0  0  0  0  0  0  0  0
   -4.3415    1.0734    1.3917 H   0  0  0  0  0  0  0  0  0  0  0  0
   -5.1789    1.5788   -0.0444 H   0  0  0  0  0  0  0  0  0  0  0  0
   -2.7323   -2.5452    1.6035 H   0  0  0  0  0  0  0  0  0  0  0  0
   -2.7599   -2.1480   -0.1080 H   0  0  0  0  0  0  0  0  0  0  0  0
   -5.0122   -2.4009    0.8347 H   0  0  0  0  0  0  0  0  0  0  0  0
   -4.7150   -1.1724    2.0432 H   0  0  0  0  0  0  0  0  0  0  0  0
   -4.8047   -0.7702   -0.8812 H   0  0  0  0  0  0  0  0  0  0  0  0
   -4.2238    1.4523   -2.2738 H   0  0  0  0  0  0  0  0  0  0  0  0
   -2.4853    1.4943   -2.4907 H   0  0  0  0  0  0  0  0  0  0  0  0
   -3.2810   -0.0530   -2.2422 H   0  0  0  0  0  0  0  0  0  0  0  0
   -0.7271   -1.6400   -0.9188 H   0  0  0  0  0  0  0  0  0  0  0  0
    0.7962   -3.5325   -1.0722 H   0  0  0  0  0  0  0  0  0  0  0  0
    3.2051   -3.2470   -0.6317 H   0  0  0  0  0  0  0  0  0  0  0  0
    5.1275   -1.7119    0.0162 H   0  0  0  0  0  0  0  0  0  0  0  0
    4.4969    2.2624    0.8416 H   0  0  0  0  0  0  0  0  0  0  0  0
  1  3  2  0  0  0  0
  1  4  2  0  0  0  0
  1  5  1  0  0  0  0
  1 14  1  0  0  0  0
  2 19  1  0  0  0  0
  5  8  1  0  0  0  0
  5  9  1  0  0  0  0
  6 10  1  0  0  0  0
  6 12  1  0  0  0  0
  6 32  1  0  0  0  0
  7 21  1  0  0  0  0
  7 22  2  0  0  0  0
  8 10  1  0  0  0  0
  8 13  1  0  0  0  0
  8 23  1  0  0  0  0
  9 11  1  0  0  0  0
  9 24  1  0  0  0  0
  9 25  1  0  0  0  0
 10 26  1  0  0  0  0
 10 27  1  0  0  0  0
 11 12  1  0  0  0  0
 11 28  1  0  0  0  0
 11 29  1  0  0  0  0
 12 30  1  0  0  0  0
 12 31  1  0  0  0  0
 13 33  1  0  0  0  0
 13 34  1  0  0  0  0
 13 35  1  0  0  0  0
 14 15  1  0  0  0  0
 14 16  2  0  0  0  0
 15 17  1  0  0  0  0
 15 19  2  0  0  0  0
 16 18  1  0  0  0  0
 16 36  1  0  0  0  0
 17 20  1  0  0  0  0
 17 21  2  0  0  0  0
 18 20  2  0  0  0  0
 18 37  1  0  0  0  0
 19 22  1  0  0  0  0
 20 38  1  0  0  0  0
 21 39  1  0  0  0  0
 22 40  1  0  0  0  0
M  END
> <DATABASE_ID>
DB13165

> <DATABASE_NAME>
drugbank

> <ORIGINAL_SOURCE>
PUBCHEM

> <ORIGINAL_SOURCE_URL>
https://pubchem.ncbi.nlm.nih.gov/rest/pug/compound/inchikey/QSKQVZWVLOIIEV-NSHDSACASA-N/SDF?record_type=3d

> <SMILES>
C[C@H]1CNCCCN1S(=O)(=O)C1=C2C(F)=CN=CC2=CC=C1

> <INCHI_IDENTIFIER>
InChI=1S/C15H18FN3O2S/c1-11-8-17-6-3-7-19(11)22(20,21)14-5-2-4-12-9-18-10-13(16)15(12)14/h2,4-5,9-11,17H,3,6-8H2,1H3/t11-/m0/s1

> <INCHI_KEY>
QSKQVZWVLOIIEV-NSHDSACASA-N

> <FORMULA>
C15H18FN3O2S

> <MOLECULAR_WEIGHT>
323.39

> <EXACT_MASS>
323.110376169

> <JCHEM_ACCEPTOR_COUNT>
4

> <JCHEM_ATOM_COUNT>
40

> <JCHEM_AVERAGE_POLARIZABILITY>
31.25479700495837

> <JCHEM_BIOAVAILABILITY>
1

> <JCHEM_DONOR_COUNT>
1

> <JCHEM_FORMAL_CHARGE>
0

> <JCHEM_GHOSE_FILTER>
1

> <JCHEM_IUPAC>
4-fluoro-5-{[(2S)-2-methyl-1,4-diazepan-1-yl]sulfonyl}isoquinoline

> <ALOGPS_LOGP>
0.72

> <JCHEM_LOGP>
0.8817413883333332

> <ALOGPS_LOGS>
-3.03

> <JCHEM_MDDR_LIKE_RULE>
0

> <JCHEM_NUMBER_OF_RINGS>
3

> <JCHEM_PHYSIOLOGICAL_CHARGE>
1

> <JCHEM_PKA_STRONGEST_BASIC>
8.20426528356289

> <JCHEM_POLAR_SURFACE_AREA>
62.300000000000004

> <JCHEM_REFRACTIVITY>
82.55859999999998

> <JCHEM_ROTATABLE_BOND_COUNT>
1

> <JCHEM_RULE_OF_FIVE>
1

> <ALOGPS_SOLUBILITY>
3.00e-01 g/l

> <JCHEM_TRADITIONAL_IUPAC>
4-fluoro-5-[(2S)-2-methyl-1,4-diazepan-1-ylsulfonyl]isoquinoline

> <JCHEM_VEBER_RULE>
0

> <DRUGBANK_ID>
DB13165

> <DRUG_GROUPS>
experimental

> <GENERIC_NAME>
Ripasudil

> <SALTS>
Ripasudil hydrochloride dihydrate

$$$$
