REMARK  Name = 60652
REMARK  3 active torsions:
REMARK  status: ('A' for Active; 'I' for Inactive)
REMARK    1  A    between atoms: C_1  and  C_4
REMARK    2  A    between atoms: C_1  and  C_14
REMARK    3  A    between atoms: C_1  and  N_20
REMARK                            x       y       z     vdW  Elec       q    Type
REMARK                         _______ _______ _______ _____ _____    ______ ____
ROOT
ATOM      1  C   UNL     1      -0.699   0.619   0.802  0.00  0.00    +0.124 C 
ENDROOT
BRANCH   1   4
ATOM      2  N   UNL     1       3.699  -0.125  -1.487  0.00  0.00    -0.315 N 
ATOM      3  N   UNL     1       4.643  -1.119   0.263  0.00  0.00    -0.315 N 
ATOM      4  C   UNL     1       0.713   0.141   0.709  0.00  0.00    +0.001 C 
ATOM      5  C   UNL     1       1.421   0.328  -0.482  0.00  0.00    +0.013 C 
ATOM      6  C   UNL     1       1.301  -0.483   1.812  0.00  0.00    -0.001 C 
ATOM      7  C   UNL     1       2.736  -0.139  -0.511  0.00  0.00    +0.059 C 
ATOM      8  C   UNL     1       3.349  -0.764   0.571  0.00  0.00    +0.059 C 
ATOM      9  C   UNL     1       2.623  -0.944   1.760  0.00  0.00    +0.015 C 
ATOM     10  C   UNL     1       4.819  -0.721  -0.977  0.00  0.00    +0.182 C 
ATOM     11  H   UNL     1       3.601   0.248  -2.393  0.00  0.00    +0.148 HD
ATOM     12  H   UNL     1       5.294  -1.572   0.845  0.00  0.00    +0.148 HD
ENDBRANCH   1   4
BRANCH   1  14
ATOM     13 CL   UNL     1      -2.308  -3.535  -1.881  0.00  0.00    -0.082 Cl
ATOM     14  C   UNL     1      -1.811  -0.400   0.496  0.00  0.00    +0.001 C 
ATOM     15  C   UNL     1      -1.563  -1.373  -0.439  0.00  0.00    +0.009 C 
ATOM     16  C   UNL     1      -2.999  -0.288   1.173  0.00  0.00    -0.002 C 
ATOM     17  C   UNL     1      -2.571  -2.297  -0.715  0.00  0.00    +0.057 C 
ATOM     18  C   UNL     1      -4.007  -1.212   0.897  0.00  0.00    +0.001 C 
ATOM     19  C   UNL     1      -3.793  -2.216  -0.047  0.00  0.00    +0.011 C 
ENDBRANCH   1  14
BRANCH   1  20
ATOM     20  N   UNL     1      -0.941   1.920   0.103  0.00  0.00    -0.262 N 
ATOM     21  N   UNL     1      -1.028   4.064  -0.215  0.00  0.00    -0.225 NA
ATOM     22  C   UNL     1      -1.407   2.031  -1.143  0.00  0.00    +0.088 C 
ATOM     23  C   UNL     1      -0.720   3.120   0.646  0.00  0.00    +0.168 C 
ATOM     24  C   UNL     1      -1.457   3.393  -1.332  0.00  0.00    +0.117 C 
ENDBRANCH   1  20
TORSDOF 3
