REMARK  Name = 15376
REMARK  4 active torsions:
REMARK  status: ('A' for Active; 'I' for Inactive)
REMARK    1  A    between atoms: C_3  and  C_27
REMARK    2  A    between atoms: C_8  and  O_21
REMARK    3  A    between atoms: C_8  and  C_24
REMARK    4  A    between atoms: C_24  and  O_25
REMARK                            x       y       z     vdW  Elec       q    Type
REMARK                         _______ _______ _______ _____ _____    ______ ____
ROOT
ATOM      1  N   UNL     1      -2.372   1.822   0.662  0.00  0.00    +0.392 N 
ATOM      2  N   UNL     1       0.638  -0.218  -0.090  0.00  0.00    -0.306 N 
ATOM      3  C   UNL     1      -2.254  -0.642   0.006  0.00  0.00    -0.007 C 
ATOM      4  C   UNL     1      -1.622   0.543   0.779  0.00  0.00    -0.018 C 
ATOM      5  C   UNL     1      -1.270  -1.851   0.051  0.00  0.00    +0.059 C 
ATOM      6  C   UNL     1      -0.190   0.745   0.408  0.00  0.00    +0.016 A 
ATOM      7  C   UNL     1      -2.586  -0.224  -1.445  0.00  0.00    -0.004 C 
ATOM      8  C   UNL     1       0.172  -1.561  -0.434  0.00  0.00    +0.251 C 
ATOM      9  C   UNL     1      -3.384   1.078  -1.491  0.00  0.00    -0.023 C 
ATOM     10  C   UNL     1      -2.673   2.195  -0.728  0.00  0.00    -0.077 C 
ATOM     11  C   UNL     1       0.487   1.937   0.488  0.00  0.00    -0.013 A 
ATOM     12  C   UNL     1      -1.654   2.912   1.375  0.00  0.00    -0.072 C 
ATOM     13  C   UNL     1      -0.206   3.193   0.889  0.00  0.00    +0.005 C 
ATOM     14  C   UNL     1       1.896   0.330  -0.291  0.00  0.00    +0.061 A 
ATOM     15  C   UNL     1       1.820   1.687   0.068  0.00  0.00    +0.013 A 
ATOM     16  C   UNL     1       3.091  -0.232  -0.773  0.00  0.00    +0.017 C 
ATOM     17  C   UNL     1       2.967   2.497  -0.062  0.00  0.00    +0.001 C 
ATOM     18  C   UNL     1       4.215   0.591  -0.884  0.00  0.00    +0.001 C 
ATOM     19  C   UNL     1       4.157   1.936  -0.535  0.00  0.00    +0.000 C 
ATOM     20  H   UNL     1      -3.276   1.675   1.111  0.00  0.00    -0.079 HD
ENDROOT
BRANCH   8  21
ATOM     21  O   UNL     1       0.207  -1.704  -1.849  0.00  0.00    -0.360 OA
ATOM     22  H   UNL     1      -0.358  -1.029  -2.256  0.00  0.00    +0.213 HD
ENDBRANCH   8  21
BRANCH   8  24
ATOM     23  O   UNL     1       1.305  -3.689  -0.407  0.00  0.00    -0.245 OA
ATOM     24  C   UNL     1       1.059  -2.625   0.146  0.00  0.00    +0.363 C 
BRANCH  24  25
ATOM     25  O   UNL     1       1.529  -2.216   1.359  0.00  0.00    -0.441 OA
ATOM     26  C   UNL     1       2.392  -3.141   2.028  0.00  0.00    +0.256 C 
ENDBRANCH  24  25
ENDBRANCH   8  24
BRANCH   3  27
ATOM     27  C   UNL     1      -3.558  -1.086   0.715  0.00  0.00    -0.001 C 
ATOM     28  C   UNL     1      -4.165  -2.275   0.014  0.00  0.00    -0.000 C 
ENDBRANCH   3  27
TORSDOF 4
