REMARK  Name = 16351
REMARK  0 active torsions:
REMARK  status: ('A' for Active; 'I' for Inactive)
REMARK                            x       y       z     vdW  Elec       q    Type
REMARK                         _______ _______ _______ _____ _____    ______ ____
ROOT
ATOM      1 CL   UNL     1      -1.666   3.881   1.843  0.00  0.00    -0.082 Cl
ATOM      2  S   UNL     1       2.136   0.570  -1.951  0.00  0.00    -0.103 S 
ATOM      3  N   UNL     1      -1.485  -1.020  -0.404  0.00  0.00    -0.288 N 
ATOM      4  N   UNL     1      -4.298  -1.418  -0.226  0.00  0.00    +0.388 N 
ATOM      5  N   UNL     1       0.725  -1.564  -0.118  0.00  0.00    -0.390 NA
ATOM      6  C   UNL     1      -2.380  -0.283  -1.292  0.00  0.00    +0.070 C 
ATOM      7  C   UNL     1      -2.007  -2.288   0.097  0.00  0.00    +0.070 C 
ATOM      8  C   UNL     1      -3.752  -0.117  -0.637  0.00  0.00    -0.056 C 
ATOM      9  C   UNL     1      -3.388  -2.078   0.722  0.00  0.00    -0.056 C 
ATOM     10  C   UNL     1      -0.201  -0.644  -0.206  0.00  0.00    +0.183 C 
ATOM     11  C   UNL     1      -5.625  -1.254   0.366  0.00  0.00    -0.101 C 
ATOM     12  C   UNL     1       0.041   0.828  -0.113  0.00  0.00    +0.050 C 
ATOM     13  C   UNL     1       1.016   1.471  -0.890  0.00  0.00    +0.030 C 
ATOM     14  C   UNL     1       2.088  -1.307   0.112  0.00  0.00    +0.125 C 
ATOM     15  C   UNL     1      -0.789   1.579   0.732  0.00  0.00    +0.016 C 
ATOM     16  C   UNL     1       2.870  -0.444  -0.676  0.00  0.00    +0.126 C 
ATOM     17  C   UNL     1       1.143   2.865  -0.817  0.00  0.00    +0.007 C 
ATOM     18  C   UNL     1      -0.648   2.964   0.802  0.00  0.00    +0.058 C 
ATOM     19  C   UNL     1       0.314   3.606   0.026  0.00  0.00    +0.012 C 
ATOM     20  C   UNL     1       2.719  -2.045   1.125  0.00  0.00    +0.029 C 
ATOM     21  C   UNL     1       4.247  -0.325  -0.438  0.00  0.00    -0.008 C 
ATOM     22  C   UNL     1       4.088  -1.919   1.363  0.00  0.00    +0.002 C 
ATOM     23  C   UNL     1       4.852  -1.060   0.580  0.00  0.00    -0.003 C 
ATOM     24  H   UNL     1      -4.387  -2.008  -1.053  0.00  0.00    -0.080 HD
ENDROOT
TORSDOF 0
