REMARK  Name = 5917
REMARK  0 active torsions:
REMARK  status: ('A' for Active; 'I' for Inactive)
REMARK                            x       y       z     vdW  Elec       q    Type
REMARK                         _______ _______ _______ _____ _____    ______ ____
ROOT
ATOM      1  N   UNL     1       0.567  -0.641   0.212  0.00  0.00    -0.217 N 
ATOM      2  N   UNL     1       1.783  -1.105  -0.111  0.00  0.00    -0.043 NA
ATOM      3  N   UNL     1       1.778   1.123  -0.134  0.00  0.00    -0.113 NA
ATOM      4  N   UNL     1       2.518  -0.022  -0.321  0.00  0.00    -0.023 NA
ATOM      5  C   UNL     1      -2.530  -0.048  -0.077  0.00  0.00    +0.003 C 
ATOM      6  C   UNL     1      -1.737  -1.321  -0.388  0.00  0.00    +0.026 C 
ATOM      7  C   UNL     1      -1.806   1.261  -0.402  0.00  0.00    +0.008 C 
ATOM      8  C   UNL     1      -0.524  -1.532   0.514  0.00  0.00    +0.131 C 
ATOM      9  C   UNL     1      -0.616   1.560   0.509  0.00  0.00    +0.067 C 
ATOM     10  C   UNL     1       0.567   0.724   0.198  0.00  0.00    +0.161 A 
ENDROOT
TORSDOF 0
