REMARK  Name = 68706
REMARK  5 active torsions:
REMARK  status: ('A' for Active; 'I' for Inactive)
REMARK    1  A    between atoms: N_1  and  C_13
REMARK    2  A    between atoms: C_3  and  C_19
REMARK    3  A    between atoms: C_4  and  C_7
REMARK    4  A    between atoms: C_19  and  C_21
REMARK    5  A    between atoms: C_21  and  O_22
REMARK                            x       y       z     vdW  Elec       q    Type
REMARK                         _______ _______ _______ _____ _____    ______ ____
ROOT
ATOM      1  N   UNL     1      -1.712  -0.048  -0.196  0.00  0.00    -0.189 N 
ATOM      2  N   UNL     1      -0.703   0.817   0.003  0.00  0.00    -0.174 NA
ATOM      3  C   UNL     1       0.070  -1.250  -0.589  0.00  0.00    +0.025 C 
ATOM      4  C   UNL     1       0.387   0.079  -0.238  0.00  0.00    +0.097 C 
ATOM      5  C   UNL     1      -1.302  -1.299  -0.552  0.00  0.00    +0.087 C 
ENDROOT
BRANCH   4   7
ATOM      6 CL   UNL     1       5.808   2.481   0.224  0.00  0.00    -0.082 Cl
ATOM      7  C   UNL     1       1.696   0.660  -0.126  0.00  0.00    +0.019 C 
ATOM      8  C   UNL     1       2.290   1.260  -1.237  0.00  0.00    +0.002 C 
ATOM      9  C   UNL     1       2.374   0.624   1.093  0.00  0.00    +0.002 C 
ATOM     10  C   UNL     1       3.562   1.822  -1.129  0.00  0.00    +0.011 C 
ATOM     11  C   UNL     1       3.645   1.187   1.201  0.00  0.00    +0.011 C 
ATOM     12  C   UNL     1       4.239   1.786   0.090  0.00  0.00    +0.058 C 
ENDBRANCH   4   7
BRANCH   1  13
ATOM     13  C   UNL     1      -3.034   0.360  -0.038  0.00  0.00    +0.074 C 
ATOM     14  C   UNL     1      -4.064  -0.549  -0.249  0.00  0.00    +0.017 C 
ATOM     15  C   UNL     1      -3.309   1.671   0.334  0.00  0.00    +0.017 C 
ATOM     16  C   UNL     1      -5.388  -0.142  -0.087  0.00  0.00    +0.001 C 
ATOM     17  C   UNL     1      -4.633   2.078   0.495  0.00  0.00    +0.001 C 
ATOM     18  C   UNL     1      -5.673   1.172   0.285  0.00  0.00    +0.000 C 
ENDBRANCH   1  13
BRANCH   3  19
ATOM     19  C   UNL     1       0.990  -2.351  -0.922  0.00  0.00    +0.139 C 
BRANCH  19  21
ATOM     20  O   UNL     1       1.112  -2.946   1.436  0.00  0.00    -0.250 OA
ATOM     21  C   UNL     1       1.427  -3.182   0.278  0.00  0.00    +0.318 C 
BRANCH  21  22
ATOM     22  O   UNL     1       2.217  -4.230  -0.075  0.00  0.00    -0.480 OA
ATOM     23  H   UNL     1       2.433  -4.371  -0.976  0.00  0.00    +0.295 HD
ENDBRANCH  21  22
ENDBRANCH  19  21
ENDBRANCH   3  19
TORSDOF 5
