71195
  -OEChem-10061700313D

 46 48  0     1  0  0  0  0  0999 V2000
    0.6093    2.2439    1.7291 S   0  0  0  0  0  0  0  0  0  0  0  0
   -0.3246   -0.2486   -1.8775 O   0  0  0  0  0  0  0  0  0  0  0  0
    4.3165   -1.5819   -0.8883 O   0  0  0  0  0  0  0  0  0  0  0  0
   -2.4365   -3.4821    0.5571 N   0  0  0  0  0  0  0  0  0  0  0  0
   -0.2863    0.1379   -0.4925 C   0  0  1  0  0  0  0  0  0  0  0  0
   -0.9975   -0.9331    0.3548 C   0  0  0  0  0  0  0  0  0  0  0  0
    1.1890    0.2040   -0.0958 C   0  0  0  0  0  0  0  0  0  0  0  0
   -1.0475    1.4599   -0.3848 C   0  0  0  0  0  0  0  0  0  0  0  0
   -2.4374   -1.1219   -0.1041 C   0  0  0  0  0  0  0  0  0  0  0  0
    1.6676    1.0973    0.8769 C   0  0  0  0  0  0  0  0  0  0  0  0
   -3.1262   -2.2079    0.7206 C   0  0  0  0  0  0  0  0  0  0  0  0
   -0.7230    2.4396    0.5682 C   0  0  0  0  0  0  0  0  0  0  0  0
    2.1078   -0.7024   -0.6681 C   0  0  0  0  0  0  0  0  0  0  0  0
   -2.1613    1.6951   -1.2198 C   0  0  0  0  0  0  0  0  0  0  0  0
    3.0267    1.0916    1.2341 C   0  0  0  0  0  0  0  0  0  0  0  0
   -1.4789    3.6213    0.6525 C   0  0  0  0  0  0  0  0  0  0  0  0
    3.4569   -0.6989   -0.3115 C   0  0  0  0  0  0  0  0  0  0  0  0
   -2.9042    2.8732   -1.1330 C   0  0  0  0  0  0  0  0  0  0  0  0
    3.9174    0.2020    0.6382 C   0  0  0  0  0  0  0  0  0  0  0  0
   -2.5600    3.8391   -0.1980 C   0  0  0  0  0  0  0  0  0  0  0  0
   -3.0759   -4.5219    1.3652 C   0  0  0  0  0  0  0  0  0  0  0  0
   -2.4119   -3.8778   -0.8522 C   0  0  0  0  0  0  0  0  0  0  0  0
    5.6800   -1.5282   -0.4710 C   0  0  0  0  0  0  0  0  0  0  0  0
   -0.4503   -1.8795    0.2625 H   0  0  0  0  0  0  0  0  0  0  0  0
   -0.9795   -0.6638    1.4192 H   0  0  0  0  0  0  0  0  0  0  0  0
   -3.0238   -0.2226    0.1072 H   0  0  0  0  0  0  0  0  0  0  0  0
   -2.5289   -1.3090   -1.1779 H   0  0  0  0  0  0  0  0  0  0  0  0
   -3.1177   -1.9116    1.7774 H   0  0  0  0  0  0  0  0  0  0  0  0
   -4.1787   -2.2808    0.4162 H   0  0  0  0  0  0  0  0  0  0  0  0
    1.7765   -1.4366   -1.3994 H   0  0  0  0  0  0  0  0  0  0  0  0
   -2.4611    0.9709   -1.9737 H   0  0  0  0  0  0  0  0  0  0  0  0
   -0.3811   -1.2172   -1.9354 H   0  0  0  0  0  0  0  0  0  0  0  0
    3.4070    1.7806    1.9859 H   0  0  0  0  0  0  0  0  0  0  0  0
   -1.2356    4.3871    1.3864 H   0  0  0  0  0  0  0  0  0  0  0  0
   -3.7492    3.0327   -1.7962 H   0  0  0  0  0  0  0  0  0  0  0  0
    4.9489    0.2625    0.9672 H   0  0  0  0  0  0  0  0  0  0  0  0
   -3.1351    4.7571   -0.1241 H   0  0  0  0  0  0  0  0  0  0  0  0
   -2.5231   -5.4648    1.2881 H   0  0  0  0  0  0  0  0  0  0  0  0
   -4.1132   -4.7031    1.0607 H   0  0  0  0  0  0  0  0  0  0  0  0
   -3.0707   -4.2430    2.4248 H   0  0  0  0  0  0  0  0  0  0  0  0
   -1.7317   -3.2598   -1.4455 H   0  0  0  0  0  0  0  0  0  0  0  0
   -3.4081   -3.8591   -1.3094 H   0  0  0  0  0  0  0  0  0  0  0  0
   -2.0216   -4.8981   -0.9524 H   0  0  0  0  0  0  0  0  0  0  0  0
    5.7853   -1.7713    0.5917 H   0  0  0  0  0  0  0  0  0  0  0  0
    6.1407   -0.5674   -0.7245 H   0  0  0  0  0  0  0  0  0  0  0  0
    6.2199   -2.2993   -1.0304 H   0  0  0  0  0  0  0  0  0  0  0  0
  1 10  1  0  0  0  0
  1 12  1  0  0  0  0
  2  5  1  0  0  0  0
  2 32  1  0  0  0  0
  3 17  1  0  0  0  0
  3 23  1  0  0  0  0
  4 11  1  0  0  0  0
  4 21  1  0  0  0  0
  4 22  1  0  0  0  0
  5  6  1  0  0  0  0
  5  7  1  0  0  0  0
  5  8  1  0  0  0  0
  6  9  1  0  0  0  0
  6 24  1  0  0  0  0
  6 25  1  0  0  0  0
  7 10  2  0  0  0  0
  7 13  1  0  0  0  0
  8 12  1  0  0  0  0
  8 14  2  0  0  0  0
  9 11  1  0  0  0  0
  9 26  1  0  0  0  0
  9 27  1  0  0  0  0
 10 15  1  0  0  0  0
 11 28  1  0  0  0  0
 11 29  1  0  0  0  0
 12 16  2  0  0  0  0
 13 17  2  0  0  0  0
 13 30  1  0  0  0  0
 14 18  1  0  0  0  0
 14 31  1  0  0  0  0
 15 19  2  0  0  0  0
 15 33  1  0  0  0  0
 16 20  1  0  0  0  0
 16 34  1  0  0  0  0
 17 19  1  0  0  0  0
 18 20  2  0  0  0  0
 18 35  1  0  0  0  0
 19 36  1  0  0  0  0
 20 37  1  0  0  0  0
 21 38  1  0  0  0  0
 21 39  1  0  0  0  0
 21 40  1  0  0  0  0
 22 41  1  0  0  0  0
 22 42  1  0  0  0  0
 22 43  1  0  0  0  0
 23 44  1  0  0  0  0
 23 45  1  0  0  0  0
 23 46  1  0  0  0  0
M  END
> <DATABASE_ID>
DB13822

> <DATABASE_NAME>
drugbank

> <ORIGINAL_SOURCE>
PUBCHEM

> <ORIGINAL_SOURCE_URL>
https://pubchem.ncbi.nlm.nih.gov/rest/pug/compound/inchikey/LAYVFLWAVIGDLK-UHFFFAOYSA-N/SDF?record_type=3d

> <SMILES>
COC1=CC2=C(SC3=CC=CC=C3C2(O)CCCN(C)C)C=C1

> <INCHI_IDENTIFIER>
InChI=1S/C19H23NO2S/c1-20(2)12-6-11-19(21)15-7-4-5-8-17(15)23-18-10-9-14(22-3)13-16(18)19/h4-5,7-10,13,21H,6,11-12H2,1-3H3

> <INCHI_KEY>
LAYVFLWAVIGDLK-UHFFFAOYSA-N

> <FORMULA>
C19H23NO2S

> <MOLECULAR_WEIGHT>
329.46

> <EXACT_MASS>
329.144950159

> <JCHEM_ACCEPTOR_COUNT>
3

> <JCHEM_ATOM_COUNT>
46

> <JCHEM_AVERAGE_POLARIZABILITY>
36.61631724654636

> <JCHEM_BIOAVAILABILITY>
1

> <JCHEM_DONOR_COUNT>
1

> <JCHEM_FORMAL_CHARGE>
0

> <JCHEM_GHOSE_FILTER>
1

> <JCHEM_IUPAC>
9-[3-(dimethylamino)propyl]-2-methoxy-9H-thioxanthen-9-ol

> <ALOGPS_LOGP>
3.47

> <JCHEM_LOGP>
3.4289846586666664

> <ALOGPS_LOGS>
-4.69

> <JCHEM_MDDR_LIKE_RULE>
0

> <JCHEM_NUMBER_OF_RINGS>
3

> <JCHEM_PHYSIOLOGICAL_CHARGE>
1

> <JCHEM_PKA_STRONGEST_ACIDIC>
13.07905921985153

> <JCHEM_PKA_STRONGEST_BASIC>
9.48487055699024

> <JCHEM_POLAR_SURFACE_AREA>
32.7

> <JCHEM_REFRACTIVITY>
97.86570000000002

> <JCHEM_ROTATABLE_BOND_COUNT>
5

> <JCHEM_RULE_OF_FIVE>
1

> <ALOGPS_SOLUBILITY>
6.81e-03 g/l

> <JCHEM_TRADITIONAL_IUPAC>
meprotixol

> <JCHEM_VEBER_RULE>
1

> <DRUGBANK_ID>
DB13822

> <DRUG_GROUPS>
experimental

> <GENERIC_NAME>
Meprotixol

$$$$
