REMARK  Name = 4134
REMARK  10 active torsions:
REMARK  status: ('A' for Active; 'I' for Inactive)
REMARK    1  A    between atoms: C_1  and  C_2
REMARK    2  A    between atoms: C_1  and  C_8
REMARK    3  A    between atoms: C_1  and  O_14
REMARK    4  A    between atoms: C_1  and  C_17
REMARK    5  A    between atoms: C_17  and  O_18
REMARK    6  A    between atoms: O_18  and  C_19
REMARK    7  A    between atoms: C_19  and  C_20
REMARK    8  A    between atoms: C_20  and  N_21
REMARK    9  A    between atoms: N_21  and  C_23
REMARK   10  A    between atoms: N_21  and  C_25
REMARK                            x       y       z     vdW  Elec       q    Type
REMARK                         _______ _______ _______ _____ _____    ______ ____
ROOT
ATOM      1  C   UNL     1      -1.545  -0.201   0.557  0.00  0.00    +0.216 C 
ENDROOT
BRANCH   1   2
ATOM      2  C   UNL     1      -1.587   1.290   0.214  0.00  0.00    +0.016 C 
ATOM      3  C   UNL     1      -2.081   2.167   1.152  0.00  0.00    -0.001 C 
ATOM      4  C   UNL     1      -1.130   1.695  -1.018  0.00  0.00    -0.001 C 
ATOM      5  C   UNL     1      -2.119   3.526   0.840  0.00  0.00    -0.000 C 
ATOM      6  C   UNL     1      -1.168   3.054  -1.330  0.00  0.00    -0.000 C 
ATOM      7  C   UNL     1      -1.663   3.970  -0.401  0.00  0.00    -0.000 C 
ENDBRANCH   1   2
BRANCH   1   8
ATOM      8  C   UNL     1      -2.845  -0.894   0.139  0.00  0.00    +0.016 C 
ATOM      9  C   UNL     1      -3.205  -0.871  -1.189  0.00  0.00    -0.001 C 
ATOM     10  C   UNL     1      -3.601  -1.514   1.106  0.00  0.00    -0.001 C 
ATOM     11  C   UNL     1      -4.389  -1.503  -1.570  0.00  0.00    -0.000 C 
ATOM     12  C   UNL     1      -4.785  -2.146   0.725  0.00  0.00    -0.000 C 
ATOM     13  C   UNL     1      -5.179  -2.140  -0.614  0.00  0.00    -0.000 C 
ENDBRANCH   1   8
BRANCH   1  14
ATOM     14  O   UNL     1      -1.325  -0.367   1.972  0.00  0.00    -0.370 OA
ATOM     15  H   UNL     1      -0.500   0.075   2.225  0.00  0.00    +0.212 HD
ENDBRANCH   1  14
BRANCH   1  17
ATOM     16  O   UNL     1      -0.263  -1.905  -0.644  0.00  0.00    -0.247 OA
ATOM     17  C   UNL     1      -0.279  -0.890   0.042  0.00  0.00    +0.349 C 
BRANCH  17  18
ATOM     18  O   UNL     1       0.844  -0.195   0.423  0.00  0.00    -0.449 OA
BRANCH  18  19
ATOM     19  C   UNL     1       2.086  -0.718  -0.029  0.00  0.00    +0.187 C 
BRANCH  19  20
ATOM     20  C   UNL     1       3.218   0.157   0.472  0.00  0.00    -0.025 C 
BRANCH  20  21
ATOM     21  N   UNL     1       4.541  -0.387  -0.048  0.00  0.00    +0.391 N 
ATOM     22  C   UNL     1       4.517  -0.411  -1.569  0.00  0.00    -0.096 C 
BRANCH  21  23
ATOM     23  C   UNL     1       4.751  -1.799   0.479  0.00  0.00    -0.073 C 
ATOM     24  C   UNL     1       6.067  -2.334  -0.040  0.00  0.00    -0.024 C 
ENDBRANCH  21  23
BRANCH  21  25
ATOM     25  C   UNL     1       5.678   0.507   0.427  0.00  0.00    -0.073 C 
ATOM     26  C   UNL     1       5.463   1.909  -0.099  0.00  0.00    -0.024 C 
ENDBRANCH  21  25
ENDBRANCH  20  21
ENDBRANCH  19  20
ENDBRANCH  18  19
ENDBRANCH  17  18
ENDBRANCH   1  17
TORSDOF 10
