REMARK  Name = 10264356
REMARK  7 active torsions:
REMARK  status: ('A' for Active; 'I' for Inactive)
REMARK    1  A    between atoms: C_1  and  C_14
REMARK    2  A    between atoms: C_2  and  O_7
REMARK    3  A    between atoms: C_4  and  O_9
REMARK    4  A    between atoms: C_5  and  S_11
REMARK    5  A    between atoms: S_11  and  C_12
REMARK    6  A    between atoms: C_14  and  C_15
REMARK    7  A    between atoms: C_15  and  N_17
REMARK                            x       y       z     vdW  Elec       q    Type
REMARK                         _______ _______ _______ _____ _____    ______ ____
ROOT
ATOM      1  C   UNL     1       1.225  -0.063  -0.452  0.00  0.00    +0.013 C 
ATOM      2  C   UNL     1       0.562  -1.249  -0.177  0.00  0.00    +0.135 C 
ATOM      3  C   UNL     1       0.528   1.098  -0.750  0.00  0.00    +0.036 C 
ATOM      4  C   UNL     1      -0.866   1.072  -0.773  0.00  0.00    +0.144 C 
ATOM      5  C   UNL     1      -1.547  -0.114  -0.499  0.00  0.00    +0.062 C 
ATOM      6  C   UNL     1      -0.833  -1.274  -0.201  0.00  0.00    +0.046 C 
ENDROOT
BRANCH   2   7
ATOM      7  O   UNL     1       1.244  -2.392   0.114  0.00  0.00    -0.472 OA
ATOM      8  C   UNL     1       1.593  -3.235  -0.982  0.00  0.00    +0.252 C 
ENDBRANCH   2   7
BRANCH   4   9
ATOM      9  O   UNL     1      -1.532   2.225  -1.069  0.00  0.00    -0.471 OA
ATOM     10  C   UNL     1      -1.875   3.073   0.024  0.00  0.00    +0.252 C 
ENDBRANCH   4   9
BRANCH   5  11
ATOM     11  S   UNL     1      -3.332  -0.186  -0.519  0.00  0.00    -0.111 S 
BRANCH  11  12
ATOM     12  C   UNL     1      -3.695  -0.699   1.183  0.00  0.00    +0.062 C 
ATOM     13  C   UNL     1      -5.192  -0.827   1.393  0.00  0.00    +0.013 C 
ENDBRANCH  11  12
ENDBRANCH   5  11
BRANCH   1  14
ATOM     14  C   UNL     1       2.734  -0.016  -0.431  0.00  0.00    +0.008 C 
BRANCH  14  15
ATOM     15  C   UNL     1       3.307   0.977   0.596  0.00  0.00    -0.061 C 
ATOM     16  C   UNL     1       2.907   0.630   2.031  0.00  0.00    -0.024 C 
BRANCH  15  17
ATOM     17  N   UNL     1       4.770   0.979   0.513  0.00  0.00    +0.382 N 
ATOM     18  H   UNL     1       5.056   1.209  -0.439  0.00  0.00    -0.089 HD
ATOM     19  H   UNL     1       5.127   0.056   0.762  0.00  0.00    -0.089 HD
ATOM     20  H   UNL     1       5.146   1.674   1.158  0.00  0.00    -0.089 HD
ENDBRANCH  15  17
ENDBRANCH  14  15
ENDBRANCH   1  14
TORSDOF 7
