REMARK  Name = 2313
REMARK  6 active torsions:
REMARK  status: ('A' for Active; 'I' for Inactive)
REMARK    1  A    between atoms: N_1  and  C_16
REMARK    2  A    between atoms: C_5  and  O_10
REMARK    3  A    between atoms: O_10  and  C_11
REMARK    4  A    between atoms: C_11  and  C_13
REMARK    5  A    between atoms: C_13  and  O_14
REMARK    6  A    between atoms: C_16  and  C_17
REMARK                            x       y       z     vdW  Elec       q    Type
REMARK                         _______ _______ _______ _____ _____    ______ ____
ROOT
ATOM      1  N   UNL     1       0.475   0.309   0.944  0.00  0.00    -0.244 N 
ATOM      2  N   UNL     1      -0.633  -0.434   0.790  0.00  0.00    -0.131 NA
ATOM      3  C   UNL     1       0.375   1.578   0.440  0.00  0.00    +0.083 A 
ATOM      4  C   UNL     1      -0.909   1.662  -0.087  0.00  0.00    +0.072 A 
ATOM      5  C   UNL     1      -1.473   0.392   0.162  0.00  0.00    +0.244 A 
ATOM      6  C   UNL     1       1.284   2.637   0.403  0.00  0.00    +0.019 C 
ATOM      7  C   UNL     1      -1.329   2.860  -0.689  0.00  0.00    +0.006 C 
ATOM      8  C   UNL     1       0.852   3.823  -0.200  0.00  0.00    +0.002 C 
ATOM      9  C   UNL     1      -0.432   3.934  -0.737  0.00  0.00    +0.000 C 
ENDROOT
BRANCH   5  10
ATOM     10  O   UNL     1      -2.699  -0.053  -0.149  0.00  0.00    -0.447 OA
BRANCH  10  11
ATOM     11  C   UNL     1      -3.034  -1.401   0.217  0.00  0.00    +0.315 C 
BRANCH  11  13
ATOM     12  O   UNL     1      -5.196  -0.944  -0.794  0.00  0.00    -0.246 OA
ATOM     13  C   UNL     1      -4.435  -1.716  -0.229  0.00  0.00    +0.359 C 
BRANCH  13  14
ATOM     14  O   UNL     1      -4.750  -2.998   0.085  0.00  0.00    -0.478 OA
ATOM     15  H   UNL     1      -4.123  -3.541   0.520  0.00  0.00    +0.295 HD
ENDBRANCH  13  14
ENDBRANCH  11  13
ENDBRANCH  10  11
ENDBRANCH   5  10
BRANCH   1  16
ATOM     16  C   UNL     1       1.624  -0.270   1.601  0.00  0.00    +0.154 C 
BRANCH  16  17
ATOM     17  C   UNL     1       2.539  -0.944   0.614  0.00  0.00    +0.002 C 
ATOM     18  C   UNL     1       3.560  -0.215   0.020  0.00  0.00    -0.002 C 
ATOM     19  C   UNL     1       2.349  -2.285   0.311  0.00  0.00    -0.002 C 
ATOM     20  C   UNL     1       4.408  -0.840  -0.895  0.00  0.00    -0.000 C 
ATOM     21  C   UNL     1       3.197  -2.910  -0.603  0.00  0.00    -0.000 C 
ATOM     22  C   UNL     1       4.226  -2.187  -1.207  0.00  0.00    -0.000 C 
ENDBRANCH  16  17
ENDBRANCH   1  16
TORSDOF 6
