REMARK  Name = 31800
REMARK  7 active torsions:
REMARK  status: ('A' for Active; 'I' for Inactive)
REMARK    1  A    between atoms: C_1  and  C_2
REMARK    2  A    between atoms: C_1  and  C_8
REMARK    3  A    between atoms: C_1  and  O_14
REMARK    4  A    between atoms: C_1  and  C_17
REMARK    5  A    between atoms: C_17  and  O_18
REMARK    6  A    between atoms: O_18  and  C_19
REMARK    7  A    between atoms: C_19  and  C_21
REMARK                            x       y       z     vdW  Elec       q    Type
REMARK                         _______ _______ _______ _____ _____    ______ ____
ROOT
ATOM      1  C   UNL     1       1.641  -0.237  -0.535  0.00  0.00    +0.216 C 
ENDROOT
BRANCH   1   2
ATOM      2  C   UNL     1       3.034  -0.744  -0.154  0.00  0.00    +0.016 C 
ATOM      3  C   UNL     1       3.427  -0.661   1.162  0.00  0.00    -0.001 C 
ATOM      4  C   UNL     1       3.839  -1.262  -1.141  0.00  0.00    -0.001 C 
ATOM      5  C   UNL     1       4.696  -1.123   1.510  0.00  0.00    -0.000 C 
ATOM      6  C   UNL     1       5.109  -1.724  -0.794  0.00  0.00    -0.000 C 
ATOM      7  C   UNL     1       5.537  -1.654   0.532  0.00  0.00    -0.000 C 
ENDBRANCH   1   2
BRANCH   1   8
ATOM      8  C   UNL     1       1.489   1.248  -0.200  0.00  0.00    +0.016 C 
ATOM      9  C   UNL     1       1.831   2.177  -1.155  0.00  0.00    -0.001 C 
ATOM     10  C   UNL     1       1.018   1.598   1.045  0.00  0.00    -0.001 C 
ATOM     11  C   UNL     1       1.693   3.531  -0.850  0.00  0.00    -0.000 C 
ATOM     12  C   UNL     1       0.880   2.952   1.350  0.00  0.00    -0.000 C 
ATOM     13  C   UNL     1       1.218   3.919   0.403  0.00  0.00    -0.000 C 
ENDBRANCH   1   8
BRANCH   1  14
ATOM     14  O   UNL     1       1.403  -0.443  -1.942  0.00  0.00    -0.370 OA
ATOM     15  H   UNL     1       1.499  -1.385  -2.152  0.00  0.00    +0.212 HD
ENDBRANCH   1  14
BRANCH   1  17
ATOM     16  O   UNL     1       0.637  -2.090   0.711  0.00  0.00    -0.247 OA
ATOM     17  C   UNL     1       0.495  -1.088   0.021  0.00  0.00    +0.349 C 
BRANCH  17  18
ATOM     18  O   UNL     1      -0.728  -0.557  -0.326  0.00  0.00    -0.449 OA
BRANCH  18  19
ATOM     19  C   UNL     1      -1.868  -1.238   0.163  0.00  0.00    +0.188 C 
BRANCH  19  21
ATOM     20  N   UNL     1      -4.431  -1.239   0.054  0.00  0.00    +0.391 N 
ATOM     21  C   UNL     1      -3.116  -0.501  -0.326  0.00  0.00    -0.010 C 
ATOM     22  C   UNL     1      -5.643  -0.422  -0.445  0.00  0.00    -0.073 C 
ATOM     23  C   UNL     1      -3.124   0.942   0.200  0.00  0.00    -0.017 C 
ATOM     24  C   UNL     1      -5.632   1.001   0.092  0.00  0.00    -0.022 C 
ATOM     25  C   UNL     1      -4.343   1.723  -0.264  0.00  0.00    -0.004 C 
ATOM     26  C   UNL     1      -4.498  -2.597  -0.667  0.00  0.00    -0.096 C 
ATOM     27  C   UNL     1      -4.563  -1.511   1.555  0.00  0.00    -0.096 C 
ENDBRANCH  19  21
ENDBRANCH  18  19
ENDBRANCH  17  18
ENDBRANCH   1  17
TORSDOF 7
