REMARK  Name = 8083
REMARK  0 active torsions:
REMARK  status: ('A' for Active; 'I' for Inactive)
REMARK                            x       y       z     vdW  Elec       q    Type
REMARK                         _______ _______ _______ _____ _____    ______ ____
ROOT
ATOM      1  O   UNL     1       1.390   0.000   0.245  0.00  0.00    -0.358 OA
ATOM      2  N   UNL     1      -1.426   0.000  -0.231  0.00  0.00    +0.387 N 
ATOM      3  C   UNL     1      -0.717   1.199   0.227  0.00  0.00    -0.049 C 
ATOM      4  C   UNL     1      -0.718  -1.199   0.227  0.00  0.00    -0.049 C 
ATOM      5  C   UNL     1       0.736   1.177  -0.234  0.00  0.00    +0.119 C 
ATOM      6  C   UNL     1       0.735  -1.177  -0.234  0.00  0.00    +0.119 C 
ATOM      7  H   UNL     1      -1.468   0.000  -1.251  0.00  0.00    -0.084 HD
ATOM      8  H   UNL     1      -2.372   0.001   0.150  0.00  0.00    -0.084 HD
ENDROOT
TORSDOF 0
