REMARK  Name = 71679
REMARK  5 active torsions:
REMARK  status: ('A' for Active; 'I' for Inactive)
REMARK    1  A    between atoms: N_1  and  C_14
REMARK    2  A    between atoms: N_1  and  C_16
REMARK    3  A    between atoms: N_2  and  C_18
REMARK    4  A    between atoms: N_2  and  C_20
REMARK    5  A    between atoms: N_6  and  N_11
REMARK                            x       y       z     vdW  Elec       q    Type
REMARK                         _______ _______ _______ _____ _____    ______ ____
ROOT
ATOM      1  N   UNL     1      -2.481   0.439   0.137  0.00  0.00    -0.233 N 
ATOM      2  N   UNL     1       2.158   1.067  -0.137  0.00  0.00    -0.233 N 
ATOM      3  N   UNL     1      -0.165   0.785   0.002  0.00  0.00    -0.246 NA
ATOM      4  N   UNL     1       1.298  -1.114  -0.102  0.00  0.00    -0.246 NA
ATOM      5  N   UNL     1      -1.075  -1.435   0.038  0.00  0.00    -0.246 NA
ATOM      6  N   UNL     1       0.380  -3.271  -0.065  0.00  0.00    -0.206 N 
ATOM      7  C   UNL     1      -1.193  -0.090   0.056  0.00  0.00    +0.225 C 
ATOM      8  C   UNL     1       1.043   0.204  -0.076  0.00  0.00    +0.225 C 
ATOM      9  C   UNL     1       0.192  -1.872  -0.041  0.00  0.00    +0.235 C 
ATOM     10  H   UNL     1      -0.394  -3.856  -0.229  0.00  0.00    +0.180 HD
ENDROOT
BRANCH   6  11
ATOM     11  N   UNL     1       1.616  -3.837   0.137  0.00  0.00    -0.247 NA
ATOM     12  H   UNL     1       2.306  -3.102   0.293  0.00  0.00    +0.141 HD
ATOM     13  H   UNL     1       1.879  -4.382  -0.684  0.00  0.00    +0.141 HD
ENDBRANCH   6  11
BRANCH   1  14
ATOM     14  C   UNL     1      -3.647  -0.432   0.199  0.00  0.00    +0.103 C 
ATOM     15  C   UNL     1      -4.043  -0.919  -1.184  0.00  0.00    +0.024 C 
ENDBRANCH   1  14
BRANCH   1  16
ATOM     16  C   UNL     1      -2.698   1.880   0.176  0.00  0.00    +0.103 C 
ATOM     17  C   UNL     1      -2.494   2.429   1.578  0.00  0.00    +0.024 C 
ENDBRANCH   1  16
BRANCH   2  18
ATOM     18  C   UNL     1       3.499   0.527  -0.223  0.00  0.00    +0.103 C 
ATOM     19  C   UNL     1       4.014   0.114   1.146  0.00  0.00    +0.024 C 
ENDBRANCH   2  18
BRANCH   2  20
ATOM     20  C   UNL     1       1.974   2.505  -0.129  0.00  0.00    +0.103 C 
ATOM     21  C   UNL     1       1.619   3.021  -1.513  0.00  0.00    +0.024 C 
ENDBRANCH   2  20
TORSDOF 5
