REMARK  Name = 68026984
REMARK  5 active torsions:
REMARK  status: ('A' for Active; 'I' for Inactive)
REMARK    1  A    between atoms: C_2  and  C_12
REMARK    2  A    between atoms: C_3  and  C_20
REMARK    3  A    between atoms: C_9  and  O_28
REMARK    4  A    between atoms: C_17  and  O_18
REMARK    5  A    between atoms: C_25  and  O_26
REMARK                            x       y       z     vdW  Elec       q    Type
REMARK                         _______ _______ _______ _____ _____    ______ ____
ROOT
ATOM      1  O   UNL     1       1.841  -1.829   1.161  0.00  0.00    -0.476 OA
ATOM      2  C   UNL     1       0.336  -0.170  -0.783  0.00  0.00    +0.055 C 
ATOM      3  C   UNL     1      -0.241  -1.437  -0.091  0.00  0.00    +0.074 C 
ATOM      4  C   UNL     1       1.846  -0.155  -0.626  0.00  0.00    +0.016 C 
ATOM      5  C   UNL     1       0.427  -1.639   1.275  0.00  0.00    +0.210 C 
ATOM      6  C   UNL     1       2.490  -0.962   0.323  0.00  0.00    +0.134 C 
ATOM      7  C   UNL     1       2.624   0.676  -1.450  0.00  0.00    +0.002 C 
ATOM      8  C   UNL     1       3.884  -0.946   0.431  0.00  0.00    +0.045 C 
ATOM      9  C   UNL     1       4.644  -0.114  -0.390  0.00  0.00    +0.133 C 
ATOM     10  C   UNL     1       4.014   0.698  -1.330  0.00  0.00    +0.036 C 
ATOM     11  C   UNL     1       4.575  -1.818   1.433  0.00  0.00    +0.037 C 
ENDROOT
BRANCH   2  12
ATOM     12  C   UNL     1      -0.320   1.143  -0.361  0.00  0.00    -0.018 C 
ATOM     13  C   UNL     1       0.228   1.894   0.678  0.00  0.00    -0.001 C 
ATOM     14  C   UNL     1      -1.468   1.590  -1.016  0.00  0.00    -0.001 C 
ATOM     15  C   UNL     1      -0.371   3.093   1.063  0.00  0.00    +0.036 C 
ATOM     16  C   UNL     1      -2.068   2.789  -0.630  0.00  0.00    +0.036 C 
ATOM     17  C   UNL     1      -1.519   3.541   0.409  0.00  0.00    +0.134 C 
BRANCH  17  18
ATOM     18  O   UNL     1      -2.104   4.710   0.785  0.00  0.00    -0.506 OA
ATOM     19  H   UNL     1      -1.736   5.215   1.484  0.00  0.00    +0.292 HD
ENDBRANCH  17  18
ENDBRANCH   2  12
BRANCH   3  20
ATOM     20  C   UNL     1      -1.758  -1.497  -0.088  0.00  0.00    -0.018 C 
ATOM     21  C   UNL     1      -2.472  -1.038   1.019  0.00  0.00    -0.001 C 
ATOM     22  C   UNL     1      -2.438  -2.012  -1.192  0.00  0.00    -0.001 C 
ATOM     23  C   UNL     1      -3.866  -1.094   1.022  0.00  0.00    +0.036 C 
ATOM     24  C   UNL     1      -3.832  -2.067  -1.189  0.00  0.00    +0.036 C 
ATOM     25  C   UNL     1      -4.546  -1.608  -0.082  0.00  0.00    +0.134 C 
BRANCH  25  26
ATOM     26  O   UNL     1      -5.906  -1.663  -0.079  0.00  0.00    -0.506 OA
ATOM     27  H   UNL     1      -6.385  -1.355   0.664  0.00  0.00    +0.292 HD
ENDBRANCH  25  26
ENDBRANCH   3  20
BRANCH   9  28
ATOM     28  O   UNL     1       6.002  -0.084  -0.291  0.00  0.00    -0.506 OA
ATOM     29  H   UNL     1       6.438  -0.626   0.337  0.00  0.00    +0.292 HD
ENDBRANCH   9  28
TORSDOF 5
