REMARK  Name = 5337997
REMARK  6 active torsions:
REMARK  status: ('A' for Active; 'I' for Inactive)
REMARK    1  A    between atoms: N_2  and  N_13
REMARK    2  A    between atoms: C_3  and  C_5
REMARK    3  A    between atoms: C_10  and  O_11
REMARK    4  A    between atoms: N_13  and  C_14
REMARK    5  A    between atoms: C_14  and  C_16
REMARK    6  A    between atoms: C_18  and  N_22
REMARK                            x       y       z     vdW  Elec       q    Type
REMARK                         _______ _______ _______ _____ _____    ______ ____
ROOT
ATOM      1  O   UNL     1       1.908  -2.263  -0.184  0.00  0.00    -0.269 OA
ATOM      2  N   UNL     1       0.916  -0.197  -0.066  0.00  0.00    -0.228 N 
ATOM      3  C   UNL     1       2.035  -1.031  -0.113  0.00  0.00    +0.260 C 
ATOM      4  H   UNL     1       1.024   0.780  -0.010  0.00  0.00    +0.171 HD
ENDROOT
BRANCH   3   5
ATOM      5  C   UNL     1       3.331  -0.372  -0.048  0.00  0.00    +0.055 C 
ATOM      6  C   UNL     1       4.434  -1.055   0.465  0.00  0.00    +0.008 C 
ATOM      7  C   UNL     1       3.470   0.940  -0.499  0.00  0.00    +0.008 C 
ATOM      8  C   UNL     1       5.676  -0.424   0.528  0.00  0.00    +0.037 C 
ATOM      9  C   UNL     1       4.713   1.570  -0.436  0.00  0.00    +0.037 C 
ATOM     10  C   UNL     1       5.816   0.888   0.077  0.00  0.00    +0.134 C 
BRANCH  10  11
ATOM     11  O   UNL     1       7.029   1.503   0.136  0.00  0.00    -0.506 OA
ATOM     12  H   UNL     1       7.770   1.045   0.481  0.00  0.00    +0.292 HD
ENDBRANCH  10  11
ENDBRANCH   3   5
BRANCH   2  13
ATOM     13  N   UNL     1      -0.321  -0.750  -0.098  0.00  0.00    -0.123 NA
BRANCH  13  14
ATOM     14  C   UNL     1      -1.283   0.110  -0.012  0.00  0.00    +0.176 C 
BRANCH  14  16
ATOM     15  O   UNL     1      -3.595   0.687   0.065  0.00  0.00    -0.436 OA
ATOM     16  C   UNL     1      -2.699  -0.299  -0.030  0.00  0.00    +0.144 C 
ATOM     17  C   UNL     1      -3.239  -1.524  -0.127  0.00  0.00    +0.040 C 
ATOM     18  C   UNL     1      -4.801   0.062   0.027  0.00  0.00    +0.289 C 
ATOM     19  C   UNL     1      -4.636  -1.299  -0.091  0.00  0.00    +0.066 C 
BRANCH  18  22
ATOM     20  O   UNL     1      -7.081   0.404   0.082  0.00  0.00    -0.123 OA
ATOM     21  O   UNL     1      -5.758   2.151   0.215  0.00  0.00    -0.123 OA
ATOM     22  N   UNL     1      -5.915   0.899   0.110  0.00  0.00    +0.093 N 
ENDBRANCH  18  22
ENDBRANCH  14  16
ENDBRANCH  13  14
ENDBRANCH   2  13
TORSDOF 6
