REMARK  Name = 16473
REMARK  3 active torsions:
REMARK  status: ('A' for Active; 'I' for Inactive)
REMARK    1  A    between atoms: N_3  and  C_12
REMARK    2  A    between atoms: C_10  and  S_18
REMARK    3  A    between atoms: S_18  and  N_21
REMARK                            x       y       z     vdW  Elec       q    Type
REMARK                         _______ _______ _______ _____ _____    ______ ____
ROOT
ATOM      1 CL   UNL     1      -3.908  -2.499  -0.011  0.00  0.00    -0.081 Cl
ATOM      2  O   UNL     1       0.898   2.321  -0.067  0.00  0.00    -0.270 OA
ATOM      3  N   UNL     1       1.763   0.122  -0.010  0.00  0.00    -0.274 N 
ATOM      4  C   UNL     1       1.215  -1.229   0.014  0.00  0.00    +0.121 C 
ATOM      5  C   UNL     1       0.784   1.109  -0.040  0.00  0.00    +0.249 C 
ATOM      6  C   UNL     1      -0.253  -0.968  -0.006  0.00  0.00    +0.003 C 
ATOM      7  C   UNL     1      -0.503   0.405  -0.038  0.00  0.00    +0.053 C 
ATOM      8  C   UNL     1      -1.301  -1.869   0.002  0.00  0.00    +0.010 C 
ATOM      9  C   UNL     1      -1.780   0.930  -0.062  0.00  0.00    +0.025 C 
ATOM     10  C   UNL     1      -2.842   0.024  -0.053  0.00  0.00    +0.132 C 
ATOM     11  C   UNL     1      -2.605  -1.363  -0.022  0.00  0.00    +0.076 C 
ENDROOT
BRANCH   3  12
ATOM     12  C   UNL     1       3.177   0.406  -0.002  0.00  0.00    +0.076 C 
ATOM     13  C   UNL     1       3.829  -0.123   1.278  0.00  0.00    +0.020 C 
ATOM     14  C   UNL     1       3.848  -0.176  -1.249  0.00  0.00    +0.020 C 
ATOM     15  C   UNL     1       5.337   0.119   1.283  0.00  0.00    +0.002 C 
ATOM     16  C   UNL     1       5.355   0.064  -1.241  0.00  0.00    +0.002 C 
ATOM     17  C   UNL     1       6.002  -0.460   0.038  0.00  0.00    +0.000 C 
ENDBRANCH   3  12
BRANCH  10  18
ATOM     18  S   UNL     1      -4.469   0.680  -0.084  0.00  0.00    +0.058 S 
ATOM     19  O   UNL     1      -4.410   2.004  -0.680  0.00  0.00    -0.153 OA
ATOM     20  O   UNL     1      -5.356  -0.331  -0.638  0.00  0.00    -0.153 OA
BRANCH  18  21
ATOM     21  N   UNL     1      -4.781   0.835   1.587  0.00  0.00    -0.203 NA
ATOM     22  H   UNL     1      -5.717   1.215   1.724  0.00  0.00    +0.144 HD
ATOM     23  H   UNL     1      -4.094   1.463   2.004  0.00  0.00    +0.144 HD
ENDBRANCH  18  21
ENDBRANCH  10  18
TORSDOF 3
