REMARK  Name = 4977
REMARK  3 active torsions:
REMARK  status: ('A' for Active; 'I' for Inactive)
REMARK    1  A    between atoms: N_3  and  C_14
REMARK    2  A    between atoms: C_14  and  C_15
REMARK    3  A    between atoms: C_15  and  O_17
REMARK                            x       y       z     vdW  Elec       q    Type
REMARK                         _______ _______ _______ _____ _____    ______ ____
ROOT
ATOM      1  O   UNL     1      -0.375   2.244  -0.403  0.00  0.00    -0.272 OA
ATOM      2  O   UNL     1       3.884   0.465   0.439  0.00  0.00    -0.252 OA
ATOM      3  N   UNL     1      -1.297  -0.599  -0.529  0.00  0.00    -0.237 NA
ATOM      4  N   UNL     1       2.118  -1.017   0.128  0.00  0.00    -0.228 N 
ATOM      5  N   UNL     1       1.768   1.377   0.020  0.00  0.00    -0.211 N 
ATOM      6  N   UNL     1       0.071  -2.334  -0.239  0.00  0.00    -0.240 NA
ATOM      7  C   UNL     1      -0.057  -0.074  -0.301  0.00  0.00    +0.192 C 
ATOM      8  C   UNL     1       0.761  -1.157  -0.128  0.00  0.00    +0.136 C 
ATOM      9  C   UNL     1       0.375   1.285  -0.243  0.00  0.00    +0.254 C 
ATOM     10  C   UNL     1      -1.169  -1.963  -0.481  0.00  0.00    +0.203 C 
ATOM     11  C   UNL     1       2.683   0.280   0.213  0.00  0.00    +0.318 C 
ATOM     12  C   UNL     1       2.956  -2.196   0.307  0.00  0.00    +0.123 C 
ATOM     13  C   UNL     1       2.330   2.721   0.103  0.00  0.00    +0.124 C 
ENDROOT
BRANCH   3  14
ATOM     14  C   UNL     1      -2.524   0.120  -0.775  0.00  0.00    +0.104 C 
BRANCH  14  15
ATOM     15  C   UNL     1      -3.292   0.438   0.511  0.00  0.00    +0.127 C 
ATOM     16  C   UNL     1      -4.583   1.184   0.202  0.00  0.00    +0.033 C 
BRANCH  15  17
ATOM     17  O   UNL     1      -3.648  -0.772   1.176  0.00  0.00    -0.383 OA
ATOM     18  H   UNL     1      -2.845  -1.273   1.388  0.00  0.00    +0.210 HD
ENDBRANCH  15  17
ENDBRANCH  14  15
ENDBRANCH   3  14
TORSDOF 3
