REMARK  Name = 6374
REMARK  0 active torsions:
REMARK  status: ('A' for Active; 'I' for Inactive)
REMARK                            x       y       z     vdW  Elec       q    Type
REMARK                         _______ _______ _______ _____ _____    ______ ____
ROOT
ATOM      1  I   UNL     1       1.860   0.638   0.193  0.00  0.00    -0.052 I 
ATOM      2  I   UNL     1      -0.378  -1.929   0.193  0.00  0.00    -0.052 I 
ATOM      3  I   UNL     1      -1.482   1.292   0.193  0.00  0.00    -0.052 I 
ATOM      4  C   UNL     1       0.000   0.000  -0.578  0.00  0.00    +0.156 C 
ENDROOT
TORSDOF 0
