REMARK  Name = 66261
REMARK  10 active torsions:
REMARK  status: ('A' for Active; 'I' for Inactive)
REMARK    1  A    between atoms: C_1  and  C_2
REMARK    2  A    between atoms: C_1  and  C_4
REMARK    3  A    between atoms: C_1  and  C_9
REMARK    4  A    between atoms: C_1  and  C_14
REMARK    5  A    between atoms: C_4  and  O_5
REMARK    6  A    between atoms: O_5  and  N_8
REMARK    7  A    between atoms: C_9  and  O_10
REMARK    8  A    between atoms: O_10  and  N_13
REMARK    9  A    between atoms: C_14  and  O_15
REMARK   10  A    between atoms: O_15  and  N_18
REMARK                            x       y       z     vdW  Elec       q    Type
REMARK                         _______ _______ _______ _____ _____    ______ ____
ROOT
ATOM      1  C   UNL     1       0.003   0.583   0.411  0.00  0.00    +0.130 C 
ENDROOT
BRANCH   1   2
ATOM      2  C   UNL     1       0.022   1.436   1.716  0.00  0.00    +0.011 C 
ATOM      3  C   UNL     1       0.030   2.947   1.518  0.00  0.00    +0.000 C 
ENDBRANCH   1   2
BRANCH   1   4
ATOM      4  C   UNL     1       1.245   0.871  -0.468  0.00  0.00    +0.250 C 
BRANCH   4   5
ATOM      5  O   UNL     1       2.446   0.569   0.230  0.00  0.00    -0.336 OA
BRANCH   5   8
ATOM      6  O   UNL     1       3.381   1.245  -1.660  0.00  0.00    -0.090 OA
ATOM      7  O   UNL     1       4.708   0.579   0.003  0.00  0.00    -0.090 OA
ATOM      8  N   UNL     1       3.623   0.815  -0.531  0.00  0.00    +0.218 N 
ENDBRANCH   5   8
ENDBRANCH   4   5
ENDBRANCH   1   4
BRANCH   1   9
ATOM      9  C   UNL     1      -1.253   0.869  -0.451  0.00  0.00    +0.250 C 
BRANCH   9  10
ATOM     10  O   UNL     1      -2.459   0.573   0.242  0.00  0.00    -0.336 OA
BRANCH  10  13
ATOM     11  O   UNL     1      -3.382   1.256  -1.651  0.00  0.00    -0.090 OA
ATOM     12  O   UNL     1      -4.720   0.594   0.006  0.00  0.00    -0.090 OA
ATOM     13  N   UNL     1      -3.631   0.825  -0.524  0.00  0.00    +0.218 N 
ENDBRANCH  10  13
ENDBRANCH   9  10
ENDBRANCH   1   9
BRANCH   1  14
ATOM     14  C   UNL     1       0.007  -0.906   0.858  0.00  0.00    +0.250 C 
BRANCH  14  15
ATOM     15  O   UNL     1      -0.008  -1.779  -0.265  0.00  0.00    -0.336 OA
BRANCH  15  18
ATOM     16  O   UNL     1       0.010  -3.338   1.306  0.00  0.00    -0.090 OA
ATOM     17  O   UNL     1      -0.017  -3.981  -0.829  0.00  0.00    -0.090 OA
ATOM     18  N   UNL     1      -0.005  -3.157   0.088  0.00  0.00    +0.218 N 
ENDBRANCH  15  18
ENDBRANCH  14  15
ENDBRANCH   1  14
TORSDOF 10
