23403
  -OEChem-10061700203D

 48 47  0     0  0  0  0  0  0999 V2000
   -6.7053    0.9936    0.7692 S   0  0  0  0  0  0  0  0  0  0  0  0
    6.3061    0.1268   -1.2325 S   0  0  0  0  0  0  0  0  0  0  0  0
   -8.2511    1.1728   -1.8860 O   0  0  0  0  0  0  0  0  0  0  0  0
    6.4655    2.9137    0.0631 O   0  0  0  0  0  0  0  0  0  0  0  0
   -0.3046   -0.8585    0.7691 C   0  0  0  0  0  0  0  0  0  0  0  0
    0.8839   -0.7134   -0.1839 C   0  0  0  0  0  0  0  0  0  0  0  0
   -1.5742   -0.2491    0.1719 C   0  0  0  0  0  0  0  0  0  0  0  0
    2.1448   -1.3520    0.4024 C   0  0  0  0  0  0  0  0  0  0  0  0
   -2.7555   -0.3651    1.1383 C   0  0  0  0  0  0  0  0  0  0  0  0
    3.3885   -1.1563   -0.4701 C   0  0  0  0  0  0  0  0  0  0  0  0
   -4.0133    0.2876    0.5556 C   0  0  0  0  0  0  0  0  0  0  0  0
    4.6939   -1.7379    0.0883 C   0  0  0  0  0  0  0  0  0  0  0  0
   -5.2290    0.2068    1.4781 C   0  0  0  0  0  0  0  0  0  0  0  0
    5.9301   -1.5973   -0.8004 C   0  0  0  0  0  0  0  0  0  0  0  0
   -7.2157   -0.3489   -0.3276 C   0  0  0  0  0  0  0  0  0  0  0  0
    7.1289    0.6075    0.3030 C   0  0  0  0  0  0  0  0  0  0  0  0
   -8.4766    0.0118   -1.0972 C   0  0  0  0  0  0  0  0  0  0  0  0
    7.5836    2.0579    0.2586 C   0  0  0  0  0  0  0  0  0  0  0  0
   -0.4754   -1.9199    0.9865 H   0  0  0  0  0  0  0  0  0  0  0  0
   -0.0726   -0.3664    1.7215 H   0  0  0  0  0  0  0  0  0  0  0  0
    0.6502   -1.1845   -1.1462 H   0  0  0  0  0  0  0  0  0  0  0  0
    1.0674    0.3499   -0.3798 H   0  0  0  0  0  0  0  0  0  0  0  0
   -1.3960    0.8072   -0.0640 H   0  0  0  0  0  0  0  0  0  0  0  0
   -1.8179   -0.7544   -0.7705 H   0  0  0  0  0  0  0  0  0  0  0  0
    2.3403   -0.9235    1.3932 H   0  0  0  0  0  0  0  0  0  0  0  0
    1.9751   -2.4256    0.5500 H   0  0  0  0  0  0  0  0  0  0  0  0
   -2.9557   -1.4217    1.3526 H   0  0  0  0  0  0  0  0  0  0  0  0
   -2.5038    0.1172    2.0905 H   0  0  0  0  0  0  0  0  0  0  0  0
    3.1993   -1.6024   -1.4548 H   0  0  0  0  0  0  0  0  0  0  0  0
    3.5099   -0.0795   -0.6350 H   0  0  0  0  0  0  0  0  0  0  0  0
   -4.2379   -0.1961   -0.4024 H   0  0  0  0  0  0  0  0  0  0  0  0
   -3.7946    1.3406    0.3357 H   0  0  0  0  0  0  0  0  0  0  0  0
    4.5383   -2.8081    0.2761 H   0  0  0  0  0  0  0  0  0  0  0  0
    4.8906   -1.2907    1.0702 H   0  0  0  0  0  0  0  0  0  0  0  0
   -5.0032    0.7275    2.4150 H   0  0  0  0  0  0  0  0  0  0  0  0
   -5.4551   -0.8326    1.7391 H   0  0  0  0  0  0  0  0  0  0  0  0
    6.8010   -2.0608   -0.3255 H   0  0  0  0  0  0  0  0  0  0  0  0
    5.7565   -2.1350   -1.7389 H   0  0  0  0  0  0  0  0  0  0  0  0
   -7.3920   -1.2556    0.2593 H   0  0  0  0  0  0  0  0  0  0  0  0
   -6.4090   -0.5411   -1.0411 H   0  0  0  0  0  0  0  0  0  0  0  0
    7.9924   -0.0420    0.4763 H   0  0  0  0  0  0  0  0  0  0  0  0
    6.4207    0.4826    1.1277 H   0  0  0  0  0  0  0  0  0  0  0  0
   -8.7527   -0.8097   -1.7663 H   0  0  0  0  0  0  0  0  0  0  0  0
   -9.3165    0.2019   -0.4202 H   0  0  0  0  0  0  0  0  0  0  0  0
    8.0610    2.3279    1.2062 H   0  0  0  0  0  0  0  0  0  0  0  0
    8.3032    2.2258   -0.5500 H   0  0  0  0  0  0  0  0  0  0  0  0
   -9.0774    1.3574   -2.3643 H   0  0  0  0  0  0  0  0  0  0  0  0
    6.8029    3.8256    0.0516 H   0  0  0  0  0  0  0  0  0  0  0  0
  1 13  1  0  0  0  0
  1 15  1  0  0  0  0
  2 14  1  0  0  0  0
  2 16  1  0  0  0  0
  3 17  1  0  0  0  0
  3 47  1  0  0  0  0
  4 18  1  0  0  0  0
  4 48  1  0  0  0  0
  5  6  1  0  0  0  0
  5  7  1  0  0  0  0
  5 19  1  0  0  0  0
  5 20  1  0  0  0  0
  6  8  1  0  0  0  0
  6 21  1  0  0  0  0
  6 22  1  0  0  0  0
  7  9  1  0  0  0  0
  7 23  1  0  0  0  0
  7 24  1  0  0  0  0
  8 10  1  0  0  0  0
  8 25  1  0  0  0  0
  8 26  1  0  0  0  0
  9 11  1  0  0  0  0
  9 27  1  0  0  0  0
  9 28  1  0  0  0  0
 10 12  1  0  0  0  0
 10 29  1  0  0  0  0
 10 30  1  0  0  0  0
 11 13  1  0  0  0  0
 11 31  1  0  0  0  0
 11 32  1  0  0  0  0
 12 14  1  0  0  0  0
 12 33  1  0  0  0  0
 12 34  1  0  0  0  0
 13 35  1  0  0  0  0
 13 36  1  0  0  0  0
 14 37  1  0  0  0  0
 14 38  1  0  0  0  0
 15 17  1  0  0  0  0
 15 39  1  0  0  0  0
 15 40  1  0  0  0  0
 16 18  1  0  0  0  0
 16 41  1  0  0  0  0
 16 42  1  0  0  0  0
 17 43  1  0  0  0  0
 17 44  1  0  0  0  0
 18 45  1  0  0  0  0
 18 46  1  0  0  0  0
M  END
> <DATABASE_ID>
DB13348

> <DATABASE_NAME>
drugbank

> <ORIGINAL_SOURCE>
PUBCHEM

> <ORIGINAL_SOURCE_URL>
https://pubchem.ncbi.nlm.nih.gov/rest/pug/compound/inchikey/WRCITXQNXAIKLR-UHFFFAOYSA-N/SDF?record_type=3d

> <SMILES>
OCCSCCCCCCCCCCSCCO

> <INCHI_IDENTIFIER>
InChI=1S/C14H30O2S2/c15-9-13-17-11-7-5-3-1-2-4-6-8-12-18-14-10-16/h15-16H,1-14H2

> <INCHI_KEY>
WRCITXQNXAIKLR-UHFFFAOYSA-N

> <FORMULA>
C14H30O2S2

> <MOLECULAR_WEIGHT>
294.51

> <EXACT_MASS>
294.168722554

> <JCHEM_ACCEPTOR_COUNT>
2

> <JCHEM_ATOM_COUNT>
48

> <JCHEM_AVERAGE_POLARIZABILITY>
37.943460500258105

> <JCHEM_BIOAVAILABILITY>
1

> <JCHEM_DONOR_COUNT>
2

> <JCHEM_FORMAL_CHARGE>
0

> <JCHEM_GHOSE_FILTER>
1

> <JCHEM_IUPAC>
2-({10-[(2-hydroxyethyl)sulfanyl]decyl}sulfanyl)ethan-1-ol

> <ALOGPS_LOGP>
3.98

> <JCHEM_LOGP>
3.413237658666666

> <ALOGPS_LOGS>
-5.15

> <JCHEM_MDDR_LIKE_RULE>
0

> <JCHEM_NUMBER_OF_RINGS>
0

> <JCHEM_PHYSIOLOGICAL_CHARGE>
0

> <JCHEM_PKA>
15.84845829480247

> <JCHEM_PKA_STRONGEST_ACIDIC>
15.24639830347451

> <JCHEM_PKA_STRONGEST_BASIC>
-2.559354861956824

> <JCHEM_POLAR_SURFACE_AREA>
40.46

> <JCHEM_REFRACTIVITY>
86.01979999999999

> <JCHEM_ROTATABLE_BOND_COUNT>
15

> <JCHEM_RULE_OF_FIVE>
1

> <ALOGPS_SOLUBILITY>
2.10e-03 g/l

> <JCHEM_TRADITIONAL_IUPAC>
tiaden

> <JCHEM_VEBER_RULE>
0

> <DRUGBANK_ID>
DB13348

> <DRUG_GROUPS>
experimental

> <GENERIC_NAME>
Tiadenol

$$$$
