42884
  -OEChem-10061700273D

 53 55  0     0  0  0  0  0  0999 V2000
   -0.3916    5.6792    0.4964 Cl  0  0  0  0  0  0  0  0  0  0  0  0
    1.4803   -2.0082   -0.2626 O   0  0  0  0  0  0  0  0  0  0  0  0
   -4.0912   -1.1924    0.0698 N   0  0  0  0  0  0  0  0  0  0  0  0
   -0.0007   -0.1603   -0.2946 N   0  0  0  0  0  0  0  0  0  0  0  0
   -1.2311   -0.8910   -0.4691 C   0  0  0  0  0  0  0  0  0  0  0  0
   -2.2879   -0.0315   -1.1634 C   0  0  0  0  0  0  0  0  0  0  0  0
   -1.7599   -1.3957    0.8732 C   0  0  0  0  0  0  0  0  0  0  0  0
   -3.6264   -0.7662   -1.2575 C   0  0  0  0  0  0  0  0  0  0  0  0
   -3.1162   -2.0845    0.7126 C   0  0  0  0  0  0  0  0  0  0  0  0
   -5.3951   -1.8475   -0.0308 C   0  0  0  0  0  0  0  0  0  0  0  0
   -6.4200   -0.8953   -0.6406 C   0  0  0  0  0  0  0  0  0  0  0  0
   -5.8366   -2.3149    1.3525 C   0  0  0  0  0  0  0  0  0  0  0  0
   -0.0979    1.2846   -0.0990 C   0  0  0  0  0  0  0  0  0  0  0  0
    1.2762   -0.7927   -0.2042 C   0  0  0  0  0  0  0  0  0  0  0  0
    2.4581    0.1619   -0.0684 C   0  0  0  0  0  0  0  0  0  0  0  0
    0.0288    2.0803   -1.1981 C   0  0  0  0  0  0  0  0  0  0  0  0
   -0.3082    1.7371    1.1695 C   0  0  0  0  0  0  0  0  0  0  0  0
    3.7918   -0.5422    0.0023 C   0  0  0  0  0  0  0  0  0  0  0  0
   -0.0634    3.4595   -1.0112 C   0  0  0  0  0  0  0  0  0  0  0  0
   -0.4005    3.1164    1.3565 C   0  0  0  0  0  0  0  0  0  0  0  0
   -0.2783    3.9776    0.2660 C   0  0  0  0  0  0  0  0  0  0  0  0
    4.2981   -0.9152    1.2373 C   0  0  0  0  0  0  0  0  0  0  0  0
    4.4850   -0.8034   -1.1689 C   0  0  0  0  0  0  0  0  0  0  0  0
    5.5301   -1.5659    1.3028 C   0  0  0  0  0  0  0  0  0  0  0  0
    5.7170   -1.4542   -1.1033 C   0  0  0  0  0  0  0  0  0  0  0  0
    6.2395   -1.8354    0.1325 C   0  0  0  0  0  0  0  0  0  0  0  0
   -1.0111   -1.7630   -1.0992 H   0  0  0  0  0  0  0  0  0  0  0  0
   -1.9594    0.2358   -2.1752 H   0  0  0  0  0  0  0  0  0  0  0  0
   -2.4889    0.9026   -0.6247 H   0  0  0  0  0  0  0  0  0  0  0  0
   -1.8746   -0.5716    1.5865 H   0  0  0  0  0  0  0  0  0  0  0  0
   -1.0444   -2.0953    1.3225 H   0  0  0  0  0  0  0  0  0  0  0  0
   -4.3174   -0.0558   -1.7215 H   0  0  0  0  0  0  0  0  0  0  0  0
   -3.5295   -1.6245   -1.9354 H   0  0  0  0  0  0  0  0  0  0  0  0
   -2.9937   -3.0139    0.1410 H   0  0  0  0  0  0  0  0  0  0  0  0
   -3.4143   -2.3559    1.7296 H   0  0  0  0  0  0  0  0  0  0  0  0
   -5.3366   -2.7340   -0.6775 H   0  0  0  0  0  0  0  0  0  0  0  0
   -7.4334   -1.2969   -0.5230 H   0  0  0  0  0  0  0  0  0  0  0  0
   -6.4036    0.0865   -0.1537 H   0  0  0  0  0  0  0  0  0  0  0  0
   -6.2772   -0.7577   -1.7169 H   0  0  0  0  0  0  0  0  0  0  0  0
   -5.3015   -3.2098    1.6865 H   0  0  0  0  0  0  0  0  0  0  0  0
   -6.8967   -2.5961    1.3387 H   0  0  0  0  0  0  0  0  0  0  0  0
   -5.7264   -1.5280    2.1078 H   0  0  0  0  0  0  0  0  0  0  0  0
    2.3407    0.7689    0.8365 H   0  0  0  0  0  0  0  0  0  0  0  0
    2.4755    0.8461   -0.9243 H   0  0  0  0  0  0  0  0  0  0  0  0
    0.1996    1.6786   -2.1914 H   0  0  0  0  0  0  0  0  0  0  0  0
   -0.3832    1.0752    2.0248 H   0  0  0  0  0  0  0  0  0  0  0  0
    0.0349    4.1185   -1.8701 H   0  0  0  0  0  0  0  0  0  0  0  0
   -0.5632    3.5060    2.3582 H   0  0  0  0  0  0  0  0  0  0  0  0
    3.7519   -0.7119    2.1540 H   0  0  0  0  0  0  0  0  0  0  0  0
    4.0853   -0.5127   -2.1361 H   0  0  0  0  0  0  0  0  0  0  0  0
    5.9367   -1.8636    2.2650 H   0  0  0  0  0  0  0  0  0  0  0  0
    6.2691   -1.6649   -2.0145 H   0  0  0  0  0  0  0  0  0  0  0  0
    7.1985   -2.3425    0.1836 H   0  0  0  0  0  0  0  0  0  0  0  0
  1 21  1  0  0  0  0
  2 14  2  0  0  0  0
  3  8  1  0  0  0  0
  3  9  1  0  0  0  0
  3 10  1  0  0  0  0
  4  5  1  0  0  0  0
  4 13  1  0  0  0  0
  4 14  1  0  0  0  0
  5  6  1  0  0  0  0
  5  7  1  0  0  0  0
  5 27  1  0  0  0  0
  6  8  1  0  0  0  0
  6 28  1  0  0  0  0
  6 29  1  0  0  0  0
  7  9  1  0  0  0  0
  7 30  1  0  0  0  0
  7 31  1  0  0  0  0
  8 32  1  0  0  0  0
  8 33  1  0  0  0  0
  9 34  1  0  0  0  0
  9 35  1  0  0  0  0
 10 11  1  0  0  0  0
 10 12  1  0  0  0  0
 10 36  1  0  0  0  0
 11 37  1  0  0  0  0
 11 38  1  0  0  0  0
 11 39  1  0  0  0  0
 12 40  1  0  0  0  0
 12 41  1  0  0  0  0
 12 42  1  0  0  0  0
 13 16  2  0  0  0  0
 13 17  1  0  0  0  0
 14 15  1  0  0  0  0
 15 18  1  0  0  0  0
 15 43  1  0  0  0  0
 15 44  1  0  0  0  0
 16 19  1  0  0  0  0
 16 45  1  0  0  0  0
 17 20  2  0  0  0  0
 17 46  1  0  0  0  0
 18 22  2  0  0  0  0
 18 23  1  0  0  0  0
 19 21  2  0  0  0  0
 19 47  1  0  0  0  0
 20 21  1  0  0  0  0
 20 48  1  0  0  0  0
 22 24  1  0  0  0  0
 22 49  1  0  0  0  0
 23 25  2  0  0  0  0
 23 50  1  0  0  0  0
 24 26  2  0  0  0  0
 24 51  1  0  0  0  0
 25 26  1  0  0  0  0
 25 52  1  0  0  0  0
 26 53  1  0  0  0  0
M  END
> <DATABASE_ID>
DB13653

> <DATABASE_NAME>
drugbank

> <ORIGINAL_SOURCE>
PUBCHEM

> <ORIGINAL_SOURCE_URL>
https://pubchem.ncbi.nlm.nih.gov/rest/pug/compound/inchikey/XHOJAWVAWFHGHL-UHFFFAOYSA-N/SDF?record_type=3d

> <SMILES>
CC(C)N1CCC(CC1)N(C(=O)CC1=CC=CC=C1)C1=CC=C(Cl)C=C1

> <INCHI_IDENTIFIER>
InChI=1S/C22H27ClN2O/c1-17(2)24-14-12-21(13-15-24)25(20-10-8-19(23)9-11-20)22(26)16-18-6-4-3-5-7-18/h3-11,17,21H,12-16H2,1-2H3

> <INCHI_KEY>
XHOJAWVAWFHGHL-UHFFFAOYSA-N

> <FORMULA>
C22H27ClN2O

> <MOLECULAR_WEIGHT>
370.916

> <EXACT_MASS>
370.181191203

> <JCHEM_ACCEPTOR_COUNT>
2

> <JCHEM_AVERAGE_POLARIZABILITY>
40.92587445622381

> <JCHEM_BIOAVAILABILITY>
1

> <JCHEM_DONOR_COUNT>
0

> <JCHEM_FORMAL_CHARGE>
0

> <JCHEM_GHOSE_FILTER>
1

> <JCHEM_IUPAC>
N-(4-chlorophenyl)-2-phenyl-N-[1-(propan-2-yl)piperidin-4-yl]acetamide

> <ALOGPS_LOGP>
4.59

> <JCHEM_LOGP>
4.313595854333333

> <ALOGPS_LOGS>
-4.69

> <JCHEM_MDDR_LIKE_RULE>
0

> <JCHEM_NUMBER_OF_RINGS>
3

> <JCHEM_PHYSIOLOGICAL_CHARGE>
1

> <JCHEM_PKA_STRONGEST_BASIC>
8.833642729785097

> <JCHEM_POLAR_SURFACE_AREA>
23.55

> <JCHEM_REFRACTIVITY>
108.18209999999999

> <JCHEM_ROTATABLE_BOND_COUNT>
5

> <JCHEM_RULE_OF_FIVE>
1

> <ALOGPS_SOLUBILITY>
7.49e-03 g/l

> <JCHEM_TRADITIONAL_IUPAC>
lorcainide

> <JCHEM_VEBER_RULE>
1

> <DRUGBANK_ID>
DB13653

> <DRUG_GROUPS>
experimental

> <GENERIC_NAME>
Lorcainide

$$$$
