12604
  -OEChem-10061700183D

 53 54  0     0  0  0  0  0  0999 V2000
   -0.1641   -1.4312    0.1259 O   0  0  0  0  0  0  0  0  0  0  0  0
   -2.0601   -2.6363   -0.1973 O   0  0  0  0  0  0  0  0  0  0  0  0
    3.8953    0.9706    0.7959 O   0  0  0  0  0  0  0  0  0  0  0  0
    6.7904   -0.9317   -0.0943 O   0  0  0  0  0  0  0  0  0  0  0  0
    6.5026    1.3344    0.2384 O   0  0  0  0  0  0  0  0  0  0  0  0
   -5.9616   -0.6344   -0.1064 N   0  0  0  0  0  0  0  0  0  0  0  0
   -4.5743   -0.4248    0.2924 C   0  0  0  0  0  0  0  0  0  0  0  0
   -3.6738   -0.5033   -0.9292 C   0  0  0  0  0  0  0  0  0  0  0  0
   -2.2329   -0.2855   -0.5428 C   0  0  0  0  0  0  0  0  0  0  0  0
   -1.6170    0.9153   -0.5048 C   0  0  0  0  0  0  0  0  0  0  0  0
   -6.7616   -1.0898    1.0318 C   0  0  0  0  0  0  0  0  0  0  0  0
   -6.5278    0.5941   -0.6659 C   0  0  0  0  0  0  0  0  0  0  0  0
   -0.1793    0.9834   -0.1709 C   0  0  0  0  0  0  0  0  0  0  0  0
    0.4973   -0.1937    0.1347 C   0  0  0  0  0  0  0  0  0  0  0  0
   -1.5049   -1.5417   -0.2011 C   0  0  0  0  0  0  0  0  0  0  0  0
   -2.3180    2.2243   -0.7717 C   0  0  0  0  0  0  0  0  0  0  0  0
   -6.7988   -0.0419    2.1311 C   0  0  0  0  0  0  0  0  0  0  0  0
   -7.9522    0.3732   -1.1460 C   0  0  0  0  0  0  0  0  0  0  0  0
    0.5659    2.1730   -0.1504 C   0  0  0  0  0  0  0  0  0  0  0  0
    1.8557   -0.2178    0.4612 C   0  0  0  0  0  0  0  0  0  0  0  0
    2.5723    0.9728    0.4813 C   0  0  0  0  0  0  0  0  0  0  0  0
    1.9280    2.1678    0.1740 C   0  0  0  0  0  0  0  0  0  0  0  0
    4.6405   -0.2011    0.4661 C   0  0  0  0  0  0  0  0  0  0  0  0
    6.0696    0.1907    0.1976 C   0  0  0  0  0  0  0  0  0  0  0  0
    8.1777   -0.7174   -0.3738 C   0  0  0  0  0  0  0  0  0  0  0  0
    8.8312   -2.0490   -0.6758 C   0  0  0  0  0  0  0  0  0  0  0  0
   -4.2575   -1.2123    0.9900 H   0  0  0  0  0  0  0  0  0  0  0  0
   -4.4314    0.5316    0.8119 H   0  0  0  0  0  0  0  0  0  0  0  0
   -3.7963   -1.4734   -1.4293 H   0  0  0  0  0  0  0  0  0  0  0  0
   -3.9534    0.2238   -1.6984 H   0  0  0  0  0  0  0  0  0  0  0  0
   -7.7762   -1.3750    0.7344 H   0  0  0  0  0  0  0  0  0  0  0  0
   -6.3277   -2.0153    1.4325 H   0  0  0  0  0  0  0  0  0  0  0  0
   -6.4781    1.4571    0.0076 H   0  0  0  0  0  0  0  0  0  0  0  0
   -5.9569    0.8851   -1.5549 H   0  0  0  0  0  0  0  0  0  0  0  0
   -3.3965    2.1220   -0.9143 H   0  0  0  0  0  0  0  0  0  0  0  0
   -2.1930    2.9093    0.0745 H   0  0  0  0  0  0  0  0  0  0  0  0
   -1.9182    2.6977   -1.6749 H   0  0  0  0  0  0  0  0  0  0  0  0
   -7.3335   -0.4612    2.9923 H   0  0  0  0  0  0  0  0  0  0  0  0
   -7.3480    0.8613    1.8511 H   0  0  0  0  0  0  0  0  0  0  0  0
   -5.8097    0.2418    2.5011 H   0  0  0  0  0  0  0  0  0  0  0  0
   -8.6686    0.3051   -0.3219 H   0  0  0  0  0  0  0  0  0  0  0  0
   -8.2659    1.2217   -1.7645 H   0  0  0  0  0  0  0  0  0  0  0  0
   -8.0363   -0.5273   -1.7644 H   0  0  0  0  0  0  0  0  0  0  0  0
    0.1110    3.1314   -0.3862 H   0  0  0  0  0  0  0  0  0  0  0  0
    2.3100   -1.1711    0.7149 H   0  0  0  0  0  0  0  0  0  0  0  0
    2.4789    3.1048    0.1829 H   0  0  0  0  0  0  0  0  0  0  0  0
    4.2678   -0.6734   -0.4512 H   0  0  0  0  0  0  0  0  0  0  0  0
    4.6161   -0.8925    1.3147 H   0  0  0  0  0  0  0  0  0  0  0  0
    8.2773   -0.0515   -1.2382 H   0  0  0  0  0  0  0  0  0  0  0  0
    8.6587   -0.2578    0.4969 H   0  0  0  0  0  0  0  0  0  0  0  0
    8.7239   -2.7323    0.1731 H   0  0  0  0  0  0  0  0  0  0  0  0
    8.3487   -2.5293   -1.5335 H   0  0  0  0  0  0  0  0  0  0  0  0
    9.8951   -1.9218   -0.8945 H   0  0  0  0  0  0  0  0  0  0  0  0
  1 14  1  0  0  0  0
  1 15  1  0  0  0  0
  2 15  2  0  0  0  0
  3 21  1  0  0  0  0
  3 23  1  0  0  0  0
  4 24  1  0  0  0  0
  4 25  1  0  0  0  0
  5 24  2  0  0  0  0
  6  7  1  0  0  0  0
  6 11  1  0  0  0  0
  6 12  1  0  0  0  0
  7  8  1  0  0  0  0
  7 27  1  0  0  0  0
  7 28  1  0  0  0  0
  8  9  1  0  0  0  0
  8 29  1  0  0  0  0
  8 30  1  0  0  0  0
  9 10  2  0  0  0  0
  9 15  1  0  0  0  0
 10 13  1  0  0  0  0
 10 16  1  0  0  0  0
 11 17  1  0  0  0  0
 11 31  1  0  0  0  0
 11 32  1  0  0  0  0
 12 18  1  0  0  0  0
 12 33  1  0  0  0  0
 12 34  1  0  0  0  0
 13 14  2  0  0  0  0
 13 19  1  0  0  0  0
 14 20  1  0  0  0  0
 16 35  1  0  0  0  0
 16 36  1  0  0  0  0
 16 37  1  0  0  0  0
 17 38  1  0  0  0  0
 17 39  1  0  0  0  0
 17 40  1  0  0  0  0
 18 41  1  0  0  0  0
 18 42  1  0  0  0  0
 18 43  1  0  0  0  0
 19 22  2  0  0  0  0
 19 44  1  0  0  0  0
 20 21  2  0  0  0  0
 20 45  1  0  0  0  0
 21 22  1  0  0  0  0
 22 46  1  0  0  0  0
 23 24  1  0  0  0  0
 23 47  1  0  0  0  0
 23 48  1  0  0  0  0
 25 26  1  0  0  0  0
 25 49  1  0  0  0  0
 25 50  1  0  0  0  0
 26 51  1  0  0  0  0
 26 52  1  0  0  0  0
 26 53  1  0  0  0  0
M  END
> <DATABASE_ID>
DB13279

> <DATABASE_NAME>
drugbank

> <ORIGINAL_SOURCE>
PUBCHEM

> <ORIGINAL_SOURCE_URL>
https://pubchem.ncbi.nlm.nih.gov/rest/pug/compound/inchikey/KLOIYEQEVSIOOO-UHFFFAOYSA-N/SDF?record_type=3d

> <SMILES>
CCOC(=O)COC1=CC2=C(C=C1)C(C)=C(CCN(CC)CC)C(=O)O2

> <INCHI_IDENTIFIER>
InChI=1S/C20H27NO5/c1-5-21(6-2)11-10-17-14(4)16-9-8-15(12-18(16)26-20(17)23)25-13-19(22)24-7-3/h8-9,12H,5-7,10-11,13H2,1-4H3

> <INCHI_KEY>
KLOIYEQEVSIOOO-UHFFFAOYSA-N

> <FORMULA>
C20H27NO5

> <MOLECULAR_WEIGHT>
361.438

> <EXACT_MASS>
361.188922973

> <JCHEM_ACCEPTOR_COUNT>
4

> <JCHEM_ATOM_COUNT>
53

> <JCHEM_AVERAGE_POLARIZABILITY>
40.52980505056817

> <JCHEM_BIOAVAILABILITY>
1

> <JCHEM_DONOR_COUNT>
0

> <JCHEM_FORMAL_CHARGE>
0

> <JCHEM_GHOSE_FILTER>
1

> <JCHEM_IUPAC>
ethyl 2-({3-[2-(diethylamino)ethyl]-4-methyl-2-oxo-2H-chromen-7-yl}oxy)acetate

> <ALOGPS_LOGP>
3.55

> <JCHEM_LOGP>
2.7315712550000013

> <ALOGPS_LOGS>
-3.91

> <JCHEM_MDDR_LIKE_RULE>
0

> <JCHEM_NUMBER_OF_RINGS>
2

> <JCHEM_PHYSIOLOGICAL_CHARGE>
1

> <JCHEM_PKA_STRONGEST_BASIC>
9.102514241478122

> <JCHEM_POLAR_SURFACE_AREA>
65.07000000000001

> <JCHEM_REFRACTIVITY>
100.00689999999997

> <JCHEM_ROTATABLE_BOND_COUNT>
10

> <JCHEM_RULE_OF_FIVE>
1

> <ALOGPS_SOLUBILITY>
4.43e-02 g/l

> <JCHEM_TRADITIONAL_IUPAC>
ethyl ({3-[2-(diethylamino)ethyl]-4-methyl-2-oxochromen-7-yl}oxy)acetate

> <JCHEM_VEBER_RULE>
0

> <DRUGBANK_ID>
DB13279

> <DRUG_GROUPS>
approved; withdrawn

> <GENERIC_NAME>
Carbocromen

> <SYNONYMS>
Chromonar

$$$$
