REMARK  Name = 6433114
REMARK  8 active torsions:
REMARK  status: ('A' for Active; 'I' for Inactive)
REMARK    1  A    between atoms: C_3  and  O_15
REMARK    2  A    between atoms: C_5  and  C_9
REMARK    3  A    between atoms: O_15  and  C_16
REMARK    4  A    between atoms: C_16  and  C_17
REMARK    5  A    between atoms: C_17  and  C_18
REMARK    6  A    between atoms: C_18  and  C_19
REMARK    7  A    between atoms: C_19  and  C_20
REMARK    8  A    between atoms: C_20  and  N_21
REMARK                            x       y       z     vdW  Elec       q    Type
REMARK                         _______ _______ _______ _____ _____    ______ ____
ROOT
ATOM      1  N   UNL     1       1.551  -1.819   0.135  0.00  0.00    -0.311 NA
ATOM      2  N   UNL     1       3.959  -1.745   0.192  0.00  0.00    -0.347 NA
ATOM      3  C   UNL     1       1.552  -0.479  -0.016  0.00  0.00    +0.270 C 
ATOM      4  C   UNL     1       2.698   0.287  -0.071  0.00  0.00    +0.159 C 
ATOM      5  C   UNL     1       3.885  -0.407   0.039  0.00  0.00    +0.132 C 
ATOM      6  C   UNL     1       2.772  -2.379   0.231  0.00  0.00    +0.117 C 
ATOM      7  C   UNL     1       2.813  -3.860   0.399  0.00  0.00    +0.143 C 
ENDROOT
BRANCH   5   9
ATOM      8  F   UNL     1       8.794   2.233  -0.122  0.00  0.00    -0.204 F 
ATOM      9  C   UNL     1       5.155   0.277  -0.003  0.00  0.00    +0.027 C 
ATOM     10  C   UNL     1       5.740   0.743   1.177  0.00  0.00    +0.005 C 
ATOM     11  C   UNL     1       5.806   0.474  -1.223  0.00  0.00    +0.005 C 
ATOM     12  C   UNL     1       6.968   1.404   1.136  0.00  0.00    +0.030 C 
ATOM     13  C   UNL     1       7.034   1.135  -1.264  0.00  0.00    +0.030 C 
ATOM     14  C   UNL     1       7.614   1.600  -0.084  0.00  0.00    +0.140 C 
ENDBRANCH   5   9
BRANCH   3  15
ATOM     15  O   UNL     1       0.331   0.137  -0.117  0.00  0.00    -0.454 OA
BRANCH  15  16
ATOM     16  C   UNL     1      -0.816  -0.699  -0.054  0.00  0.00    +0.208 C 
BRANCH  16  17
ATOM     17  C   UNL     1      -2.080   0.141  -0.186  0.00  0.00    +0.047 C 
BRANCH  17  18
ATOM     18  C   UNL     1      -3.351  -0.708  -0.105  0.00  0.00    +0.002 C 
BRANCH  18  19
ATOM     19  C   UNL     1      -4.606   0.152  -0.273  0.00  0.00    -0.023 C 
BRANCH  19  20
ATOM     20  C   UNL     1      -5.874  -0.692  -0.156  0.00  0.00    -0.077 C 
BRANCH  20  21
ATOM     21  N   UNL     1      -7.060   0.144  -0.340  0.00  0.00    +0.387 N 
ATOM     22  C   UNL     1      -8.276  -0.682  -0.343  0.00  0.00    -0.077 C 
ATOM     23  C   UNL     1      -7.125   1.180   0.700  0.00  0.00    -0.077 C 
ATOM     24  C   UNL     1      -9.522   0.172  -0.584  0.00  0.00    -0.023 C 
ATOM     25  C   UNL     1      -8.333   2.095   0.493  0.00  0.00    -0.023 C 
ATOM     26  C   UNL     1      -9.630   1.296   0.440  0.00  0.00    -0.004 C 
ATOM     27  H   UNL     1      -6.994   0.610  -1.245  0.00  0.00    -0.080 HD
ENDBRANCH  20  21
ENDBRANCH  19  20
ENDBRANCH  18  19
ENDBRANCH  17  18
ENDBRANCH  16  17
ENDBRANCH  15  16
ENDBRANCH   3  15
TORSDOF 8
