REMARK  Name = 7239
REMARK  0 active torsions:
REMARK  status: ('A' for Active; 'I' for Inactive)
REMARK                            x       y       z     vdW  Elec       q    Type
REMARK                         _______ _______ _______ _____ _____    ______ ____
ROOT
ATOM      1 CL   UNL     1       2.003   1.618  -0.001  0.00  0.00    -0.081 Cl
ATOM      2 CL   UNL     1       2.004  -1.617   0.002  0.00  0.00    -0.081 Cl
ATOM      3  C   UNL     1       0.540   0.698   0.000  0.00  0.00    +0.068 C 
ATOM      4  C   UNL     1       0.540  -0.697  -0.001  0.00  0.00    +0.068 C 
ATOM      5  C   UNL     1      -0.668   1.395   0.001  0.00  0.00    +0.012 C 
ATOM      6  C   UNL     1      -0.667  -1.395  -0.001  0.00  0.00    +0.012 C 
ATOM      7  C   UNL     1      -1.876   0.697   0.001  0.00  0.00    +0.001 C 
ATOM      8  C   UNL     1      -1.876  -0.698   0.000  0.00  0.00    +0.001 C 
ENDROOT
TORSDOF 0
