REMARK  Name = 2312
REMARK  7 active torsions:
REMARK  status: ('A' for Active; 'I' for Inactive)
REMARK    1  A    between atoms: C_1  and  O_8
REMARK    2  A    between atoms: C_1  and  C_16
REMARK    3  A    between atoms: O_8  and  C_9
REMARK    4  A    between atoms: C_9  and  C_10
REMARK    5  A    between atoms: C_10  and  C_11
REMARK    6  A    between atoms: C_11  and  N_12
REMARK    7  A    between atoms: C_16  and  C_17
REMARK                            x       y       z     vdW  Elec       q    Type
REMARK                         _______ _______ _______ _____ _____    ______ ____
ROOT
ATOM      1  C   UNL     1       0.383   0.037  -0.221  0.00  0.00    +0.097 C 
ATOM      2  C   UNL     1       0.572   0.511   1.233  0.00  0.00    +0.028 C 
ATOM      3  C   UNL     1       0.797   1.116  -1.236  0.00  0.00    +0.028 C 
ATOM      4  C   UNL     1      -0.356   1.621   1.720  0.00  0.00    +0.002 C 
ATOM      5  C   UNL     1      -0.229   2.199  -1.567  0.00  0.00    +0.002 C 
ATOM      6  C   UNL     1      -0.309   2.911   0.907  0.00  0.00    +0.000 C 
ATOM      7  C   UNL     1      -1.042   2.793  -0.422  0.00  0.00    +0.000 C 
ENDROOT
BRANCH   1   8
ATOM      8  O   UNL     1      -0.974  -0.339  -0.447  0.00  0.00    -0.358 OA
BRANCH   8   9
ATOM      9  C   UNL     1      -1.359  -1.393   0.417  0.00  0.00    +0.140 C 
BRANCH   9  10
ATOM     10  C   UNL     1      -2.817  -1.742   0.149  0.00  0.00    +0.009 C 
BRANCH  10  11
ATOM     11  C   UNL     1      -3.733  -0.551   0.411  0.00  0.00    -0.075 C 
BRANCH  11  12
ATOM     12  N   UNL     1      -5.123  -0.919   0.168  0.00  0.00    +0.384 N 
ATOM     13  C   UNL     1      -5.314  -1.317  -1.228  0.00  0.00    -0.101 C 
ATOM     14  C   UNL     1      -6.017   0.190   0.506  0.00  0.00    -0.101 C 
ATOM     15  H   UNL     1      -5.351  -1.714   0.765  0.00  0.00    -0.080 HD
ENDBRANCH  11  12
ENDBRANCH  10  11
ENDBRANCH   9  10
ENDBRANCH   8   9
ENDBRANCH   1   8
BRANCH   1  16
ATOM     16  C   UNL     1       1.249  -1.214  -0.442  0.00  0.00    +0.054 C 
BRANCH  16  17
ATOM     17  C   UNL     1       2.702  -0.921  -0.208  0.00  0.00    -0.020 C 
ATOM     18  C   UNL     1       3.497  -0.492  -1.265  0.00  0.00    -0.004 C 
ATOM     19  C   UNL     1       3.240  -1.082   1.064  0.00  0.00    -0.004 C 
ATOM     20  C   UNL     1       4.847  -0.220  -1.048  0.00  0.00    -0.000 C 
ATOM     21  C   UNL     1       4.591  -0.810   1.281  0.00  0.00    -0.000 C 
ATOM     22  C   UNL     1       5.394  -0.379   0.226  0.00  0.00    -0.000 C 
ENDBRANCH  16  17
ENDBRANCH   1  16
TORSDOF 7
