REMARK  Name = 46213929
REMARK  4 active torsions:
REMARK  status: ('A' for Active; 'I' for Inactive)
REMARK    1  A    between atoms: C_7  and  C_20
REMARK    2  A    between atoms: C_9  and  C_28
REMARK    3  A    between atoms: C_20  and  N_22
REMARK    4  A    between atoms: C_28  and  C_31
REMARK                            x       y       z     vdW  Elec       q    Type
REMARK                         _______ _______ _______ _____ _____    ______ ____
ROOT
ATOM      1  N   UNL     1       0.388   0.362  -0.330  0.00  0.00    -0.179 N 
ATOM      2  N   UNL     1       2.133   1.724  -0.086  0.00  0.00    -0.393 NA
ATOM      3  N   UNL     1      -0.409  -0.731  -0.236  0.00  0.00    -0.160 NA
ATOM      4  N   UNL     1      -0.621  -2.889   0.604  0.00  0.00    -0.281 N 
ATOM      5  N   UNL     1      -2.640  -2.311  -0.618  0.00  0.00    -0.166 NA
ATOM      6  N   UNL     1      -3.759  -3.019  -0.847  0.00  0.00    -0.239 N 
ATOM      7  C   UNL     1       2.213  -0.549   0.941  0.00  0.00    +0.005 C 
ATOM      8  C   UNL     1       1.651   0.530   0.202  0.00  0.00    +0.196 C 
ATOM      9  C   UNL     1       0.069   1.521  -0.988  0.00  0.00    +0.151 C 
ATOM     10  C   UNL     1       1.467  -1.660   1.068  0.00  0.00    +0.034 C 
ATOM     11  C   UNL     1       1.158   2.342  -0.823  0.00  0.00    +0.109 C 
ATOM     12  C   UNL     1       0.102  -1.728   0.444  0.00  0.00    +0.151 C 
ATOM     13  C   UNL     1       1.358   3.711  -1.324  0.00  0.00    +0.063 C 
ATOM     14  C   UNL     1      -1.894  -3.149   0.107  0.00  0.00    +0.152 C 
ATOM     15  C   UNL     1      -2.532  -4.382   0.340  0.00  0.00    +0.048 C 
ATOM     16  C   UNL     1      -3.745  -4.266  -0.294  0.00  0.00    +0.046 C 
ATOM     17  C   UNL     1      -4.877  -5.197  -0.430  0.00  0.00    +0.049 C 
ATOM     18  H   UNL     1      -0.193  -3.608   1.122  0.00  0.00    +0.155 HD
ATOM     19  H   UNL     1      -4.519  -2.670  -1.365  0.00  0.00    +0.174 HD
ENDROOT
BRANCH   7  20
ATOM     20  C   UNL     1       3.580  -0.490   1.570  0.00  0.00    -0.046 C 
BRANCH  20  22
ATOM     21  O   UNL     1       7.215  -0.595  -0.526  0.00  0.00    -0.358 OA
ATOM     22  N   UNL     1       4.618  -0.220   0.577  0.00  0.00    +0.393 N 
ATOM     23  C   UNL     1       5.813   0.352   1.212  0.00  0.00    -0.044 C 
ATOM     24  C   UNL     1       4.973  -1.445  -0.153  0.00  0.00    -0.044 C 
ATOM     25  C   UNL     1       6.884   0.614   0.158  0.00  0.00    +0.119 C 
ATOM     26  C   UNL     1       6.065  -1.142  -1.174  0.00  0.00    +0.119 C 
ATOM     27  H   UNL     1       4.245   0.458  -0.088  0.00  0.00    -0.079 HD
ENDBRANCH  20  22
ENDBRANCH   7  20
BRANCH   9  28
ATOM     28  C   UNL     1      -1.212   1.724  -1.690  0.00  0.00    +0.057 C 
BRANCH  28  31
ATOM     29 CL   UNL     1      -5.882   2.962   1.923  0.00  0.00    -0.082 Cl
ATOM     30  F   UNL     1      -1.299   3.988   0.027  0.00  0.00    -0.204 F 
ATOM     31  C   UNL     1      -2.389   2.038  -0.777  0.00  0.00    +0.007 C 
ATOM     32  C   UNL     1      -2.360   3.170   0.039  0.00  0.00    +0.137 C 
ATOM     33  C   UNL     1      -3.499   1.193  -0.758  0.00  0.00    -0.001 C 
ATOM     34  C   UNL     1      -3.441   3.455   0.874  0.00  0.00    +0.041 C 
ATOM     35  C   UNL     1      -4.579   1.478   0.077  0.00  0.00    +0.011 C 
ATOM     36  C   UNL     1      -4.550   2.610   0.893  0.00  0.00    +0.060 C 
ENDBRANCH  28  31
ENDBRANCH   9  28
TORSDOF 4
