REMARK  Name = 5487888
REMARK  6 active torsions:
REMARK  status: ('A' for Active; 'I' for Inactive)
REMARK    1  A    between atoms: N_2  and  CA_9
REMARK    2  A    between atoms: C_3  and  C_20
REMARK    3  A    between atoms: CA_11  and  C_16
REMARK    4  A    between atoms: C_16  and  O_17
REMARK    5  A    between atoms: N_19  and  O_29
REMARK    6  A    between atoms: C_20  and  C_24
REMARK                            x       y       z     vdW  Elec       q    Type
REMARK                         _______ _______ _______ _____ _____    ______ ____
ROOT
ATOM      1  O   UNL     1       1.497   1.381   2.028  0.00  0.00    -0.268 OA
ATOM      2  N   UNL     1       0.455   1.310  -0.074  0.00  0.00    -0.291 N 
ATOM      3  C   UNL     1       1.491   1.150   0.830  0.00  0.00    +0.269 C 
ATOM      4  H   UNL     1       0.611   1.076  -1.017  0.00  0.00    +0.150 HD
ENDROOT
BRANCH   2   9
ATOM      5  S   UNL     1      -1.644   0.917  -2.277  0.00  0.00    -0.114 S 
ATOM      6  O   UNL     1      -1.530   0.378   2.339  0.00  0.00    -0.273 OA
ATOM      7  N   UNL     1      -2.518   0.601   0.210  0.00  0.00    -0.242 N 
ATOM      8  C   UNL     1      -2.038   1.649  -0.672  0.00  0.00    +0.155 C 
ATOM      9  CA  UNL     1      -0.863   1.811   0.316  0.00  0.00    +0.179 C 
ATOM     10  C   UNL     1      -1.657   0.830   1.225  0.00  0.00    +0.251 C 
ATOM     11  CA  UNL     1      -3.538  -0.239  -0.101  0.00  0.00    +0.124 C 
ATOM     12  C   UNL     1      -3.354   0.348  -2.563  0.00  0.00    +0.083 C 
ATOM     13  C   UNL     1      -3.995  -0.358  -1.371  0.00  0.00    -0.013 C 
ATOM     14  C   UNL     1      -5.175  -1.206  -1.782  0.00  0.00    +0.029 C 
BRANCH  11  16
ATOM     15  OXT UNL     1      -5.027  -0.744   1.682  0.00  0.00    -0.244 OA
ATOM     16  C   UNL     1      -4.081  -1.062   0.990  0.00  0.00    +0.351 C 
BRANCH  16  17
ATOM     17  O   UNL     1      -3.367  -2.201   1.089  0.00  0.00    -0.476 OA
ATOM     18  H   UNL     1      -2.650  -2.357   0.506  0.00  0.00    +0.295 HD
ENDBRANCH  16  17
ENDBRANCH  11  16
ENDBRANCH   2   9
BRANCH   3  20
ATOM     19  N   UNL     1       3.632   1.446  -0.290  0.00  0.00    -0.076 NA
ATOM     20  C   UNL     1       2.751   0.623   0.193  0.00  0.00    +0.198 C 
BRANCH  20  24
ATOM     21  S   UNL     1       2.806  -3.309   0.268  0.00  0.00    -0.060 S 
ATOM     22  N   UNL     1       4.169  -1.246  -0.489  0.00  0.00    -0.383 NA
ATOM     23  N   UNL     1       5.170  -3.338  -0.951  0.00  0.00    -0.328 N 
ATOM     24  C   UNL     1       3.012  -0.817   0.097  0.00  0.00    +0.148 C 
ATOM     25  C   UNL     1       2.145  -1.755   0.569  0.00  0.00    +0.127 C 
ATOM     26  C   UNL     1       4.171  -2.560  -0.456  0.00  0.00    +0.204 C 
ATOM     27  H   UNL     1       5.105  -4.319  -0.892  0.00  0.00    +0.145 HD
ATOM     28  H   UNL     1       5.957  -2.921  -1.369  0.00  0.00    +0.145 HD
ENDBRANCH  20  24
BRANCH  19  29
ATOM     29  O   UNL     1       3.239   2.783  -0.129  0.00  0.00    -0.373 OA
ATOM     30  C   UNL     1       4.251   3.610  -0.681  0.00  0.00    +0.288 C 
ENDBRANCH  19  29
ENDBRANCH   3  20
TORSDOF 6
