REMARK  Name = 31513
REMARK  7 active torsions:
REMARK  status: ('A' for Active; 'I' for Inactive)
REMARK    1  A    between atoms: C_1  and  C_13
REMARK    2  A    between atoms: C_4  and  O_7
REMARK    3  A    between atoms: C_5  and  O_9
REMARK    4  A    between atoms: C_6  and  O_11
REMARK    5  A    between atoms: C_13  and  O_14
REMARK    6  A    between atoms: C_13  and  C_16
REMARK    7  A    between atoms: C_16  and  N_17
REMARK                            x       y       z     vdW  Elec       q    Type
REMARK                         _______ _______ _______ _____ _____    ______ ____
ROOT
ATOM      1  C   UNL     1       0.593  -0.253  -0.613  0.00  0.00    +0.008 C 
ATOM      2  C   UNL     1      -0.256  -1.288  -0.220  0.00  0.00    +0.038 C 
ATOM      3  C   UNL     1       0.144   1.067  -0.582  0.00  0.00    +0.038 C 
ATOM      4  C   UNL     1      -1.154   1.353  -0.158  0.00  0.00    +0.175 C 
ATOM      5  C   UNL     1      -1.554  -1.002   0.204  0.00  0.00    +0.175 C 
ATOM      6  C   UNL     1      -2.003   0.318   0.235  0.00  0.00    +0.202 C 
ENDROOT
BRANCH   4   7
ATOM      7  O   UNL     1      -1.580   2.646  -0.131  0.00  0.00    -0.468 OA
ATOM      8  C   UNL     1      -0.650   3.644  -0.548  0.00  0.00    +0.253 C 
ENDBRANCH   4   7
BRANCH   5   9
ATOM      9  O   UNL     1      -2.373  -2.022   0.585  0.00  0.00    -0.468 OA
ATOM     10  C   UNL     1      -1.835  -3.342   0.523  0.00  0.00    +0.253 C 
ENDBRANCH   5   9
BRANCH   6  11
ATOM     11  O   UNL     1      -3.272   0.597   0.650  0.00  0.00    -0.501 OA
ATOM     12  H   UNL     1      -3.573   1.483   0.671  0.00  0.00    +0.292 HD
ENDBRANCH   6  11
BRANCH   1  13
ATOM     13  C   UNL     1       1.981  -0.558  -1.066  0.00  0.00    +0.112 C 
BRANCH  13  14
ATOM     14  O   UNL     1       1.985  -1.821  -1.744  0.00  0.00    -0.382 OA
ATOM     15  H   UNL     1       1.357  -1.794  -2.482  0.00  0.00    +0.211 HD
ENDBRANCH  13  14
BRANCH  13  16
ATOM     16  C   UNL     1       2.980  -0.605   0.107  0.00  0.00    -0.047 C 
BRANCH  16  17
ATOM     17  N   UNL     1       3.033   0.669   0.820  0.00  0.00    +0.384 N 
ATOM     18  C   UNL     1       3.962   0.598   1.937  0.00  0.00    -0.106 C 
ATOM     19  H   UNL     1       2.102   0.894   1.172  0.00  0.00    -0.085 HD
ATOM     20  H   UNL     1       3.352   1.392   0.175  0.00  0.00    -0.085 HD
ENDBRANCH  16  17
ENDBRANCH  13  16
ENDBRANCH   1  13
TORSDOF 7
