REMARK  Name = 62582
REMARK  14 active torsions:
REMARK  status: ('A' for Active; 'I' for Inactive)
REMARK    1  A    between atoms: N_1  and  C_4
REMARK    2  A    between atoms: N_1  and  C_12
REMARK    3  A    between atoms: C_4  and  C_5
REMARK    4  A    between atoms: C_5  and  C_6
REMARK    5  A    between atoms: C_6  and  C_7
REMARK    6  A    between atoms: C_7  and  C_8
REMARK    7  A    between atoms: C_8  and  C_9
REMARK    8  A    between atoms: C_9  and  C_10
REMARK    9  A    between atoms: C_12  and  C_13
REMARK   10  A    between atoms: C_13  and  C_14
REMARK   11  A    between atoms: C_14  and  C_15
REMARK   12  A    between atoms: C_15  and  C_16
REMARK   13  A    between atoms: C_16  and  C_17
REMARK   14  A    between atoms: C_17  and  C_18
REMARK                            x       y       z     vdW  Elec       q    Type
REMARK                         _______ _______ _______ _____ _____    ______ ____
ROOT
ATOM      1  N   UNL     1       1.204   3.328   0.402  0.00  0.00    +0.387 N 
ATOM      2  C   UNL     1       0.861   3.794   1.824  0.00  0.00    -0.096 C 
ATOM      3  C   UNL     1       1.917   4.484  -0.317  0.00  0.00    -0.096 C 
ENDROOT
BRANCH   1   4
ATOM      4  C   UNL     1       2.059   2.119   0.433  0.00  0.00    -0.073 C 
BRANCH   4   5
ATOM      5  C   UNL     1       2.329   1.612  -0.979  0.00  0.00    -0.022 C 
BRANCH   5   6
ATOM      6  C   UNL     1       3.203   0.358  -1.084  0.00  0.00    -0.002 C 
BRANCH   6   7
ATOM      7  C   UNL     1       2.646  -0.839  -0.311  0.00  0.00    -0.000 C 
BRANCH   7   8
ATOM      8  C   UNL     1       3.508  -2.086  -0.525  0.00  0.00    -0.000 C 
BRANCH   8   9
ATOM      9  C   UNL     1       2.972  -3.276   0.272  0.00  0.00    -0.000 C 
BRANCH   9  10
ATOM     10  C   UNL     1       3.852  -4.512   0.085  0.00  0.00    +0.000 C 
ATOM     11  C   UNL     1       3.304  -5.707   0.849  0.00  0.00    +0.000 C 
ENDBRANCH   9  10
ENDBRANCH   8   9
ENDBRANCH   7   8
ENDBRANCH   6   7
ENDBRANCH   5   6
ENDBRANCH   4   5
ENDBRANCH   1   4
BRANCH   1  12
ATOM     12  C   UNL     1      -0.113   3.050  -0.338  0.00  0.00    -0.073 C 
BRANCH  12  13
ATOM     13  C   UNL     1      -0.833   1.855   0.276  0.00  0.00    -0.022 C 
BRANCH  13  14
ATOM     14  C   UNL     1      -2.166   1.469  -0.376  0.00  0.00    -0.002 C 
BRANCH  14  15
ATOM     15  C   UNL     1      -2.807   0.224   0.241  0.00  0.00    -0.000 C 
BRANCH  15  16
ATOM     16  C   UNL     1      -4.175  -0.061  -0.384  0.00  0.00    -0.000 C 
BRANCH  16  17
ATOM     17  C   UNL     1      -4.805  -1.323   0.207  0.00  0.00    -0.000 C 
BRANCH  17  18
ATOM     18  C   UNL     1      -6.155  -1.626  -0.441  0.00  0.00    +0.000 C 
ATOM     19  C   UNL     1      -6.800  -2.862   0.167  0.00  0.00    +0.000 C 
ENDBRANCH  17  18
ENDBRANCH  16  17
ENDBRANCH  15  16
ENDBRANCH  14  15
ENDBRANCH  13  14
ENDBRANCH  12  13
ENDBRANCH   1  12
TORSDOF 14
