REMARK  Name = 14130
REMARK  6 active torsions:
REMARK  status: ('A' for Active; 'I' for Inactive)
REMARK    1  A    between atoms: N_2  and  C_5
REMARK    2  A    between atoms: C_3  and  C_14
REMARK    3  A    between atoms: C_8  and  O_11
REMARK    4  A    between atoms: O_11  and  C_12
REMARK    5  A    between atoms: C_14  and  C_15
REMARK    6  A    between atoms: C_15  and  O_17
REMARK                            x       y       z     vdW  Elec       q    Type
REMARK                         _______ _______ _______ _____ _____    ______ ____
ROOT
ATOM      1  O   UNL     1       2.235  -1.251  -0.355  0.00  0.00    -0.275 OA
ATOM      2  N   UNL     1       1.176   0.823  -0.048  0.00  0.00    -0.284 N 
ATOM      3  C   UNL     1       2.263  -0.040  -0.163  0.00  0.00    +0.229 C 
ATOM      4  H   UNL     1       1.389   1.772   0.108  0.00  0.00    +0.155 HD
ENDROOT
BRANCH   2   5
ATOM      5  C   UNL     1      -0.198   0.495  -0.127  0.00  0.00    +0.051 C 
ATOM      6  C   UNL     1      -1.143   1.497   0.013  0.00  0.00    +0.018 C 
ATOM      7  C   UNL     1      -0.568  -0.822  -0.343  0.00  0.00    +0.018 C 
ATOM      8  C   UNL     1      -2.888  -0.149  -0.281  0.00  0.00    +0.139 C 
ATOM      9  C   UNL     1      -2.498   1.173  -0.064  0.00  0.00    +0.038 C 
ATOM     10  C   UNL     1      -1.923  -1.147  -0.420  0.00  0.00    +0.038 C 
BRANCH   8  11
ATOM     11  O   UNL     1      -4.209  -0.465  -0.358  0.00  0.00    -0.475 OA
BRANCH  11  12
ATOM     12  C   UNL     1      -5.115   0.342   0.394  0.00  0.00    +0.206 C 
ATOM     13  C   UNL     1      -6.312  -0.497   0.787  0.00  0.00    +0.051 C 
ENDBRANCH  11  12
ENDBRANCH   8  11
ENDBRANCH   2   5
BRANCH   3  14
ATOM     14  C   UNL     1       3.573   0.729  -0.015  0.00  0.00    +0.114 C 
BRANCH  14  15
ATOM     15  C   UNL     1       4.807  -0.171  -0.087  0.00  0.00    +0.120 C 
ATOM     16  C   UNL     1       6.084   0.633   0.119  0.00  0.00    +0.032 C 
BRANCH  15  17
ATOM     17  O   UNL     1       4.715  -1.151   0.945  0.00  0.00    -0.384 OA
ATOM     18  H   UNL     1       3.904  -1.670   0.827  0.00  0.00    +0.210 HD
ENDBRANCH  15  17
ENDBRANCH  14  15
ENDBRANCH   3  14
TORSDOF 6
