REMARK  Name = 123879
REMARK  7 active torsions:
REMARK  status: ('A' for Active; 'I' for Inactive)
REMARK    1  A    between atoms: N_1  and  C_26
REMARK    2  A    between atoms: C_2  and  N_14
REMARK    3  A    between atoms: N_14  and  S_16
REMARK    4  A    between atoms: S_16  and  C_20
REMARK    5  A    between atoms: C_26  and  C_27
REMARK    6  A    between atoms: C_27  and  C_29
REMARK    7  A    between atoms: C_29  and  O_30
REMARK                            x       y       z     vdW  Elec       q    Type
REMARK                         _______ _______ _______ _____ _____    ______ ____
ROOT
ATOM      1  N   UNL     1      -2.735  -0.212  -0.251  0.00  0.00    -0.330 N 
ATOM      2  C   UNL     1       1.210   0.845   0.676  0.00  0.00    +0.080 C 
ATOM      3  C   UNL     1       0.040   1.783   1.046  0.00  0.00    +0.045 C 
ATOM      4  C   UNL     1      -1.433  -0.040   0.124  0.00  0.00    +0.033 A 
ATOM      5  C   UNL     1      -1.268   1.261   0.549  0.00  0.00    -0.008 A 
ATOM      6  C   UNL     1       0.854  -0.647   0.856  0.00  0.00    +0.024 C 
ATOM      7  C   UNL     1      -0.381  -1.086   0.044  0.00  0.00    +0.045 C 
ATOM      8  C   UNL     1      -2.530   1.909   0.435  0.00  0.00    +0.013 A 
ATOM      9  C   UNL     1      -3.430   0.965  -0.070  0.00  0.00    +0.059 A 
ATOM     10  C   UNL     1      -2.999   3.209   0.713  0.00  0.00    +0.001 C 
ATOM     11  C   UNL     1      -4.776   1.260  -0.312  0.00  0.00    +0.017 C 
ATOM     12  C   UNL     1      -4.343   3.517   0.475  0.00  0.00    +0.000 C 
ATOM     13  C   UNL     1      -5.216   2.557  -0.030  0.00  0.00    +0.001 C 
ENDROOT
BRANCH   2  14
ATOM     14  N   UNL     1       1.612   1.086  -0.738  0.00  0.00    -0.180 NA
ATOM     15  H   UNL     1       1.496   0.202  -1.233  0.00  0.00    +0.149 HD
BRANCH  14  16
ATOM     16  S   UNL     1       3.176   1.642  -1.083  0.00  0.00    +0.060 S 
ATOM     17  O   UNL     1       3.441   2.849  -0.324  0.00  0.00    -0.153 OA
ATOM     18  O   UNL     1       3.365   1.629  -2.521  0.00  0.00    -0.153 OA
BRANCH  16  20
ATOM     19  F   UNL     1       6.516  -2.658   1.123  0.00  0.00    -0.204 F 
ATOM     20  C   UNL     1       4.181   0.348  -0.419  0.00  0.00    +0.122 C 
ATOM     21  C   UNL     1       4.532  -0.717  -1.230  0.00  0.00    +0.022 C 
ATOM     22  C   UNL     1       4.597   0.425   0.898  0.00  0.00    +0.022 C 
ATOM     23  C   UNL     1       5.325  -1.738  -0.706  0.00  0.00    +0.031 C 
ATOM     24  C   UNL     1       5.390  -0.596   1.422  0.00  0.00    +0.031 C 
ATOM     25  C   UNL     1       5.754  -1.678   0.620  0.00  0.00    +0.140 C 
ENDBRANCH  16  20
ENDBRANCH  14  16
ENDBRANCH   2  14
BRANCH   1  26
ATOM     26  C   UNL     1      -3.302  -1.439  -0.771  0.00  0.00    +0.117 C 
BRANCH  26  27
ATOM     27  C   UNL     1      -3.875  -2.353   0.314  0.00  0.00    +0.134 C 
BRANCH  27  29
ATOM     28  O   UNL     1      -4.412  -4.005  -1.396  0.00  0.00    -0.250 OA
ATOM     29  C   UNL     1      -4.412  -3.662  -0.222  0.00  0.00    +0.316 C 
BRANCH  29  30
ATOM     30  O   UNL     1      -4.880  -4.454   0.779  0.00  0.00    -0.480 OA
ATOM     31  H   UNL     1      -4.860  -4.149   1.665  0.00  0.00    +0.295 HD
ENDBRANCH  29  30
ENDBRANCH  27  29
ENDBRANCH  26  27
ENDBRANCH   1  26
TORSDOF 7
