REMARK  Name = 71105
REMARK  5 active torsions:
REMARK  status: ('A' for Active; 'I' for Inactive)
REMARK    1  A    between atoms: S_1  and  C_5
REMARK    2  A    between atoms: S_1  and  C_9
REMARK    3  A    between atoms: C_9  and  C_12
REMARK    4  A    between atoms: N_11  and  C_13
REMARK    5  A    between atoms: N_11  and  C_15
REMARK                            x       y       z     vdW  Elec       q    Type
REMARK                         _______ _______ _______ _____ _____    ______ ____
ROOT
ATOM      1  S   UNL     1      -0.334   1.649  -0.268  0.00  0.00    -0.083 S 
ENDROOT
BRANCH   1   5
ATOM      2 CL   UNL     1      -5.628  -1.443   0.351  0.00  0.00    -0.059 Cl
ATOM      3  N   UNL     1      -1.876  -0.504   0.123  0.00  0.00    -0.141 NA
ATOM      4  N   UNL     1      -3.050  -1.178   0.258  0.00  0.00    -0.136 NA
ATOM      5  C   UNL     1      -1.913   0.822  -0.098  0.00  0.00    +0.129 C 
ATOM      6  C   UNL     1      -3.077   1.548  -0.197  0.00  0.00    +0.030 C 
ATOM      7  C   UNL     1      -4.271   0.862  -0.060  0.00  0.00    +0.035 C 
ATOM      8  C   UNL     1      -4.213  -0.498   0.167  0.00  0.00    +0.160 C 
ENDBRANCH   1   5
BRANCH   1   9
ATOM      9  C   UNL     1       0.823   0.271  -0.059  0.00  0.00    +0.149 C 
BRANCH   9  12
ATOM     10  O   UNL     1       2.568   1.900  -0.363  0.00  0.00    -0.274 OA
ATOM     11  N   UNL     1       3.229  -0.292  -0.016  0.00  0.00    -0.279 N 
ATOM     12  C   UNL     1       2.270   0.720  -0.162  0.00  0.00    +0.237 C 
BRANCH  11  13
ATOM     13  C   UNL     1       4.664  -0.029  -0.090  0.00  0.00    +0.093 C 
ATOM     14  C   UNL     1       5.239   0.300   1.272  0.00  0.00    +0.023 C 
ENDBRANCH  11  13
BRANCH  11  15
ATOM     15  C   UNL     1       2.867  -1.685   0.221  0.00  0.00    +0.093 C 
ATOM     16  C   UNL     1       2.699  -2.443  -1.080  0.00  0.00    +0.023 C 
ENDBRANCH  11  15
ENDBRANCH   9  12
ENDBRANCH   1   9
TORSDOF 5
