REMARK  Name = 4994
REMARK  2 active torsions:
REMARK  status: ('A' for Active; 'I' for Inactive)
REMARK    1  A    between atoms: C_4  and  C_10
REMARK    2  A    between atoms: C_4  and  C_12
REMARK                            x       y       z     vdW  Elec       q    Type
REMARK                         _______ _______ _______ _____ _____    ______ ____
ROOT
ATOM      1  O   UNL     1       1.325   2.054   0.095  0.00  0.00    -0.274 OA
ATOM      2  O   UNL     1      -0.587  -2.342   0.081  0.00  0.00    -0.291 OA
ATOM      3  N   UNL     1      -0.641   1.567  -0.954  0.00  0.00    -0.283 N 
ATOM      4  C   UNL     1       0.450  -0.178   0.418  0.00  0.00    +0.124 C 
ATOM      5  C   UNL     1       0.438   1.238  -0.165  0.00  0.00    +0.232 C 
ATOM      6  C   UNL     1      -0.593  -1.135  -0.158  0.00  0.00    +0.182 C 
ATOM      7  C   UNL     1      -1.675  -0.578  -0.993  0.00  0.00    +0.054 C 
ATOM      8  C   UNL     1      -1.636   0.711  -1.327  0.00  0.00    +0.067 C 
ATOM      9  H   UNL     1      -0.700   2.496  -1.275  0.00  0.00    +0.155 HD
ENDROOT
BRANCH   4  10
ATOM     10  C   UNL     1       1.844  -0.782   0.187  0.00  0.00    +0.016 C 
ATOM     11  C   UNL     1       2.126  -0.951  -1.290  0.00  0.00    +0.001 C 
ENDBRANCH   4  10
BRANCH   4  12
ATOM     12  C   UNL     1       0.175  -0.057   1.924  0.00  0.00    +0.016 C 
ATOM     13  C   UNL     1      -1.226   0.453   2.182  0.00  0.00    +0.001 C 
ENDBRANCH   4  12
TORSDOF 2
