REMARK  Name = 6067
REMARK  10 active torsions:
REMARK  status: ('A' for Active; 'I' for Inactive)
REMARK    1  A    between atoms: C_1  and  C_3
REMARK    2  A    between atoms: C_1  and  C_7
REMARK    3  A    between atoms: C_1  and  O_12
REMARK    4  A    between atoms: C_1  and  C_15
REMARK    5  A    between atoms: C_15  and  O_16
REMARK    6  A    between atoms: O_16  and  C_17
REMARK    7  A    between atoms: C_17  and  C_18
REMARK    8  A    between atoms: C_18  and  N_19
REMARK    9  A    between atoms: N_19  and  C_21
REMARK   10  A    between atoms: N_19  and  C_23
REMARK                            x       y       z     vdW  Elec       q    Type
REMARK                         _______ _______ _______ _____ _____    ______ ____
ROOT
ATOM      1  C   UNL     1       1.965   0.027   0.577  0.00  0.00    +0.202 C 
ENDROOT
BRANCH   1   3
ATOM      2  S   UNL     1       2.502   2.767   0.812  0.00  0.00    -0.088 S 
ATOM      3  C   UNL     1       1.999   1.402  -0.092  0.00  0.00    +0.041 C 
ATOM      4  C   UNL     1       1.667   1.734  -1.387  0.00  0.00    +0.005 C 
ATOM      5  C   UNL     1       1.827   3.127  -1.641  0.00  0.00    +0.007 C 
ATOM      6  C   UNL     1       2.277   3.807  -0.530  0.00  0.00    +0.035 C 
ENDBRANCH   1   3
BRANCH   1   7
ATOM      7  C   UNL     1       2.326  -1.160  -0.299  0.00  0.00    +0.040 C 
ATOM      8  C   UNL     1       2.317  -2.487   0.453  0.00  0.00    +0.003 C 
ATOM      9  C   UNL     1       3.753  -1.100  -0.836  0.00  0.00    +0.003 C 
ATOM     10  C   UNL     1       3.115  -3.425  -0.447  0.00  0.00    +0.000 C 
ATOM     11  C   UNL     1       4.047  -2.533  -1.268  0.00  0.00    +0.000 C 
ENDBRANCH   1   7
BRANCH   1  12
ATOM     12  O   UNL     1       2.920   0.087   1.640  0.00  0.00    -0.372 OA
ATOM     13  H   UNL     1       3.808   0.217   1.270  0.00  0.00    +0.211 HD
ENDBRANCH   1  12
BRANCH   1  15
ATOM     14  O   UNL     1       0.390  -0.372   2.397  0.00  0.00    -0.247 OA
ATOM     15  C   UNL     1       0.584  -0.179   1.202  0.00  0.00    +0.346 C 
BRANCH  15  16
ATOM     16  O   UNL     1      -0.386  -0.124   0.241  0.00  0.00    -0.449 OA
BRANCH  16  17
ATOM     17  C   UNL     1      -1.727  -0.313   0.704  0.00  0.00    +0.187 C 
BRANCH  17  18
ATOM     18  C   UNL     1      -2.685  -0.226  -0.468  0.00  0.00    -0.025 C 
BRANCH  18  19
ATOM     19  N   UNL     1      -4.077  -0.385   0.025  0.00  0.00    +0.391 N 
ATOM     20  C   UNL     1      -4.266  -1.755   0.689  0.00  0.00    -0.096 C 
BRANCH  19  21
ATOM     21  C   UNL     1      -4.415   0.698   1.059  0.00  0.00    -0.073 C 
ATOM     22  C   UNL     1      -4.236   2.062   0.428  0.00  0.00    -0.024 C 
ENDBRANCH  19  21
BRANCH  19  23
ATOM     23  C   UNL     1      -5.080  -0.272  -1.131  0.00  0.00    -0.073 C 
ATOM     24  C   UNL     1      -4.817  -1.378  -2.129  0.00  0.00    -0.024 C 
ENDBRANCH  19  23
ENDBRANCH  18  19
ENDBRANCH  17  18
ENDBRANCH  16  17
ENDBRANCH  15  16
ENDBRANCH   1  15
TORSDOF 10
