REMARK  Name = 4041
REMARK  1 active torsions:
REMARK  status: ('A' for Active; 'I' for Inactive)
REMARK    1  A    between atoms: C_8  and  C_14
REMARK                            x       y       z     vdW  Elec       q    Type
REMARK                         _______ _______ _______ _____ _____    ______ ____
ROOT
ATOM      1 CL   UNL     1       1.411   4.080   0.874  0.00  0.00    -0.082 Cl
ATOM      2  N   UNL     1       2.023  -1.631  -0.691  0.00  0.00    -0.304 N 
ATOM      3  N   UNL     1      -0.360  -1.890   1.071  0.00  0.00    -0.269 NA
ATOM      4  C   UNL     1       1.803  -2.705   0.287  0.00  0.00    +0.117 C 
ATOM      5  C   UNL     1       1.870  -0.295  -0.333  0.00  0.00    +0.049 C 
ATOM      6  C   UNL     1       0.690   0.183   0.279  0.00  0.00    +0.031 C 
ATOM      7  C   UNL     1       0.965  -2.322   1.498  0.00  0.00    +0.147 C 
ATOM      8  C   UNL     1      -0.468  -0.728   0.516  0.00  0.00    +0.077 C 
ATOM      9  C   UNL     1       2.880   0.656  -0.583  0.00  0.00    +0.015 C 
ATOM     10  C   UNL     1       2.858  -1.972  -1.837  0.00  0.00    +0.112 C 
ATOM     11  C   UNL     1       0.552   1.528   0.660  0.00  0.00    +0.014 C 
ATOM     12  C   UNL     1       2.740   1.998  -0.215  0.00  0.00    +0.013 C 
ATOM     13  C   UNL     1       1.579   2.432   0.412  0.00  0.00    +0.058 C 
ENDROOT
BRANCH   8  14
ATOM     14  C   UNL     1      -1.827  -0.293   0.081  0.00  0.00    +0.017 C 
ATOM     15  C   UNL     1      -1.962   0.548  -1.017  0.00  0.00    +0.001 C 
ATOM     16  C   UNL     1      -2.946  -0.734   0.779  0.00  0.00    +0.001 C 
ATOM     17  C   UNL     1      -3.232   0.955  -1.424  0.00  0.00    +0.000 C 
ATOM     18  C   UNL     1      -4.217  -0.327   0.372  0.00  0.00    +0.000 C 
ATOM     19  C   UNL     1      -4.360   0.517  -0.729  0.00  0.00    +0.000 C 
ENDBRANCH   8  14
TORSDOF 1
