REMARK  Name = 72075
REMARK  4 active torsions:
REMARK  status: ('A' for Active; 'I' for Inactive)
REMARK    1  A    between atoms: N_1  and  C_3
REMARK    2  A    between atoms: N_1  and  C_10
REMARK    3  A    between atoms: N_1  and  C_16
REMARK    4  A    between atoms: C_16  and  C_17
REMARK                            x       y       z     vdW  Elec       q    Type
REMARK                         _______ _______ _______ _____ _____    ______ ____
ROOT
ATOM      1  N   UNL     1       0.035   0.200  -0.851  0.00  0.00    -0.305 N 
ENDROOT
BRANCH   1   3
ATOM      2  N   UNL     1       3.636  -1.473   0.575  0.00  0.00    +0.386 N 
ATOM      3  C   UNL     1       1.064  -0.794  -0.640  0.00  0.00    +0.069 C 
ATOM      4  C   UNL     1       2.391  -0.293  -1.208  0.00  0.00    -0.003 C 
ATOM      5  C   UNL     1       1.207  -1.092   0.852  0.00  0.00    -0.003 C 
ATOM      6  C   UNL     1       3.534  -1.253  -0.874  0.00  0.00    -0.076 C 
ATOM      7  C   UNL     1       2.388  -2.028   1.118  0.00  0.00    -0.076 C 
ATOM      8  C   UNL     1       4.763  -2.353   0.881  0.00  0.00    -0.101 C 
ATOM      9  H   UNL     1       3.797  -0.569   1.019  0.00  0.00    -0.080 HD
ENDBRANCH   1   3
BRANCH   1  10
ATOM     10  C   UNL     1       0.139   1.480  -0.296  0.00  0.00    +0.048 C 
ATOM     11  C   UNL     1       0.765   2.512  -1.006  0.00  0.00    +0.015 C 
ATOM     12  C   UNL     1      -0.382   1.745   0.977  0.00  0.00    +0.015 C 
ATOM     13  C   UNL     1       0.868   3.788  -0.453  0.00  0.00    +0.001 C 
ATOM     14  C   UNL     1      -0.279   3.021   1.530  0.00  0.00    +0.001 C 
ATOM     15  C   UNL     1       0.347   4.043   0.815  0.00  0.00    +0.000 C 
ENDBRANCH   1  10
BRANCH   1  16
ATOM     16  C   UNL     1      -1.132  -0.167  -1.650  0.00  0.00    +0.118 C 
BRANCH  16  17
ATOM     17  C   UNL     1      -2.221  -0.716  -0.771  0.00  0.00    -0.002 C 
ATOM     18  C   UNL     1      -2.271  -2.080  -0.513  0.00  0.00    -0.003 C 
ATOM     19  C   UNL     1      -3.165   0.146  -0.229  0.00  0.00    -0.003 C 
ATOM     20  C   UNL     1      -3.281  -2.590   0.303  0.00  0.00    -0.000 C 
ATOM     21  C   UNL     1      -4.175  -0.364   0.587  0.00  0.00    -0.000 C 
ATOM     22  C   UNL     1      -4.233  -1.732   0.852  0.00  0.00    -0.000 C 
ENDBRANCH  16  17
ENDBRANCH   1  16
TORSDOF 4
