REMARK  Name = 587
REMARK  7 active torsions:
REMARK  status: ('A' for Active; 'I' for Inactive)
REMARK    1  A    between atoms: N_1  and  C_14
REMARK    2  A    between atoms: N_2  and  C_4
REMARK    3  A    between atoms: N_2  and  P_8
REMARK    4  A    between atoms: P_8  and  O_10
REMARK    5  A    between atoms: P_8  and  O_12
REMARK    6  A    between atoms: C_14  and  C_16
REMARK    7  A    between atoms: C_16  and  O_17
REMARK                            x       y       z     vdW  Elec       q    Type
REMARK                         _______ _______ _______ _____ _____    ______ ____
ROOT
ATOM      1  N   UNL     1      -1.122  -1.041   0.415  0.00  0.00    -0.308 N 
ATOM      2  N   UNL     1       0.822  -1.983  -0.528  0.00  0.00    -0.369 N 
ATOM      3  C   UNL     1       0.228  -0.888   0.064  0.00  0.00    +0.205 C 
ATOM      4  C   UNL     1      -1.881  -2.267   0.182  0.00  0.00    +0.129 C 
ATOM      5  H   UNL     1       0.300  -2.804  -0.680  0.00  0.00    +0.159 HD
ATOM      6  H   UNL     1       1.767  -1.944  -0.799  0.00  0.00    +0.159 HD
ENDROOT
BRANCH   3   7
ATOM      7  N   UNL     1       0.876   0.229   0.289  0.00  0.00    -0.144 NA
BRANCH   7   8
ATOM      8  P   UNL     1       2.420   0.517  -0.071  0.00  0.00    +0.454 P 
ATOM      9  O   UNL     1       2.818   0.416  -1.521  0.00  0.00    -0.233 OA
BRANCH   8  10
ATOM     10  O   UNL     1       3.327  -0.441   0.878  0.00  0.00    -0.307 OA
ATOM     11  H   UNL     1       4.266  -0.291   0.685  0.00  0.00    +0.222 HD
ENDBRANCH   8  10
BRANCH   8  12
ATOM     12  O   UNL     1       2.778   1.976   0.548  0.00  0.00    -0.307 OA
ATOM     13  H   UNL     1       3.703   2.192   0.354  0.00  0.00    +0.222 HD
ENDBRANCH   8  12
ENDBRANCH   7   8
ENDBRANCH   3   7
BRANCH   1  14
ATOM     14  C   UNL     1      -1.890   0.090   0.932  0.00  0.00    +0.214 C 
BRANCH  14  16
ATOM     15  O   UNL     1      -2.509   0.584  -1.342  0.00  0.00    -0.248 OA
ATOM     16  C   UNL     1      -2.580   0.875  -0.154  0.00  0.00    +0.337 C 
BRANCH  16  17
ATOM     17  O   UNL     1      -3.286   1.933   0.308  0.00  0.00    -0.479 OA
ATOM     18  H   UNL     1      -3.310   2.115   1.227  0.00  0.00    +0.295 HD
ENDBRANCH  16  17
ENDBRANCH  14  16
ENDBRANCH   1  14
TORSDOF 7
