REMARK  Name = 5311501
REMARK  4 active torsions:
REMARK  status: ('A' for Active; 'I' for Inactive)
REMARK    1  A    between atoms: C_3  and  C_26
REMARK    2  A    between atoms: C_8  and  C_15
REMARK    3  A    between atoms: C_15  and  C_16
REMARK    4  A    between atoms: C_26  and  N_28
REMARK                            x       y       z     vdW  Elec       q    Type
REMARK                         _______ _______ _______ _____ _____    ______ ____
ROOT
ATOM      1  O   UNL     1       2.540   2.577   0.451  0.00  0.00    -0.472 OA
ATOM      2  N   UNL     1       1.352   0.255  -0.756  0.00  0.00    -0.328 N 
ATOM      3  C   UNL     1       2.807   0.342  -0.726  0.00  0.00    +0.108 C 
ATOM      4  C   UNL     1       0.639   1.267  -0.181  0.00  0.00    +0.094 A 
ATOM      5  C   UNL     1       3.204   1.843  -0.616  0.00  0.00    +0.226 C 
ATOM      6  C   UNL     1       0.515  -0.688  -1.260  0.00  0.00    +0.041 A 
ATOM      7  C   UNL     1      -0.705   0.967  -0.272  0.00  0.00    +0.023 A 
ATOM      8  C   UNL     1      -0.777  -0.276  -0.971  0.00  0.00    +0.052 A 
ATOM      9  C   UNL     1       1.177   2.399   0.411  0.00  0.00    +0.154 C 
ATOM     10  C   UNL     1       1.006  -1.894  -1.958  0.00  0.00    +0.050 C 
ATOM     11  C   UNL     1      -1.609   1.882   0.299  0.00  0.00    +0.002 C 
ATOM     12  C   UNL     1       0.283   3.286   0.999  0.00  0.00    +0.038 C 
ATOM     13  C   UNL     1      -1.095   3.031   0.935  0.00  0.00    +0.003 C 
ENDROOT
BRANCH   8  15
ATOM     14  O   UNL     1      -1.937  -2.085  -1.950  0.00  0.00    -0.287 OA
ATOM     15  C   UNL     1      -1.960  -1.009  -1.327  0.00  0.00    +0.197 C 
BRANCH  15  16
ATOM     16  C   UNL     1      -3.319  -0.498  -0.971  0.00  0.00    +0.039 C 
ATOM     17  C   UNL     1      -3.922  -0.835   0.231  0.00  0.00    +0.003 C 
ATOM     18  C   UNL     1      -3.914   0.318  -1.912  0.00  0.00    +0.003 C 
ATOM     19  C   UNL     1      -5.210  -0.313   0.499  0.00  0.00    +0.000 C 
ATOM     20  C   UNL     1      -3.306  -1.666   1.181  0.00  0.00    +0.000 C 
ATOM     21  C   UNL     1      -5.181   0.831  -1.648  0.00  0.00    +0.000 C 
ATOM     22  C   UNL     1      -5.825   0.518  -0.450  0.00  0.00    +0.000 C 
ATOM     23  C   UNL     1      -5.844  -0.638   1.709  0.00  0.00    +0.000 C 
ATOM     24  C   UNL     1      -3.951  -1.979   2.378  0.00  0.00    +0.000 C 
ATOM     25  C   UNL     1      -5.217  -1.466   2.642  0.00  0.00    +0.000 C 
ENDBRANCH  15  16
ENDBRANCH   8  15
BRANCH   3  26
ATOM     26  C   UNL     1       3.371  -0.470   0.439  0.00  0.00    -0.050 C 
BRANCH  26  28
ATOM     27  O   UNL     1       7.433  -1.523   0.459  0.00  0.00    -0.358 OA
ATOM     28  N   UNL     1       4.829  -0.376   0.482  0.00  0.00    +0.392 N 
ATOM     29  C   UNL     1       5.422  -0.910  -0.752  0.00  0.00    -0.045 C 
ATOM     30  C   UNL     1       5.364  -1.091   1.649  0.00  0.00    -0.045 C 
ATOM     31  C   UNL     1       6.943  -0.813  -0.679  0.00  0.00    +0.119 C 
ATOM     32  C   UNL     1       6.886  -0.988   1.665  0.00  0.00    +0.119 C 
ATOM     33  H   UNL     1       5.076   0.611   0.562  0.00  0.00    -0.079 HD
ENDBRANCH  26  28
ENDBRANCH   3  26
TORSDOF 4
