REMARK  Name = 3000469
REMARK  2 active torsions:
REMARK  status: ('A' for Active; 'I' for Inactive)
REMARK    1  A    between atoms: C_16  and  O_20
REMARK    2  A    between atoms: O_20  and  C_21
REMARK                            x       y       z     vdW  Elec       q    Type
REMARK                         _______ _______ _______ _____ _____    ______ ____
ROOT
ATOM      1  O   UNL     1      -1.234   0.433   1.619  0.00  0.00    -0.218 OA
ATOM      2  O   UNL     1      -1.122   1.464  -1.095  0.00  0.00    -0.306 OA
ATOM      3  O   UNL     1       0.932   1.621  -0.009  0.00  0.00    -0.304 OA
ATOM      4  O   UNL     1      -1.532   1.802   1.207  0.00  0.00    -0.197 OA
ATOM      5  C   UNL     1      -0.553  -0.275   0.549  0.00  0.00    +0.178 C 
ATOM      6  C   UNL     1      -1.618  -1.294   0.030  0.00  0.00    +0.033 C 
ATOM      7  C   UNL     1       0.643  -0.999   1.227  0.00  0.00    +0.038 C 
ATOM      8  C   UNL     1      -0.997  -2.429  -0.826  0.00  0.00    +0.003 C 
ATOM      9  C   UNL     1      -0.040   0.707  -0.535  0.00  0.00    +0.268 C 
ATOM     10  C   UNL     1       1.216  -2.123   0.350  0.00  0.00    +0.003 C 
ATOM     11  C   UNL     1       1.703   0.042   1.680  0.00  0.00    +0.059 C 
ATOM     12  C   UNL     1      -2.803  -0.635  -0.713  0.00  0.00    +0.008 C 
ATOM     13  C   UNL     1       0.140  -3.116  -0.064  0.00  0.00    +0.000 C 
ATOM     14  C   UNL     1      -2.110   1.755  -0.101  0.00  0.00    +0.221 C 
ATOM     15  C   UNL     1      -3.255   0.730  -0.183  0.00  0.00    +0.059 C 
ATOM     16  C   UNL     1       2.090   1.011   0.551  0.00  0.00    +0.237 C 
ATOM     17  C   UNL     1      -2.024  -3.488  -1.245  0.00  0.00    +0.000 C 
ATOM     18  C   UNL     1       2.934  -0.593   2.329  0.00  0.00    +0.005 C 
ATOM     19  C   UNL     1      -2.637   3.160  -0.384  0.00  0.00    +0.064 C 
ENDROOT
BRANCH  16  20
ATOM     20  O   UNL     1       2.898   0.383  -0.436  0.00  0.00    -0.330 OA
BRANCH  20  21
ATOM     21  C   UNL     1       3.249   1.287  -1.474  0.00  0.00    +0.145 C 
ATOM     22  C   UNL     1       4.119   0.556  -2.478  0.00  0.00    +0.035 C 
ENDBRANCH  20  21
ENDBRANCH  16  20
TORSDOF 2
