REMARK  Name = 15020
REMARK  1 active torsions:
REMARK  status: ('A' for Active; 'I' for Inactive)
REMARK    1  A    between atoms: C_12  and  O_22
REMARK                            x       y       z     vdW  Elec       q    Type
REMARK                         _______ _______ _______ _____ _____    ______ ____
ROOT
ATOM      1  O   UNL     1       5.579  -0.190   0.616  0.00  0.00    -0.296 OA
ATOM      2  C   UNL     1       0.077   0.384   0.151  0.00  0.00    +0.000 C 
ATOM      3  C   UNL     1      -0.782  -0.878  -0.193  0.00  0.00    +0.000 C 
ATOM      4  C   UNL     1       1.557   0.274  -0.388  0.00  0.00    +0.001 C 
ATOM      5  C   UNL     1      -2.174  -0.702   0.424  0.00  0.00    +0.002 C 
ATOM      6  C   UNL     1      -2.908   0.543  -0.111  0.00  0.00    +0.025 C 
ATOM      7  C   UNL     1       2.167  -1.061   0.164  0.00  0.00    +0.007 C 
ATOM      8  C   UNL     1      -0.649   1.697  -0.251  0.00  0.00    +0.000 C 
ATOM      9  C   UNL     1      -2.093   1.783   0.278  0.00  0.00    +0.002 C 
ATOM     10  C   UNL     1      -0.106  -2.160   0.309  0.00  0.00    +0.000 C 
ATOM     11  C   UNL     1      -3.205  -1.817   0.271  0.00  0.00    +0.003 C 
ATOM     12  C   UNL     1      -4.244   0.388   0.641  0.00  0.00    +0.110 C 
ATOM     13  C   UNL     1       2.467   1.474   0.090  0.00  0.00    +0.007 C 
ATOM     14  C   UNL     1       1.326  -2.293  -0.199  0.00  0.00    +0.000 C 
ATOM     15  C   UNL     1      -4.549  -1.121   0.553  0.00  0.00    +0.029 C 
ATOM     16  C   UNL     1       1.548   0.279  -1.944  0.00  0.00    +0.000 C 
ATOM     17  C   UNL     1       3.627  -1.275  -0.245  0.00  0.00    +0.064 C 
ATOM     18  C   UNL     1      -3.151   0.543  -1.642  0.00  0.00    +0.002 C 
ATOM     19  C   UNL     1       3.938   1.282  -0.320  0.00  0.00    +0.064 C 
ATOM     20  C   UNL     1       4.467  -0.069   0.103  0.00  0.00    +0.151 C 
ATOM     21  C   UNL     1       2.409   1.770   1.600  0.00  0.00    +0.000 C 
ENDROOT
BRANCH  12  22
ATOM     22  O   UNL     1      -5.301   1.149   0.091  0.00  0.00    -0.384 OA
ATOM     23  H   UNL     1      -5.088   2.093   0.158  0.00  0.00    +0.210 HD
ENDBRANCH  12  22
TORSDOF 1
