REMARK  Name = 4161
REMARK  1 active torsions:
REMARK  status: ('A' for Active; 'I' for Inactive)
REMARK    1  A    between atoms: C_7  and  S_10
REMARK                            x       y       z     vdW  Elec       q    Type
REMARK                         _______ _______ _______ _____ _____    ______ ____
ROOT
ATOM      1  O   UNL     1      -0.090  -2.673   0.000  0.00  0.00    -0.209 OA
ATOM      2  N   UNL     1       0.015   1.304  -0.001  0.00  0.00    -0.285 N 
ATOM      3  N   UNL     1       1.186  -0.754   0.000  0.00  0.00    -0.311 NA
ATOM      4  C   UNL     1      -1.215   0.692   0.000  0.00  0.00    +0.041 C 
ATOM      5  C   UNL     1      -1.286  -0.649   0.000  0.00  0.00    +0.117 C 
ATOM      6  C   UNL     1      -2.429   1.566   0.000  0.00  0.00    +0.048 C 
ATOM      7  C   UNL     1       1.155   0.546   0.000  0.00  0.00    +0.220 C 
ATOM      8  C   UNL     1      -0.016  -1.447   0.000  0.00  0.00    +0.208 C 
ATOM      9  H   UNL     1       0.077   2.286  -0.001  0.00  0.00    +0.155 HD
ENDROOT
BRANCH   7  10
ATOM     10  S   UNL     1       2.680   1.415   0.000  0.00  0.00    -0.094 S 
ATOM     11  H   UNL     1       2.439   2.753   0.000  0.00  0.00    +0.111 HD
ENDBRANCH   7  10
TORSDOF 1
