REMARK  Name = 272833
REMARK  6 active torsions:
REMARK  status: ('A' for Active; 'I' for Inactive)
REMARK    1  A    between atoms: CA_6  and  C_25
REMARK    2  A    between atoms: CA_7  and  N_12
REMARK    3  A    between atoms: C_13  and  C_15
REMARK    4  A    between atoms: C_15  and  O_17
REMARK    5  A    between atoms: O_17  and  C_18
REMARK    6  A    between atoms: C_25  and  O_26
REMARK                            x       y       z     vdW  Elec       q    Type
REMARK                         _______ _______ _______ _____ _____    ______ ____
ROOT
ATOM      1  S   UNL     1       2.373   0.796   1.929  0.00  0.00    -0.118 S 
ATOM      2  O   UNL     1       1.167  -0.074  -2.218  0.00  0.00    -0.273 OA
ATOM      3  N   UNL     1       2.805   0.467  -0.607  0.00  0.00    -0.260 N 
ATOM      4  C   UNL     1       2.524   1.593   0.289  0.00  0.00    +0.151 C 
ATOM      5  C   UNL     1       3.602  -0.518   1.447  0.00  0.00    +0.068 C 
ATOM      6  CA  UNL     1       3.296  -0.774  -0.044  0.00  0.00    +0.184 C 
ATOM      7  CA  UNL     1       1.223   1.810  -0.497  0.00  0.00    +0.178 C 
ATOM      8  C   UNL     1       1.664   0.600  -1.345  0.00  0.00    +0.247 C 
ATOM      9  C   UNL     1       5.010   0.028   1.723  0.00  0.00    +0.013 C 
ATOM     10  C   UNL     1       3.351  -1.769   2.291  0.00  0.00    +0.013 C 
ENDROOT
BRANCH   7  12
ATOM     11  O   UNL     1      -1.423   1.569  -1.647  0.00  0.00    -0.271 OA
ATOM     12  N   UNL     1      -0.044   1.608   0.219  0.00  0.00    -0.293 N 
ATOM     13  C   UNL     1      -1.276   1.503  -0.429  0.00  0.00    +0.263 C 
ATOM     14  H   UNL     1      -0.024   1.543   1.201  0.00  0.00    +0.150 HD
BRANCH  13  15
ATOM     15  C   UNL     1      -2.437   1.277   0.528  0.00  0.00    +0.241 C 
ATOM     16  C   UNL     1      -2.605   2.457   1.472  0.00  0.00    +0.057 C 
BRANCH  15  17
ATOM     17  O   UNL     1      -3.634   1.133  -0.219  0.00  0.00    -0.470 OA
BRANCH  17  18
ATOM     18  C   UNL     1      -4.307  -0.055  -0.090  0.00  0.00    +0.139 C 
ATOM     19  C   UNL     1      -3.677  -1.243  -0.439  0.00  0.00    +0.037 C 
ATOM     20  C   UNL     1      -5.612  -0.056   0.387  0.00  0.00    +0.037 C 
ATOM     21  C   UNL     1      -4.362  -2.451  -0.308  0.00  0.00    +0.003 C 
ATOM     22  C   UNL     1      -6.298  -1.264   0.518  0.00  0.00    +0.003 C 
ATOM     23  C   UNL     1      -5.673  -2.461   0.170  0.00  0.00    +0.000 C 
ENDBRANCH  17  18
ENDBRANCH  15  17
ENDBRANCH  13  15
ENDBRANCH   7  12
BRANCH   6  25
ATOM     24  OXT UNL     1       4.942  -0.563  -1.797  0.00  0.00    -0.248 OA
ATOM     25  C   UNL     1       4.464  -1.203  -0.873  0.00  0.00    +0.333 C 
BRANCH  25  26
ATOM     26  O   UNL     1       4.926  -2.409  -0.461  0.00  0.00    -0.479 OA
ATOM     27  H   UNL     1       4.513  -2.849   0.256  0.00  0.00    +0.295 HD
ENDBRANCH  25  26
ENDBRANCH   6  25
TORSDOF 6
