REMARK  Name = 9799284
REMARK  5 active torsions:
REMARK  status: ('A' for Active; 'I' for Inactive)
REMARK    1  A    between atoms: N_1  and  C_19
REMARK    2  A    between atoms: C_2  and  C_8
REMARK    3  A    between atoms: C_8  and  N_10
REMARK    4  A    between atoms: C_19  and  C_21
REMARK    5  A    between atoms: C_21  and  C_23
REMARK                            x       y       z     vdW  Elec       q    Type
REMARK                         _______ _______ _______ _____ _____    ______ ____
ROOT
ATOM      1  N   UNL     1       1.515  -1.921   0.015  0.00  0.00    +0.392 N 
ATOM      2  C   UNL     1      -1.360  -1.900   0.589  0.00  0.00    +0.016 C 
ATOM      3  C   UNL     1      -0.704  -0.894  -0.363  0.00  0.00    -0.021 C 
ATOM      4  C   UNL     1      -0.518  -3.179   0.652  0.00  0.00    -0.021 C 
ATOM      5  C   UNL     1       0.763  -0.659   0.001  0.00  0.00    -0.077 C 
ATOM      6  C   UNL     1       0.943  -2.868   0.982  0.00  0.00    -0.077 C 
ATOM      7  H   UNL     1       1.446  -2.339  -0.913  0.00  0.00    -0.079 HD
ENDROOT
BRANCH   2   8
ATOM      8  C   UNL     1      -2.793  -2.207   0.162  0.00  0.00    +0.094 C 
BRANCH   8  10
ATOM      9  O   UNL     1      -4.264  -0.856  -2.102  0.00  0.00    -0.270 OA
ATOM     10  N   UNL     1      -3.594  -1.020   0.162  0.00  0.00    -0.272 N 
ATOM     11  C   UNL     1      -3.823  -0.239   1.381  0.00  0.00    +0.121 C 
ATOM     12  C   UNL     1      -4.242  -0.467  -0.949  0.00  0.00    +0.249 C 
ATOM     13  C   UNL     1      -4.693   0.869   0.895  0.00  0.00    +0.002 C 
ATOM     14  C   UNL     1      -4.937   0.733  -0.472  0.00  0.00    +0.051 C 
ATOM     15  C   UNL     1      -5.236   1.927   1.599  0.00  0.00    -0.002 C 
ATOM     16  C   UNL     1      -5.716   1.625  -1.183  0.00  0.00    +0.004 C 
ATOM     17  C   UNL     1      -6.029   2.845   0.903  0.00  0.00    -0.000 C 
ATOM     18  C   UNL     1      -6.267   2.695  -0.476  0.00  0.00    +0.000 C 
ENDBRANCH   8  10
ENDBRANCH   2   8
BRANCH   1  19
ATOM     19  C   UNL     1       2.925  -1.674   0.313  0.00  0.00    -0.006 C 
BRANCH  19  21
ATOM     20  O   UNL     1       3.097  -0.753  -1.911  0.00  0.00    -0.294 OA
ATOM     21  C   UNL     1       3.505  -0.761  -0.752  0.00  0.00    +0.152 C 
BRANCH  21  23
ATOM     22  F   UNL     1       7.657   2.687   0.678  0.00  0.00    -0.204 F 
ATOM     23  C   UNL     1       4.615   0.162  -0.369  0.00  0.00    +0.033 C 
ATOM     24  C   UNL     1       5.474  -0.223   0.635  0.00  0.00    +0.005 C 
ATOM     25  C   UNL     1       4.736   1.359  -1.035  0.00  0.00    +0.005 C 
ATOM     26  C   UNL     1       6.512   0.638   0.992  0.00  0.00    +0.030 C 
ATOM     27  C   UNL     1       5.773   2.220  -0.679  0.00  0.00    +0.030 C 
ATOM     28  C   UNL     1       6.661   1.860   0.335  0.00  0.00    +0.140 C 
ENDBRANCH  21  23
ENDBRANCH  19  21
ENDBRANCH   1  19
TORSDOF 5
