REMARK  Name = 443405
REMARK  4 active torsions:
REMARK  status: ('A' for Active; 'I' for Inactive)
REMARK    1  A    between atoms: N_1  and  C_19
REMARK    2  A    between atoms: C_14  and  O_17
REMARK    3  A    between atoms: C_19  and  C_20
REMARK    4  A    between atoms: C_20  and  C_21
REMARK                            x       y       z     vdW  Elec       q    Type
REMARK                         _______ _______ _______ _____ _____    ______ ____
ROOT
ATOM      1  N   UNL     1       0.536   1.173  -0.096  0.00  0.00    +0.389 N 
ATOM      2  C   UNL     1      -2.344   1.399  -0.608  0.00  0.00    +0.015 C 
ATOM      3  C   UNL     1      -1.615   2.180   0.528  0.00  0.00    -0.015 C 
ATOM      4  C   UNL     1      -0.426   1.323   1.017  0.00  0.00    -0.053 C 
ATOM      5  C   UNL     1      -1.313   1.188  -1.752  0.00  0.00    -0.019 C 
ATOM      6  C   UNL     1      -0.942   0.010   1.644  0.00  0.00    +0.005 C 
ATOM      7  C   UNL     1      -2.799   0.014  -0.119  0.00  0.00    -0.024 C 
ATOM      8  C   UNL     1      -0.014   0.518  -1.284  0.00  0.00    -0.077 C 
ATOM      9  C   UNL     1      -2.107  -0.635   0.928  0.00  0.00    -0.028 C 
ATOM     10  C   UNL     1      -3.508   2.253  -1.158  0.00  0.00    +0.004 C 
ATOM     11  C   UNL     1      -2.528   2.622   1.683  0.00  0.00    -0.002 C 
ATOM     12  C   UNL     1      -3.866  -0.667  -0.734  0.00  0.00    +0.032 C 
ATOM     13  C   UNL     1      -2.516  -1.910   1.354  0.00  0.00    -0.002 C 
ATOM     14  C   UNL     1      -4.257  -1.936  -0.305  0.00  0.00    +0.133 C 
ATOM     15  C   UNL     1      -3.586  -2.556   0.741  0.00  0.00    +0.036 C 
ATOM     16  H   UNL     1       0.738   2.134  -0.370  0.00  0.00    -0.080 HD
ENDROOT
BRANCH  14  17
ATOM     17  O   UNL     1      -5.296  -2.569  -0.916  0.00  0.00    -0.506 OA
ATOM     18  H   UNL     1      -5.750  -2.151  -1.621  0.00  0.00    +0.292 HD
ENDBRANCH  14  17
BRANCH   1  19
ATOM     19  C   UNL     1       1.800   0.566   0.307  0.00  0.00    -0.072 C 
BRANCH  19  20
ATOM     20  C   UNL     1       2.826   0.633  -0.826  0.00  0.00    +0.004 C 
BRANCH  20  21
ATOM     21  C   UNL     1       4.130  -0.011  -0.430  0.00  0.00    -0.024 C 
ATOM     22  C   UNL     1       5.116   0.759   0.170  0.00  0.00    -0.004 C 
ATOM     23  C   UNL     1       4.324  -1.363  -0.672  0.00  0.00    -0.004 C 
ATOM     24  C   UNL     1       6.323   0.163   0.535  0.00  0.00    -0.000 C 
ATOM     25  C   UNL     1       5.531  -1.958  -0.306  0.00  0.00    -0.000 C 
ATOM     26  C   UNL     1       6.530  -1.196   0.297  0.00  0.00    -0.000 C 
ENDBRANCH  20  21
ENDBRANCH  19  20
ENDBRANCH   1  19
TORSDOF 4
