REMARK  Name = 38668
REMARK  5 active torsions:
REMARK  status: ('A' for Active; 'I' for Inactive)
REMARK    1  A    between atoms: N_3  and  C_23
REMARK    2  A    between atoms: C_7  and  C_15
REMARK    3  A    between atoms: C_9  and  O_21
REMARK    4  A    between atoms: C_23  and  C_24
REMARK    5  A    between atoms: C_24  and  O_25
REMARK                            x       y       z     vdW  Elec       q    Type
REMARK                         _______ _______ _______ _____ _____    ______ ____
ROOT
ATOM      1 CL   UNL     1      -0.157  -4.636   1.388  0.00  0.00    -0.082 Cl
ATOM      2  O   UNL     1       2.409   2.917  -0.012  0.00  0.00    -0.270 OA
ATOM      3  N   UNL     1       2.275   0.602  -0.189  0.00  0.00    -0.252 N 
ATOM      4  N   UNL     1      -0.357   1.598   0.931  0.00  0.00    -0.235 NA
ATOM      5  C   UNL     1       1.647  -0.642   0.165  0.00  0.00    +0.055 C 
ATOM      6  C   UNL     1       0.292  -0.739   0.540  0.00  0.00    +0.032 C 
ATOM      7  C   UNL     1      -0.639   0.425   0.477  0.00  0.00    +0.082 C 
ATOM      8  C   UNL     1       1.927   1.844   0.362  0.00  0.00    +0.281 C 
ATOM      9  C   UNL     1       0.951   1.810   1.529  0.00  0.00    +0.296 C 
ATOM     10  C   UNL     1       2.399  -1.832   0.126  0.00  0.00    +0.016 C 
ATOM     11  C   UNL     1      -0.254  -1.974   0.933  0.00  0.00    +0.014 C 
ATOM     12  C   UNL     1       1.845  -3.060   0.499  0.00  0.00    +0.013 C 
ATOM     13  C   UNL     1       0.522  -3.128   0.914  0.00  0.00    +0.058 C 
ENDROOT
BRANCH   7  15
ATOM     14  F   UNL     1      -2.914   1.902   1.261  0.00  0.00    -0.204 F 
ATOM     15  C   UNL     1      -1.976   0.246  -0.161  0.00  0.00    +0.045 C 
ATOM     16  C   UNL     1      -3.055   1.006   0.274  0.00  0.00    +0.142 C 
ATOM     17  C   UNL     1      -2.126  -0.681  -1.185  0.00  0.00    +0.004 C 
ATOM     18  C   UNL     1      -4.303   0.837  -0.325  0.00  0.00    +0.030 C 
ATOM     19  C   UNL     1      -3.375  -0.851  -1.783  0.00  0.00    +0.000 C 
ATOM     20  C   UNL     1      -4.463  -0.092  -1.353  0.00  0.00    +0.002 C 
ENDBRANCH   7  15
BRANCH   9  21
ATOM     21  O   UNL     1       1.091   3.040   2.237  0.00  0.00    -0.357 OA
ATOM     22  H   UNL     1       0.480   3.051   2.990  0.00  0.00    +0.213 HD
ENDBRANCH   9  21
BRANCH   3  23
ATOM     23  C   UNL     1       3.390   0.560  -1.136  0.00  0.00    +0.130 C 
BRANCH  23  24
ATOM     24  C   UNL     1       2.955   0.018  -2.485  0.00  0.00    +0.159 C 
BRANCH  24  25
ATOM     25  O   UNL     1       1.914   0.833  -3.008  0.00  0.00    -0.380 OA
ATOM     26  H   UNL     1       1.635   0.487  -3.871  0.00  0.00    +0.211 HD
ENDBRANCH  24  25
ENDBRANCH  23  24
ENDBRANCH   3  23
TORSDOF 5
