REMARK  Name = 21722
REMARK  4 active torsions:
REMARK  status: ('A' for Active; 'I' for Inactive)
REMARK    1  A    between atoms: N_1  and  C_16
REMARK    2  A    between atoms: C_16  and  C_17
REMARK    3  A    between atoms: C_17  and  C_18
REMARK    4  A    between atoms: C_18  and  N_19
REMARK                            x       y       z     vdW  Elec       q    Type
REMARK                         _______ _______ _______ _____ _____    ______ ____
ROOT
ATOM      1  N   UNL     1       0.121   0.064  -0.310  0.00  0.00    -0.331 N 
ATOM      2  C   UNL     1      -0.815  -0.742   0.282  0.00  0.00    +0.033 A 
ATOM      3  C   UNL     1      -1.879   0.050   0.678  0.00  0.00    -0.009 A 
ATOM      4  C   UNL     1      -0.635  -2.214   0.402  0.00  0.00    +0.043 C 
ATOM      5  C   UNL     1      -3.111  -0.434   1.371  0.00  0.00    +0.028 C 
ATOM      6  C   UNL     1      -1.260  -2.971  -0.770  0.00  0.00    +0.006 C 
ATOM      7  C   UNL     1      -1.565   1.393   0.292  0.00  0.00    +0.013 A 
ATOM      8  C   UNL     1      -4.111  -1.141   0.452  0.00  0.00    +0.005 C 
ATOM      9  C   UNL     1      -0.311   1.369  -0.321  0.00  0.00    +0.059 A 
ATOM     10  C   UNL     1      -2.692  -2.577  -1.159  0.00  0.00    +0.000 C 
ATOM     11  C   UNL     1      -3.704  -2.550  -0.009  0.00  0.00    +0.000 C 
ATOM     12  C   UNL     1      -2.233   2.632   0.404  0.00  0.00    +0.001 C 
ATOM     13  C   UNL     1       0.309   2.518  -0.826  0.00  0.00    +0.017 C 
ATOM     14  C   UNL     1      -1.625   3.789  -0.096  0.00  0.00    +0.000 C 
ATOM     15  C   UNL     1      -0.372   3.731  -0.701  0.00  0.00    +0.001 C 
ENDROOT
BRANCH   1  16
ATOM     16  C   UNL     1       1.382  -0.376  -0.873  0.00  0.00    +0.104 C 
BRANCH  16  17
ATOM     17  C   UNL     1       2.516  -0.330   0.151  0.00  0.00    +0.002 C 
BRANCH  17  18
ATOM     18  C   UNL     1       3.835  -0.785  -0.471  0.00  0.00    -0.076 C 
BRANCH  18  19
ATOM     19  N   UNL     1       4.901  -0.756   0.523  0.00  0.00    +0.384 N 
ATOM     20  C   UNL     1       5.102   0.606   1.022  0.00  0.00    -0.101 C 
ATOM     21  C   UNL     1       6.146  -1.279  -0.041  0.00  0.00    -0.101 C 
ATOM     22  H   UNL     1       4.624  -1.350   1.304  0.00  0.00    -0.080 HD
ENDBRANCH  18  19
ENDBRANCH  17  18
ENDBRANCH  16  17
ENDBRANCH   1  16
TORSDOF 4
