REMARK  Name = 64949
REMARK  8 active torsions:
REMARK  status: ('A' for Active; 'I' for Inactive)
REMARK    1  A    between atoms: C_1  and  C_2
REMARK    2  A    between atoms: C_1  and  C_16
REMARK    3  A    between atoms: C_2  and  O_3
REMARK    4  A    between atoms: O_3  and  C_4
REMARK    5  A    between atoms: C_7  and  C_12
REMARK    6  A    between atoms: C_16  and  O_17
REMARK    7  A    between atoms: O_17  and  C_18
REMARK    8  A    between atoms: C_21  and  C_26
REMARK                            x       y       z     vdW  Elec       q    Type
REMARK                         _______ _______ _______ _____ _____    ______ ____
ROOT
ATOM      1  C   UNL     1      -0.047  -4.190  -0.004  0.00  0.00    +0.095 C 
ENDROOT
BRANCH   1   2
ATOM      2  C   UNL     1      -1.273  -3.342   0.292  0.00  0.00    +0.209 C 
BRANCH   2   3
ATOM      3  O   UNL     1      -1.549  -2.525  -0.837  0.00  0.00    -0.475 OA
BRANCH   3   4
ATOM      4  C   UNL     1      -2.127  -1.306  -0.591  0.00  0.00    +0.139 C 
ATOM      5  C   UNL     1      -1.875  -0.241  -1.447  0.00  0.00    +0.037 C 
ATOM      6  C   UNL     1      -2.961  -1.150   0.510  0.00  0.00    +0.037 C 
ATOM      7  C   UNL     1      -3.302   1.164  -0.096  0.00  0.00    +0.031 C 
ATOM      8  C   UNL     1      -2.464   0.999  -1.199  0.00  0.00    +0.006 C 
ATOM      9  C   UNL     1      -3.550   0.090   0.758  0.00  0.00    +0.006 C 
BRANCH   7  12
ATOM     10  N   UNL     1      -3.688   3.549  -0.671  0.00  0.00    -0.343 N 
ATOM     11  N   UNL     1      -4.706   2.611   1.211  0.00  0.00    -0.285 NA
ATOM     12  C   UNL     1      -3.916   2.456   0.164  0.00  0.00    +0.117 C 
ATOM     13  H   UNL     1      -4.114   4.414  -0.477  0.00  0.00    +0.144 HD
ATOM     14  H   UNL     1      -3.100   3.454  -1.455  0.00  0.00    +0.144 HD
ATOM     15  H   UNL     1      -5.123   3.485   1.389  0.00  0.00    +0.188 HD
ENDBRANCH   7  12
ENDBRANCH   3   4
ENDBRANCH   2   3
ENDBRANCH   1   2
BRANCH   1  16
ATOM     16  C   UNL     1       1.182  -3.338  -0.279  0.00  0.00    +0.209 C 
BRANCH  16  17
ATOM     17  O   UNL     1       1.460  -2.515   0.845  0.00  0.00    -0.475 OA
BRANCH  17  18
ATOM     18  C   UNL     1       2.079  -1.317   0.596  0.00  0.00    +0.139 C 
ATOM     19  C   UNL     1       1.841  -0.233   1.433  0.00  0.00    +0.037 C 
ATOM     20  C   UNL     1       2.939  -1.199  -0.490  0.00  0.00    +0.037 C 
ATOM     21  C   UNL     1       3.335   1.111   0.093  0.00  0.00    +0.031 C 
ATOM     22  C   UNL     1       2.471   0.985   1.181  0.00  0.00    +0.006 C 
ATOM     23  C   UNL     1       3.569   0.019  -0.742  0.00  0.00    +0.006 C 
BRANCH  21  26
ATOM     24  N   UNL     1       3.780   3.491   0.646  0.00  0.00    -0.343 N 
ATOM     25  N   UNL     1       4.808   2.499  -1.203  0.00  0.00    -0.285 NA
ATOM     26  C   UNL     1       3.993   2.382  -0.170  0.00  0.00    +0.117 C 
ATOM     27  H   UNL     1       4.235   4.341   0.450  0.00  0.00    +0.144 HD
ATOM     28  H   UNL     1       3.174   3.424   1.420  0.00  0.00    +0.144 HD
ATOM     29  H   UNL     1       5.254   3.358  -1.383  0.00  0.00    +0.188 HD
ENDBRANCH  21  26
ENDBRANCH  17  18
ENDBRANCH  16  17
ENDBRANCH   1  16
TORSDOF 8
