REMARK  Name = 5281708
REMARK  3 active torsions:
REMARK  status: ('A' for Active; 'I' for Inactive)
REMARK    1  A    between atoms: C_4  and  C_12
REMARK    2  A    between atoms: C_10  and  O_20
REMARK    3  A    between atoms: C_17  and  O_18
REMARK                            x       y       z     vdW  Elec       q    Type
REMARK                         _______ _______ _______ _____ _____    ______ ____
ROOT
ATOM      1  O   UNL     1       1.393   1.848  -0.019  0.00  0.00    -0.450 OA
ATOM      2  O   UNL     1      -0.027  -1.977  -0.069  0.00  0.00    -0.286 OA
ATOM      3  C   UNL     1       1.836  -0.538  -0.011  0.00  0.00    +0.074 C 
ATOM      4  C   UNL     1      -0.520   0.352  -0.027  0.00  0.00    +0.077 C 
ATOM      5  C   UNL     1       2.264   0.789  -0.006  0.00  0.00    +0.151 C 
ATOM      6  C   UNL     1       0.390  -0.826  -0.034  0.00  0.00    +0.202 C 
ATOM      7  C   UNL     1       0.048   1.567  -0.019  0.00  0.00    +0.183 C 
ATOM      8  C   UNL     1       2.769  -1.578   0.001  0.00  0.00    +0.009 C 
ATOM      9  C   UNL     1       3.627   1.084   0.011  0.00  0.00    +0.074 C 
ATOM     10  C   UNL     1       4.561   0.048   0.023  0.00  0.00    +0.137 C 
ATOM     11  C   UNL     1       4.133  -1.280   0.019  0.00  0.00    +0.037 C 
ENDROOT
BRANCH   4  12
ATOM     12  C   UNL     1      -1.985   0.206  -0.009  0.00  0.00    +0.006 C 
ATOM     13  C   UNL     1      -2.698   0.151  -1.208  0.00  0.00    +0.003 C 
ATOM     14  C   UNL     1      -2.665   0.119   1.207  0.00  0.00    +0.003 C 
ATOM     15  C   UNL     1      -4.086   0.011  -1.191  0.00  0.00    +0.037 C 
ATOM     16  C   UNL     1      -4.053  -0.021   1.224  0.00  0.00    +0.037 C 
ATOM     17  C   UNL     1      -4.763  -0.075   0.025  0.00  0.00    +0.134 C 
BRANCH  17  18
ATOM     18  O   UNL     1      -6.117  -0.212   0.042  0.00  0.00    -0.506 OA
ATOM     19  H   UNL     1      -6.594  -0.248  -0.764  0.00  0.00    +0.292 HD
ENDBRANCH  17  18
ENDBRANCH   4  12
BRANCH  10  20
ATOM     20  O   UNL     1       5.892   0.332   0.041  0.00  0.00    -0.505 OA
ATOM     21  H   UNL     1       6.181   1.223   0.045  0.00  0.00    +0.292 HD
ENDBRANCH  10  20
TORSDOF 3
