REMARK  Name = 6127
REMARK  2 active torsions:
REMARK  status: ('A' for Active; 'I' for Inactive)
REMARK    1  A    between atoms: C_9  and  C_10
REMARK    2  A    between atoms: C_9  and  C_16
REMARK                            x       y       z     vdW  Elec       q    Type
REMARK                         _______ _______ _______ _____ _____    ______ ____
ROOT
ATOM      1  N   UNL     1      -3.676  -0.019   0.124  0.00  0.00    +0.388 N 
ATOM      2  C   UNL     1      -2.826   1.251   0.294  0.00  0.00    -0.069 C 
ATOM      3  C   UNL     1      -2.812  -1.275   0.320  0.00  0.00    -0.069 C 
ATOM      4  C   UNL     1      -1.610   1.251  -0.629  0.00  0.00    -0.000 C 
ATOM      5  C   UNL     1      -1.597  -1.281  -0.604  0.00  0.00    -0.000 C 
ATOM      6  C   UNL     1      -0.808  -0.009  -0.462  0.00  0.00    -0.048 C 
ATOM      7  C   UNL     1      -4.386  -0.036  -1.228  0.00  0.00    -0.096 C 
ATOM      8  C   UNL     1      -4.761  -0.014   1.209  0.00  0.00    -0.096 C 
ATOM      9  C   UNL     1       0.503   0.001  -0.184  0.00  0.00    -0.008 C 
ENDROOT
BRANCH   9  10
ATOM     10  C   UNL     1       1.187  -1.265  -0.042  0.00  0.00    -0.001 C 
ATOM     11  C   UNL     1       1.271  -1.886   1.209  0.00  0.00    -0.000 C 
ATOM     12  C   UNL     1       1.772  -1.881  -1.155  0.00  0.00    -0.000 C 
ATOM     13  C   UNL     1       1.931  -3.107   1.346  0.00  0.00    -0.000 C 
ATOM     14  C   UNL     1       2.431  -3.102  -1.017  0.00  0.00    -0.000 C 
ATOM     15  C   UNL     1       2.511  -3.715   0.233  0.00  0.00    -0.000 C 
ENDBRANCH   9  10
BRANCH   9  16
ATOM     16  C   UNL     1       1.167   1.276  -0.041  0.00  0.00    -0.001 C 
ATOM     17  C   UNL     1       1.742   1.903  -1.153  0.00  0.00    -0.000 C 
ATOM     18  C   UNL     1       1.242   1.898   1.210  0.00  0.00    -0.000 C 
ATOM     19  C   UNL     1       2.383   3.134  -1.015  0.00  0.00    -0.000 C 
ATOM     20  C   UNL     1       1.883   3.129   1.349  0.00  0.00    -0.000 C 
ATOM     21  C   UNL     1       2.454   3.747   0.236  0.00  0.00    -0.000 C 
ENDBRANCH   9  16
TORSDOF 2
