REMARK  Name = 9906855
REMARK  8 active torsions:
REMARK  status: ('A' for Active; 'I' for Inactive)
REMARK    1  A    between atoms: C_1  and  C_3
REMARK    2  A    between atoms: C_1  and  S_15
REMARK    3  A    between atoms: C_5  and  O_9
REMARK    4  A    between atoms: O_9  and  C_10
REMARK    5  A    between atoms: C_10  and  C_11
REMARK    6  A    between atoms: C_11  and  C_12
REMARK    7  A    between atoms: C_12  and  O_13
REMARK    8  A    between atoms: S_15  and  C_19
REMARK                            x       y       z     vdW  Elec       q    Type
REMARK                         _______ _______ _______ _____ _____    ______ ____
ROOT
ATOM      1  C   UNL     1       0.769  -1.137  -0.435  0.00  0.00    +0.140 C 
ENDROOT
BRANCH   1   3
ATOM      2  N   UNL     1      -0.801  -2.823   0.271  0.00  0.00    -0.247 NA
ATOM      3  C   UNL     1      -0.648  -1.615  -0.308  0.00  0.00    +0.072 C 
ATOM      4  C   UNL     1      -1.687  -0.829  -0.769  0.00  0.00    +0.027 C 
ATOM      5  C   UNL     1      -2.980  -1.320  -0.626  0.00  0.00    +0.137 C 
ATOM      6  C   UNL     1      -1.443   0.500  -1.401  0.00  0.00    +0.035 C 
ATOM      7  C   UNL     1      -3.185  -2.562  -0.035  0.00  0.00    +0.057 C 
ATOM      8  C   UNL     1      -2.072  -3.268   0.393  0.00  0.00    +0.102 C 
BRANCH   5   9
ATOM      9  O   UNL     1      -4.054  -0.601  -1.058  0.00  0.00    -0.476 OA
BRANCH   9  10
ATOM     10  C   UNL     1      -5.027  -0.240  -0.080  0.00  0.00    +0.208 C 
BRANCH  10  11
ATOM     11  C   UNL     1      -5.689   1.061  -0.503  0.00  0.00    +0.079 C 
BRANCH  11  12
ATOM     12  C   UNL     1      -6.733   1.522   0.502  0.00  0.00    +0.146 C 
BRANCH  12  13
ATOM     13  O   UNL     1      -7.308   2.749   0.072  0.00  0.00    -0.351 OA
ATOM     14  C   UNL     1      -8.307   3.202   0.975  0.00  0.00    +0.174 C 
ENDBRANCH  12  13
ENDBRANCH  11  12
ENDBRANCH  10  11
ENDBRANCH   9  10
ENDBRANCH   5   9
ENDBRANCH   1   3
BRANCH   1  15
ATOM     15  S   UNL     1       1.290  -0.184   1.021  0.00  0.00    +0.085 S 
ATOM     16  O   UNL     1       1.326  -1.147   2.192  0.00  0.00    -0.252 OA
BRANCH  15  19
ATOM     17  N   UNL     1       3.991   0.397   1.445  0.00  0.00    -0.307 N 
ATOM     18  N   UNL     1       3.365   0.377  -0.688  0.00  0.00    -0.307 N 
ATOM     19  C   UNL     1       2.968   0.218   0.555  0.00  0.00    +0.226 C 
ATOM     20  C   UNL     1       5.123   0.690   0.729  0.00  0.00    +0.060 C 
ATOM     21  C   UNL     1       4.707   0.671  -0.600  0.00  0.00    +0.060 C 
ATOM     22  C   UNL     1       6.435   0.962   1.117  0.00  0.00    +0.016 C 
ATOM     23  C   UNL     1       5.641   0.938  -1.614  0.00  0.00    +0.016 C 
ATOM     24  C   UNL     1       7.353   1.224   0.094  0.00  0.00    +0.001 C 
ATOM     25  C   UNL     1       6.965   1.213  -1.248  0.00  0.00    +0.001 C 
ATOM     26  H   UNL     1       3.926   0.327   2.425  0.00  0.00    +0.149 HD
ATOM     27  H   UNL     1       2.821   0.301  -1.505  0.00  0.00    +0.149 HD
ENDBRANCH  15  19
ENDBRANCH   1  15
TORSDOF 8
