REMARK  Name = 65755
REMARK  8 active torsions:
REMARK  status: ('A' for Active; 'I' for Inactive)
REMARK    1  A    between atoms: CA_5  and  N_11
REMARK    2  A    between atoms: CA_7  and  C_21
REMARK    3  A    between atoms: C_8  and  C_24
REMARK    4  A    between atoms: C_12  and  C_14
REMARK    5  A    between atoms: C_14  and  N_15
REMARK    6  A    between atoms: C_21  and  O_22
REMARK    7  A    between atoms: C_24  and  S_25
REMARK    8  A    between atoms: S_25  and  C_29
REMARK                            x       y       z     vdW  Elec       q    Type
REMARK                         _______ _______ _______ _____ _____    ______ ____
ROOT
ATOM      1  S   UNL     1      -0.059  -0.670   2.476  0.00  0.00    -0.114 S 
ATOM      2  O   UNL     1       1.403  -1.389  -1.879  0.00  0.00    -0.273 OA
ATOM      3  N   UNL     1      -0.102  -1.444  -0.064  0.00  0.00    -0.242 N 
ATOM      4  C   UNL     1       0.382  -1.900   1.226  0.00  0.00    +0.155 C 
ATOM      5  CA  UNL     1       1.801  -1.789   0.625  0.00  0.00    +0.178 C 
ATOM      6  C   UNL     1       1.072  -1.535  -0.725  0.00  0.00    +0.251 C 
ATOM      7  CA  UNL     1      -1.389  -1.085  -0.303  0.00  0.00    +0.124 C 
ATOM      8  C   UNL     1      -2.256  -0.844   0.710  0.00  0.00    -0.002 C 
ATOM      9  C   UNL     1      -1.851  -0.853   2.182  0.00  0.00    +0.083 C 
ENDROOT
BRANCH   5  11
ATOM     10  O   UNL     1       4.247  -0.896  -0.630  0.00  0.00    -0.273 OA
ATOM     11  N   UNL     1       2.655  -0.679   1.046  0.00  0.00    -0.295 N 
ATOM     12  C   UNL     1       3.823  -0.324   0.370  0.00  0.00    +0.245 C 
ATOM     13  H   UNL     1       2.395  -0.160   1.841  0.00  0.00    +0.150 HD
BRANCH  12  14
ATOM     14  C   UNL     1       4.516   0.856   1.018  0.00  0.00    +0.204 C 
BRANCH  14  15
ATOM     15  N   UNL     1       5.733   1.251   0.317  0.00  0.00    -0.162 N 
ATOM     16  N   UNL     1       6.908   0.720   0.643  0.00  0.00    -0.051 NA
ATOM     17  N   UNL     1       7.130   2.188  -1.020  0.00  0.00    -0.108 NA
ATOM     18  N   UNL     1       7.768   1.300  -0.184  0.00  0.00    -0.025 NA
ATOM     19  C   UNL     1       5.861   2.138  -0.686  0.00  0.00    +0.211 C 
ENDBRANCH  14  15
ENDBRANCH  12  14
ENDBRANCH   5  11
BRANCH   7  21
ATOM     20  OXT UNL     1      -1.658   0.133  -2.327  0.00  0.00    -0.244 OA
ATOM     21  C   UNL     1      -1.782  -0.905  -1.709  0.00  0.00    +0.351 C 
BRANCH  21  22
ATOM     22  O   UNL     1      -2.291  -2.060  -2.181  0.00  0.00    -0.476 OA
ATOM     23  H   UNL     1      -2.345  -2.811  -1.624  0.00  0.00    +0.295 HD
ENDBRANCH  21  22
ENDBRANCH   7  21
BRANCH   8  24
ATOM     24  C   UNL     1      -3.720  -0.521   0.527  0.00  0.00    +0.088 C 
BRANCH  24  25
ATOM     25  S   UNL     1      -3.922   1.262   0.371  0.00  0.00    -0.082 S 
BRANCH  25  29
ATOM     26  S   UNL     1      -6.489   2.848  -0.031  0.00  0.00    -0.037 S 
ATOM     27  N   UNL     1      -6.420   0.294   0.173  0.00  0.00    -0.134 NA
ATOM     28  N   UNL     1      -7.754   0.619   0.000  0.00  0.00    -0.138 NA
ATOM     29  C   UNL     1      -5.677   1.366   0.173  0.00  0.00    +0.160 C 
ATOM     30  C   UNL     1      -7.928   1.918  -0.119  0.00  0.00    +0.160 C 
ENDBRANCH  25  29
ENDBRANCH  24  25
ENDBRANCH   8  24
TORSDOF 8
