REMARK  Name = 17336
REMARK  5 active torsions:
REMARK  status: ('A' for Active; 'I' for Inactive)
REMARK    1  A    between atoms: C_6  and  C_12
REMARK    2  A    between atoms: C_6  and  C_17
REMARK    3  A    between atoms: C_12  and  C_13
REMARK    4  A    between atoms: C_13  and  O_15
REMARK    5  A    between atoms: C_17  and  C_18
REMARK                            x       y       z     vdW  Elec       q    Type
REMARK                         _______ _______ _______ _____ _____    ______ ____
ROOT
ATOM      1  O   UNL     1      -0.878  -1.442  -1.846  0.00  0.00    -0.274 OA
ATOM      2  O   UNL     1       0.208   1.224   1.865  0.00  0.00    -0.274 OA
ATOM      3  O   UNL     1       2.934  -2.238   0.583  0.00  0.00    -0.252 OA
ATOM      4  N   UNL     1       1.076  -1.775  -0.691  0.00  0.00    -0.239 N 
ATOM      5  N   UNL     1       1.618  -0.444   1.163  0.00  0.00    -0.239 N 
ATOM      6  C   UNL     1      -0.141   0.329  -0.362  0.00  0.00    +0.144 C 
ATOM      7  C   UNL     1      -0.052  -1.042  -1.025  0.00  0.00    +0.237 C 
ATOM      8  C   UNL     1       0.540   0.413   1.000  0.00  0.00    +0.237 C 
ATOM      9  C   UNL     1       1.954  -1.525   0.357  0.00  0.00    +0.312 C 
ATOM     10  H   UNL     1       1.277  -2.557  -1.255  0.00  0.00    +0.159 HD
ATOM     11  H   UNL     1       2.208  -0.268   1.932  0.00  0.00    +0.159 HD
ENDROOT
BRANCH   6  12
ATOM     12  C   UNL     1      -1.615   0.738  -0.224  0.00  0.00    +0.047 C 
BRANCH  12  13
ATOM     13  C   UNL     1      -2.391  -0.230   0.663  0.00  0.00    +0.112 C 
ATOM     14  C   UNL     1      -3.856   0.176   0.753  0.00  0.00    +0.032 C 
BRANCH  13  15
ATOM     15  O   UNL     1      -2.311  -1.542   0.113  0.00  0.00    -0.384 OA
ATOM     16  H   UNL     1      -1.381  -1.810   0.051  0.00  0.00    +0.210 HD
ENDBRANCH  13  15
ENDBRANCH  12  13
ENDBRANCH   6  12
BRANCH   6  17
ATOM     17  C   UNL     1       0.578   1.326  -1.288  0.00  0.00    +0.043 C 
BRANCH  17  18
ATOM     18  C   UNL     1       0.605   2.689  -0.681  0.00  0.00    -0.025 C 
ATOM     19  C   UNL     1       1.731   3.345  -0.379  0.00  0.00    -0.005 C 
ENDBRANCH  17  18
ENDBRANCH   6  17
TORSDOF 5
