REMARK  Name = 9982
REMARK  4 active torsions:
REMARK  status: ('A' for Active; 'I' for Inactive)
REMARK    1  A    between atoms: C_1  and  N_3
REMARK    2  A    between atoms: C_1  and  C_8
REMARK    3  A    between atoms: N_3  and  C_6
REMARK    4  A    between atoms: C_8  and  C_9
REMARK                            x       y       z     vdW  Elec       q    Type
REMARK                         _______ _______ _______ _____ _____    ______ ____
ROOT
ATOM      1  C   UNL     1       1.363   0.051  -0.128  0.00  0.00    -0.058 C 
ATOM      2  C   UNL     1       1.278  -1.378  -0.663  0.00  0.00    -0.023 C 
ENDROOT
BRANCH   1   3
ATOM      3  N   UNL     1       2.701   0.254   0.436  0.00  0.00    +0.385 N 
ATOM      4  H   UNL     1       2.847  -0.407   1.199  0.00  0.00    -0.084 HD
ATOM      5  H   UNL     1       2.771   1.212   0.780  0.00  0.00    -0.084 HD
BRANCH   3   6
ATOM      6  C   UNL     1       3.721   0.045  -0.578  0.00  0.00    -0.082 C 
ATOM      7  C   UNL     1       5.113   0.252  -0.016  0.00  0.00    -0.026 C 
ENDBRANCH   3   6
ENDBRANCH   1   3
BRANCH   1   8
ATOM      8  C   UNL     1       0.303   0.343   0.949  0.00  0.00    +0.005 C 
BRANCH   8   9
ATOM      9  C   UNL     1      -1.117   0.201   0.453  0.00  0.00    -0.024 C 
ATOM     10  C   UNL     1      -1.759   1.303  -0.090  0.00  0.00    -0.004 C 
ATOM     11  C   UNL     1      -1.750  -1.027   0.550  0.00  0.00    -0.004 C 
ATOM     12  C   UNL     1      -3.070   1.172  -0.548  0.00  0.00    -0.000 C 
ATOM     13  C   UNL     1      -3.062  -1.158   0.092  0.00  0.00    -0.000 C 
ATOM     14  C   UNL     1      -3.721  -0.058  -0.457  0.00  0.00    -0.000 C 
ENDBRANCH   8   9
ENDBRANCH   1   8
TORSDOF 4
