REMARK  Name = 71203
REMARK  1 active torsions:
REMARK  status: ('A' for Active; 'I' for Inactive)
REMARK    1  A    between atoms: C_4  and  C_22
REMARK                            x       y       z     vdW  Elec       q    Type
REMARK                         _______ _______ _______ _____ _____    ______ ____
ROOT
ATOM      1  O   UNL     1      -0.528  -3.133   0.085  0.00  0.00    -0.272 OA
ATOM      2  N   UNL     1       1.787   1.889  -0.280  0.00  0.00    +0.392 N 
ATOM      3  N   UNL     1      -0.667  -0.886  -0.230  0.00  0.00    -0.284 N 
ATOM      4  C   UNL     1       2.203  -0.626  -0.152  0.00  0.00    -0.003 C 
ATOM      5  C   UNL     1       1.364   0.537  -0.732  0.00  0.00    -0.018 C 
ATOM      6  C   UNL     1       2.353  -0.480   1.380  0.00  0.00    -0.003 C 
ATOM      7  C   UNL     1      -0.089   0.332  -0.464  0.00  0.00    +0.021 A 
ATOM      8  C   UNL     1       1.521  -1.972  -0.508  0.00  0.00    +0.087 C 
ATOM      9  C   UNL     1       2.820   0.920   1.773  0.00  0.00    -0.023 C 
ATOM     10  C   UNL     1       1.916   2.000   1.181  0.00  0.00    -0.077 C 
ATOM     11  C   UNL     1       0.870   2.925  -0.824  0.00  0.00    -0.072 C 
ATOM     12  C   UNL     1      -1.021   1.333  -0.358  0.00  0.00    -0.013 A 
ATOM     13  C   UNL     1      -0.626   2.768  -0.437  0.00  0.00    +0.005 C 
ATOM     14  C   UNL     1       0.049  -2.085  -0.166  0.00  0.00    +0.241 C 
ATOM     15  C   UNL     1      -2.268   0.710  -0.110  0.00  0.00    +0.013 A 
ATOM     16  C   UNL     1      -2.034  -0.675  -0.039  0.00  0.00    +0.066 A 
ATOM     17  C   UNL     1      -3.577   1.200   0.081  0.00  0.00    +0.001 C 
ATOM     18  C   UNL     1      -3.089  -1.575   0.204  0.00  0.00    +0.018 C 
ATOM     19  C   UNL     1      -4.621   0.304   0.322  0.00  0.00    +0.000 C 
ATOM     20  C   UNL     1      -4.378  -1.063   0.380  0.00  0.00    +0.001 C 
ATOM     21  H   UNL     1       2.724   2.046  -0.653  0.00  0.00    -0.079 HD
ENDROOT
BRANCH   4  22
ATOM     22  C   UNL     1       3.607  -0.628  -0.803  0.00  0.00    -0.001 C 
ATOM     23  C   UNL     1       4.408  -1.794  -0.302  0.00  0.00    -0.000 C 
ENDBRANCH   4  22
TORSDOF 1
