REMARK  Name = 14113
REMARK  6 active torsions:
REMARK  status: ('A' for Active; 'I' for Inactive)
REMARK    1  A    between atoms: C_1  and  C_2
REMARK    2  A    between atoms: C_1  and  C_8
REMARK    3  A    between atoms: C_1  and  C_13
REMARK    4  A    between atoms: C_8  and  C_10
REMARK    5  A    between atoms: C_10  and  O_11
REMARK    6  A    between atoms: C_13  and  N_14
REMARK                            x       y       z     vdW  Elec       q    Type
REMARK                         _______ _______ _______ _____ _____    ______ ____
ROOT
ATOM      1  C   UNL     1       0.878  -0.867  -0.262  0.00  0.00    +0.012 C 
ENDROOT
BRANCH   1   2
ATOM      2  C   UNL     1      -0.571  -0.424  -0.087  0.00  0.00    -0.024 C 
ATOM      3  C   UNL     1      -1.504  -0.820  -1.021  0.00  0.00    -0.004 C 
ATOM      4  C   UNL     1      -0.898   0.359   1.000  0.00  0.00    -0.004 C 
ATOM      5  C   UNL     1      -2.829  -0.415  -0.861  0.00  0.00    -0.000 C 
ATOM      6  C   UNL     1      -2.224   0.764   1.160  0.00  0.00    -0.000 C 
ATOM      7  C   UNL     1      -3.188   0.377   0.230  0.00  0.00    -0.000 C 
ENDBRANCH   1   2
BRANCH   1   8
ATOM      8  C   UNL     1       1.838   0.186   0.338  0.00  0.00    +0.112 C 
BRANCH   8  10
ATOM      9  O   UNL     1       1.334   1.800  -1.420  0.00  0.00    -0.250 OA
ATOM     10  C   UNL     1       1.698   1.564  -0.277  0.00  0.00    +0.314 C 
BRANCH  10  11
ATOM     11  O   UNL     1       1.995   2.542   0.620  0.00  0.00    -0.480 OA
ATOM     12  H   UNL     1       2.270   2.315   1.486  0.00  0.00    +0.295 HD
ENDBRANCH  10  11
ENDBRANCH   8  10
ENDBRANCH   1   8
BRANCH   1  13
ATOM     13  C   UNL     1       1.054  -2.278   0.347  0.00  0.00    -0.081 C 
BRANCH  13  14
ATOM     14  N   UNL     1       2.416  -2.787   0.233  0.00  0.00    +0.381 N 
ATOM     15  H   UNL     1       2.468  -3.716   0.650  0.00  0.00    -0.089 HD
ATOM     16  H   UNL     1       3.055  -2.159   0.720  0.00  0.00    -0.089 HD
ATOM     17  H   UNL     1       2.677  -2.841  -0.752  0.00  0.00    -0.089 HD
ENDBRANCH  13  14
ENDBRANCH   1  13
TORSDOF 6
