REMARK  Name = 47979
REMARK  9 active torsions:
REMARK  status: ('A' for Active; 'I' for Inactive)
REMARK    1  A    between atoms: C_1  and  C_9
REMARK    2  A    between atoms: C_2  and  O_27
REMARK    3  A    between atoms: C_4  and  S_21
REMARK    4  A    between atoms: C_5  and  O_29
REMARK    5  A    between atoms: N_8  and  C_11
REMARK    6  A    between atoms: C_11  and  C_13
REMARK    7  A    between atoms: N_12  and  C_18
REMARK    8  A    between atoms: C_18  and  C_19
REMARK    9  A    between atoms: S_21  and  N_24
REMARK                            x       y       z     vdW  Elec       q    Type
REMARK                         _______ _______ _______ _____ _____    ______ ____
ROOT
ATOM      1  C   UNL     1       1.253   0.616   0.198  0.00  0.00    +0.092 C 
ATOM      2  C   UNL     1       2.216   1.623   0.126  0.00  0.00    +0.177 C 
ATOM      3  C   UNL     1       1.645  -0.722   0.244  0.00  0.00    +0.028 C 
ATOM      4  C   UNL     1       2.999  -1.053   0.219  0.00  0.00    +0.125 C 
ATOM      5  C   UNL     1       3.571   1.292   0.101  0.00  0.00    +0.174 C 
ATOM      6  C   UNL     1       3.962  -0.046   0.148  0.00  0.00    +0.060 C 
ENDROOT
BRANCH   1   9
ATOM      7  O   UNL     1      -0.633   1.657   1.125  0.00  0.00    -0.270 OA
ATOM      8  N   UNL     1      -0.965   0.428  -0.815  0.00  0.00    -0.303 N 
ATOM      9  C   UNL     1      -0.196   0.946   0.225  0.00  0.00    +0.249 C 
ATOM     10  H   UNL     1      -0.524  -0.133  -1.492  0.00  0.00    +0.150 HD
BRANCH   8  11
ATOM     11  C   UNL     1      -2.370   0.678  -0.940  0.00  0.00    +0.069 C 
BRANCH  11  13
ATOM     12  N   UNL     1      -4.635  -0.230  -0.389  0.00  0.00    +0.392 N 
ATOM     13  C   UNL     1      -3.184  -0.382  -0.209  0.00  0.00    -0.038 C 
ATOM     14  C   UNL     1      -2.921  -1.783  -0.764  0.00  0.00    -0.021 C 
ATOM     15  C   UNL     1      -4.247  -2.525  -0.631  0.00  0.00    -0.025 C 
ATOM     16  C   UNL     1      -5.201  -1.524  -0.001  0.00  0.00    -0.077 C 
ATOM     17  H   UNL     1      -4.855   0.021  -1.353  0.00  0.00    -0.079 HD
BRANCH  12  18
ATOM     18  C   UNL     1      -5.203   0.858   0.398  0.00  0.00    -0.050 C 
BRANCH  18  19
ATOM     19  C   UNL     1      -6.688   0.950   0.222  0.00  0.00    -0.049 C 
ATOM     20  C   UNL     1      -7.569   0.811   1.219  0.00  0.00    -0.007 C 
ENDBRANCH  18  19
ENDBRANCH  12  18
ENDBRANCH  11  13
ENDBRANCH   8  11
ENDBRANCH   1   9
BRANCH   4  21
ATOM     21  S   UNL     1       3.490  -2.728   0.278  0.00  0.00    +0.057 S 
ATOM     22  O   UNL     1       4.844  -2.791   0.810  0.00  0.00    -0.153 OA
ATOM     23  O   UNL     1       2.428  -3.498   0.910  0.00  0.00    -0.153 OA
BRANCH  21  24
ATOM     24  N   UNL     1       3.533  -3.113  -1.386  0.00  0.00    -0.203 NA
ATOM     25  H   UNL     1       3.812  -4.087  -1.502  0.00  0.00    +0.144 HD
ATOM     26  H   UNL     1       4.205  -2.508  -1.858  0.00  0.00    +0.144 HD
ENDBRANCH  21  24
ENDBRANCH   4  21
BRANCH   2  27
ATOM     27  O   UNL     1       1.840   2.933   0.079  0.00  0.00    -0.468 OA
ATOM     28  C   UNL     1       1.626   3.498  -1.212  0.00  0.00    +0.253 C 
ENDBRANCH   2  27
BRANCH   5  29
ATOM     29  O   UNL     1       4.522   2.265   0.032  0.00  0.00    -0.468 OA
ATOM     30  C   UNL     1       5.883   1.840   0.011  0.00  0.00    +0.253 C 
ENDBRANCH   5  29
TORSDOF 9
