REMARK  Name = 10404
REMARK  7 active torsions:
REMARK  status: ('A' for Active; 'I' for Inactive)
REMARK    1  A    between atoms: S_1  and  C_3
REMARK    2  A    between atoms: S_1  and  S_7
REMARK    3  A    between atoms: C_3  and  O_4
REMARK    4  A    between atoms: O_4  and  C_5
REMARK    5  A    between atoms: S_7  and  C_9
REMARK    6  A    between atoms: C_9  and  O_10
REMARK    7  A    between atoms: O_10  and  C_11
REMARK                            x       y       z     vdW  Elec       q    Type
REMARK                         _______ _______ _______ _____ _____    ______ ____
ROOT
ATOM      1  S   UNL     1       0.482   0.898  -1.292  0.00  0.00    -0.003 S 
ENDROOT
BRANCH   1   3
ATOM      2  S   UNL     1       2.695   2.310   0.192  0.00  0.00    -0.003 S 
ATOM      3  C   UNL     1       1.977   0.901  -0.365  0.00  0.00    +0.212 C 
BRANCH   3   4
ATOM      4  O   UNL     1       2.676  -0.235  -0.076  0.00  0.00    -0.464 OA
BRANCH   4   5
ATOM      5  C   UNL     1       2.195  -1.526  -0.484  0.00  0.00    +0.207 C 
ATOM      6  C   UNL     1       3.182  -2.583  -0.036  0.00  0.00    +0.051 C 
ENDBRANCH   4   5
ENDBRANCH   3   4
ENDBRANCH   1   3
BRANCH   1   7
ATOM      7  S   UNL     1      -0.844   1.715   0.057  0.00  0.00    -0.003 S 
BRANCH   7   9
ATOM      8  S   UNL     1      -0.675  -0.372   2.228  0.00  0.00    -0.003 S 
ATOM      9  C   UNL     1      -1.437   0.281   0.885  0.00  0.00    +0.212 C 
BRANCH   9  10
ATOM     10  O   UNL     1      -2.529  -0.421   0.466  0.00  0.00    -0.464 OA
BRANCH  10  11
ATOM     11  C   UNL     1      -3.295   0.006  -0.673  0.00  0.00    +0.207 C 
ATOM     12  C   UNL     1      -4.427  -0.973  -0.902  0.00  0.00    +0.051 C 
ENDBRANCH  10  11
ENDBRANCH   9  10
ENDBRANCH   7   9
ENDBRANCH   1   7
TORSDOF 7
