REMARK  Name = 2447
REMARK  2 active torsions:
REMARK  status: ('A' for Active; 'I' for Inactive)
REMARK    1  A    between atoms: C_5  and  C_11
REMARK    2  A    between atoms: C_11  and  C_12
REMARK                            x       y       z     vdW  Elec       q    Type
REMARK                         _______ _______ _______ _____ _____    ______ ____
ROOT
ATOM      1  O   UNL     1      -0.272  -0.560  -1.486  0.00  0.00    -0.274 OA
ATOM      2  O   UNL     1      -2.985  -0.036  -0.967  0.00  0.00    -0.253 OA
ATOM      3  N   UNL     1      -1.214   0.058   0.554  0.00  0.00    -0.239 N 
ATOM      4  N   UNL     1      -3.365   0.534   1.226  0.00  0.00    -0.313 N 
ATOM      5  C   UNL     1      -0.161  -0.297  -0.290  0.00  0.00    +0.239 C 
ATOM      6  C   UNL     1      -2.554   0.166   0.167  0.00  0.00    +0.303 C 
ATOM      7  H   UNL     1      -0.998   0.246   1.495  0.00  0.00    +0.159 HD
ATOM      8  H   UNL     1      -4.333   0.646   1.089  0.00  0.00    +0.146 HD
ATOM      9  H   UNL     1      -2.973   0.685   2.117  0.00  0.00    +0.146 HD
ENDROOT
BRANCH   5  11
ATOM     10 BR   UNL     1       1.601  -2.279   0.410  0.00  0.00    -0.072 Br
ATOM     11  C   UNL     1       1.173  -0.361   0.442  0.00  0.00    +0.133 C 
BRANCH  11  12
ATOM     12  C   UNL     1       2.284   0.459  -0.239  0.00  0.00    +0.019 C 
ATOM     13  C   UNL     1       3.613   0.379   0.525  0.00  0.00    +0.001 C 
ATOM     14  C   UNL     1       1.880   1.937  -0.342  0.00  0.00    +0.001 C 
ENDBRANCH  11  12
ENDBRANCH   5  11
TORSDOF 2
