REMARK  Name = 11508377
REMARK  3 active torsions:
REMARK  status: ('A' for Active; 'I' for Inactive)
REMARK    1  A    between atoms: C_14  and  O_23
REMARK    2  A    between atoms: C_18  and  O_21
REMARK    3  A    between atoms: O_23  and  C_25
REMARK                            x       y       z     vdW  Elec       q    Type
REMARK                         _______ _______ _______ _____ _____    ______ ____
ROOT
ATOM      1  O   UNL     1      -1.084  -1.156  -0.999  0.00  0.00    -0.469 OA
ATOM      2  N   UNL     1       2.610   2.529  -0.550  0.00  0.00    +0.387 N 
ATOM      3  C   UNL     1       0.285   0.794  -0.532  0.00  0.00    +0.062 C 
ATOM      4  C   UNL     1       0.525   1.865   0.537  0.00  0.00    -0.007 C 
ATOM      5  C   UNL     1       2.072   1.983   0.719  0.00  0.00    -0.053 C 
ATOM      6  C   UNL     1      -1.161   0.285  -0.708  0.00  0.00    +0.225 C 
ATOM      7  C   UNL     1       0.917   1.251  -1.863  0.00  0.00    -0.015 C 
ATOM      8  C   UNL     1       0.901  -0.483  -0.086  0.00  0.00    +0.014 C 
ATOM      9  C   UNL     1       2.731   0.632   1.180  0.00  0.00    +0.005 C 
ATOM     10  C   UNL     1      -0.234   1.595   1.850  0.00  0.00    +0.027 C 
ATOM     11  C   UNL     1       2.392   1.661  -1.711  0.00  0.00    -0.077 C 
ATOM     12  C   UNL     1       2.062  -0.612   0.653  0.00  0.00    -0.025 C 
ATOM     13  C   UNL     1       0.105  -1.552  -0.436  0.00  0.00    +0.168 C 
ATOM     14  C   UNL     1      -2.046   0.499   0.499  0.00  0.00    +0.162 C 
ATOM     15  C   UNL     1      -1.628   1.082   1.633  0.00  0.00    +0.011 C 
ATOM     16  C   UNL     1       4.003   2.953  -0.456  0.00  0.00    -0.101 C 
ATOM     17  C   UNL     1       2.478  -1.910   0.950  0.00  0.00    -0.001 C 
ATOM     18  C   UNL     1       0.500  -2.842  -0.163  0.00  0.00    +0.172 C 
ATOM     19  C   UNL     1       1.709  -3.016   0.527  0.00  0.00    +0.040 C 
ATOM     20  H   UNL     1       2.055   3.369  -0.712  0.00  0.00    -0.080 HD
ENDROOT
BRANCH  18  21
ATOM     21  O   UNL     1      -0.259  -3.908  -0.513  0.00  0.00    -0.468 OA
ATOM     22  C   UNL     1       0.242  -5.206  -0.183  0.00  0.00    +0.253 C 
ENDBRANCH  18  21
BRANCH  14  23
ATOM     23  O   UNL     1      -3.348   0.051   0.388  0.00  0.00    -0.425 OA
BRANCH  23  25
ATOM     24  O   UNL     1      -3.967   2.137  -0.441  0.00  0.00    -0.250 OA
ATOM     25  C   UNL     1      -4.220   0.987  -0.104  0.00  0.00    +0.322 C 
ATOM     26  C   UNL     1      -5.589   0.380  -0.189  0.00  0.00    +0.122 C 
ENDBRANCH  23  25
ENDBRANCH  14  23
TORSDOF 3
