REMARK  Name = 65624
REMARK  5 active torsions:
REMARK  status: ('A' for Active; 'I' for Inactive)
REMARK    1  A    between atoms: N_2  and  C_12
REMARK    2  A    between atoms: C_4  and  C_18
REMARK    3  A    between atoms: C_12  and  C_13
REMARK    4  A    between atoms: C_13  and  N_14
REMARK    5  A    between atoms: C_18  and  C_19
REMARK                            x       y       z     vdW  Elec       q    Type
REMARK                         _______ _______ _______ _____ _____    ______ ____
ROOT
ATOM      1  O   UNL     1      -2.419   1.783   1.281  0.00  0.00    -0.266 OA
ATOM      2  N   UNL     1      -1.520  -0.098   0.262  0.00  0.00    -0.219 N 
ATOM      3  N   UNL     1      -0.510  -0.694  -0.434  0.00  0.00    -0.171 NA
ATOM      4  C   UNL     1       0.532   0.000  -0.767  0.00  0.00    +0.083 A 
ATOM      5  C   UNL     1       0.698   1.425  -0.434  0.00  0.00    +0.020 A 
ATOM      6  C   UNL     1      -0.331   2.031   0.277  0.00  0.00    +0.059 A 
ATOM      7  C   UNL     1      -1.514   1.237   0.653  0.00  0.00    +0.276 A 
ATOM      8  C   UNL     1       1.827   2.163  -0.800  0.00  0.00    +0.001 C 
ATOM      9  C   UNL     1      -0.241   3.383   0.628  0.00  0.00    +0.005 C 
ATOM     10  C   UNL     1       1.917   3.512  -0.450  0.00  0.00    +0.000 C 
ATOM     11  C   UNL     1       0.885   4.120   0.262  0.00  0.00    +0.000 C 
ENDROOT
BRANCH   2  12
ATOM     12  C   UNL     1      -2.635  -0.975   0.578  0.00  0.00    +0.108 C 
BRANCH  12  13
ATOM     13  C   UNL     1      -3.663  -0.920  -0.545  0.00  0.00    -0.051 C 
BRANCH  13  14
ATOM     14  N   UNL     1      -4.777  -1.816  -0.258  0.00  0.00    +0.385 N 
ATOM     15  C   UNL     1      -5.750  -1.796  -1.352  0.00  0.00    -0.101 C 
ATOM     16  C   UNL     1      -5.423  -1.448   1.003  0.00  0.00    -0.101 C 
ATOM     17  H   UNL     1      -4.408  -2.763  -0.169  0.00  0.00    -0.080 HD
ENDBRANCH  13  14
ENDBRANCH  12  13
ENDBRANCH   2  12
BRANCH   4  18
ATOM     18  C   UNL     1       1.621  -0.709  -1.537  0.00  0.00    +0.074 C 
BRANCH  18  19
ATOM     19  C   UNL     1       2.621  -1.309  -0.600  0.00  0.00    -0.016 C 
ATOM     20  C   UNL     1       2.185  -2.010   0.522  0.00  0.00    -0.004 C 
ATOM     21  C   UNL     1       3.982  -1.163  -0.853  0.00  0.00    -0.004 C 
ATOM     22  C   UNL     1       3.117  -2.569   1.396  0.00  0.00    -0.000 C 
ATOM     23  C   UNL     1       4.914  -1.723   0.022  0.00  0.00    -0.000 C 
ATOM     24  C   UNL     1       4.482  -2.426   1.146  0.00  0.00    -0.000 C 
ENDBRANCH  18  19
ENDBRANCH   4  18
TORSDOF 5
