REMARK  Name = 5362
REMARK  12 active torsions:
REMARK  status: ('A' for Active; 'I' for Inactive)
REMARK    1  A    between atoms: N_3  and  C_8
REMARK    2  A    between atoms: N_4  and  C_14
REMARK    3  A    between atoms: C_5  and  C_20
REMARK    4  A    between atoms: C_5  and  C_24
REMARK    5  A    between atoms: C_20  and  C_21
REMARK    6  A    between atoms: C_21  and  C_22
REMARK    7  A    between atoms: C_24  and  O_25
REMARK    8  A    between atoms: O_25  and  C_27
REMARK    9  A    between atoms: C_27  and  C_28
REMARK   10  A    between atoms: C_28  and  C_29
REMARK   11  A    between atoms: C_29  and  C_31
REMARK   12  A    between atoms: C_31  and  O_32
REMARK                            x       y       z     vdW  Elec       q    Type
REMARK                         _______ _______ _______ _____ _____    ______ ____
ROOT
ATOM      1  O   UNL     1      -1.048  -1.739   2.129  0.00  0.00    -0.272 OA
ATOM      2  O   UNL     1      -0.286  -1.231  -2.512  0.00  0.00    -0.272 OA
ATOM      3  N   UNL     1      -1.225   0.082   0.607  0.00  0.00    -0.179 N 
ATOM      4  N   UNL     1      -0.887   0.258  -0.756  0.00  0.00    -0.179 N 
ATOM      5  C   UNL     1      -0.547  -1.994  -0.227  0.00  0.00    +0.181 C 
ATOM      6  C   UNL     1      -0.934  -1.226   1.025  0.00  0.00    +0.257 C 
ATOM      7  C   UNL     1      -0.580  -0.975  -1.353  0.00  0.00    +0.257 C 
ENDROOT
BRANCH   3   8
ATOM      8  C   UNL     1      -2.113   0.935   1.330  0.00  0.00    +0.073 C 
ATOM      9  C   UNL     1      -2.238   0.801   2.713  0.00  0.00    +0.017 C 
ATOM     10  C   UNL     1      -2.855   1.903   0.653  0.00  0.00    +0.017 C 
ATOM     11  C   UNL     1      -3.105   1.635   3.419  0.00  0.00    +0.001 C 
ATOM     12  C   UNL     1      -3.722   2.737   1.359  0.00  0.00    +0.001 C 
ATOM     13  C   UNL     1      -3.847   2.603   2.742  0.00  0.00    +0.000 C 
ENDBRANCH   3   8
BRANCH   4  14
ATOM     14  C   UNL     1      -0.492   1.504  -1.330  0.00  0.00    +0.073 C 
ATOM     15  C   UNL     1      -0.935   1.856  -2.605  0.00  0.00    +0.017 C 
ATOM     16  C   UNL     1       0.335   2.371  -0.615  0.00  0.00    +0.017 C 
ATOM     17  C   UNL     1      -0.550   3.074  -3.165  0.00  0.00    +0.001 C 
ATOM     18  C   UNL     1       0.720   3.589  -1.175  0.00  0.00    +0.001 C 
ATOM     19  C   UNL     1       0.277   3.940  -2.451  0.00  0.00    +0.000 C 
ENDBRANCH   4  14
BRANCH   5  20
ATOM     20  C   UNL     1      -1.566  -3.097  -0.502  0.00  0.00    +0.021 C 
BRANCH  20  21
ATOM     21  C   UNL     1      -2.957  -2.518  -0.747  0.00  0.00    +0.001 C 
BRANCH  21  22
ATOM     22  C   UNL     1      -3.968  -3.622  -1.054  0.00  0.00    +0.000 C 
ATOM     23  C   UNL     1      -5.349  -3.052  -1.332  0.00  0.00    +0.000 C 
ENDBRANCH  21  22
ENDBRANCH  20  21
ENDBRANCH   5  20
BRANCH   5  24
ATOM     24  C   UNL     1       0.864  -2.556  -0.070  0.00  0.00    +0.226 C 
BRANCH  24  25
ATOM     25  O   UNL     1       1.760  -1.476   0.117  0.00  0.00    -0.447 OA
BRANCH  25  27
ATOM     26  O   UNL     1       3.529  -2.949   0.267  0.00  0.00    -0.250 OA
ATOM     27  C   UNL     1       3.083  -1.810   0.276  0.00  0.00    +0.318 C 
BRANCH  27  28
ATOM     28  C   UNL     1       3.899  -0.549   0.466  0.00  0.00    +0.121 C 
BRANCH  28  29
ATOM     29  C   UNL     1       5.396  -0.815   0.565  0.00  0.00    +0.121 C 
BRANCH  29  31
ATOM     30  O   UNL     1       5.657   1.581   0.739  0.00  0.00    -0.250 OA
ATOM     31  C   UNL     1       6.173   0.472   0.697  0.00  0.00    +0.314 C 
BRANCH  31  32
ATOM     32  O   UNL     1       7.510   0.268   0.789  0.00  0.00    -0.480 OA
ATOM     33  H   UNL     1       7.855  -0.603   0.751  0.00  0.00    +0.295 HD
ENDBRANCH  31  32
ENDBRANCH  29  31
ENDBRANCH  28  29
ENDBRANCH  27  28
ENDBRANCH  25  27
ENDBRANCH  24  25
ENDBRANCH   5  24
TORSDOF 12
