REMARK  Name = 65709
REMARK  8 active torsions:
REMARK  status: ('A' for Active; 'I' for Inactive)
REMARK    1  A    between atoms: N_2  and  C_12
REMARK    2  A    between atoms: C_6  and  C_20
REMARK    3  A    between atoms: C_12  and  C_13
REMARK    4  A    between atoms: C_13  and  N_14
REMARK    5  A    between atoms: N_14  and  C_16
REMARK    6  A    between atoms: N_14  and  C_18
REMARK    7  A    between atoms: C_20  and  C_21
REMARK    8  A    between atoms: C_26  and  O_27
REMARK                            x       y       z     vdW  Elec       q    Type
REMARK                         _______ _______ _______ _____ _____    ______ ____
ROOT
ATOM      1  O   UNL     1       0.204   0.774  -2.048  0.00  0.00    -0.267 OA
ATOM      2  N   UNL     1       1.534  -0.641  -0.743  0.00  0.00    -0.253 N 
ATOM      3  N   UNL     1      -0.739  -2.321  -0.660  0.00  0.00    -0.404 NA
ATOM      4  C   UNL     1       1.590  -1.870  -0.028  0.00  0.00    +0.080 C 
ATOM      5  C   UNL     1       0.373  -0.254  -1.403  0.00  0.00    +0.279 C 
ATOM      6  C   UNL     1      -0.791  -1.206  -1.310  0.00  0.00    +0.166 C 
ATOM      7  C   UNL     1       0.446  -2.679  -0.006  0.00  0.00    +0.127 C 
ATOM      8  C   UNL     1       2.743  -2.295   0.651  0.00  0.00    +0.017 C 
ATOM      9  C   UNL     1       0.471  -3.896   0.690  0.00  0.00    +0.086 C 
ATOM     10  C   UNL     1       2.755  -3.508   1.342  0.00  0.00    -0.003 C 
ATOM     11  C   UNL     1       1.619  -4.310   1.361  0.00  0.00    -0.019 C 
ENDROOT
BRANCH   2  12
ATOM     12  C   UNL     1       2.706   0.226  -0.786  0.00  0.00    +0.076 C 
BRANCH  12  13
ATOM     13  C   UNL     1       2.702   1.216   0.370  0.00  0.00    -0.055 C 
BRANCH  13  14
ATOM     14  N   UNL     1       3.894   2.052   0.325  0.00  0.00    +0.388 N 
ATOM     15  H   UNL     1       4.710   1.447   0.415  0.00  0.00    -0.080 HD
BRANCH  14  16
ATOM     16  C   UNL     1       3.979   2.761  -0.954  0.00  0.00    -0.077 C 
ATOM     17  C   UNL     1       5.253   3.585  -1.041  0.00  0.00    -0.025 C 
ENDBRANCH  14  16
BRANCH  14  18
ATOM     18  C   UNL     1       3.897   3.007   1.435  0.00  0.00    -0.077 C 
ATOM     19  C   UNL     1       3.809   2.293   2.773  0.00  0.00    -0.025 C 
ENDBRANCH  14  18
ENDBRANCH  13  14
ENDBRANCH  12  13
ENDBRANCH   2  12
BRANCH   6  20
ATOM     20  C   UNL     1      -2.059  -0.813  -2.014  0.00  0.00    +0.090 C 
BRANCH  20  21
ATOM     21  C   UNL     1      -2.949  -0.021  -1.105  0.00  0.00    -0.015 C 
ATOM     22  C   UNL     1      -2.834   1.364  -1.061  0.00  0.00    -0.001 C 
ATOM     23  C   UNL     1      -3.883  -0.678  -0.310  0.00  0.00    -0.001 C 
ATOM     24  C   UNL     1      -3.661   2.101  -0.214  0.00  0.00    +0.037 C 
ATOM     25  C   UNL     1      -4.710   0.059   0.538  0.00  0.00    +0.037 C 
ATOM     26  C   UNL     1      -4.599   1.448   0.586  0.00  0.00    +0.139 C 
BRANCH  26  27
ATOM     27  O   UNL     1      -5.407   2.168   1.412  0.00  0.00    -0.471 OA
ATOM     28  C   UNL     1      -6.344   1.438   2.202  0.00  0.00    +0.252 C 
ENDBRANCH  26  27
ENDBRANCH  20  21
ENDBRANCH   6  20
TORSDOF 8
