REMARK  Name = 5842
REMARK  4 active torsions:
REMARK  status: ('A' for Active; 'I' for Inactive)
REMARK    1  A    between atoms: C_6  and  C_12
REMARK    2  A    between atoms: C_6  and  C_15
REMARK    3  A    between atoms: C_12  and  C_13
REMARK    4  A    between atoms: C_15  and  C_16
REMARK                            x       y       z     vdW  Elec       q    Type
REMARK                         _______ _______ _______ _____ _____    ______ ____
ROOT
ATOM      1  O   UNL     1      -0.988   1.647  -1.649  0.00  0.00    -0.274 OA
ATOM      2  O   UNL     1       0.088  -1.190   1.935  0.00  0.00    -0.274 OA
ATOM      3  O   UNL     1       3.191   1.738   0.245  0.00  0.00    -0.252 OA
ATOM      4  N   UNL     1       1.129   1.621  -0.765  0.00  0.00    -0.239 N 
ATOM      5  N   UNL     1       1.667   0.203   1.025  0.00  0.00    -0.239 N 
ATOM      6  C   UNL     1      -0.388  -0.235  -0.243  0.00  0.00    +0.146 C 
ATOM      7  C   UNL     1      -0.145   1.101  -0.936  0.00  0.00    +0.237 C 
ATOM      8  C   UNL     1       0.442  -0.447   1.020  0.00  0.00    +0.237 C 
ATOM      9  C   UNL     1       2.080   1.212   0.163  0.00  0.00    +0.312 C 
ATOM     10  H   UNL     1       1.388   2.357  -1.365  0.00  0.00    +0.159 HD
ATOM     11  H   UNL     1       2.312  -0.080   1.712  0.00  0.00    +0.159 HD
ENDROOT
BRANCH   6  12
ATOM     12  C   UNL     1      -1.879  -0.376   0.094  0.00  0.00    +0.044 C 
BRANCH  12  13
ATOM     13  C   UNL     1      -2.341   0.764   0.941  0.00  0.00    -0.025 C 
ATOM     14  C   UNL     1      -3.296   1.624   0.571  0.00  0.00    -0.005 C 
ENDBRANCH  12  13
ENDBRANCH   6  12
BRANCH   6  15
ATOM     15  C   UNL     1       0.015  -1.339  -1.237  0.00  0.00    +0.044 C 
BRANCH  15  16
ATOM     16  C   UNL     1      -0.258  -2.693  -0.669  0.00  0.00    -0.025 C 
ATOM     17  C   UNL     1       0.683  -3.628  -0.493  0.00  0.00    -0.005 C 
ENDBRANCH  15  16
ENDBRANCH   6  15
TORSDOF 4
