REMARK  Name = 6434395
REMARK  9 active torsions:
REMARK  status: ('A' for Active; 'I' for Inactive)
REMARK    1  A    between atoms: N_2  and  C_24
REMARK    2  A    between atoms: C_8  and  C_10
REMARK    3  A    between atoms: C_11  and  C_12
REMARK    4  A    between atoms: C_15  and  O_18
REMARK    5  A    between atoms: C_16  and  O_20
REMARK    6  A    between atoms: C_17  and  O_22
REMARK    7  A    between atoms: C_24  and  C_26
REMARK    8  A    between atoms: C_26  and  O_27
REMARK    9  A    between atoms: O_27  and  C_28
REMARK                            x       y       z     vdW  Elec       q    Type
REMARK                         _______ _______ _______ _____ _____    ______ ____
ROOT
ATOM      1  O   UNL     1      -0.180  -3.474   0.907  0.00  0.00    -0.270 OA
ATOM      2  N   UNL     1      -4.421  -0.987  -0.014  0.00  0.00    +0.397 N 
ATOM      3  N   UNL     1      -1.693  -1.866   0.174  0.00  0.00    -0.280 N 
ATOM      4  C   UNL     1      -3.345  -0.016   0.223  0.00  0.00    -0.055 C 
ATOM      5  C   UNL     1      -4.095  -2.269   0.624  0.00  0.00    -0.055 C 
ATOM      6  C   UNL     1      -2.008  -0.522  -0.325  0.00  0.00    +0.071 C 
ATOM      7  C   UNL     1      -2.790  -2.829   0.064  0.00  0.00    +0.071 C 
ATOM      8  C   UNL     1      -0.444  -2.309   0.604  0.00  0.00    +0.249 C 
ATOM      9  H   UNL     1      -4.510  -1.137  -1.019  0.00  0.00    -0.079 HD
ENDROOT
BRANCH   8  10
ATOM     10  C   UNL     1       0.643  -1.315   0.696  0.00  0.00    +0.058 C 
ATOM     11  C   UNL     1       1.743  -1.504  -0.044  0.00  0.00    +0.005 C 
BRANCH  11  12
ATOM     12  C   UNL     1       2.914  -0.610  -0.053  0.00  0.00    +0.006 C 
ATOM     13  C   UNL     1       4.146  -1.079  -0.509  0.00  0.00    +0.040 C 
ATOM     14  C   UNL     1       2.791   0.706   0.393  0.00  0.00    +0.040 C 
ATOM     15  C   UNL     1       3.900   1.552   0.384  0.00  0.00    +0.175 C 
ATOM     16  C   UNL     1       5.255  -0.232  -0.519  0.00  0.00    +0.175 C 
ATOM     17  C   UNL     1       5.131   1.083  -0.072  0.00  0.00    +0.206 C 
BRANCH  15  18
ATOM     18  O   UNL     1       3.765   2.835   0.822  0.00  0.00    -0.468 OA
ATOM     19  C   UNL     1       3.407   3.817  -0.148  0.00  0.00    +0.253 C 
ENDBRANCH  15  18
BRANCH  16  20
ATOM     20  O   UNL     1       6.453  -0.703  -0.966  0.00  0.00    -0.468 OA
ATOM     21  C   UNL     1       6.493  -2.059  -1.405  0.00  0.00    +0.253 C 
ENDBRANCH  16  20
BRANCH  17  22
ATOM     22  O   UNL     1       6.215   1.911  -0.082  0.00  0.00    -0.465 OA
ATOM     23  C   UNL     1       7.024   1.932   1.092  0.00  0.00    +0.253 C 
ENDBRANCH  17  22
ENDBRANCH  11  12
ENDBRANCH   8  10
BRANCH   2  24
ATOM     24  C   UNL     1      -5.696  -0.474   0.486  0.00  0.00    +0.035 C 
BRANCH  24  26
ATOM     25  O   UNL     1      -6.039   0.534  -1.704  0.00  0.00    -0.252 OA
ATOM     26  C   UNL     1      -6.238   0.534  -0.497  0.00  0.00    +0.296 C 
BRANCH  26  27
ATOM     27  O   UNL     1      -6.988   1.450   0.187  0.00  0.00    -0.450 OA
BRANCH  27  28
ATOM     28  C   UNL     1      -7.576   2.484  -0.609  0.00  0.00    +0.208 C 
ATOM     29  C   UNL     1      -8.368   3.409   0.291  0.00  0.00    +0.051 C 
ENDBRANCH  27  28
ENDBRANCH  26  27
ENDBRANCH  24  26
ENDBRANCH   2  24
TORSDOF 9
