REMARK  Name = 10060509
REMARK  5 active torsions:
REMARK  status: ('A' for Active; 'I' for Inactive)
REMARK    1  A    between atoms: N_1  and  C_2
REMARK    2  A    between atoms: N_1  and  N_11
REMARK    3  A    between atoms: C_2  and  C_5
REMARK    4  A    between atoms: N_11  and  C_14
REMARK    5  A    between atoms: N_12  and  O_18
REMARK                            x       y       z     vdW  Elec       q    Type
REMARK                         _______ _______ _______ _____ _____    ______ ____
ROOT
ATOM      1  N   UNL     1      -1.011  -0.022   0.199  0.00  0.00    -0.092 NA
ENDROOT
BRANCH   1   2
ATOM      2  C   UNL     1       0.054  -0.030   0.932  0.00  0.00    +0.144 C 
BRANCH   2   5
ATOM      3 CL   UNL     1       1.305  -2.740   0.340  0.00  0.00    -0.082 Cl
ATOM      4 CL   UNL     1       1.267   2.720   0.457  0.00  0.00    -0.082 Cl
ATOM      5  C   UNL     1       1.406  -0.008   0.348  0.00  0.00    +0.019 C 
ATOM      6  C   UNL     1       2.045  -1.205   0.048  0.00  0.00    +0.056 C 
ATOM      7  C   UNL     1       2.029   1.210   0.102  0.00  0.00    +0.056 C 
ATOM      8  C   UNL     1       3.325  -1.185  -0.505  0.00  0.00    +0.011 C 
ATOM      9  C   UNL     1       3.309   1.231  -0.452  0.00  0.00    +0.011 C 
ATOM     10  C   UNL     1       3.957   0.033  -0.755  0.00  0.00    +0.002 C 
ENDBRANCH   2   5
ENDBRANCH   1   2
BRANCH   1  11
ATOM     11  N   UNL     1      -2.153  -0.048   0.994  0.00  0.00    -0.143 NA
BRANCH  11  14
ATOM     12  N   UNL     1      -3.260  -0.004  -1.089  0.00  0.00    -0.236 N 
ATOM     13  N   UNL     1      -4.535  -0.062   0.797  0.00  0.00    -0.367 N 
ATOM     14  C   UNL     1      -3.254  -0.041   0.287  0.00  0.00    +0.233 C 
ATOM     15  H   UNL     1      -2.428  -0.083  -1.611  0.00  0.00    +0.197 HD
ATOM     16  H   UNL     1      -4.678  -0.089   1.770  0.00  0.00    +0.159 HD
ATOM     17  H   UNL     1      -5.308  -0.050   0.186  0.00  0.00    +0.159 HD
BRANCH  12  18
ATOM     18  O   UNL     1      -4.484   0.149  -1.702  0.00  0.00    -0.287 OA
ATOM     19  H   UNL     1      -4.364   0.161  -2.665  0.00  0.00    +0.244 HD
ENDBRANCH  12  18
ENDBRANCH  11  14
ENDBRANCH   1  11
TORSDOF 5
