REMARK  Name = 4047
REMARK  6 active torsions:
REMARK  status: ('A' for Active; 'I' for Inactive)
REMARK    1  A    between atoms: C_2  and  S_8
REMARK    2  A    between atoms: C_5  and  S_20
REMARK    3  A    between atoms: S_8  and  N_11
REMARK    4  A    between atoms: N_11  and  C_13
REMARK    5  A    between atoms: C_13  and  C_15
REMARK    6  A    between atoms: S_20  and  N_23
REMARK                            x       y       z     vdW  Elec       q    Type
REMARK                         _______ _______ _______ _____ _____    ______ ____
ROOT
ATOM      1 CL   UNL     1       4.372   2.204   1.175  0.00  0.00    -0.081 Cl
ATOM      2  C   UNL     1       0.844  -0.549   0.796  0.00  0.00    +0.124 C 
ATOM      3  C   UNL     1       1.864  -0.656  -0.131  0.00  0.00    +0.041 C 
ATOM      4  C   UNL     1       0.887   0.375   1.823  0.00  0.00    +0.021 C 
ATOM      5  C   UNL     1       2.967   0.192  -0.027  0.00  0.00    +0.133 C 
ATOM      6  C   UNL     1       1.990   1.223   1.927  0.00  0.00    +0.014 C 
ATOM      7  C   UNL     1       3.030   1.131   1.002  0.00  0.00    +0.076 C 
ENDROOT
BRANCH   2   8
ATOM      8  S   UNL     1      -0.555  -1.627   0.665  0.00  0.00    +0.063 S 
ATOM      9  O   UNL     1      -0.119  -2.816  -0.043  0.00  0.00    -0.153 OA
ATOM     10  O   UNL     1      -1.124  -1.756   1.994  0.00  0.00    -0.153 OA
BRANCH   8  11
ATOM     11  N   UNL     1      -1.630  -0.724  -0.346  0.00  0.00    -0.152 NA
ATOM     12  C   UNL     1      -1.145  -0.368  -1.709  0.00  0.00    +0.115 C 
BRANCH  11  13
ATOM     13  C   UNL     1      -2.419   0.358   0.269  0.00  0.00    +0.123 C 
BRANCH  13  15
ATOM     14  O   UNL     1      -4.184   0.088  -1.336  0.00  0.00    -0.357 OA
ATOM     15  C   UNL     1      -3.910   0.068   0.080  0.00  0.00    +0.109 C 
ATOM     16  C   UNL     1      -4.788   1.156   0.698  0.00  0.00    +0.031 C 
ATOM     17  C   UNL     1      -4.940   2.142  -0.435  0.00  0.00    +0.035 C 
ATOM     18  C   UNL     1      -5.002   1.227  -1.637  0.00  0.00    +0.142 C 
ATOM     19  C   UNL     1      -4.251  -1.317   0.623  0.00  0.00    +0.031 C 
ENDBRANCH  13  15
ENDBRANCH  11  13
ENDBRANCH   8  11
ENDBRANCH   2   8
BRANCH   5  20
ATOM     20  S   UNL     1       4.243   0.031  -1.218  0.00  0.00    +0.058 S 
ATOM     21  O   UNL     1       3.671  -0.559  -2.418  0.00  0.00    -0.153 OA
ATOM     22  O   UNL     1       4.955   1.297  -1.297  0.00  0.00    -0.153 OA
BRANCH  20  23
ATOM     23  N   UNL     1       5.246  -1.121  -0.456  0.00  0.00    -0.203 NA
ATOM     24  H   UNL     1       6.051  -1.317  -1.051  0.00  0.00    +0.144 HD
ATOM     25  H   UNL     1       4.720  -1.981  -0.302  0.00  0.00    +0.144 HD
ENDBRANCH  20  23
ENDBRANCH   5  20
TORSDOF 6
