REMARK  Name = 19596
REMARK  4 active torsions:
REMARK  status: ('A' for Active; 'I' for Inactive)
REMARK    1  A    between atoms: S_1  and  C_4
REMARK    2  A    between atoms: S_1  and  N_13
REMARK    3  A    between atoms: C_9  and  N_10
REMARK    4  A    between atoms: C_19  and  O_22
REMARK                            x       y       z     vdW  Elec       q    Type
REMARK                         _______ _______ _______ _____ _____    ______ ____
ROOT
ATOM      1  S   UNL     1       1.480  -2.184  -0.253  0.00  0.00    +0.075 S 
ATOM      2  O   UNL     1       2.538  -2.755  -1.077  0.00  0.00    -0.150 OA
ATOM      3  O   UNL     1       1.157  -2.798   1.029  0.00  0.00    -0.150 OA
ENDROOT
BRANCH   1   4
ATOM      4  N   UNL     1       0.054  -2.045  -1.204  0.00  0.00    -0.191 N 
ATOM      5  H   UNL     1      -0.057  -2.532  -2.052  0.00  0.00    +0.176 HD
ATOM      6  N   UNL     1      -1.598  -1.605   0.421  0.00  0.00    -0.331 NA
ATOM      7  N   UNL     1      -2.901   0.421   0.365  0.00  0.00    -0.311 NA
ATOM      8  C   UNL     1      -0.995  -1.149  -0.670  0.00  0.00    +0.198 C 
ATOM      9  C   UNL     1      -1.230   0.016  -1.319  0.00  0.00    +0.177 C 
ATOM     10  C   UNL     1      -2.221   0.784  -0.743  0.00  0.00    +0.272 C 
ATOM     11  C   UNL     1      -2.543  -0.767   0.887  0.00  0.00    +0.119 C 
ATOM     12  C   UNL     1      -3.272  -1.201   2.114  0.00  0.00    +0.143 C 
BRANCH  10  13
ATOM     13  O   UNL     1      -2.551   1.986  -1.310  0.00  0.00    -0.450 OA
ATOM     14  C   UNL     1      -3.579   2.735  -0.672  0.00  0.00    +0.255 C 
ENDBRANCH  10  13
ENDBRANCH   1   4
BRANCH   1  15
ATOM     15  C   UNL     1       1.853  -0.504   0.043  0.00  0.00    +0.125 C 
ATOM     16  C   UNL     1       1.330   0.139   1.165  0.00  0.00    +0.021 C 
ATOM     17  C   UNL     1       2.675   0.194  -0.842  0.00  0.00    +0.021 C 
ATOM     18  C   UNL     1       1.628   1.481   1.401  0.00  0.00    +0.015 C 
ATOM     19  C   UNL     1       2.973   1.536  -0.606  0.00  0.00    +0.015 C 
ATOM     20  C   UNL     1       2.450   2.180   0.516  0.00  0.00    +0.042 C 
BRANCH  20  21
ATOM     21  N   UNL     1       2.752   3.537   0.755  0.00  0.00    -0.357 N 
ATOM     22  H   UNL     1       2.383   3.991   1.547  0.00  0.00    +0.142 HD
ATOM     23  H   UNL     1       3.332   4.029   0.131  0.00  0.00    +0.142 HD
ENDBRANCH  20  21
ENDBRANCH   1  15
TORSDOF 4
