4832
  -OEChem-10061700313D

 54 56  0     1  0  0  0  0  0999 V2000
    1.0094   -0.2796   -0.4093 O   0  0  0  0  0  0  0  0  0  0  0  0
   -0.7019   -0.4546    1.6289 O   0  0  0  0  0  0  0  0  0  0  0  0
   -0.4716   -1.8091   -1.2782 O   0  0  0  0  0  0  0  0  0  0  0  0
    4.0360   -0.3257    0.3271 N   0  3  1  0  0  0  0  0  0  0  0  0
    3.3390   -0.0451   -1.0155 C   0  0  0  0  0  0  0  0  0  0  0  0
    4.1958   -1.8295    0.5660 C   0  0  0  0  0  0  0  0  0  0  0  0
    2.0483   -0.8396   -1.2049 C   0  0  1  0  0  0  0  0  0  0  0  0
    2.8682   -2.5646    0.4489 C   0  0  0  0  0  0  0  0  0  0  0  0
    2.2157   -2.3248   -0.9055 C   0  0  0  0  0  0  0  0  0  0  0  0
    5.4416    0.2937    0.2610 C   0  0  0  0  0  0  0  0  0  0  0  0
    3.3134    0.3440    1.4960 C   0  0  0  0  0  0  0  0  0  0  0  0
    5.3198    1.7785   -0.0028 C   0  0  0  0  0  0  0  0  0  0  0  0
   -0.2258   -0.8636   -0.5388 C   0  0  0  0  0  0  0  0  0  0  0  0
   -1.2569   -0.1439    0.3345 C   0  0  0  0  0  0  0  0  0  0  0  0
   -2.6747   -0.7086    0.2169 C   0  0  0  0  0  0  0  0  0  0  0  0
   -1.2540    1.3718    0.1239 C   0  0  0  0  0  0  0  0  0  0  0  0
   -3.3549   -0.5391   -0.9670 C   0  0  0  0  0  0  0  0  0  0  0  0
   -1.4167    2.1892    1.2187 C   0  0  0  0  0  0  0  0  0  0  0  0
   -3.2144   -1.3635    1.2996 C   0  0  0  0  0  0  0  0  0  0  0  0
   -1.0891    1.8593   -1.1521 C   0  0  0  0  0  0  0  0  0  0  0  0
   -4.6471   -1.0532   -1.0740 C   0  0  0  0  0  0  0  0  0  0  0  0
   -1.4145    3.5709    1.0268 C   0  0  0  0  0  0  0  0  0  0  0  0
   -4.5066   -1.8778    1.1926 C   0  0  0  0  0  0  0  0  0  0  0  0
   -1.0868    3.2408   -1.3440 C   0  0  0  0  0  0  0  0  0  0  0  0
   -5.2229   -1.7226    0.0057 C   0  0  0  0  0  0  0  0  0  0  0  0
   -1.2495    4.0967   -0.2546 C   0  0  0  0  0  0  0  0  0  0  0  0
    4.0528   -0.3093   -1.8046 H   0  0  0  0  0  0  0  0  0  0  0  0
    3.1043    1.0225   -1.0629 H   0  0  0  0  0  0  0  0  0  0  0  0
    4.6345   -1.9623    1.5615 H   0  0  0  0  0  0  0  0  0  0  0  0
    4.9035   -2.2039   -0.1835 H   0  0  0  0  0  0  0  0  0  0  0  0
    1.7474   -0.7202   -2.2544 H   0  0  0  0  0  0  0  0  0  0  0  0
    2.1819   -2.2855    1.2547 H   0  0  0  0  0  0  0  0  0  0  0  0
    3.0526   -3.6390    0.5696 H   0  0  0  0  0  0  0  0  0  0  0  0
    2.8777   -2.7461   -1.6750 H   0  0  0  0  0  0  0  0  0  0  0  0
    1.3138   -2.9333   -0.9484 H   0  0  0  0  0  0  0  0  0  0  0  0
    5.9442    0.0940    1.2142 H   0  0  0  0  0  0  0  0  0  0  0  0
    5.9949   -0.2046   -0.5432 H   0  0  0  0  0  0  0  0  0  0  0  0
    2.4284   -0.2389    1.7536 H   0  0  0  0  0  0  0  0  0  0  0  0
    3.9840    0.3717    2.3601 H   0  0  0  0  0  0  0  0  0  0  0  0
    2.9892    1.3471    1.2086 H   0  0  0  0  0  0  0  0  0  0  0  0
    6.3307    2.2056    0.0024 H   0  0  0  0  0  0  0  0  0  0  0  0
    4.9145    2.0185   -0.9889 H   0  0  0  0  0  0  0  0  0  0  0  0
    4.7690    2.3294    0.7623 H   0  0  0  0  0  0  0  0  0  0  0  0
    0.0973    0.0835    1.7633 H   0  0  0  0  0  0  0  0  0  0  0  0
   -2.9251   -0.0455   -1.8304 H   0  0  0  0  0  0  0  0  0  0  0  0
   -1.5615    1.8013    2.2219 H   0  0  0  0  0  0  0  0  0  0  0  0
   -2.6894   -1.5022    2.2382 H   0  0  0  0  0  0  0  0  0  0  0  0
   -0.9571    1.2156   -2.0156 H   0  0  0  0  0  0  0  0  0  0  0  0
   -5.2030   -0.9375   -1.9999 H   0  0  0  0  0  0  0  0  0  0  0  0
   -1.5446    4.2373    1.8744 H   0  0  0  0  0  0  0  0  0  0  0  0
   -4.9556   -2.3991    2.0330 H   0  0  0  0  0  0  0  0  0  0  0  0
   -0.9575    3.6505   -2.3416 H   0  0  0  0  0  0  0  0  0  0  0  0
   -6.2285   -2.1242   -0.0781 H   0  0  0  0  0  0  0  0  0  0  0  0
   -1.2483    5.1724   -0.4043 H   0  0  0  0  0  0  0  0  0  0  0  0
  1  7  1  0  0  0  0
  1 13  1  0  0  0  0
  2 14  1  0  0  0  0
  2 44  1  0  0  0  0
  3 13  2  0  0  0  0
  4  5  1  0  0  0  0
  4  6  1  0  0  0  0
  4 10  1  0  0  0  0
  4 11  1  0  0  0  0
  5  7  1  0  0  0  0
  5 27  1  0  0  0  0
  5 28  1  0  0  0  0
  6  8  1  0  0  0  0
  6 29  1  0  0  0  0
  6 30  1  0  0  0  0
  7  9  1  0  0  0  0
  7 31  1  0  0  0  0
  8  9  1  0  0  0  0
  8 32  1  0  0  0  0
  8 33  1  0  0  0  0
  9 34  1  0  0  0  0
  9 35  1  0  0  0  0
 10 12  1  0  0  0  0
 10 36  1  0  0  0  0
 10 37  1  0  0  0  0
 11 38  1  0  0  0  0
 11 39  1  0  0  0  0
 11 40  1  0  0  0  0
 12 41  1  0  0  0  0
 12 42  1  0  0  0  0
 12 43  1  0  0  0  0
 13 14  1  0  0  0  0
 14 15  1  0  0  0  0
 14 16  1  0  0  0  0
 15 17  2  0  0  0  0
 15 19  1  0  0  0  0
 16 18  2  0  0  0  0
 16 20  1  0  0  0  0
 17 21  1  0  0  0  0
 17 45  1  0  0  0  0
 18 22  1  0  0  0  0
 18 46  1  0  0  0  0
 19 23  2  0  0  0  0
 19 47  1  0  0  0  0
 20 24  2  0  0  0  0
 20 48  1  0  0  0  0
 21 25  2  0  0  0  0
 21 49  1  0  0  0  0
 22 26  2  0  0  0  0
 22 50  1  0  0  0  0
 23 25  1  0  0  0  0
 23 51  1  0  0  0  0
 24 26  1  0  0  0  0
 24 52  1  0  0  0  0
 25 53  1  0  0  0  0
 26 54  1  0  0  0  0
M  CHG  1   4   1
M  END
> <DATABASE_ID>
DB13844

> <DATABASE_NAME>
drugbank

> <ORIGINAL_SOURCE>
PUBCHEM

> <ORIGINAL_SOURCE_URL>
https://pubchem.ncbi.nlm.nih.gov/rest/pug/compound/inchikey/WPUKUEMZZRVAKZ-UHFFFAOYSA-N/SDF?record_type=3d

> <SMILES>
CC[N+]1(C)CCCC(C1)OC(=O)C(O)(C1=CC=CC=C1)C1=CC=CC=C1

> <INCHI_IDENTIFIER>
InChI=1S/C22H28NO3/c1-3-23(2)16-10-15-20(17-23)26-21(24)22(25,18-11-6-4-7-12-18)19-13-8-5-9-14-19/h4-9,11-14,20,25H,3,10,15-17H2,1-2H3/q+1

> <INCHI_KEY>
WPUKUEMZZRVAKZ-UHFFFAOYSA-N

> <FORMULA>
C22H28NO3

> <MOLECULAR_WEIGHT>
354.469

> <EXACT_MASS>
354.206370186

> <JCHEM_ACCEPTOR_COUNT>
2

> <JCHEM_ATOM_COUNT>
54

> <JCHEM_AVERAGE_POLARIZABILITY>
39.3260337547546

> <JCHEM_BIOAVAILABILITY>
1

> <JCHEM_DONOR_COUNT>
1

> <JCHEM_FORMAL_CHARGE>
1

> <JCHEM_GHOSE_FILTER>
0

> <JCHEM_IUPAC>
1-ethyl-3-[(2-hydroxy-2,2-diphenylacetyl)oxy]-1-methylpiperidin-1-ium

> <ALOGPS_LOGP>
-0.17

> <JCHEM_LOGP>
-0.6178784588050786

> <ALOGPS_LOGS>
-6.02

> <JCHEM_MDDR_LIKE_RULE>
1

> <JCHEM_NUMBER_OF_RINGS>
3

> <JCHEM_PHYSIOLOGICAL_CHARGE>
1

> <JCHEM_PKA_STRONGEST_ACIDIC>
11.04758910763474

> <JCHEM_PKA_STRONGEST_BASIC>
-4.527584524320564

> <JCHEM_POLAR_SURFACE_AREA>
46.53

> <JCHEM_REFRACTIVITY>
114.14370000000002

> <JCHEM_ROTATABLE_BOND_COUNT>
6

> <JCHEM_RULE_OF_FIVE>
1

> <ALOGPS_SOLUBILITY>
3.71e-04 g/l

> <JCHEM_TRADITIONAL_IUPAC>
1-ethyl-3-[(2-hydroxy-2,2-diphenylacetyl)oxy]-1-methylpiperidin-1-ium

> <JCHEM_VEBER_RULE>
0

> <DRUGBANK_ID>
DB13844

> <DRUG_GROUPS>
experimental

> <GENERIC_NAME>
Pipenzolate

$$$$
