REMARK  Name = 71392
REMARK  6 active torsions:
REMARK  status: ('A' for Active; 'I' for Inactive)
REMARK    1  A    between atoms: N_2  and  CA_11
REMARK    2  A    between atoms: C_3  and  CA_19
REMARK    3  A    between atoms: CA_10  and  C_16
REMARK    4  A    between atoms: C_16  and  O_17
REMARK    5  A    between atoms: CA_19  and  C_20
REMARK    6  A    between atoms: CA_19  and  N_26
REMARK                            x       y       z     vdW  Elec       q    Type
REMARK                         _______ _______ _______ _____ _____    ______ ____
ROOT
ATOM      1  O   UNL     1      -1.638   2.119   1.581  0.00  0.00    -0.277 OA
ATOM      2  N   UNL     1      -0.543   1.784  -0.436  0.00  0.00    -0.298 N 
ATOM      3  C   UNL     1      -1.671   1.827   0.386  0.00  0.00    +0.206 C 
ATOM      4  H   UNL     1      -0.659   1.540  -1.383  0.00  0.00    +0.150 HD
ENDROOT
BRANCH   2  11
ATOM      5  S   UNL     1       0.681  -0.605   1.021  0.00  0.00    -0.118 S 
ATOM      6  O   UNL     1       2.154   2.078  -2.118  0.00  0.00    -0.273 OA
ATOM      7  N   UNL     1       2.509   0.904  -0.103  0.00  0.00    -0.260 N 
ATOM      8  C   UNL     1       1.494   1.036   0.943  0.00  0.00    +0.151 C 
ATOM      9  C   UNL     1       1.810  -1.381  -0.238  0.00  0.00    +0.068 C 
ATOM     10  CA  UNL     1       3.002  -0.415  -0.424  0.00  0.00    +0.184 C 
ATOM     11  CA  UNL     1       0.809   2.086   0.052  0.00  0.00    +0.178 C 
ATOM     12  C   UNL     1       1.925   1.783  -0.967  0.00  0.00    +0.247 C 
ATOM     13  C   UNL     1       2.214  -2.778   0.244  0.00  0.00    +0.013 C 
ATOM     14  C   UNL     1       1.013  -1.518  -1.546  0.00  0.00    +0.013 C 
BRANCH  10  16
ATOM     15  OXT UNL     1       4.207  -0.154   1.655  0.00  0.00    -0.248 OA
ATOM     16  C   UNL     1       4.146  -0.612   0.523  0.00  0.00    +0.333 C 
BRANCH  16  17
ATOM     17  O   UNL     1       5.115  -1.369  -0.047  0.00  0.00    -0.479 OA
ATOM     18  H   UNL     1       5.006  -1.689  -0.921  0.00  0.00    +0.295 HD
ENDBRANCH  16  17
ENDBRANCH  10  16
ENDBRANCH   2  11
BRANCH   3  19
ATOM     19  CA  UNL     1      -2.963   1.475  -0.339  0.00  0.00    +0.036 C 
BRANCH  19  20
ATOM     20  C   UNL     1      -3.171   0.000  -0.250  0.00  0.00    -0.034 C 
ATOM     21  C   UNL     1      -3.261  -0.575   1.143  0.00  0.00    -0.006 C 
ATOM     22  C   UNL     1      -3.272  -0.772  -1.347  0.00  0.00    -0.006 C 
ATOM     23  C   UNL     1      -3.481  -2.258  -1.302  0.00  0.00    -0.000 C 
ATOM     24  C   UNL     1      -3.470  -2.061   1.185  0.00  0.00    -0.000 C 
ATOM     25  C   UNL     1      -3.569  -2.819   0.085  0.00  0.00    -0.000 C 
ENDBRANCH  19  20
BRANCH  19  26
ATOM     26  N   UNL     1      -4.038   2.228   0.301  0.00  0.00    +0.390 N 
ATOM     27  H1  UNL     1      -3.852   3.227   0.215  0.00  0.00    -0.088 HD
ATOM     28  H2  UNL     1      -4.088   1.976   1.289  0.00  0.00    -0.088 HD
ATOM     29  H3  UNL     1      -4.925   2.007  -0.152  0.00  0.00    -0.088 HD
ENDBRANCH  19  26
ENDBRANCH   3  19
TORSDOF 6
