REMARK  Name = 31346
REMARK  1 active torsions:
REMARK  status: ('A' for Active; 'I' for Inactive)
REMARK    1  A    between atoms: S_1  and  C_6
REMARK                            x       y       z     vdW  Elec       q    Type
REMARK                         _______ _______ _______ _____ _____    ______ ____
ROOT
ATOM      1  S   UNL     1      -0.556   0.154   0.015  0.00  0.00    +0.033 S 
ATOM      2  O   UNL     1      -1.727  -0.963  -0.186  0.00  0.00    -0.069 OA
ATOM      3  O   UNL     1      -0.512   0.989  -1.168  0.00  0.00    -0.069 OA
ATOM      4  O   UNL     1      -0.681   0.714   1.346  0.00  0.00    -0.069 OA
ENDROOT
BRANCH   1   6
ATOM      5  I   UNL     1       2.650   0.085   0.007  0.00  0.00    -0.046 I 
ATOM      6  C   UNL     1       0.826  -0.979  -0.013  0.00  0.00    +0.219 C 
ENDBRANCH   1   6
TORSDOF 1
