REMARK  Name = 6526
REMARK  4 active torsions:
REMARK  status: ('A' for Active; 'I' for Inactive)
REMARK    1  A    between atoms: O_1  and  C_4
REMARK    2  A    between atoms: O_1  and  C_7
REMARK    3  A    between atoms: C_7  and  C_9
REMARK    4  A    between atoms: C_7  and  C_11
REMARK                            x       y       z     vdW  Elec       q    Type
REMARK                         _______ _______ _______ _____ _____    ______ ____
ROOT
ATOM      1  O   UNL     1      -0.678   0.047  -0.844  0.00  0.00    -0.442 OA
ENDROOT
BRANCH   1   4
ATOM      2  O   UNL     1      -1.411  -0.781   1.175  0.00  0.00    -0.227 OA
ATOM      3  N   UNL     1      -2.851  -0.457  -0.588  0.00  0.00    -0.295 N 
ATOM      4  C   UNL     1      -1.620  -0.428   0.020  0.00  0.00    +0.398 C 
ATOM      5  H   UNL     1      -2.946  -0.157  -1.521  0.00  0.00    +0.148 HD
ATOM      6  H   UNL     1      -3.638  -0.777  -0.090  0.00  0.00    +0.148 HD
ENDBRANCH   1   4
BRANCH   1   7
ATOM      7  C   UNL     1       0.657   0.125  -0.323  0.00  0.00    +0.138 C 
ATOM      8  C   UNL     1       1.545   0.677  -1.446  0.00  0.00    +0.044 C 
BRANCH   7   9
ATOM      9  C   UNL     1       0.623   1.081   0.887  0.00  0.00    +0.040 C 
ATOM     10  C   UNL     1       0.089   2.478   0.603  0.00  0.00    +0.004 C 
ENDBRANCH   7   9
BRANCH   7  11
ATOM     11  C   UNL     1       1.101  -1.312   0.020  0.00  0.00    +0.040 C 
ATOM     12  C   UNL     1       2.545  -1.431   0.496  0.00  0.00    +0.004 C 
ENDBRANCH   7  11
ENDBRANCH   1   7
TORSDOF 4
