REMARK  Name = 5567
REMARK  8 active torsions:
REMARK  status: ('A' for Active; 'I' for Inactive)
REMARK    1  A    between atoms: N_1  and  C_20
REMARK    2  A    between atoms: C_2  and  C_8
REMARK    3  A    between atoms: C_2  and  O_18
REMARK    4  A    between atoms: C_11  and  C_17
REMARK    5  A    between atoms: C_20  and  C_21
REMARK    6  A    between atoms: C_21  and  C_22
REMARK    7  A    between atoms: C_22  and  C_24
REMARK    8  A    between atoms: C_24  and  C_26
REMARK                            x       y       z     vdW  Elec       q    Type
REMARK                         _______ _______ _______ _____ _____    ______ ____
ROOT
ATOM      1  N   UNL     1      -0.360   0.619  -0.758  0.00  0.00    +0.387 N 
ATOM      2  C   UNL     1       2.383   0.328   0.346  0.00  0.00    +0.103 C 
ATOM      3  C   UNL     1       1.530   1.608   0.488  0.00  0.00    +0.008 C 
ATOM      4  C   UNL     1       1.863  -0.479  -0.866  0.00  0.00    +0.008 C 
ATOM      5  C   UNL     1       0.022   1.331   0.467  0.00  0.00    -0.075 C 
ATOM      6  C   UNL     1       0.340  -0.665  -0.862  0.00  0.00    -0.075 C 
ATOM      7  H   UNL     1      -0.084   1.194  -1.554  0.00  0.00    -0.080 HD
ENDROOT
BRANCH   2   8
ATOM      8  C   UNL     1       3.889   0.566   0.226  0.00  0.00    +0.002 C 
ATOM      9  C   UNL     1       4.756  -0.517   0.091  0.00  0.00    +0.002 C 
ATOM     10  C   UNL     1       4.391   1.866   0.249  0.00  0.00    -0.002 C 
ATOM     11  C   UNL     1       6.130  -0.300  -0.020  0.00  0.00    +0.071 C 
ATOM     12  C   UNL     1       5.765   2.083   0.138  0.00  0.00    -0.000 C 
ATOM     13  C   UNL     1       6.634   1.000   0.004  0.00  0.00    +0.004 C 
BRANCH  11  17
ATOM     14  F   UNL     1       8.373  -1.096  -0.259  0.00  0.00    -0.166 F 
ATOM     15  F   UNL     1       7.007  -2.332   0.886  0.00  0.00    -0.166 F 
ATOM     16  F   UNL     1       6.802  -2.204  -1.275  0.00  0.00    -0.166 F 
ATOM     17  C   UNL     1       7.059  -1.458  -0.162  0.00  0.00    +0.419 C 
ENDBRANCH  11  17
ENDBRANCH   2   8
BRANCH   2  18
ATOM     18  O   UNL     1       2.213  -0.447   1.543  0.00  0.00    -0.383 OA
ATOM     19  H   UNL     1       1.270  -0.632   1.677  0.00  0.00    +0.211 HD
ENDBRANCH   2  18
BRANCH   1  20
ATOM     20  C   UNL     1      -1.808   0.420  -0.805  0.00  0.00    -0.077 C 
BRANCH  20  21
ATOM     21  C   UNL     1      -2.529   1.769  -0.761  0.00  0.00    -0.015 C 
BRANCH  21  22
ATOM     22  C   UNL     1      -4.052   1.615  -0.805  0.00  0.00    +0.067 C 
BRANCH  22  24
ATOM     23  O   UNL     1      -4.075   0.892   1.498  0.00  0.00    -0.291 OA
ATOM     24  C   UNL     1      -4.619   0.872   0.397  0.00  0.00    +0.173 C 
BRANCH  24  26
ATOM     25  F   UNL     1      -9.382  -1.974  -0.228  0.00  0.00    -0.204 F 
ATOM     26  C   UNL     1      -5.891   0.113   0.231  0.00  0.00    +0.035 C 
ATOM     27  C   UNL     1      -6.812   0.559  -0.691  0.00  0.00    +0.005 C 
ATOM     28  C   UNL     1      -6.098  -1.007   1.004  0.00  0.00    +0.005 C 
ATOM     29  C   UNL     1      -8.002  -0.152  -0.847  0.00  0.00    +0.030 C 
ATOM     30  C   UNL     1      -7.288  -1.718   0.848  0.00  0.00    +0.030 C 
ATOM     31  C   UNL     1      -8.240  -1.291  -0.078  0.00  0.00    +0.140 C 
ENDBRANCH  24  26
ENDBRANCH  22  24
ENDBRANCH  21  22
ENDBRANCH  20  21
ENDBRANCH   1  20
TORSDOF 8
