REMARK  Name = 23342
REMARK  6 active torsions:
REMARK  status: ('A' for Active; 'I' for Inactive)
REMARK    1  A    between atoms: C_1  and  N_2
REMARK    2  A    between atoms: C_1  and  C_10
REMARK    3  A    between atoms: C_10  and  O_11
REMARK    4  A    between atoms: O_11  and  P_12
REMARK    5  A    between atoms: P_12  and  O_14
REMARK    6  A    between atoms: P_12  and  O_16
REMARK                            x       y       z     vdW  Elec       q    Type
REMARK                         _______ _______ _______ _____ _____    ______ ____
ROOT
ATOM      1  C   UNL     1      -0.981   1.278   0.991  0.00  0.00    +0.137 C 
ENDROOT
BRANCH   1   2
ATOM      2  N   UNL     1      -1.883   0.615   0.051  0.00  0.00    -0.316 N 
ATOM      3  N   UNL     1      -3.078  -1.227  -0.817  0.00  0.00    -0.370 N 
ATOM      4  N   UNL     1      -1.716  -1.578   1.017  0.00  0.00    -0.269 NA
ATOM      5  C   UNL     1      -2.467   1.470  -0.981  0.00  0.00    +0.128 C 
ATOM      6  C   UNL     1      -2.196  -0.749   0.126  0.00  0.00    +0.192 C 
ATOM      7  H   UNL     1      -3.451  -0.619  -1.496  0.00  0.00    +0.159 HD
ATOM      8  H   UNL     1      -3.336  -2.177  -0.812  0.00  0.00    +0.159 HD
ATOM      9  H   UNL     1      -1.084  -1.255   1.700  0.00  0.00    +0.190 HD
ENDBRANCH   1   2
BRANCH   1  10
ATOM     10  C   UNL     1       0.451   1.274   0.487  0.00  0.00    +0.178 C 
BRANCH  10  11
ATOM     11  O   UNL     1       0.899  -0.068   0.348  0.00  0.00    -0.271 OA
BRANCH  11  12
ATOM     12  P   UNL     1       2.406  -0.324  -0.179  0.00  0.00    +0.473 P 
ATOM     13  O   UNL     1       2.801  -1.766  -0.299  0.00  0.00    -0.227 OA
BRANCH  12  14
ATOM     14  O   UNL     1       3.318   0.563   0.819  0.00  0.00    -0.303 OA
ATOM     15  H   UNL     1       2.990   1.476   0.832  0.00  0.00    +0.222 HD
ENDBRANCH  12  14
BRANCH  12  16
ATOM     16  O   UNL     1       2.447   0.513  -1.563  0.00  0.00    -0.303 OA
ATOM     17  H   UNL     1       2.179   1.430  -1.394  0.00  0.00    +0.222 HD
ENDBRANCH  12  16
ENDBRANCH  11  12
ENDBRANCH  10  11
ENDBRANCH   1  10
TORSDOF 6
