REMARK  Name = 21854223
REMARK  8 active torsions:
REMARK  status: ('A' for Active; 'I' for Inactive)
REMARK    1  A    between atoms: C_2  and  C_13
REMARK    2  A    between atoms: C_6  and  O_11
REMARK    3  A    between atoms: C_13  and  C_14
REMARK    4  A    between atoms: C_14  and  N_15
REMARK    5  A    between atoms: N_15  and  C_17
REMARK    6  A    between atoms: N_15  and  C_20
REMARK    7  A    between atoms: C_17  and  C_18
REMARK    8  A    between atoms: C_20  and  C_21
REMARK                            x       y       z     vdW  Elec       q    Type
REMARK                         _______ _______ _______ _____ _____    ______ ____
ROOT
ATOM      1  N   UNL     1      -2.843   2.107  -0.653  0.00  0.00    -0.312 N 
ATOM      2  C   UNL     1      -1.073   0.771  -0.749  0.00  0.00    -0.006 C 
ATOM      3  C   UNL     1      -2.153   0.039  -0.180  0.00  0.00    +0.044 C 
ATOM      4  C   UNL     1      -3.251   0.900  -0.132  0.00  0.00    +0.051 C 
ATOM      5  C   UNL     1      -1.528   2.039  -1.029  0.00  0.00    +0.058 C 
ATOM      6  C   UNL     1      -2.301  -1.278   0.299  0.00  0.00    +0.135 C 
ATOM      7  C   UNL     1      -4.496   0.509   0.374  0.00  0.00    +0.015 C 
ATOM      8  C   UNL     1      -3.540  -1.683   0.808  0.00  0.00    +0.037 C 
ATOM      9  C   UNL     1      -4.619  -0.802   0.844  0.00  0.00    +0.004 C 
ATOM     10  H   UNL     1      -3.414   2.904  -0.744  0.00  0.00    +0.152 HD
ENDROOT
BRANCH   6  11
ATOM     11  O   UNL     1      -1.264  -2.172   0.279  0.00  0.00    -0.505 OA
ATOM     12  H   UNL     1      -0.429  -1.913  -0.059  0.00  0.00    +0.292 HD
ENDBRANCH   6  11
BRANCH   2  13
ATOM     13  C   UNL     1       0.297   0.278  -0.998  0.00  0.00    +0.005 C 
BRANCH  13  14
ATOM     14  C   UNL     1       1.243   0.503   0.195  0.00  0.00    -0.073 C 
BRANCH  14  15
ATOM     15  N   UNL     1       2.596   0.034  -0.087  0.00  0.00    +0.387 N 
ATOM     16  H   UNL     1       2.817   0.262  -1.057  0.00  0.00    -0.080 HD
BRANCH  15  17
ATOM     17  C   UNL     1       2.683  -1.417   0.081  0.00  0.00    -0.077 C 
BRANCH  17  18
ATOM     18  C   UNL     1       3.897  -1.965  -0.665  0.00  0.00    -0.023 C 
ATOM     19  C   UNL     1       3.998  -3.476  -0.523  0.00  0.00    -0.002 C 
ENDBRANCH  17  18
ENDBRANCH  15  17
BRANCH  15  20
ATOM     20  C   UNL     1       3.564   0.706   0.781  0.00  0.00    -0.077 C 
BRANCH  20  21
ATOM     21  C   UNL     1       3.885   2.097   0.241  0.00  0.00    -0.023 C 
ATOM     22  C   UNL     1       4.907   2.808   1.114  0.00  0.00    -0.002 C 
ENDBRANCH  20  21
ENDBRANCH  15  20
ENDBRANCH  14  15
ENDBRANCH  13  14
ENDBRANCH   2  13
TORSDOF 8
