REMARK  Name = 51346455
REMARK  5 active torsions:
REMARK  status: ('A' for Active; 'I' for Inactive)
REMARK    1  A    between atoms: C_9  and  C_32
REMARK    2  A    between atoms: C_12  and  N_15
REMARK    3  A    between atoms: N_14  and  C_28
REMARK    4  A    between atoms: C_20  and  C_27
REMARK    5  A    between atoms: C_32  and  N_34
REMARK                            x       y       z     vdW  Elec       q    Type
REMARK                         _______ _______ _______ _____ _____    ______ ____
ROOT
ATOM      1  O   UNL     1       4.556   1.160  -1.570  0.00  0.00    -0.273 OA
ATOM      2  N   UNL     1       3.613   0.600   0.450  0.00  0.00    -0.274 N 
ATOM      3  C   UNL     1       2.245   1.073   0.260  0.00  0.00    +0.098 C 
ATOM      4  C   UNL     1       3.543   0.098   1.823  0.00  0.00    +0.098 C 
ATOM      5  C   UNL     1       2.180   2.079   1.431  0.00  0.00    +0.026 C 
ATOM      6  C   UNL     1       3.086   1.398   2.522  0.00  0.00    +0.026 C 
ATOM      7  C   UNL     1       1.500  -0.162   0.711  0.00  0.00    -0.005 C 
ATOM      8  C   UNL     1       2.315  -0.775   1.693  0.00  0.00    -0.007 C 
ATOM      9  C   UNL     1       4.658   0.709  -0.429  0.00  0.00    +0.246 C 
ATOM     10  C   UNL     1       0.277  -0.684   0.358  0.00  0.00    +0.012 C 
ATOM     11  C   UNL     1       1.925  -1.923   2.343  0.00  0.00    -0.002 C 
ATOM     12  C   UNL     1      -0.126  -1.855   1.007  0.00  0.00    +0.057 C 
ATOM     13  C   UNL     1       0.687  -2.466   1.986  0.00  0.00    +0.015 C 
ENDROOT
BRANCH  12  15
ATOM     14  N   UNL     1      -3.911   1.330  -0.571  0.00  0.00    -0.309 N 
ATOM     15  N   UNL     1      -1.372  -2.437   0.682  0.00  0.00    -0.247 N 
ATOM     16  N   UNL     1      -2.622  -0.557   0.064  0.00  0.00    -0.322 NA
ATOM     17  N   UNL     1      -3.594  -2.761   0.018  0.00  0.00    -0.170 NA
ATOM     18  C   UNL     1      -3.803  -0.068  -0.370  0.00  0.00    +0.198 C 
ATOM     19  C   UNL     1      -2.588  -1.892   0.234  0.00  0.00    +0.150 C 
ATOM     20  C   UNL     1      -4.909  -0.851  -0.627  0.00  0.00    +0.136 C 
ATOM     21  C   UNL     1      -4.745  -2.205  -0.413  0.00  0.00    +0.119 C 
ATOM     22  H   UNL     1      -4.783   1.661  -0.887  0.00  0.00    +0.149 HD
ATOM     23  H   UNL     1      -1.393  -3.416   0.791  0.00  0.00    +0.165 HD
BRANCH  20  27
ATOM     24  F   UNL     1      -7.152  -1.279  -1.290  0.00  0.00    -0.166 F 
ATOM     25  F   UNL     1      -6.779   0.593  -0.250  0.00  0.00    -0.166 F 
ATOM     26  F   UNL     1      -6.124   0.348  -2.303  0.00  0.00    -0.166 F 
ATOM     27  C   UNL     1      -6.208  -0.308  -1.106  0.00  0.00    +0.424 C 
ENDBRANCH  20  27
BRANCH  14  28
ATOM     28  C   UNL     1      -2.902   2.307  -0.367  0.00  0.00    +0.071 C 
ATOM     29  C   UNL     1      -2.602   2.549   1.127  0.00  0.00    +0.020 C 
ATOM     30  C   UNL     1      -3.452   3.748  -0.411  0.00  0.00    +0.020 C 
ATOM     31  C   UNL     1      -2.534   4.053   0.791  0.00  0.00    +0.003 C 
ENDBRANCH  14  28
ENDBRANCH  12  15
BRANCH   9  32
ATOM     32  C   UNL     1       5.985   0.226   0.094  0.00  0.00    +0.176 C 
BRANCH  32  34
ATOM     33  O   UNL     1       6.637  -1.701  -1.978  0.00  0.00    -0.275 OA
ATOM     34  N   UNL     1       6.904   0.391  -0.985  0.00  0.00    -0.297 N 
ATOM     35  C   UNL     1       7.160  -0.591  -1.942  0.00  0.00    +0.223 C 
ATOM     36  C   UNL     1       8.154  -0.147  -2.982  0.00  0.00    +0.095 C 
ATOM     37  H   UNL     1       7.385   1.246  -1.057  0.00  0.00    +0.150 HD
ENDBRANCH  32  34
ENDBRANCH   9  32
TORSDOF 5
