REMARK  Name = 119396
REMARK  4 active torsions:
REMARK  status: ('A' for Active; 'I' for Inactive)
REMARK    1  A    between atoms: C_9  and  O_16
REMARK    2  A    between atoms: C_11  and  O_18
REMARK    3  A    between atoms: C_12  and  C_21
REMARK    4  A    between atoms: C_21  and  O_22
REMARK                            x       y       z     vdW  Elec       q    Type
REMARK                         _______ _______ _______ _____ _____    ______ ____
ROOT
ATOM      1  O   UNL     1      -1.282   2.275  -0.003  0.00  0.00    -0.286 OA
ATOM      2  C   UNL     1      -0.456  -1.812  -0.002  0.00  0.00    +0.053 C 
ATOM      3  C   UNL     1       0.633  -0.775  -0.001  0.00  0.00    -0.012 C 
ATOM      4  C   UNL     1      -1.862  -1.279  -0.001  0.00  0.00    -0.012 C 
ATOM      5  C   UNL     1       0.360   0.597  -0.001  0.00  0.00    +0.069 C 
ATOM      6  C   UNL     1      -2.144   0.092   0.000  0.00  0.00    +0.069 C 
ATOM      7  C   UNL     1      -1.039   1.075  -0.001  0.00  0.00    +0.201 C 
ATOM      8  C   UNL     1       1.971  -1.198  -0.001  0.00  0.00    +0.003 C 
ATOM      9  C   UNL     1       1.407   1.529  -0.001  0.00  0.00    +0.137 C 
ATOM     10  C   UNL     1      -2.931  -2.189   0.000  0.00  0.00    -0.004 C 
ATOM     11  C   UNL     1      -3.470   0.544   0.001  0.00  0.00    +0.136 C 
ATOM     12  C   UNL     1       3.013  -0.271  -0.001  0.00  0.00    +0.078 C 
ATOM     13  C   UNL     1       2.731   1.092   0.000  0.00  0.00    +0.043 C 
ATOM     14  C   UNL     1      -4.251  -1.738   0.001  0.00  0.00    +0.003 C 
ATOM     15  C   UNL     1      -4.520  -0.373   0.002  0.00  0.00    +0.037 C 
ENDROOT
BRANCH   9  16
ATOM     16  O   UNL     1       1.201   2.877   0.002  0.00  0.00    -0.505 OA
ATOM     17  H   UNL     1       0.328   3.218   0.002  0.00  0.00    +0.292 HD
ENDBRANCH   9  16
BRANCH  11  18
ATOM     18  O   UNL     1      -3.804   1.866   0.001  0.00  0.00    -0.505 OA
ATOM     19  H   UNL     1      -3.132   2.519   0.001  0.00  0.00    +0.292 HD
ENDBRANCH  11  18
BRANCH  12  21
ATOM     20  O   UNL     1       4.774  -1.897   0.003  0.00  0.00    -0.245 OA
ATOM     21  C   UNL     1       4.394  -0.728   0.001  0.00  0.00    +0.338 C 
BRANCH  21  22
ATOM     22  O   UNL     1       5.275   0.311   0.001  0.00  0.00    -0.477 OA
ATOM     23  H   UNL     1       4.959   1.193   0.000  0.00  0.00    +0.295 HD
ENDBRANCH  21  22
ENDBRANCH  12  21
TORSDOF 4
