REMARK  Name = 14520
REMARK  1 active torsions:
REMARK  status: ('A' for Active; 'I' for Inactive)
REMARK    1  A    between atoms: C_3  and  N_8
REMARK                            x       y       z     vdW  Elec       q    Type
REMARK                         _______ _______ _______ _____ _____    ______ ____
ROOT
ATOM      1  S   UNL     1      -2.924   0.215  -0.133  0.00  0.00    -0.075 S 
ATOM      2  O   UNL     1      -1.143   2.115   0.285  0.00  0.00    -0.283 OA
ATOM      3  C   UNL     1      -0.283  -0.169   0.255  0.00  0.00    +0.141 C 
ATOM      4  C   UNL     1      -0.866  -1.384  -0.457  0.00  0.00    +0.040 C 
ATOM      5  C   UNL     1      -2.321  -1.495  -0.041  0.00  0.00    +0.067 C 
ATOM      6  C   UNL     1      -1.329   0.915   0.149  0.00  0.00    +0.216 C 
ENDROOT
BRANCH   3   8
ATOM      7  O   UNL     1       2.434  -0.878   0.993  0.00  0.00    -0.275 OA
ATOM      8  N   UNL     1       0.933   0.287  -0.355  0.00  0.00    -0.299 N 
ATOM      9  C   UNL     1       2.199  -0.107   0.066  0.00  0.00    +0.223 C 
ATOM     10  C   UNL     1       3.299   0.500  -0.762  0.00  0.00    +0.095 C 
ATOM     11  H   UNL     1       0.868   0.912  -1.112  0.00  0.00    +0.150 HD
ENDBRANCH   3   8
TORSDOF 1
