REMARK  Name = 76962649
REMARK  5 active torsions:
REMARK  status: ('A' for Active; 'I' for Inactive)
REMARK    1  A    between atoms: C_9  and  O_24
REMARK    2  A    between atoms: C_9  and  C_29
REMARK    3  A    between atoms: C_13  and  O_26
REMARK    4  A    between atoms: C_29  and  C_30
REMARK    5  A    between atoms: C_30  and  O_31
REMARK                            x       y       z     vdW  Elec       q    Type
REMARK                         _______ _______ _______ _____ _____    ______ ____
ROOT
ATOM      1 CL   UNL     1       1.361   0.130   1.867  0.00  0.00    -0.114 Cl
ATOM      2 CL   UNL     1       0.201   2.768  -1.458  0.00  0.00    -0.114 Cl
ATOM      3  F   UNL     1       3.278  -3.035  -0.781  0.00  0.00    -0.233 F 
ATOM      4  O   UNL     1       6.237   0.135   1.524  0.00  0.00    -0.287 OA
ATOM      5  C   UNL     1      -1.916   0.372  -0.188  0.00  0.00    +0.033 C 
ATOM      6  C   UNL     1      -1.007  -0.869  -0.021  0.00  0.00    +0.006 C 
ATOM      7  C   UNL     1       0.400  -0.689  -0.623  0.00  0.00    +0.019 C 
ATOM      8  C   UNL     1       1.150   0.536   0.041  0.00  0.00    +0.088 C 
ATOM      9  C   UNL     1      -3.208  -0.182   0.485  0.00  0.00    +0.166 C 
ATOM     10  C   UNL     1      -1.224   1.559   0.521  0.00  0.00    +0.020 C 
ATOM     11  C   UNL     1      -1.881  -2.028  -0.506  0.00  0.00    +0.032 C 
ATOM     12  C   UNL     1       0.240   1.827   0.064  0.00  0.00    +0.094 C 
ATOM     13  C   UNL     1      -3.309  -1.627  -0.075  0.00  0.00    +0.142 C 
ATOM     14  C   UNL     1       2.635   0.678  -0.543  0.00  0.00    +0.050 C 
ATOM     15  C   UNL     1       1.207  -1.998  -0.522  0.00  0.00    +0.041 C 
ATOM     16  C   UNL     1      -2.223   0.709  -1.674  0.00  0.00    +0.003 C 
ATOM     17  C   UNL     1       2.636  -1.856  -1.031  0.00  0.00    +0.180 C 
ATOM     18  C   UNL     1       3.340  -0.684  -0.391  0.00  0.00    -0.005 C 
ATOM     19  C   UNL     1       2.724   1.024  -2.053  0.00  0.00    +0.010 C 
ATOM     20  C   UNL     1       3.400   1.786   0.169  0.00  0.00    -0.018 C 
ATOM     21  C   UNL     1       4.495  -0.846   0.276  0.00  0.00    +0.036 C 
ATOM     22  C   UNL     1       4.550   1.623   0.832  0.00  0.00    +0.038 C 
ATOM     23  C   UNL     1       5.179   0.293   0.924  0.00  0.00    +0.195 C 
ENDROOT
BRANCH   9  24
ATOM     24  O   UNL     1      -3.072  -0.193   1.902  0.00  0.00    -0.377 OA
ATOM     25  H   UNL     1      -2.287  -0.707   2.147  0.00  0.00    +0.211 HD
ENDBRANCH   9  24
BRANCH  13  26
ATOM     26  O   UNL     1      -3.805  -2.539   0.893  0.00  0.00    -0.382 OA
ATOM     27  H   UNL     1      -4.702  -2.276   1.155  0.00  0.00    +0.210 HD
ENDBRANCH  13  26
BRANCH   9  29
ATOM     28  O   UNL     1      -4.381   1.853   0.085  0.00  0.00    -0.291 OA
ATOM     29  C   UNL     1      -4.440   0.633   0.228  0.00  0.00    +0.206 C 
BRANCH  29  30
ATOM     30  C   UNL     1      -5.746  -0.130   0.157  0.00  0.00    +0.204 C 
BRANCH  30  31
ATOM     31  O   UNL     1      -6.822   0.747  -0.102  0.00  0.00    -0.375 OA
ATOM     32  H   UNL     1      -7.649   0.241  -0.144  0.00  0.00    +0.211 HD
ENDBRANCH  30  31
ENDBRANCH  29  30
ENDBRANCH   9  29
TORSDOF 5
