REMARK  Name = 33036
REMARK  5 active torsions:
REMARK  status: ('A' for Active; 'I' for Inactive)
REMARK    1  A    between atoms: C_1  and  C_3
REMARK    2  A    between atoms: C_1  and  C_10
REMARK    3  A    between atoms: C_1  and  C_15
REMARK    4  A    between atoms: C_15  and  C_16
REMARK    5  A    between atoms: C_16  and  N_17
REMARK                            x       y       z     vdW  Elec       q    Type
REMARK                         _______ _______ _______ _____ _____    ______ ____
ROOT
ATOM      1  C   UNL     1      -0.290   0.447  -0.060  0.00  0.00    +0.060 C 
ENDROOT
BRANCH   1   3
ATOM      2 CL   UNL     1       5.708   0.258  -0.152  0.00  0.00    -0.082 Cl
ATOM      3  C   UNL     1       1.234   0.401  -0.084  0.00  0.00    -0.017 C 
ATOM      4  C   UNL     1       1.872   0.174  -1.284  0.00  0.00    -0.003 C 
ATOM      5  C   UNL     1       1.922   0.586   1.096  0.00  0.00    -0.003 C 
ATOM      6  C   UNL     1       3.266   0.130  -1.305  0.00  0.00    +0.011 C 
ATOM      7  C   UNL     1       3.316   0.542   1.075  0.00  0.00    +0.011 C 
ATOM      8  C   UNL     1       3.988   0.314  -0.126  0.00  0.00    +0.058 C 
ENDBRANCH   1   3
BRANCH   1  10
ATOM      9  N   UNL     1      -0.609  -1.681   1.050  0.00  0.00    -0.248 NA
ATOM     10  C   UNL     1      -0.885  -0.955  -0.040  0.00  0.00    +0.063 C 
ATOM     11  C   UNL     1      -1.638  -1.355  -1.113  0.00  0.00    +0.015 C 
ATOM     12  C   UNL     1      -2.166  -2.640  -1.064  0.00  0.00    +0.003 C 
ATOM     13  C   UNL     1      -1.139  -2.925   1.062  0.00  0.00    +0.098 C 
ATOM     14  C   UNL     1      -1.916  -3.447   0.041  0.00  0.00    +0.021 C 
ENDBRANCH   1  10
BRANCH   1  15
ATOM     15  C   UNL     1      -0.854   1.379   1.045  0.00  0.00    -0.012 C 
BRANCH  15  16
ATOM     16  C   UNL     1      -2.384   1.472   1.010  0.00  0.00    -0.077 C 
BRANCH  16  17
ATOM     17  N   UNL     1      -2.828   1.985  -0.282  0.00  0.00    +0.384 N 
ATOM     18  C   UNL     1      -2.308   3.334  -0.506  0.00  0.00    -0.101 C 
ATOM     19  C   UNL     1      -4.289   1.982  -0.362  0.00  0.00    -0.101 C 
ATOM     20  H   UNL     1      -2.463   1.372  -1.011  0.00  0.00    -0.080 HD
ENDBRANCH  16  17
ENDBRANCH  15  16
ENDBRANCH   1  15
TORSDOF 5
