REMARK  Name = 6258
REMARK  0 active torsions:
REMARK  status: ('A' for Active; 'I' for Inactive)
REMARK                            x       y       z     vdW  Elec       q    Type
REMARK                         _______ _______ _______ _____ _____    ______ ____
ROOT
ATOM      1 CL   UNL     1       3.866  -0.255   0.000  0.00  0.00    -0.082 Cl
ATOM      2  S   UNL     1      -1.366  -2.082   0.000  0.00  0.00    -0.010 S 
ATOM      3  O   UNL     1      -2.683   1.487   0.000  0.00  0.00    -0.267 OA
ATOM      4  N   UNL     1      -2.535  -0.842   0.000  0.00  0.00    -0.292 N 
ATOM      5  C   UNL     1      -0.565   0.418   0.000  0.00  0.00    +0.064 A 
ATOM      6  C   UNL     1      -0.065  -0.883   0.000  0.00  0.00    +0.051 A 
ATOM      7  C   UNL     1       0.272   1.523   0.000  0.00  0.00    +0.006 C 
ATOM      8  C   UNL     1      -2.038   0.451   0.000  0.00  0.00    +0.264 A 
ATOM      9  C   UNL     1       1.302  -1.111   0.000  0.00  0.00    +0.019 C 
ATOM     10  C   UNL     1       1.650   1.300   0.000  0.00  0.00    +0.012 C 
ATOM     11  C   UNL     1       2.161  -0.008   0.000  0.00  0.00    +0.058 C 
ATOM     12  H   UNL     1      -3.501  -1.032   0.000  0.00  0.00    +0.177 HD
ENDROOT
TORSDOF 0
