121515
  -OEChem-10061700293D

 50 53  0     1  0  0  0  0  0999 V2000
    0.5059   -0.8350    2.7239 O   0  0  0  0  0  0  0  0  0  0  0  0
   -3.7464    2.5563    0.1526 O   0  0  0  0  0  0  0  0  0  0  0  0
    1.5899    0.2220   -0.6944 N   0  0  2  0  0  0  0  0  0  0  0  0
   -2.4593   -2.7502   -0.7117 N   0  0  0  0  0  0  0  0  0  0  0  0
    3.4789    1.4865    0.5641 C   0  0  2  0  0  0  0  0  0  0  0  0
    4.0451    0.7304   -0.6606 C   0  0  2  0  0  0  0  0  0  0  0  0
    1.6953   -0.2825    0.7006 C   0  0  1  0  0  0  0  0  0  0  0  0
    2.7480    0.5119    1.5038 C   0  0  0  0  0  0  0  0  0  0  0  0
    2.8916   -0.0226   -1.3637 C   0  0  0  0  0  0  0  0  0  0  0  0
    2.4144    2.4658    0.0385 C   0  0  0  0  0  0  0  0  0  0  0  0
    1.3285    1.6786   -0.7109 C   0  0  0  0  0  0  0  0  0  0  0  0
    5.1939   -0.2090   -0.2977 C   0  0  0  0  0  0  0  0  0  0  0  0
    0.3399   -0.3087    1.4111 C   0  0  1  0  0  0  0  0  0  0  0  0
   -0.6706   -1.1392    0.6608 C   0  0  0  0  0  0  0  0  0  0  0  0
    5.7953   -0.8495   -1.5335 C   0  0  0  0  0  0  0  0  0  0  0  0
   -1.8732   -0.5993    0.2035 C   0  0  0  0  0  0  0  0  0  0  0  0
   -0.3563   -2.4670    0.4398 C   0  0  0  0  0  0  0  0  0  0  0  0
   -2.7541   -1.4552   -0.4905 C   0  0  0  0  0  0  0  0  0  0  0  0
   -2.2129    0.7475    0.4162 C   0  0  0  0  0  0  0  0  0  0  0  0
   -1.2809   -3.2262   -0.2482 C   0  0  0  0  0  0  0  0  0  0  0  0
   -3.9561   -0.9244   -0.9506 C   0  0  0  0  0  0  0  0  0  0  0  0
   -3.4215    1.2519   -0.0550 C   0  0  0  0  0  0  0  0  0  0  0  0
   -4.2940    0.4146   -0.7392 C   0  0  0  0  0  0  0  0  0  0  0  0
   -5.0015    3.0032   -0.3589 C   0  0  0  0  0  0  0  0  0  0  0  0
    4.2663    2.0282    1.0989 H   0  0  0  0  0  0  0  0  0  0  0  0
    4.4364    1.4827   -1.3605 H   0  0  0  0  0  0  0  0  0  0  0  0
    2.0737   -1.3135    0.6616 H   0  0  0  0  0  0  0  0  0  0  0  0
    3.4608   -0.1755    1.9733 H   0  0  0  0  0  0  0  0  0  0  0  0
    2.2876    1.0845    2.3188 H   0  0  0  0  0  0  0  0  0  0  0  0
    2.8276    0.2951   -2.4124 H   0  0  0  0  0  0  0  0  0  0  0  0
    3.0568   -1.1054   -1.3988 H   0  0  0  0  0  0  0  0  0  0  0  0
    2.8739    3.2029   -0.6306 H   0  0  0  0  0  0  0  0  0  0  0  0
    1.9670    3.0200    0.8724 H   0  0  0  0  0  0  0  0  0  0  0  0
    0.3454    1.9112   -0.2944 H   0  0  0  0  0  0  0  0  0  0  0  0
    1.2768    2.0246   -1.7515 H   0  0  0  0  0  0  0  0  0  0  0  0
    4.8616   -1.0016    0.3815 H   0  0  0  0  0  0  0  0  0  0  0  0
    5.9746    0.3552    0.2261 H   0  0  0  0  0  0  0  0  0  0  0  0
    0.0305    0.7189    1.5834 H   0  0  0  0  0  0  0  0  0  0  0  0
    5.1032   -1.5319   -2.0340 H   0  0  0  0  0  0  0  0  0  0  0  0
    6.1141   -0.0915   -2.2566 H   0  0  0  0  0  0  0  0  0  0  0  0
    6.6789   -1.4337   -1.2551 H   0  0  0  0  0  0  0  0  0  0  0  0
   -0.3766   -0.9853    3.1040 H   0  0  0  0  0  0  0  0  0  0  0  0
    0.5582   -2.9266    0.7955 H   0  0  0  0  0  0  0  0  0  0  0  0
   -1.5879    1.4506    0.9520 H   0  0  0  0  0  0  0  0  0  0  0  0
   -1.0981   -4.2764   -0.4507 H   0  0  0  0  0  0  0  0  0  0  0  0
   -4.6560   -1.5606   -1.4895 H   0  0  0  0  0  0  0  0  0  0  0  0
   -5.2518    0.7337   -1.1358 H   0  0  0  0  0  0  0  0  0  0  0  0
   -5.0387    2.9323   -1.4513 H   0  0  0  0  0  0  0  0  0  0  0  0
   -5.0958    4.0637   -0.1035 H   0  0  0  0  0  0  0  0  0  0  0  0
   -5.8387    2.4830    0.1190 H   0  0  0  0  0  0  0  0  0  0  0  0
  1 13  1  0  0  0  0
  1 42  1  0  0  0  0
  2 22  1  0  0  0  0
  2 24  1  0  0  0  0
  3  7  1  0  0  0  0
  3  9  1  0  0  0  0
  3 11  1  0  0  0  0
  4 18  2  0  0  0  0
  4 20  1  0  0  0  0
  5  6  1  0  0  0  0
  5  8  1  0  0  0  0
  5 10  1  0  0  0  0
  5 25  1  0  0  0  0
  6  9  1  0  0  0  0
  6 12  1  0  0  0  0
  6 26  1  0  0  0  0
  7  8  1  0  0  0  0
  7 13  1  0  0  0  0
  7 27  1  0  0  0  0
  8 28  1  0  0  0  0
  8 29  1  0  0  0  0
  9 30  1  0  0  0  0
  9 31  1  0  0  0  0
 10 11  1  0  0  0  0
 10 32  1  0  0  0  0
 10 33  1  0  0  0  0
 11 34  1  0  0  0  0
 11 35  1  0  0  0  0
 12 15  1  0  0  0  0
 12 36  1  0  0  0  0
 12 37  1  0  0  0  0
 13 14  1  0  0  0  0
 13 38  1  0  0  0  0
 14 16  2  0  0  0  0
 14 17  1  0  0  0  0
 15 39  1  0  0  0  0
 15 40  1  0  0  0  0
 15 41  1  0  0  0  0
 16 18  1  0  0  0  0
 16 19  1  0  0  0  0
 17 20  2  0  0  0  0
 17 43  1  0  0  0  0
 18 21  1  0  0  0  0
 19 22  2  0  0  0  0
 19 44  1  0  0  0  0
 20 45  1  0  0  0  0
 21 23  2  0  0  0  0
 21 46  1  0  0  0  0
 22 23  1  0  0  0  0
 23 47  1  0  0  0  0
 24 48  1  0  0  0  0
 24 49  1  0  0  0  0
 24 50  1  0  0  0  0
M  END
> <DATABASE_ID>
DB13718

> <DATABASE_NAME>
drugbank

> <ORIGINAL_SOURCE>
PUBCHEM

> <ORIGINAL_SOURCE_URL>
https://pubchem.ncbi.nlm.nih.gov/rest/pug/compound/inchikey/LJOQGZACKSYWCH-WZBLMQSHSA-N/SDF?record_type=3d

> <SMILES>
CC[C@H]1C[N@@]2CC[C@H]1C[C@H]2[C@H](O)C1=C2C=C(OC)C=CC2=NC=C1

> <INCHI_IDENTIFIER>
InChI=1S/C20H26N2O2/c1-3-13-12-22-9-7-14(13)10-19(22)20(23)16-6-8-21-18-5-4-15(24-2)11-17(16)18/h4-6,8,11,13-14,19-20,23H,3,7,9-10,12H2,1-2H3/t13-,14-,19-,20+/m0/s1

> <INCHI_KEY>
LJOQGZACKSYWCH-WZBLMQSHSA-N

> <FORMULA>
C20H26N2O2

> <MOLECULAR_WEIGHT>
326.44

> <EXACT_MASS>
326.199428085

> <JCHEM_ACCEPTOR_COUNT>
4

> <JCHEM_ATOM_COUNT>
50

> <JCHEM_AVERAGE_POLARIZABILITY>
36.78555002447077

> <JCHEM_BIOAVAILABILITY>
1

> <JCHEM_DONOR_COUNT>
1

> <JCHEM_FORMAL_CHARGE>
0

> <JCHEM_GHOSE_FILTER>
1

> <JCHEM_IUPAC>
(R)-[(1S,2S,4S,5R)-5-ethyl-1-azabicyclo[2.2.2]octan-2-yl](6-methoxyquinolin-4-yl)methanol

> <ALOGPS_LOGP>
3.36

> <JCHEM_LOGP>
2.817451937000001

> <ALOGPS_LOGS>
-3.02

> <JCHEM_MDDR_LIKE_RULE>
0

> <JCHEM_NUMBER_OF_RINGS>
4

> <JCHEM_PHYSIOLOGICAL_CHARGE>
1

> <JCHEM_PKA_STRONGEST_ACIDIC>
13.892120589819111

> <JCHEM_PKA_STRONGEST_BASIC>
9.176454721982065

> <JCHEM_POLAR_SURFACE_AREA>
45.59

> <JCHEM_REFRACTIVITY>
94.6495

> <JCHEM_ROTATABLE_BOND_COUNT>
4

> <JCHEM_RULE_OF_FIVE>
1

> <ALOGPS_SOLUBILITY>
3.12e-01 g/l

> <JCHEM_TRADITIONAL_IUPAC>
(R)-[(1S,2S,4S,5R)-5-ethyl-1-azabicyclo[2.2.2]octan-2-yl](6-methoxyquinolin-4-yl)methanol

> <JCHEM_VEBER_RULE>
0

> <DRUGBANK_ID>
DB13718

> <DRUG_GROUPS>
experimental

> <GENERIC_NAME>
Hydroquinine

$$$$
