REMARK  Name = 2747
REMARK  3 active torsions:
REMARK  status: ('A' for Active; 'I' for Inactive)
REMARK    1  A    between atoms: C_1  and  C_10
REMARK    2  A    between atoms: C_1  and  C_16
REMARK    3  A    between atoms: C_2  and  C_6
REMARK                            x       y       z     vdW  Elec       q    Type
REMARK                         _______ _______ _______ _____ _____    ______ ____
ROOT
ATOM      1  C   UNL     1      -0.434  -0.253  -0.571  0.00  0.00    +0.045 C 
ATOM      2  C   UNL     1       0.400  -1.499  -0.640  0.00  0.00    +0.063 C 
ATOM      3  C   UNL     1      -0.036  -0.816  -1.904  0.00  0.00    +0.016 C 
ENDROOT
BRANCH   2   6
ATOM      4  N   UNL     1       2.264  -2.235   0.758  0.00  0.00    -0.299 N 
ATOM      5  N   UNL     1       2.697  -0.757  -0.933  0.00  0.00    -0.232 NA
ATOM      6  C   UNL     1       1.829  -1.480  -0.281  0.00  0.00    +0.109 C 
ATOM      7  C   UNL     1       3.677  -2.056   0.912  0.00  0.00    +0.084 C 
ATOM      8  C   UNL     1       3.982  -1.058  -0.222  0.00  0.00    +0.116 C 
ATOM      9  H   UNL     1       1.699  -2.815   1.317  0.00  0.00    +0.153 HD
ENDBRANCH   2   6
BRANCH   1  10
ATOM     10  C   UNL     1       0.201   1.028  -0.149  0.00  0.00    -0.019 C 
ATOM     11  C   UNL     1       0.853   1.111   1.081  0.00  0.00    -0.004 C 
ATOM     12  C   UNL     1       0.141   2.144  -0.984  0.00  0.00    -0.004 C 
ATOM     13  C   UNL     1       1.445   2.310   1.477  0.00  0.00    -0.000 C 
ATOM     14  C   UNL     1       0.734   3.344  -0.588  0.00  0.00    -0.000 C 
ATOM     15  C   UNL     1       1.385   3.426   0.643  0.00  0.00    -0.000 C 
ENDBRANCH   1  10
BRANCH   1  16
ATOM     16  C   UNL     1      -1.858  -0.400  -0.156  0.00  0.00    -0.019 C 
ATOM     17  C   UNL     1      -2.878   0.048  -0.995  0.00  0.00    -0.004 C 
ATOM     18  C   UNL     1      -2.169  -0.983   1.072  0.00  0.00    -0.004 C 
ATOM     19  C   UNL     1      -4.210  -0.087  -0.605  0.00  0.00    -0.000 C 
ATOM     20  C   UNL     1      -3.501  -1.118   1.462  0.00  0.00    -0.000 C 
ATOM     21  C   UNL     1      -4.522  -0.670   0.623  0.00  0.00    -0.000 C 
ENDBRANCH   1  16
TORSDOF 3
