REMARK  Name = 6870646
REMARK  5 active torsions:
REMARK  status: ('A' for Active; 'I' for Inactive)
REMARK    1  A    between atoms: N_1  and  C_2
REMARK    2  A    between atoms: N_1  and  N_5
REMARK    3  A    between atoms: C_11  and  C_12
REMARK    4  A    between atoms: C_11  and  C_14
REMARK    5  A    between atoms: C_16  and  N_20
REMARK                            x       y       z     vdW  Elec       q    Type
REMARK                         _______ _______ _______ _____ _____    ______ ____
ROOT
ATOM      1  C   UNL     1       1.224  -0.229  -0.005  0.00  0.00    +0.100 C 
ATOM      2  C   UNL     1      -0.240  -0.016  -0.006  0.00  0.00    +0.001 C 
ENDROOT
BRANCH   1   3
ATOM      3  N   UNL     1       2.054   0.762   0.004  0.00  0.00    -0.142 NA
BRANCH   3   6
ATOM      4  O   UNL     1       6.056  -1.745  -0.013  0.00  0.00    -0.273 OA
ATOM      5  O   UNL     1       4.335   2.510   0.022  0.00  0.00    -0.251 OA
ATOM      6  N   UNL     1       3.341   0.382   0.002  0.00  0.00    -0.165 N 
ATOM      7  N   UNL     1       5.548   0.524   0.006  0.00  0.00    -0.237 N 
ATOM      8  C   UNL     1       3.748  -0.993  -0.010  0.00  0.00    +0.203 C 
ATOM      9  C   UNL     1       5.255  -0.820  -0.006  0.00  0.00    +0.252 C 
ATOM     10  C   UNL     1       4.398   1.288   0.012  0.00  0.00    +0.327 C 
ATOM     11  H   UNL     1       6.461   0.893   0.011  0.00  0.00    +0.159 HD
ENDBRANCH   3   6
ENDBRANCH   1   3
BRANCH   2  12
ATOM     12  C   UNL     1      -1.041  -1.090  -0.017  0.00  0.00    +0.092 C 
BRANCH  12  14
ATOM     13  O   UNL     1      -3.114   0.172  -0.015  0.00  0.00    -0.437 OA
ATOM     14  C   UNL     1      -2.473  -1.014  -0.004  0.00  0.00    +0.129 C 
ATOM     15  C   UNL     1      -3.343  -2.063   0.021  0.00  0.00    +0.038 C 
ATOM     16  C   UNL     1      -4.440  -0.121   0.003  0.00  0.00    +0.289 C 
ATOM     17  C   UNL     1      -4.634  -1.482   0.026  0.00  0.00    +0.066 C 
BRANCH  16  20
ATOM     18  O   UNL     1      -6.553   0.802   0.011  0.00  0.00    -0.123 OA
ATOM     19  O   UNL     1      -4.824   2.153  -0.027  0.00  0.00    -0.123 OA
ATOM     20  N   UNL     1      -5.300   0.980  -0.005  0.00  0.00    +0.093 N 
ENDBRANCH  16  20
ENDBRANCH  12  14
ENDBRANCH   2  12
TORSDOF 5
