REMARK  Name = 3047788
REMARK  3 active torsions:
REMARK  status: ('A' for Active; 'I' for Inactive)
REMARK    1  A    between atoms: C_2  and  C_13
REMARK    2  A    between atoms: C_13  and  C_14
REMARK    3  A    between atoms: C_14  and  N_15
REMARK                            x       y       z     vdW  Elec       q    Type
REMARK                         _______ _______ _______ _____ _____    ______ ____
ROOT
ATOM      1  O   UNL     1      -0.820   3.154   0.003  0.00  0.00    -0.296 OA
ATOM      2  C   UNL     1      -1.164   0.934  -0.924  0.00  0.00    +0.068 C 
ATOM      3  C   UNL     1      -1.723  -0.399  -0.414  0.00  0.00    -0.020 C 
ATOM      4  C   UNL     1      -1.471   2.108   0.020  0.00  0.00    +0.154 C 
ATOM      5  C   UNL     1      -1.793   1.303  -2.281  0.00  0.00    +0.012 C 
ATOM      6  C   UNL     1      -2.681   1.978   0.908  0.00  0.00    +0.069 C 
ATOM      7  C   UNL     1      -2.383  -0.499   0.828  0.00  0.00    -0.025 C 
ATOM      8  C   UNL     1      -2.555   0.703   1.718  0.00  0.00    +0.034 C 
ATOM      9  C   UNL     1      -1.580  -1.569  -1.186  0.00  0.00    -0.004 C 
ATOM     10  C   UNL     1      -2.851  -1.745   1.278  0.00  0.00    -0.005 C 
ATOM     11  C   UNL     1      -2.063  -2.799  -0.736  0.00  0.00    -0.000 C 
ATOM     12  C   UNL     1      -2.695  -2.888   0.497  0.00  0.00    -0.000 C 
ENDROOT
BRANCH   2  13
ATOM     13  C   UNL     1       0.368   0.832  -1.066  0.00  0.00    -0.012 C 
BRANCH  13  14
ATOM     14  C   UNL     1       1.006   0.472   0.265  0.00  0.00    -0.077 C 
BRANCH  14  15
ATOM     15  N   UNL     1       2.458   0.396   0.107  0.00  0.00    +0.387 N 
ATOM     16  C   UNL     1       2.817  -0.651  -0.860  0.00  0.00    -0.077 C 
ATOM     17  C   UNL     1       3.104   0.163   1.406  0.00  0.00    -0.077 C 
ATOM     18  C   UNL     1       4.330  -0.710  -1.073  0.00  0.00    -0.023 C 
ATOM     19  C   UNL     1       4.627   0.129   1.267  0.00  0.00    -0.023 C 
ATOM     20  C   UNL     1       5.068  -0.912   0.245  0.00  0.00    -0.004 C 
ATOM     21  H   UNL     1       2.795   1.288  -0.256  0.00  0.00    -0.080 HD
ENDBRANCH  14  15
ENDBRANCH  13  14
ENDBRANCH   2  13
TORSDOF 3
