REMARK  Name = 68780
REMARK  10 active torsions:
REMARK  status: ('A' for Active; 'I' for Inactive)
REMARK    1  A    between atoms: C_2  and  C_11
REMARK    2  A    between atoms: C_3  and  C_17
REMARK    3  A    between atoms: C_4  and  O_6
REMARK    4  A    between atoms: C_5  and  O_8
REMARK    5  A    between atoms: C_11  and  O_12
REMARK    6  A    between atoms: O_12  and  C_13
REMARK    7  A    between atoms: C_13  and  C_14
REMARK    8  A    between atoms: C_17  and  O_18
REMARK    9  A    between atoms: O_18  and  C_19
REMARK   10  A    between atoms: C_19  and  C_20
REMARK                            x       y       z     vdW  Elec       q    Type
REMARK                         _______ _______ _______ _____ _____    ______ ____
ROOT
ATOM      1  S   UNL     1      -0.008   1.731   0.000  0.00  0.00    -0.068 S 
ATOM      2  C   UNL     1      -1.205   0.530   0.001  0.00  0.00    +0.142 A 
ATOM      3  C   UNL     1       1.220   0.538  -0.002  0.00  0.00    +0.142 A 
ATOM      4  C   UNL     1      -0.723  -0.737   0.000  0.00  0.00    +0.181 A 
ATOM      5  C   UNL     1       0.701  -0.739  -0.002  0.00  0.00    +0.181 A 
ENDROOT
BRANCH   4   6
ATOM      6  O   UNL     1      -1.500  -1.835   0.001  0.00  0.00    -0.502 OA
ATOM      7  H   UNL     1      -2.433  -1.749   0.002  0.00  0.00    +0.292 HD
ENDBRANCH   4   6
BRANCH   5   8
ATOM      8  O   UNL     1       1.476  -1.839  -0.003  0.00  0.00    -0.502 OA
ATOM      9  H   UNL     1       2.409  -1.755  -0.004  0.00  0.00    +0.292 HD
ENDBRANCH   5   8
BRANCH   2  11
ATOM     10  O   UNL     1      -2.978   2.132   0.004  0.00  0.00    -0.244 OA
ATOM     11  C   UNL     1      -2.603   0.964   0.003  0.00  0.00    +0.350 C 
BRANCH  11  12
ATOM     12  O   UNL     1      -3.458  -0.111   0.003  0.00  0.00    -0.445 OA
BRANCH  12  13
ATOM     13  C   UNL     1      -4.847   0.188   0.004  0.00  0.00    +0.209 C 
BRANCH  13  14
ATOM     14  C   UNL     1      -5.630  -1.116   0.005  0.00  0.00    +0.047 C 
ATOM     15  C   UNL     1      -7.129  -0.875  -0.009  0.00  0.00    +0.004 C 
ENDBRANCH  13  14
ENDBRANCH  12  13
ENDBRANCH  11  12
ENDBRANCH   2  11
BRANCH   3  17
ATOM     16  O   UNL     1       2.997   2.135  -0.004  0.00  0.00    -0.244 OA
ATOM     17  C   UNL     1       2.585   0.958  -0.003  0.00  0.00    +0.350 C 
BRANCH  17  18
ATOM     18  O   UNL     1       3.460  -0.111  -0.003  0.00  0.00    -0.445 OA
BRANCH  18  19
ATOM     19  C   UNL     1       4.861   0.187  -0.003  0.00  0.00    +0.209 C 
BRANCH  19  20
ATOM     20  C   UNL     1       5.641  -1.119  -0.003  0.00  0.00    +0.047 C 
ATOM     21  C   UNL     1       7.141  -0.880   0.012  0.00  0.00    +0.004 C 
ENDBRANCH  19  20
ENDBRANCH  18  19
ENDBRANCH  17  18
ENDBRANCH   3  17
TORSDOF 10
