REMARK  Name = 83969
REMARK  5 active torsions:
REMARK  status: ('A' for Active; 'I' for Inactive)
REMARK    1  A    between atoms: N_4  and  C_11
REMARK    2  A    between atoms: C_6  and  S_16
REMARK    3  A    between atoms: C_12  and  O_21
REMARK    4  A    between atoms: S_16  and  C_18
REMARK    5  A    between atoms: C_18  and  C_19
REMARK                            x       y       z     vdW  Elec       q    Type
REMARK                         _______ _______ _______ _____ _____    ______ ____
ROOT
ATOM      1  N   UNL     1       1.113   1.013  -0.567  0.00  0.00    -0.302 N 
ATOM      2  N   UNL     1       1.816  -0.945   0.216  0.00  0.00    -0.302 N 
ATOM      3  C   UNL     1      -0.011   0.233  -0.470  0.00  0.00    +0.061 C 
ATOM      4  C   UNL     1      -2.249  -0.571  -0.535  0.00  0.00    +0.057 C 
ATOM      5  C   UNL     1       0.455  -0.984   0.021  0.00  0.00    +0.060 C 
ATOM      6  C   UNL     1      -1.353   0.479  -0.760  0.00  0.00    +0.024 C 
ATOM      7  C   UNL     1      -1.812  -1.803  -0.043  0.00  0.00    +0.010 C 
ATOM      8  C   UNL     1      -0.459  -2.028   0.241  0.00  0.00    +0.016 C 
ATOM      9  C   UNL     1       2.178   0.266  -0.146  0.00  0.00    +0.229 C 
ATOM     10  H   UNL     1       1.147   1.944  -0.884  0.00  0.00    +0.150 HD
ATOM     11  H   UNL     1       2.394  -1.667   0.554  0.00  0.00    +0.150 HD
ENDROOT
BRANCH   9  13
ATOM     12  O   UNL     1       4.811  -0.929   0.670  0.00  0.00    -0.226 OA
ATOM     13  N   UNL     1       3.439   0.801  -0.136  0.00  0.00    -0.240 N 
ATOM     14  C   UNL     1       4.657   0.212   0.254  0.00  0.00    +0.404 C 
ATOM     15  H   UNL     1       3.503   1.733  -0.447  0.00  0.00    +0.156 HD
BRANCH  14  16
ATOM     16  O   UNL     1       5.682   1.108   0.104  0.00  0.00    -0.431 OA
ATOM     17  C   UNL     1       6.986   0.638   0.467  0.00  0.00    +0.257 C 
ENDBRANCH  14  16
ENDBRANCH   9  13
BRANCH   4  18
ATOM     18  S   UNL     1      -3.994  -0.327  -0.886  0.00  0.00    +0.065 S 
ATOM     19  O   UNL     1      -4.130   0.809  -1.876  0.00  0.00    -0.251 OA
BRANCH  18  20
ATOM     20  C   UNL     1      -4.556   0.292   0.725  0.00  0.00    +0.096 C 
BRANCH  20  21
ATOM     21  C   UNL     1      -6.042   0.617   0.686  0.00  0.00    +0.015 C 
ATOM     22  C   UNL     1      -6.533   1.119   2.034  0.00  0.00    +0.001 C 
ENDBRANCH  20  21
ENDBRANCH  18  20
ENDBRANCH   4  18
TORSDOF 5
