REMARK  Name = 65592
REMARK  1 active torsions:
REMARK  status: ('A' for Active; 'I' for Inactive)
REMARK    1  A    between atoms: C_6  and  O_13
REMARK                            x       y       z     vdW  Elec       q    Type
REMARK                         _______ _______ _______ _____ _____    ______ ____
ROOT
ATOM      1 BR   UNL     1      -3.840   0.421   0.001  0.00  0.00    -0.046 Br
ATOM      2  N   UNL     1       1.248   1.712   0.000  0.00  0.00    -0.241 NA
ATOM      3  C   UNL     1       0.724  -0.640   0.000  0.00  0.00    +0.017 C 
ATOM      4  C   UNL     1      -0.250  -1.653  -0.001  0.00  0.00    -0.020 C 
ATOM      5  C   UNL     1       0.340   0.718   0.000  0.00  0.00    +0.115 C 
ATOM      6  C   UNL     1      -1.020   1.014   0.000  0.00  0.00    +0.157 C 
ATOM      7  C   UNL     1      -1.604  -1.328  -0.001  0.00  0.00    +0.006 C 
ATOM      8  C   UNL     1       2.093  -0.939   0.000  0.00  0.00    +0.003 C 
ATOM      9  C   UNL     1      -1.989   0.007  -0.001  0.00  0.00    +0.069 C 
ATOM     10  C   UNL     1       0.113  -3.105   0.001  0.00  0.00    +0.031 C 
ATOM     11  C   UNL     1       3.031   0.084   0.000  0.00  0.00    +0.021 C 
ATOM     12  C   UNL     1       2.559   1.381   0.000  0.00  0.00    +0.099 C 
ENDROOT
BRANCH   6  13
ATOM     13  O   UNL     1      -1.406   2.328   0.000  0.00  0.00    -0.504 OA
ATOM     14  H   UNL     1      -0.759   3.006   0.001  0.00  0.00    +0.292 HD
ENDBRANCH   6  13
TORSDOF 1
