REMARK  Name = 4814
REMARK  7 active torsions:
REMARK  status: ('A' for Active; 'I' for Inactive)
REMARK    1  A    between atoms: C_1  and  C_9
REMARK    2  A    between atoms: C_2  and  C_20
REMARK    3  A    between atoms: C_4  and  O_29
REMARK    4  A    between atoms: N_8  and  C_11
REMARK    5  A    between atoms: C_11  and  C_13
REMARK    6  A    between atoms: N_19  and  C_22
REMARK    7  A    between atoms: C_22  and  C_24
REMARK                            x       y       z     vdW  Elec       q    Type
REMARK                         _______ _______ _______ _____ _____    ______ ____
ROOT
ATOM      1  C   UNL     1       1.134  -1.684   0.365  0.00  0.00    +0.087 C 
ATOM      2  C   UNL     1      -1.281  -1.732   0.376  0.00  0.00    +0.054 C 
ATOM      3  C   UNL     1      -0.081  -1.205   0.854  0.00  0.00    +0.012 C 
ATOM      4  C   UNL     1       1.149  -2.690  -0.601  0.00  0.00    +0.143 C 
ATOM      5  C   UNL     1      -1.266  -2.737  -0.590  0.00  0.00    +0.008 C 
ATOM      6  C   UNL     1      -0.051  -3.217  -1.079  0.00  0.00    +0.037 C 
ENDROOT
BRANCH   1   9
ATOM      7  O   UNL     1       3.411  -1.807   0.911  0.00  0.00    -0.270 OA
ATOM      8  N   UNL     1       2.341   0.214   1.294  0.00  0.00    -0.297 N 
ATOM      9  C   UNL     1       2.376  -1.121   0.876  0.00  0.00    +0.249 C 
ATOM     10  H   UNL     1       1.485   0.698   1.238  0.00  0.00    +0.150 HD
BRANCH   8  11
ATOM     11  C   UNL     1       3.495   0.921   1.802  0.00  0.00    +0.118 C 
BRANCH  11  13
ATOM     12  N   UNL     1       4.603   3.576  -0.631  0.00  0.00    -0.243 NA
ATOM     13  C   UNL     1       4.260   1.607   0.708  0.00  0.00    +0.017 C 
ATOM     14  C   UNL     1       5.283   0.951   0.047  0.00  0.00    +0.001 C 
ATOM     15  C   UNL     1       3.955   2.901   0.344  0.00  0.00    +0.096 C 
ATOM     16  C   UNL     1       5.973   1.612  -0.963  0.00  0.00    +0.020 C 
ATOM     17  C   UNL     1       5.598   2.912  -1.261  0.00  0.00    +0.099 C 
ENDBRANCH  11  13
ENDBRANCH   8  11
ENDBRANCH   1   9
BRANCH   2  20
ATOM     18  O   UNL     1      -2.618  -0.725   2.019  0.00  0.00    -0.270 OA
ATOM     19  N   UNL     1      -3.656  -1.325   0.035  0.00  0.00    -0.297 N 
ATOM     20  C   UNL     1      -2.548  -1.230   0.885  0.00  0.00    +0.246 C 
ATOM     21  H   UNL     1      -3.530  -1.737  -0.850  0.00  0.00    +0.150 HD
BRANCH  19  22
ATOM     22  C   UNL     1      -4.976  -0.850   0.386  0.00  0.00    +0.118 C 
BRANCH  22  24
ATOM     23  N   UNL     1      -5.897   2.163  -1.681  0.00  0.00    -0.243 NA
ATOM     24  C   UNL     1      -5.183   0.582  -0.015  0.00  0.00    +0.017 C 
ATOM     25  C   UNL     1      -4.869   1.608   0.859  0.00  0.00    +0.001 C 
ATOM     26  C   UNL     1      -5.687   0.896  -1.258  0.00  0.00    +0.096 C 
ATOM     27  C   UNL     1      -5.071   2.925   0.460  0.00  0.00    +0.020 C 
ATOM     28  C   UNL     1      -5.582   3.147  -0.809  0.00  0.00    +0.099 C 
ENDBRANCH  22  24
ENDBRANCH  19  22
ENDBRANCH   2  20
BRANCH   4  29
ATOM     29  O   UNL     1       2.326  -3.171  -1.092  0.00  0.00    -0.471 OA
ATOM     30  C   UNL     1       2.863  -2.520  -2.241  0.00  0.00    +0.252 C 
ENDBRANCH   4  29
TORSDOF 7
