REMARK  Name = 10630
REMARK  1 active torsions:
REMARK  status: ('A' for Active; 'I' for Inactive)
REMARK    1  A    between atoms: N_4  and  C_10
REMARK                            x       y       z     vdW  Elec       q    Type
REMARK                         _______ _______ _______ _____ _____    ______ ____
ROOT
ATOM      1  O   UNL     1       0.862  -1.329   0.160  0.00  0.00    -0.433 OA
ATOM      2  O   UNL     1       0.364   2.099  -0.290  0.00  0.00    -0.271 OA
ATOM      3  O   UNL     1      -1.235  -2.193  -0.074  0.00  0.00    -0.226 OA
ATOM      4  N   UNL     1      -0.806   0.079  -0.273  0.00  0.00    -0.193 N 
ATOM      5  C   UNL     1       1.468  -0.026   0.105  0.00  0.00    +0.206 C 
ATOM      6  C   UNL     1       0.297   0.883  -0.176  0.00  0.00    +0.270 C 
ATOM      7  C   UNL     1       2.099   0.288   1.453  0.00  0.00    +0.053 C 
ATOM      8  C   UNL     1       2.476   0.007  -1.034  0.00  0.00    +0.053 C 
ATOM      9  C   UNL     1      -0.483  -1.228  -0.067  0.00  0.00    +0.411 C 
ENDROOT
BRANCH   4  10
ATOM     10  C   UNL     1      -2.151   0.548  -0.542  0.00  0.00    +0.104 C 
ATOM     11  C   UNL     1      -2.892   0.873   0.738  0.00  0.00    +0.024 C 
ENDBRANCH   4  10
TORSDOF 1
