REMARK  Name = 28693
REMARK  5 active torsions:
REMARK  status: ('A' for Active; 'I' for Inactive)
REMARK    1  A    between atoms: C_6  and  C_20
REMARK    2  A    between atoms: C_20  and  N_22
REMARK    3  A    between atoms: C_23  and  O_25
REMARK    4  A    between atoms: O_25  and  C_26
REMARK    5  A    between atoms: C_26  and  C_27
REMARK                            x       y       z     vdW  Elec       q    Type
REMARK                         _______ _______ _______ _____ _____    ______ ____
ROOT
ATOM      1  N   UNL     1      -2.374   2.989   0.431  0.00  0.00    +0.387 N 
ATOM      2  N   UNL     1      -5.836  -1.933   0.202  0.00  0.00    -0.284 N 
ATOM      3  C   UNL     1      -1.883   0.534   0.178  0.00  0.00    +0.004 C 
ATOM      4  C   UNL     1      -2.971   1.687   0.042  0.00  0.00    -0.050 C 
ATOM      5  C   UNL     1      -0.647   0.871  -0.667  0.00  0.00    +0.002 C 
ATOM      6  C   UNL     1      -0.110   2.258  -0.307  0.00  0.00    -0.001 C 
ATOM      7  C   UNL     1      -4.286   1.365   0.851  0.00  0.00    +0.007 C 
ATOM      8  C   UNL     1      -1.215   3.314  -0.419  0.00  0.00    -0.076 C 
ATOM      9  C   UNL     1      -2.480  -0.825  -0.149  0.00  0.00    -0.024 C 
ATOM     10  C   UNL     1      -3.852  -0.983   0.084  0.00  0.00    +0.007 C 
ATOM     11  C   UNL     1      -4.764  -0.014   0.548  0.00  0.00    -0.008 C 
ATOM     12  C   UNL     1      -4.521  -2.173  -0.130  0.00  0.00    +0.051 C 
ATOM     13  C   UNL     1      -3.333   4.096   0.370  0.00  0.00    -0.101 C 
ATOM     14  C   UNL     1      -1.796  -1.965  -0.589  0.00  0.00    -0.004 C 
ATOM     15  C   UNL     1      -5.994  -0.626   0.618  0.00  0.00    +0.061 C 
ATOM     16  C   UNL     1      -3.853  -3.308  -0.590  0.00  0.00    +0.015 C 
ATOM     17  C   UNL     1      -2.473  -3.176  -0.811  0.00  0.00    +0.001 C 
ATOM     18  C   UNL     1      -6.909  -2.901   0.133  0.00  0.00    +0.117 C 
ATOM     19  H   UNL     1      -2.078   2.881   1.401  0.00  0.00    -0.080 HD
ENDROOT
BRANCH   6  20
ATOM     20  C   UNL     1       1.077   2.622  -1.200  0.00  0.00    +0.091 C 
BRANCH  20  22
ATOM     21  O   UNL     1       3.284   2.728   0.686  0.00  0.00    -0.226 OA
ATOM     22  N   UNL     1       2.143   1.681  -1.044  0.00  0.00    -0.271 N 
ATOM     23  C   UNL     1       3.164   1.806  -0.114  0.00  0.00    +0.402 C 
ATOM     24  H   UNL     1       2.152   0.894  -1.635  0.00  0.00    +0.153 HD
BRANCH  23  25
ATOM     25  O   UNL     1       4.024   0.749  -0.214  0.00  0.00    -0.430 OA
BRANCH  25  26
ATOM     26  C   UNL     1       5.130   0.756   0.696  0.00  0.00    +0.237 C 
BRANCH  26  27
ATOM     27  C   UNL     1       5.970  -0.464   0.455  0.00  0.00    +0.021 C 
ATOM     28  C   UNL     1       5.696  -1.637   1.150  0.00  0.00    -0.001 C 
ATOM     29  C   UNL     1       7.014  -0.411  -0.461  0.00  0.00    -0.001 C 
ATOM     30  C   UNL     1       6.476  -2.771   0.926  0.00  0.00    -0.000 C 
ATOM     31  C   UNL     1       7.795  -1.545  -0.685  0.00  0.00    -0.000 C 
ATOM     32  C   UNL     1       7.526  -2.725   0.009  0.00  0.00    -0.000 C 
ENDBRANCH  26  27
ENDBRANCH  25  26
ENDBRANCH  23  25
ENDBRANCH  20  22
ENDBRANCH   6  20
TORSDOF 5
