REMARK  Name = 219095
REMARK  7 active torsions:
REMARK  status: ('A' for Active; 'I' for Inactive)
REMARK    1  A    between atoms: C_7  and  C_29
REMARK    2  A    between atoms: C_8  and  O_21
REMARK    3  A    between atoms: C_9  and  C_16
REMARK    4  A    between atoms: C_16  and  O_17
REMARK    5  A    between atoms: O_17  and  C_18
REMARK    6  A    between atoms: O_21  and  C_23
REMARK    7  A    between atoms: C_29  and  O_30
REMARK                            x       y       z     vdW  Elec       q    Type
REMARK                         _______ _______ _______ _____ _____    ______ ____
ROOT
ATOM      1  N   UNL     1       0.407   3.635   0.486  0.00  0.00    -0.355 N 
ATOM      2  N   UNL     1       3.193   1.304   1.124  0.00  0.00    -0.261 NA
ATOM      3  C   UNL     1       0.578   1.435   0.157  0.00  0.00    +0.003 A 
ATOM      4  C   UNL     1      -0.723   1.862  -0.259  0.00  0.00    +0.048 A 
ATOM      5  C   UNL     1       1.257   2.564   0.616  0.00  0.00    +0.055 A 
ATOM      6  C   UNL     1      -0.799   3.239  -0.042  0.00  0.00    +0.059 A 
ATOM      7  C   UNL     1       1.240   0.199   0.188  0.00  0.00    +0.099 C 
ATOM      8  C   UNL     1      -1.846   1.202  -0.802  0.00  0.00    +0.146 C 
ATOM      9  C   UNL     1       2.538   0.207   0.681  0.00  0.00    +0.136 C 
ATOM     10  C   UNL     1       2.558   2.498   1.097  0.00  0.00    +0.168 C 
ATOM     11  C   UNL     1      -1.942   3.990  -0.341  0.00  0.00    +0.017 C 
ATOM     12  C   UNL     1      -2.995   1.940  -1.105  0.00  0.00    +0.038 C 
ATOM     13  C   UNL     1      -3.041   3.313  -0.877  0.00  0.00    +0.005 C 
ATOM     14  H   UNL     1       0.632   4.561   0.736  0.00  0.00    +0.166 HD
ENDROOT
BRANCH   9  16
ATOM     15  O   UNL     1       3.336  -1.775   1.738  0.00  0.00    -0.244 OA
ATOM     16  C   UNL     1       3.319  -1.020   0.759  0.00  0.00    +0.355 C 
BRANCH  16  17
ATOM     17  O   UNL     1       4.030  -1.235  -0.389  0.00  0.00    -0.448 OA
BRANCH  17  18
ATOM     18  C   UNL     1       5.268  -1.943  -0.257  0.00  0.00    +0.169 C 
ATOM     19  C   UNL     1       6.181  -1.184   0.693  0.00  0.00    +0.047 C 
ATOM     20  C   UNL     1       5.895  -2.114  -1.632  0.00  0.00    +0.047 C 
ENDBRANCH  17  18
ENDBRANCH  16  17
ENDBRANCH   9  16
BRANCH   8  21
ATOM     21  O   UNL     1      -1.868  -0.146  -1.049  0.00  0.00    -0.453 OA
BRANCH  21  23
ATOM     22 CL   UNL     1      -5.929  -3.339   1.741  0.00  0.00    -0.082 Cl
ATOM     23  C   UNL     1      -2.824  -0.895  -0.393  0.00  0.00    +0.145 C 
ATOM     24  C   UNL     1      -3.040  -0.685   0.959  0.00  0.00    +0.038 C 
ATOM     25  C   UNL     1      -3.545  -1.843  -1.101  0.00  0.00    +0.038 C 
ATOM     26  C   UNL     1      -4.005  -1.444   1.622  0.00  0.00    +0.015 C 
ATOM     27  C   UNL     1      -4.510  -2.602  -0.438  0.00  0.00    +0.015 C 
ATOM     28  C   UNL     1      -4.740  -2.402   0.923  0.00  0.00    +0.058 C 
ENDBRANCH  21  23
ENDBRANCH   8  21
BRANCH   7  29
ATOM     29  C   UNL     1       0.642  -1.092  -0.269  0.00  0.00    +0.153 C 
BRANCH  29  30
ATOM     30  O   UNL     1       0.948  -1.231  -1.650  0.00  0.00    -0.350 OA
ATOM     31  C   UNL     1       0.418  -2.437  -2.182  0.00  0.00    +0.174 C 
ENDBRANCH  29  30
ENDBRANCH   7  29
TORSDOF 7
