REMARK  Name = 7436
REMARK  5 active torsions:
REMARK  status: ('A' for Active; 'I' for Inactive)
REMARK    1  A    between atoms: C_1  and  C_8
REMARK    2  A    between atoms: C_4  and  O_14
REMARK    3  A    between atoms: C_6  and  O_16
REMARK    4  A    between atoms: C_8  and  C_9
REMARK    5  A    between atoms: C_9  and  N_10
REMARK                            x       y       z     vdW  Elec       q    Type
REMARK                         _______ _______ _______ _____ _____    ______ ____
ROOT
ATOM      1  C   UNL     1      -0.079  -0.132  -0.001  0.00  0.00    +0.036 C 
ATOM      2  C   UNL     1       0.939  -1.085  -0.001  0.00  0.00    +0.043 C 
ATOM      3  C   UNL     1       0.237   1.227  -0.001  0.00  0.00    +0.006 C 
ATOM      4  C   UNL     1       2.274  -0.679   0.000  0.00  0.00    +0.168 C 
ATOM      5  C   UNL     1       1.571   1.633   0.000  0.00  0.00    +0.040 C 
ATOM      6  C   UNL     1       2.590   0.680   0.000  0.00  0.00    +0.167 C 
ENDROOT
BRANCH   1   8
ATOM      7  O   UNL     1      -1.765  -1.768  -0.001  0.00  0.00    -0.294 OA
ATOM      8  C   UNL     1      -1.471  -0.554   0.000  0.00  0.00    +0.152 C 
BRANCH   8   9
ATOM      9  C   UNL     1      -2.587   0.502   0.001  0.00  0.00    -0.011 C 
BRANCH   9  10
ATOM     10  N   UNL     1      -3.896  -0.142   0.005  0.00  0.00    +0.387 N 
ATOM     11  C   UNL     1      -4.962   0.849  -0.004  0.00  0.00    -0.105 C 
ATOM     12  H   UNL     1      -3.982  -0.719   0.842  0.00  0.00    -0.084 HD
ATOM     13  H   UNL     1      -3.978  -0.718  -0.833  0.00  0.00    -0.084 HD
ENDBRANCH   9  10
ENDBRANCH   8   9
ENDBRANCH   1   8
BRANCH   4  14
ATOM     14  O   UNL     1       3.260  -1.619   0.000  0.00  0.00    -0.503 OA
ATOM     15  H   UNL     1       3.040  -2.529   0.000  0.00  0.00    +0.292 HD
ENDBRANCH   4  14
BRANCH   6  16
ATOM     16  O   UNL     1       3.889   1.088   0.001  0.00  0.00    -0.503 OA
ATOM     17  H   UNL     1       4.580   0.455   0.001  0.00  0.00    +0.292 HD
ENDBRANCH   6  16
TORSDOF 5
