REMARK  Name = 20737
REMARK  1 active torsions:
REMARK  status: ('A' for Active; 'I' for Inactive)
REMARK    1  A    between atoms: C_7  and  O_11
REMARK                            x       y       z     vdW  Elec       q    Type
REMARK                         _______ _______ _______ _____ _____    ______ ____
ROOT
ATOM      1 BR   UNL     1      -0.060   3.051   0.002  0.00  0.00    -0.046 Br
ATOM      2 BR   UNL     1      -2.758  -2.024   0.000  0.00  0.00    -0.049 Br
ATOM      3 BR   UNL     1       2.888  -1.855   0.000  0.00  0.00    -0.046 Br
ATOM      4  C   UNL     1      -1.211   0.416  -0.001  0.00  0.00    -0.006 C 
ATOM      5  C   UNL     1      -0.023   1.146  -0.001  0.00  0.00    +0.065 C 
ATOM      6  C   UNL     1      -1.173  -0.978   0.001  0.00  0.00    +0.032 C 
ATOM      7  C   UNL     1       1.204   0.482  -0.001  0.00  0.00    +0.146 C 
ATOM      8  C   UNL     1       0.053  -1.643   0.001  0.00  0.00    +0.016 C 
ATOM      9  C   UNL     1      -2.532   1.124  -0.001  0.00  0.00    +0.032 C 
ATOM     10  C   UNL     1       1.242  -0.912   0.001  0.00  0.00    +0.069 C 
ENDROOT
BRANCH   7  11
ATOM     11  O   UNL     1       2.371   1.192  -0.001  0.00  0.00    -0.505 OA
ATOM     12  H   UNL     1       2.349   2.129  -0.001  0.00  0.00    +0.292 HD
ENDBRANCH   7  11
TORSDOF 1
