REMARK  Name = 19646
REMARK  2 active torsions:
REMARK  status: ('A' for Active; 'I' for Inactive)
REMARK    1  A    between atoms: C_6  and  C_11
REMARK    2  A    between atoms: C_7  and  N_17
REMARK                            x       y       z     vdW  Elec       q    Type
REMARK                         _______ _______ _______ _____ _____    ______ ____
ROOT
ATOM      1  S   UNL     1      -1.874   1.151  -0.028  0.00  0.00    -0.027 S 
ATOM      2  O   UNL     1       1.556  -1.921  -0.008  0.00  0.00    -0.269 OA
ATOM      3  N   UNL     1       0.564   0.187  -0.034  0.00  0.00    -0.260 N 
ATOM      4  N   UNL     1      -1.279  -1.364   0.011  0.00  0.00    -0.221 NA
ATOM      5  C   UNL     1      -0.791  -0.164  -0.014  0.00  0.00    +0.167 C 
ATOM      6  C   UNL     1       1.686  -0.674  -0.030  0.00  0.00    +0.257 C 
ATOM      7  C   UNL     1      -3.164   0.022   0.003  0.00  0.00    +0.194 C 
ATOM      8  C   UNL     1      -2.657  -1.260   0.021  0.00  0.00    +0.132 C 
ATOM      9  H   UNL     1       0.760   1.152  -0.052  0.00  0.00    +0.157 HD
ENDROOT
BRANCH   6  11
ATOM     10  S   UNL     1       4.377  -0.996  -0.003  0.00  0.00    -0.082 S 
ATOM     11  C   UNL     1       2.961  -0.034  -0.008  0.00  0.00    +0.083 C 
ATOM     12  C   UNL     1       3.251   1.313   0.010  0.00  0.00    +0.012 C 
ATOM     13  C   UNL     1       4.655   1.558   0.028  0.00  0.00    +0.008 C 
ATOM     14  C   UNL     1       5.384   0.389   0.024  0.00  0.00    +0.036 C 
ENDBRANCH   6  11
BRANCH   7  17
ATOM     15  O   UNL     1      -5.435  -0.377   0.032  0.00  0.00    -0.126 OA
ATOM     16  O   UNL     1      -4.740   1.705  -0.011  0.00  0.00    -0.126 OA
ATOM     17  N   UNL     1      -4.492   0.465   0.008  0.00  0.00    +0.065 N 
ENDBRANCH   7  17
TORSDOF 2
