68827
  -OEChem-10051722593D

 42 45  0     1  0  0  0  0  0999 V2000
   -0.4252   -0.6113   -1.5237 O   0  0  0  0  0  0  0  0  0  0  0  0
   -1.2458   -1.2966    1.1754 O   0  0  0  0  0  0  0  0  0  0  0  0
    1.0859   -1.5145    0.9859 O   0  0  0  0  0  0  0  0  0  0  0  0
   -0.8936   -1.9136   -1.0661 O   0  0  0  0  0  0  0  0  0  0  0  0
    3.3238   -1.7230    0.9847 O   0  0  0  0  0  0  0  0  0  0  0  0
   -0.0882    0.2179   -0.3851 C   0  0  2  0  0  0  0  0  0  0  0  0
   -1.1855    1.3234   -0.3610 C   0  0  2  0  0  0  0  0  0  0  0  0
    1.3016    0.8085   -0.6947 C   0  0  1  0  0  0  0  0  0  0  0  0
   -0.8010    2.5229    0.5493 C   0  0  1  0  0  0  0  0  0  0  0  0
   -0.0232   -0.5876    0.9278 C   0  0  1  0  0  0  0  0  0  0  0  0
    1.6603    1.9621    0.2517 C   0  0  0  0  0  0  0  0  0  0  0  0
   -2.5880    0.7824    0.0088 C   0  0  0  0  0  0  0  0  0  0  0  0
    0.5974    3.0536    0.2112 C   0  0  0  0  0  0  0  0  0  0  0  0
    2.3458   -0.3230   -0.7226 C   0  0  2  0  0  0  0  0  0  0  0  0
   -1.8713   -1.6894   -0.0476 C   0  0  2  0  0  0  0  0  0  0  0  0
   -2.9166   -0.6370   -0.4718 C   0  0  0  0  0  0  0  0  0  0  0  0
   -1.8086    3.6752    0.4553 C   0  0  0  0  0  0  0  0  0  0  0  0
    2.3161   -1.2026    0.5133 C   0  0  0  0  0  0  0  0  0  0  0  0
    3.7640    0.1884   -0.9898 C   0  0  0  0  0  0  0  0  0  0  0  0
   -2.5476   -3.0359    0.1990 C   0  0  0  0  0  0  0  0  0  0  0  0
   -1.2739    1.7028   -1.3909 H   0  0  0  0  0  0  0  0  0  0  0  0
    1.2728    1.2244   -1.7136 H   0  0  0  0  0  0  0  0  0  0  0  0
   -0.7895    2.1866    1.5943 H   0  0  0  0  0  0  0  0  0  0  0  0
    0.1099    0.0728    1.7899 H   0  0  0  0  0  0  0  0  0  0  0  0
    2.6144    2.4140   -0.0414 H   0  0  0  0  0  0  0  0  0  0  0  0
    1.7867    1.6037    1.2796 H   0  0  0  0  0  0  0  0  0  0  0  0
   -3.3519    1.4602   -0.3929 H   0  0  0  0  0  0  0  0  0  0  0  0
   -2.7128    0.8092    1.0997 H   0  0  0  0  0  0  0  0  0  0  0  0
    0.8755    3.8461    0.9167 H   0  0  0  0  0  0  0  0  0  0  0  0
    0.5895    3.5112   -0.7868 H   0  0  0  0  0  0  0  0  0  0  0  0
    2.0994   -0.9953   -1.5564 H   0  0  0  0  0  0  0  0  0  0  0  0
   -3.8928   -0.8890   -0.0374 H   0  0  0  0  0  0  0  0  0  0  0  0
   -3.0491   -0.6443   -1.5606 H   0  0  0  0  0  0  0  0  0  0  0  0
   -1.9279    4.0140   -0.5794 H   0  0  0  0  0  0  0  0  0  0  0  0
   -2.7917    3.3801    0.8342 H   0  0  0  0  0  0  0  0  0  0  0  0
   -1.4774    4.5304    1.0545 H   0  0  0  0  0  0  0  0  0  0  0  0
    4.4389   -0.6475   -1.2069 H   0  0  0  0  0  0  0  0  0  0  0  0
    3.7839    0.8615   -1.8531 H   0  0  0  0  0  0  0  0  0  0  0  0
    4.1780    0.7153   -0.1236 H   0  0  0  0  0  0  0  0  0  0  0  0
   -3.2771   -2.9755    1.0138 H   0  0  0  0  0  0  0  0  0  0  0  0
   -3.0456   -3.4025   -0.7049 H   0  0  0  0  0  0  0  0  0  0  0  0
   -1.8051   -3.7891    0.4880 H   0  0  0  0  0  0  0  0  0  0  0  0
  1  4  1  0  0  0  0
  1  6  1  0  0  0  0
  2 10  1  0  0  0  0
  2 15  1  0  0  0  0
  3 10  1  0  0  0  0
  3 18  1  0  0  0  0
  4 15  1  0  0  0  0
  5 18  2  0  0  0  0
  6  7  1  0  0  0  0
  6  8  1  0  0  0  0
  6 10  1  0  0  0  0
  7  9  1  0  0  0  0
  7 12  1  0  0  0  0
  7 21  1  0  0  0  0
  8 11  1  0  0  0  0
  8 14  1  0  0  0  0
  8 22  1  0  0  0  0
  9 13  1  0  0  0  0
  9 17  1  0  0  0  0
  9 23  1  0  0  0  0
 10 24  1  0  0  0  0
 11 13  1  0  0  0  0
 11 25  1  0  0  0  0
 11 26  1  0  0  0  0
 12 16  1  0  0  0  0
 12 27  1  0  0  0  0
 12 28  1  0  0  0  0
 13 29  1  0  0  0  0
 13 30  1  0  0  0  0
 14 18  1  0  0  0  0
 14 19  1  0  0  0  0
 14 31  1  0  0  0  0
 15 16  1  0  0  0  0
 15 20  1  0  0  0  0
 16 32  1  0  0  0  0
 16 33  1  0  0  0  0
 17 34  1  0  0  0  0
 17 35  1  0  0  0  0
 17 36  1  0  0  0  0
 19 37  1  0  0  0  0
 19 38  1  0  0  0  0
 19 39  1  0  0  0  0
 20 40  1  0  0  0  0
 20 41  1  0  0  0  0
 20 42  1  0  0  0  0
M  END
> <DATABASE_ID>
DB13132

> <DATABASE_NAME>
drugbank

> <ORIGINAL_SOURCE>
PUBCHEM

> <ORIGINAL_SOURCE_URL>
https://pubchem.ncbi.nlm.nih.gov/rest/pug/compound/inchikey/BLUAFEHZUWYNDE-NNWCWBAJSA-N/SDF?record_type=3d

> <SMILES>
[H][C@@]1(C)CC[C@@]2([H])[C@@]([H])(C)C(=O)O[C@]3([H])O[C@@]4(C)CC[C@]1([H])[C@@]23OO4

> <INCHI_IDENTIFIER>
InChI=1S/C15H22O5/c1-8-4-5-11-9(2)12(16)17-13-15(11)10(8)6-7-14(3,18-13)19-20-15/h8-11,13H,4-7H2,1-3H3/t8-,9-,10+,11+,13-,14-,15-/m1/s1

> <INCHI_KEY>
BLUAFEHZUWYNDE-NNWCWBAJSA-N

> <FORMULA>
C15H22O5

> <MOLECULAR_WEIGHT>
282.336

> <EXACT_MASS>
282.146723808

> <JCHEM_ACCEPTOR_COUNT>
4

> <JCHEM_ATOM_COUNT>
42

> <JCHEM_AVERAGE_POLARIZABILITY>
29.433175836688754

> <JCHEM_BIOAVAILABILITY>
1

> <JCHEM_DONOR_COUNT>
0

> <JCHEM_FORMAL_CHARGE>
0

> <JCHEM_GHOSE_FILTER>
1

> <JCHEM_IUPAC>
(1R,4S,5R,8S,9R,12S,13R)-1,5,9-trimethyl-11,14,15,16-tetraoxatetracyclo[10.3.1.0⁴,¹³.0⁸,¹³]hexadecan-10-one

> <ALOGPS_LOGP>
2.52

> <JCHEM_LOGP>
3.114058047333332

> <ALOGPS_LOGS>
-2.35

> <JCHEM_MDDR_LIKE_RULE>
0

> <JCHEM_NUMBER_OF_RINGS>
4

> <JCHEM_PHYSIOLOGICAL_CHARGE>
0

> <JCHEM_PKA_STRONGEST_BASIC>
-4.427808040586903

> <JCHEM_POLAR_SURFACE_AREA>
53.99000000000001

> <JCHEM_REFRACTIVITY>
68.6817

> <JCHEM_ROTATABLE_BOND_COUNT>
0

> <JCHEM_RULE_OF_FIVE>
1

> <ALOGPS_SOLUBILITY>
1.27e+00 g/l

> <JCHEM_TRADITIONAL_IUPAC>
(+)-artemisinin

> <JCHEM_VEBER_RULE>
0

> <DRUGBANK_ID>
DB13132

> <DRUG_GROUPS>
investigational

> <GENERIC_NAME>
Artemisinin

> <SYNONYMS>
Artemisinin; artemisinina

$$$$
