REMARK  Name = 6436171
REMARK  3 active torsions:
REMARK  status: ('A' for Active; 'I' for Inactive)
REMARK    1  A    between atoms: C_1  and  C_14
REMARK    2  A    between atoms: C_2  and  C_6
REMARK    3  A    between atoms: C_15  and  N_20
REMARK                            x       y       z     vdW  Elec       q    Type
REMARK                         _______ _______ _______ _____ _____    ______ ____
ROOT
ATOM      1  C   UNL     1      -0.120   0.172  -0.197  0.00  0.00    +0.037 C 
ATOM      2  C   UNL     1      -1.152   0.990   0.122  0.00  0.00    +0.036 C 
ENDROOT
BRANCH   2   6
ATOM      3  N   UNL     1      -2.820  -0.678  -0.183  0.00  0.00    -0.338 NA
ATOM      4  N   UNL     1      -5.163  -0.193   0.107  0.00  0.00    -0.170 NA
ATOM      5  N   UNL     1      -4.442  -2.345  -0.490  0.00  0.00    -0.293 N 
ATOM      6  C   UNL     1      -2.554   0.609   0.125  0.00  0.00    +0.146 C 
ATOM      7  C   UNL     1      -3.525   1.541   0.431  0.00  0.00    +0.055 C 
ATOM      8  C   UNL     1      -4.825   1.079   0.406  0.00  0.00    +0.114 C 
ATOM      9  C   UNL     1      -4.127  -1.006  -0.173  0.00  0.00    +0.141 C 
ATOM     10  H   UNL     1      -3.724  -2.983  -0.703  0.00  0.00    +0.155 HD
ATOM     11  H   UNL     1      -5.382  -2.641  -0.497  0.00  0.00    +0.155 HD
ENDBRANCH   2   6
BRANCH   1  14
ATOM     12  N   UNL     1       2.188  -0.406   0.021  0.00  0.00    -0.251 N 
ATOM     13  N   UNL     1       1.773   1.727  -0.440  0.00  0.00    -0.226 NA
ATOM     14  C   UNL     1       1.300   0.565  -0.218  0.00  0.00    +0.137 C 
ATOM     15  C   UNL     1       3.408   0.205  -0.054  0.00  0.00    +0.218 C 
ATOM     16  C   UNL     1       1.963  -1.808   0.304  0.00  0.00    +0.120 C 
ATOM     17  C   UNL     1       3.127   1.520  -0.339  0.00  0.00    +0.140 C 
BRANCH  15  20
ATOM     18  O   UNL     1       5.712   0.183   0.048  0.00  0.00    -0.125 OA
ATOM     19  O   UNL     1       4.632  -1.697   0.394  0.00  0.00    -0.125 OA
ATOM     20  N   UNL     1       4.625  -0.459   0.136  0.00  0.00    +0.074 N 
ENDBRANCH  15  20
ENDBRANCH   1  14
TORSDOF 3
