REMARK  Name = 68869
REMARK  4 active torsions:
REMARK  status: ('A' for Active; 'I' for Inactive)
REMARK    1  A    between atoms: C_3  and  C_17
REMARK    2  A    between atoms: C_9  and  C_11
REMARK    3  A    between atoms: C_17  and  C_20
REMARK    4  A    between atoms: C_20  and  O_21
REMARK                            x       y       z     vdW  Elec       q    Type
REMARK                         _______ _______ _______ _____ _____    ______ ____
ROOT
ATOM      1  O   UNL     1      -0.946   1.329   0.190  0.00  0.00    -0.425 OA
ATOM      2  N   UNL     1      -0.456  -0.822  -0.330  0.00  0.00    -0.368 NA
ATOM      3  C   UNL     1       3.032   0.516  -0.227  0.00  0.00    -0.027 C 
ATOM      4  C   UNL     1       0.707  -0.098  -0.232  0.00  0.00    +0.151 C 
ATOM      5  C   UNL     1       2.049  -0.470  -0.395  0.00  0.00    +0.085 C 
ATOM      6  C   UNL     1       0.411   1.220   0.086  0.00  0.00    +0.174 C 
ATOM      7  C   UNL     1       2.690   1.835   0.095  0.00  0.00    -0.004 C 
ATOM      8  C   UNL     1       1.356   2.223   0.261  0.00  0.00    +0.039 C 
ATOM      9  C   UNL     1      -1.389   0.067  -0.073  0.00  0.00    +0.282 C 
ENDROOT
BRANCH   9  11
ATOM     10  F   UNL     1      -6.921  -0.577   0.096  0.00  0.00    -0.204 F 
ATOM     11  C   UNL     1      -2.816  -0.099  -0.030  0.00  0.00    +0.067 C 
ATOM     12  C   UNL     1      -3.642   0.989   0.266  0.00  0.00    +0.008 C 
ATOM     13  C   UNL     1      -3.386  -1.350  -0.283  0.00  0.00    +0.008 C 
ATOM     14  C   UNL     1      -5.027   0.828   0.308  0.00  0.00    +0.030 C 
ATOM     15  C   UNL     1      -4.771  -1.511  -0.240  0.00  0.00    +0.030 C 
ATOM     16  C   UNL     1      -5.591  -0.422   0.055  0.00  0.00    +0.140 C 
ENDBRANCH   9  11
BRANCH   3  17
ATOM     17  C   UNL     1       4.471   0.151  -0.394  0.00  0.00    +0.118 C 
ATOM     18  C   UNL     1       4.819  -0.357  -1.807  0.00  0.00    +0.016 C 
BRANCH  17  20
ATOM     19  O   UNL     1       4.218  -1.379   1.494  0.00  0.00    -0.250 OA
ATOM     20  C   UNL     1       4.938  -0.880   0.639  0.00  0.00    +0.317 C 
BRANCH  20  21
ATOM     21  O   UNL     1       6.256  -1.191   0.521  0.00  0.00    -0.480 OA
ATOM     22  H   UNL     1       6.774  -0.788  -0.147  0.00  0.00    +0.295 HD
ENDBRANCH  20  21
ENDBRANCH  17  20
ENDBRANCH   3  17
TORSDOF 4
