REMARK  Name = 667510
REMARK  0 active torsions:
REMARK  status: ('A' for Active; 'I' for Inactive)
REMARK                            x       y       z     vdW  Elec       q    Type
REMARK                         _______ _______ _______ _____ _____    ______ ____
ROOT
ATOM      1  S   UNL     1       2.365  -1.909  -0.015  0.00  0.00    +0.011 S 
ATOM      2  N   UNL     1      -2.209   0.391  -0.024  0.00  0.00    -0.250 N 
ATOM      3  N   UNL     1      -2.299  -0.946   0.018  0.00  0.00    -0.262 N 
ATOM      4  N   UNL     1      -0.264   1.838  -0.002  0.00  0.00    -0.227 NA
ATOM      5  N   UNL     1       1.889   0.750   0.009  0.00  0.00    -0.203 NA
ATOM      6  C   UNL     1      -0.077  -0.573   0.006  0.00  0.00    +0.099 C 
ATOM      7  C   UNL     1      -0.865   0.696  -0.008  0.00  0.00    +0.151 C 
ATOM      8  C   UNL     1      -1.044  -1.506   0.008  0.00  0.00    +0.088 C 
ATOM      9  C   UNL     1       1.389  -0.539  -0.001  0.00  0.00    -0.010 C 
ATOM     10  C   UNL     1       1.115   1.798   0.009  0.00  0.00    +0.261 C 
ATOM     11  H   UNL     1      -2.957   1.030  -0.060  0.00  0.00    +0.171 HD
ATOM     12  H   UNL     1      -3.142  -1.453   0.052  0.00  0.00    +0.170 HD
ENDROOT
TORSDOF 0
