REMARK  Name = 25195253
REMARK  3 active torsions:
REMARK  status: ('A' for Active; 'I' for Inactive)
REMARK    1  A    between atoms: N_3  and  C_20
REMARK    2  A    between atoms: C_6  and  C_18
REMARK    3  A    between atoms: C_20  and  C_24
REMARK                            x       y       z     vdW  Elec       q    Type
REMARK                         _______ _______ _______ _____ _____    ______ ____
ROOT
ATOM      1 CL   UNL     1       2.716   2.739   0.675  0.00  0.00    -0.082 Cl
ATOM      2  O   UNL     1       5.653  -1.141   0.070  0.00  0.00    -0.270 OA
ATOM      3  N   UNL     1      -1.812   0.101  -0.404  0.00  0.00    -0.323 N 
ATOM      4  N   UNL     1       3.431  -1.616  -0.269  0.00  0.00    -0.280 N 
ATOM      5  C   UNL     1       0.379   0.515  -0.083  0.00  0.00    +0.015 A 
ATOM      6  C   UNL     1      -1.720   1.422  -0.087  0.00  0.00    +0.033 A 
ATOM      7  C   UNL     1      -0.561  -0.476  -0.412  0.00  0.00    +0.060 A 
ATOM      8  C   UNL     1      -0.390   1.707   0.117  0.00  0.00    -0.009 A 
ATOM      9  C   UNL     1       1.754   0.145  -0.029  0.00  0.00    +0.025 C 
ATOM     10  C   UNL     1      -0.221  -1.803  -0.688  0.00  0.00    +0.018 C 
ATOM     11  C   UNL     1       2.087  -1.201  -0.310  0.00  0.00    +0.051 C 
ATOM     12  C   UNL     1      -0.015   3.087   0.479  0.00  0.00    +0.032 C 
ATOM     13  C   UNL     1       1.122  -2.153  -0.632  0.00  0.00    +0.016 C 
ATOM     14  C   UNL     1       2.858   1.070   0.300  0.00  0.00    +0.063 C 
ATOM     15  C   UNL     1       4.125   0.630   0.328  0.00  0.00    +0.069 C 
ATOM     16  C   UNL     1       4.479  -0.780   0.034  0.00  0.00    +0.250 C 
ATOM     17  H   UNL     1       3.632  -2.559  -0.469  0.00  0.00    +0.155 HD
ENDROOT
BRANCH   6  18
ATOM     18  C   UNL     1      -2.914   2.291  -0.006  0.00  0.00    +0.043 C 
ATOM     19  C   UNL     1      -3.440   2.705  -1.383  0.00  0.00    +0.007 C 
ENDBRANCH   6  18
BRANCH   3  20
ATOM     20  C   UNL     1      -3.048  -0.598  -0.694  0.00  0.00    +0.210 C 
BRANCH  20  24
ATOM     21  F   UNL     1      -2.602  -2.409   0.741  0.00  0.00    -0.168 F 
ATOM     22  F   UNL     1      -4.683  -2.070   0.194  0.00  0.00    -0.168 F 
ATOM     23  F   UNL     1      -3.682  -0.717   1.589  0.00  0.00    -0.168 F 
ATOM     24  C   UNL     1      -3.515  -1.450   0.468  0.00  0.00    +0.418 C 
ENDBRANCH  20  24
ENDBRANCH   3  20
TORSDOF 3
