REMARK  Name = 8966
REMARK  2 active torsions:
REMARK  status: ('A' for Active; 'I' for Inactive)
REMARK    1  A    between atoms: N_1  and  C_17
REMARK    2  A    between atoms: C_17  and  C_18
REMARK                            x       y       z     vdW  Elec       q    Type
REMARK                         _______ _______ _______ _____ _____    ______ ____
ROOT
ATOM      1  N   UNL     1      -1.633  -0.609   0.791  0.00  0.00    +0.395 N 
ATOM      2  C   UNL     1      -0.943  -1.161  -0.387  0.00  0.00    -0.049 C 
ATOM      3  C   UNL     1      -0.893   0.437   1.517  0.00  0.00    -0.049 C 
ATOM      4  C   UNL     1       0.536  -1.435  -0.189  0.00  0.00    -0.043 C 
ATOM      5  C   UNL     1      -0.150   1.441   0.656  0.00  0.00    -0.043 C 
ATOM      6  C   UNL     1       1.456  -0.362  -0.075  0.00  0.00    -0.006 C 
ATOM      7  C   UNL     1       0.991   1.046  -0.086  0.00  0.00    -0.006 C 
ATOM      8  C   UNL     1       0.993  -2.761  -0.136  0.00  0.00    -0.006 C 
ATOM      9  C   UNL     1      -0.595   2.771   0.608  0.00  0.00    -0.006 C 
ATOM     10  C   UNL     1       2.821  -0.669   0.081  0.00  0.00    -0.000 C 
ATOM     11  C   UNL     1       1.655   2.020  -0.854  0.00  0.00    -0.000 C 
ATOM     12  C   UNL     1       2.350  -3.037   0.020  0.00  0.00    -0.000 C 
ATOM     13  C   UNL     1       0.081   3.716  -0.160  0.00  0.00    -0.000 C 
ATOM     14  C   UNL     1       3.262  -1.993   0.127  0.00  0.00    -0.000 C 
ATOM     15  C   UNL     1       1.205   3.341  -0.889  0.00  0.00    -0.000 C 
ATOM     16  H   UNL     1      -1.696  -1.377   1.459  0.00  0.00    -0.078 HD
ENDROOT
BRANCH   1  17
ATOM     17  C   UNL     1      -2.977  -0.161   0.424  0.00  0.00    -0.049 C 
BRANCH  17  18
ATOM     18  C   UNL     1      -3.806  -1.287  -0.113  0.00  0.00    -0.049 C 
ATOM     19  C   UNL     1      -4.351  -1.297  -1.335  0.00  0.00    -0.007 C 
ENDBRANCH  17  18
ENDBRANCH   1  17
TORSDOF 2
