REMARK  Name = 5113032
REMARK  1 active torsions:
REMARK  status: ('A' for Active; 'I' for Inactive)
REMARK    1  A    between atoms: C_3  and  C_18
REMARK                            x       y       z     vdW  Elec       q    Type
REMARK                         _______ _______ _______ _____ _____    ______ ____
ROOT
ATOM      1 CL   UNL     1       5.130  -0.861   0.547  0.00  0.00    -0.082 Cl
ATOM      2  N   UNL     1      -0.172   1.324  -0.592  0.00  0.00    -0.356 N 
ATOM      3  C   UNL     1      -2.425   0.168  -0.663  0.00  0.00    +0.114 C 
ATOM      4  C   UNL     1      -0.950   0.207  -0.476  0.00  0.00    +0.038 A 
ATOM      5  C   UNL     1      -2.916  -1.293  -0.745  0.00  0.00    +0.015 C 
ATOM      6  C   UNL     1      -0.133  -0.861  -0.162  0.00  0.00    -0.009 A 
ATOM      7  C   UNL     1      -0.658  -2.245   0.005  0.00  0.00    +0.028 C 
ATOM      8  C   UNL     1      -2.180  -2.239   0.228  0.00  0.00    +0.006 C 
ATOM      9  C   UNL     1       1.200  -0.368  -0.075  0.00  0.00    +0.014 A 
ATOM     10  C   UNL     1       1.146   1.004  -0.346  0.00  0.00    +0.056 A 
ATOM     11  C   UNL     1       2.451  -0.954   0.204  0.00  0.00    +0.013 C 
ATOM     12  C   UNL     1       2.285   1.817  -0.347  0.00  0.00    +0.018 C 
ATOM     13  C   UNL     1       3.598  -0.151   0.206  0.00  0.00    +0.058 C 
ATOM     14  C   UNL     1       3.514   1.213  -0.065  0.00  0.00    +0.013 C 
ATOM     15  H   UNL     1      -0.503   2.224  -0.817  0.00  0.00    +0.166 HD
ENDROOT
BRANCH   3  18
ATOM     16  O   UNL     1      -2.557   0.896   1.609  0.00  0.00    -0.275 OA
ATOM     17  N   UNL     1      -4.268   1.468   0.181  0.00  0.00    -0.328 N 
ATOM     18  C   UNL     1      -3.067   0.875   0.491  0.00  0.00    +0.224 C 
ATOM     19  H   UNL     1      -4.769   1.958   0.872  0.00  0.00    +0.145 HD
ATOM     20  H   UNL     1      -4.627   1.402  -0.734  0.00  0.00    +0.145 HD
ENDBRANCH   3  18
TORSDOF 1
