REMARK  Name = 3037918
REMARK  0 active torsions:
REMARK  status: ('A' for Active; 'I' for Inactive)
REMARK                            x       y       z     vdW  Elec       q    Type
REMARK                         _______ _______ _______ _____ _____    ______ ____
ROOT
ATOM      1  N   UNL     1      -2.268  -1.780  -0.236  0.00  0.00    +0.387 N 
ATOM      2  C   UNL     1      -0.565   0.615  -0.706  0.00  0.00    +0.015 C 
ATOM      3  C   UNL     1      -1.663   0.580   0.391  0.00  0.00    -0.015 C 
ATOM      4  C   UNL     1      -1.841  -0.876   0.860  0.00  0.00    -0.053 C 
ATOM      5  C   UNL     1      -1.058  -0.279  -1.877  0.00  0.00    -0.019 C 
ATOM      6  C   UNL     1      -0.443   2.082  -1.202  0.00  0.00    +0.004 C 
ATOM      7  C   UNL     1      -1.387   1.566   1.543  0.00  0.00    -0.002 C 
ATOM      8  C   UNL     1       0.753   0.016  -0.181  0.00  0.00    -0.027 C 
ATOM      9  C   UNL     1      -0.546  -1.395   1.519  0.00  0.00    +0.005 C 
ATOM     10  C   UNL     1      -1.415  -1.706  -1.431  0.00  0.00    -0.077 C 
ATOM     11  C   UNL     1      -0.160   3.074  -0.071  0.00  0.00    +0.000 C 
ATOM     12  C   UNL     1      -1.221   2.991   1.022  0.00  0.00    -0.000 C 
ATOM     13  C   UNL     1       0.738  -0.942   0.859  0.00  0.00    -0.028 C 
ATOM     14  C   UNL     1       1.992   0.345  -0.761  0.00  0.00    -0.009 C 
ATOM     15  C   UNL     1      -3.679  -1.603  -0.579  0.00  0.00    -0.101 C 
ATOM     16  C   UNL     1       1.943  -1.496   1.322  0.00  0.00    -0.005 C 
ATOM     17  C   UNL     1       3.182  -0.219  -0.296  0.00  0.00    -0.022 C 
ATOM     18  C   UNL     1       3.159  -1.134   0.749  0.00  0.00    -0.005 C 
ATOM     19  C   UNL     1       4.480   0.160  -0.925  0.00  0.00    +0.031 C 
ATOM     20  H   UNL     1      -2.151  -2.722   0.137  0.00  0.00    -0.080 HD
ENDROOT
TORSDOF 0
