REMARK  Name = 36976
REMARK  7 active torsions:
REMARK  status: ('A' for Active; 'I' for Inactive)
REMARK    1  A    between atoms: C_1  and  C_16
REMARK    2  A    between atoms: C_4  and  N_8
REMARK    3  A    between atoms: C_6  and  O_14
REMARK    4  A    between atoms: C_16  and  O_17
REMARK    5  A    between atoms: C_16  and  C_19
REMARK    6  A    between atoms: C_19  and  N_20
REMARK    7  A    between atoms: N_20  and  C_23
REMARK                            x       y       z     vdW  Elec       q    Type
REMARK                         _______ _______ _______ _____ _____    ______ ____
ROOT
ATOM      1  C   UNL     1       0.342   1.315  -0.362  0.00  0.00    +0.004 C 
ATOM      2  C   UNL     1       1.041   0.121  -0.304  0.00  0.00    +0.016 C 
ATOM      3  C   UNL     1       0.929   2.516  -0.005  0.00  0.00    +0.001 C 
ATOM      4  C   UNL     1       2.368   0.130   0.124  0.00  0.00    +0.085 C 
ATOM      5  C   UNL     1       2.257   2.525   0.423  0.00  0.00    +0.038 C 
ATOM      6  C   UNL     1       2.977   1.331   0.487  0.00  0.00    +0.147 C 
ENDROOT
BRANCH   4   8
ATOM      7  O   UNL     1       1.514  -2.677  -0.548  0.00  0.00    -0.253 OA
ATOM      8  N   UNL     1       3.076  -1.073   0.182  0.00  0.00    -0.266 N 
ATOM      9  N   UNL     1       3.628  -3.311   0.042  0.00  0.00    -0.313 N 
ATOM     10  C   UNL     1       2.631  -2.364  -0.144  0.00  0.00    +0.301 C 
ATOM     11  H   UNL     1       4.009  -1.007   0.491  0.00  0.00    +0.156 HD
ATOM     12  H   UNL     1       3.448  -4.260  -0.150  0.00  0.00    +0.146 HD
ATOM     13  H   UNL     1       4.515  -3.035   0.367  0.00  0.00    +0.146 HD
ENDBRANCH   4   8
BRANCH   6  14
ATOM     14  O   UNL     1       4.273   1.361   0.908  0.00  0.00    -0.504 OA
ATOM     15  H   UNL     1       4.768   0.567   0.957  0.00  0.00    +0.292 HD
ENDBRANCH   6  14
BRANCH   1  16
ATOM     16  C   UNL     1      -1.098   1.306  -0.825  0.00  0.00    +0.112 C 
BRANCH  16  17
ATOM     17  O   UNL     1      -1.127   0.868  -2.183  0.00  0.00    -0.382 OA
ATOM     18  H   UNL     1      -2.044   0.855  -2.500  0.00  0.00    +0.211 HD
ENDBRANCH  16  17
BRANCH  16  19
ATOM     19  C   UNL     1      -1.964   0.389   0.048  0.00  0.00    -0.047 C 
BRANCH  19  20
ATOM     20  N   UNL     1      -3.343   0.392  -0.409  0.00  0.00    +0.388 N 
ATOM     21  H   UNL     1      -3.710   1.342  -0.364  0.00  0.00    -0.084 HD
ATOM     22  H   UNL     1      -3.372   0.048  -1.370  0.00  0.00    -0.084 HD
BRANCH  20  23
ATOM     23  C   UNL     1      -4.166  -0.484   0.431  0.00  0.00    -0.046 C 
ATOM     24  C   UNL     1      -5.605  -0.456  -0.096  0.00  0.00    -0.022 C 
ATOM     25  C   UNL     1      -3.604  -1.907   0.351  0.00  0.00    -0.022 C 
ATOM     26  C   UNL     1      -4.126   0.018   1.880  0.00  0.00    -0.022 C 
ENDBRANCH  20  23
ENDBRANCH  19  20
ENDBRANCH  16  19
ENDBRANCH   1  16
TORSDOF 7
