REMARK  Name = 71698
REMARK  7 active torsions:
REMARK  status: ('A' for Active; 'I' for Inactive)
REMARK    1  A    between atoms: O_1  and  C_4
REMARK    2  A    between atoms: O_1  and  C_13
REMARK    3  A    between atoms: C_13  and  C_14
REMARK    4  A    between atoms: C_14  and  O_15
REMARK    5  A    between atoms: C_14  and  C_17
REMARK    6  A    between atoms: C_17  and  N_18
REMARK    7  A    between atoms: N_18  and  C_21
REMARK                            x       y       z     vdW  Elec       q    Type
REMARK                         _______ _______ _______ _____ _____    ______ ____
ROOT
ATOM      1  O   UNL     1       0.088  -1.757  -0.636  0.00  0.00    -0.473 OA
ENDROOT
BRANCH   1   4
ATOM      2  N   UNL     1      -2.956   1.712  -0.057  0.00  0.00    -0.316 N 
ATOM      3  C   UNL     1      -1.543   0.003  -0.296  0.00  0.00    +0.048 C 
ATOM      4  C   UNL     1      -1.112  -1.329  -0.135  0.00  0.00    +0.140 C 
ATOM      5  C   UNL     1      -2.778   0.379   0.236  0.00  0.00    +0.051 C 
ATOM      6  C   UNL     1      -0.987   1.156  -0.918  0.00  0.00    +0.014 C 
ATOM      7  C   UNL     1      -1.879   2.191  -0.754  0.00  0.00    +0.026 C 
ATOM      8  C   UNL     1      -1.931  -2.233   0.551  0.00  0.00    +0.037 C 
ATOM      9  C   UNL     1      -3.607  -0.514   0.925  0.00  0.00    +0.015 C 
ATOM     10  C   UNL     1      -3.159  -1.830   1.073  0.00  0.00    +0.004 C 
ATOM     11  C   UNL     1      -1.815   3.596  -1.195  0.00  0.00    +0.047 C 
ATOM     12  H   UNL     1      -3.744   2.245   0.199  0.00  0.00    +0.152 HD
ENDBRANCH   1   4
BRANCH   1  13
ATOM     13  C   UNL     1       1.030  -2.267   0.302  0.00  0.00    +0.232 C 
BRANCH  13  14
ATOM     14  C   UNL     1       2.440  -2.007  -0.224  0.00  0.00    +0.133 C 
BRANCH  14  15
ATOM     15  O   UNL     1       2.602  -2.702  -1.464  0.00  0.00    -0.383 OA
ATOM     16  H   UNL     1       3.495  -2.544  -1.808  0.00  0.00    +0.210 HD
ENDBRANCH  14  15
BRANCH  14  17
ATOM     17  C   UNL     1       2.732  -0.524  -0.465  0.00  0.00    -0.048 C 
BRANCH  17  18
ATOM     18  N   UNL     1       2.651   0.257   0.761  0.00  0.00    +0.387 N 
ATOM     19  H   UNL     1       3.303  -0.128   1.445  0.00  0.00    -0.084 HD
ATOM     20  H   UNL     1       1.695   0.211   1.114  0.00  0.00    -0.084 HD
BRANCH  18  21
ATOM     21  C   UNL     1       2.989   1.652   0.514  0.00  0.00    -0.062 C 
ATOM     22  C   UNL     1       4.413   1.765  -0.022  0.00  0.00    -0.023 C 
ATOM     23  C   UNL     1       2.824   2.451   1.803  0.00  0.00    -0.023 C 
ENDBRANCH  18  21
ENDBRANCH  17  18
ENDBRANCH  14  17
ENDBRANCH  13  14
ENDBRANCH   1  13
TORSDOF 7
