REMARK  Name = 44200882
REMARK  8 active torsions:
REMARK  status: ('A' for Active; 'I' for Inactive)
REMARK    1  A    between atoms: C_1  and  C_5
REMARK    2  A    between atoms: C_1  and  N_15
REMARK    3  A    between atoms: C_1  and  C_27
REMARK    4  A    between atoms: C_6  and  C_7
REMARK    5  A    between atoms: C_12  and  C_14
REMARK    6  A    between atoms: N_15  and  C_18
REMARK    7  A    between atoms: C_24  and  C_26
REMARK    8  A    between atoms: C_27  and  O_29
REMARK                            x       y       z     vdW  Elec       q    Type
REMARK                         _______ _______ _______ _____ _____    ______ ____
ROOT
ATOM      1  C   UNL     1       0.945   1.937  -0.709  0.00  0.00    +0.175 C 
ENDROOT
BRANCH   1   5
ATOM      2  O   UNL     1      -1.279   0.956  -0.395  0.00  0.00    -0.418 OA
ATOM      3  N   UNL     1      -0.169   1.327   1.512  0.00  0.00    -0.110 NA
ATOM      4  N   UNL     1      -1.397   0.778   1.832  0.00  0.00    -0.107 NA
ATOM      5  C   UNL     1      -0.144   1.413   0.202  0.00  0.00    +0.246 A 
ATOM      6  C   UNL     1      -2.010   0.578   0.689  0.00  0.00    +0.250 A 
BRANCH   6   7
ATOM      7  C   UNL     1      -3.307   0.032   0.411  0.00  0.00    +0.055 C 
ATOM      8  C   UNL     1      -4.128  -0.384   1.459  0.00  0.00    +0.005 C 
ATOM      9  C   UNL     1      -3.747  -0.083  -0.908  0.00  0.00    +0.005 C 
ATOM     10  C   UNL     1      -5.389  -0.915   1.188  0.00  0.00    +0.010 C 
ATOM     11  C   UNL     1      -5.008  -0.614  -1.178  0.00  0.00    +0.010 C 
ATOM     12  C   UNL     1      -5.830  -1.029  -0.130  0.00  0.00    +0.068 C 
BRANCH  12  14
ATOM     13  N   UNL     1      -8.172  -2.012  -0.632  0.00  0.00    -0.191 NA
ATOM     14  C   UNL     1      -7.122  -1.571  -0.407  0.00  0.00    +0.100 C 
ENDBRANCH  12  14
ENDBRANCH   6   7
ENDBRANCH   1   5
BRANCH   1  15
ATOM     15  N   UNL     1       2.238   1.626  -0.120  0.00  0.00    -0.325 N 
ATOM     16  H   UNL     1       2.724   2.345   0.345  0.00  0.00    +0.147 HD
BRANCH  15  18
ATOM     17 CL   UNL     1       6.178  -1.428   1.064  0.00  0.00    -0.082 Cl
ATOM     18  C   UNL     1       2.818   0.375  -0.179  0.00  0.00    +0.042 C 
ATOM     19  C   UNL     1       4.061   0.133   0.405  0.00  0.00    +0.003 C 
ATOM     20  C   UNL     1       2.142  -0.654  -0.834  0.00  0.00    +0.015 C 
ATOM     21  C   UNL     1       4.629  -1.139   0.334  0.00  0.00    +0.064 C 
ATOM     22  C   UNL     1       4.771   1.252   1.104  0.00  0.00    +0.033 C 
ATOM     23  C   UNL     1       2.709  -1.926  -0.905  0.00  0.00    +0.012 C 
ATOM     24  C   UNL     1       3.953  -2.169  -0.321  0.00  0.00    +0.079 C 
BRANCH  24  26
ATOM     25  N   UNL     1       4.933  -4.563  -0.501  0.00  0.00    -0.191 NA
ATOM     26  C   UNL     1       4.495  -3.492  -0.421  0.00  0.00    +0.101 C 
ENDBRANCH  24  26
ENDBRANCH  15  18
ENDBRANCH   1  15
BRANCH   1  27
ATOM     27  C   UNL     1       0.869   3.453  -0.985  0.00  0.00    +0.137 C 
ATOM     28  C   UNL     1       2.028   3.966  -1.834  0.00  0.00    +0.034 C 
BRANCH  27  29
ATOM     29  O   UNL     1       0.936   4.154   0.261  0.00  0.00    -0.382 OA
ATOM     30  H   UNL     1       0.213   3.858   0.837  0.00  0.00    +0.210 HD
ENDBRANCH  27  29
ENDBRANCH   1  27
TORSDOF 8
