REMARK  Name = 8251
REMARK  10 active torsions:
REMARK  status: ('A' for Active; 'I' for Inactive)
REMARK    1  A    between atoms: O_1  and  C_2
REMARK    2  A    between atoms: O_1  and  C_13
REMARK    3  A    between atoms: C_2  and  N_3
REMARK    4  A    between atoms: C_6  and  C_10
REMARK    5  A    between atoms: N_9  and  C_10
REMARK    6  A    between atoms: N_9  and  O_11
REMARK    7  A    between atoms: C_13  and  N_14
REMARK    8  A    between atoms: C_17  and  C_21
REMARK    9  A    between atoms: N_20  and  C_21
REMARK   10  A    between atoms: N_20  and  O_22
REMARK                            x       y       z     vdW  Elec       q    Type
REMARK                         _______ _______ _______ _____ _____    ______ ____
ROOT
ATOM      1  O   UNL     1      -0.002  -1.280  -0.041  0.00  0.00    -0.314 OA
ENDROOT
BRANCH   1   2
ATOM      2  C   UNL     1       1.195  -2.052   0.017  0.00  0.00    +0.242 C 
BRANCH   2   3
ATOM      3  N   UNL     1       2.389  -1.218  -0.093  0.00  0.00    -0.278 N 
ATOM      4  C   UNL     1       2.895  -0.971  -1.309  0.00  0.00    +0.119 C 
ATOM      5  C   UNL     1       2.938  -0.725   1.026  0.00  0.00    +0.063 C 
ATOM      6  C   UNL     1       4.620   0.343  -0.299  0.00  0.00    -0.004 C 
ATOM      7  C   UNL     1       4.028  -0.182  -1.444  0.00  0.00    -0.007 C 
ATOM      8  C   UNL     1       4.073   0.070   0.951  0.00  0.00    +0.013 C 
BRANCH   6   9
ATOM      9  C   UNL     1       5.807   1.175  -0.409  0.00  0.00    +0.147 C 
BRANCH   9  10
ATOM     10  N   UNL     1       6.406   1.695   0.624  0.00  0.00    -0.083 NA
BRANCH  10  11
ATOM     11  O   UNL     1       7.508   2.438   0.194  0.00  0.00    -0.295 OA
ATOM     12  H   UNL     1       8.048   2.880   0.819  0.00  0.00    +0.238 HD
ENDBRANCH  10  11
ENDBRANCH   9  10
ENDBRANCH   6   9
ENDBRANCH   2   3
ENDBRANCH   1   2
BRANCH   1  13
ATOM     13  C   UNL     1      -1.192  -2.037   0.166  0.00  0.00    +0.242 C 
BRANCH  13  14
ATOM     14  N   UNL     1      -2.393  -1.179   0.205  0.00  0.00    -0.278 N 
ATOM     15  C   UNL     1      -2.780  -0.691   1.382  0.00  0.00    +0.119 C 
ATOM     16  C   UNL     1      -3.029  -0.934  -0.940  0.00  0.00    +0.063 C 
ATOM     17  C   UNL     1      -4.600   0.399   0.276  0.00  0.00    -0.004 C 
ATOM     18  C   UNL     1      -3.905   0.119   1.449  0.00  0.00    -0.007 C 
ATOM     19  C   UNL     1      -4.161  -0.132  -0.933  0.00  0.00    +0.013 C 
BRANCH  17  20
ATOM     20  C   UNL     1      -5.782   1.245   0.314  0.00  0.00    +0.147 C 
BRANCH  20  21
ATOM     21  N   UNL     1      -6.473   1.544  -0.748  0.00  0.00    -0.083 NA
BRANCH  21  22
ATOM     22  O   UNL     1      -7.541   2.370  -0.387  0.00  0.00    -0.295 OA
ATOM     23  H   UNL     1      -8.138   2.676  -1.041  0.00  0.00    +0.238 HD
ENDBRANCH  21  22
ENDBRANCH  20  21
ENDBRANCH  17  20
ENDBRANCH  13  14
ENDBRANCH   1  13
TORSDOF 10
