REMARK  Name = 113918
REMARK  2 active torsions:
REMARK  status: ('A' for Active; 'I' for Inactive)
REMARK    1  A    between atoms: C_4  and  C_17
REMARK    2  A    between atoms: C_17  and  N_19
REMARK                            x       y       z     vdW  Elec       q    Type
REMARK                         _______ _______ _______ _____ _____    ______ ____
ROOT
ATOM      1  S   UNL     1      -1.668  -1.470   1.652  0.00  0.00    -0.084 S 
ATOM      2  O   UNL     1       0.669   2.317  -1.194  0.00  0.00    -0.276 OA
ATOM      3  N   UNL     1      -0.055   0.212  -0.415  0.00  0.00    -0.238 N 
ATOM      4  C   UNL     1       0.899   1.222  -0.672  0.00  0.00    +0.214 C 
ATOM      5  C   UNL     1      -1.460   0.535  -0.276  0.00  0.00    +0.064 C 
ATOM      6  C   UNL     1       0.284  -1.187  -0.304  0.00  0.00    +0.064 C 
ATOM      7  C   UNL     1      -2.293  -0.169   0.614  0.00  0.00    +0.043 C 
ATOM      8  C   UNL     1      -0.380  -2.052   0.580  0.00  0.00    +0.043 C 
ATOM      9  C   UNL     1      -2.045   1.568  -1.032  0.00  0.00    +0.016 C 
ATOM     10  C   UNL     1       1.263  -1.741  -1.150  0.00  0.00    +0.016 C 
ATOM     11  C   UNL     1      -3.649   0.173   0.751  0.00  0.00    +0.008 C 
ATOM     12  C   UNL     1      -0.021  -3.407   0.658  0.00  0.00    +0.008 C 
ATOM     13  C   UNL     1      -3.396   1.899  -0.897  0.00  0.00    +0.001 C 
ATOM     14  C   UNL     1       1.612  -3.091  -1.077  0.00  0.00    +0.001 C 
ATOM     15  C   UNL     1      -4.198   1.206  -0.001  0.00  0.00    +0.001 C 
ATOM     16  C   UNL     1       0.976  -3.923  -0.166  0.00  0.00    +0.001 C 
ENDROOT
BRANCH   4  17
ATOM     17  C   UNL     1       2.302   1.003  -0.138  0.00  0.00    +0.021 C 
ATOM     18  C   UNL     1       3.306   1.155  -1.260  0.00  0.00    -0.014 C 
BRANCH  17  19
ATOM     19  N   UNL     1       2.511   1.997   0.898  0.00  0.00    +0.391 N 
ATOM     20  C   UNL     1       3.850   1.869   1.483  0.00  0.00    -0.100 C 
ATOM     21  C   UNL     1       1.493   1.882   1.947  0.00  0.00    -0.100 C 
ATOM     22  H   UNL     1       2.431   2.918   0.466  0.00  0.00    -0.079 HD
ENDBRANCH  17  19
ENDBRANCH   4  17
TORSDOF 2
