REMARK  Name = 5284636
REMARK  3 active torsions:
REMARK  status: ('A' for Active; 'I' for Inactive)
REMARK    1  A    between atoms: C_6  and  C_12
REMARK    2  A    between atoms: C_6  and  C_17
REMARK    3  A    between atoms: C_13  and  C_15
REMARK                            x       y       z     vdW  Elec       q    Type
REMARK                         _______ _______ _______ _____ _____    ______ ____
ROOT
ATOM      1  O   UNL     1       0.008  -0.917   2.179  0.00  0.00    -0.274 OA
ATOM      2  O   UNL     1       0.484   1.647  -1.857  0.00  0.00    -0.274 OA
ATOM      3  O   UNL     1       3.717  -1.297  -0.485  0.00  0.00    -0.252 OA
ATOM      4  N   UNL     1       1.843  -1.084   0.824  0.00  0.00    -0.239 N 
ATOM      5  N   UNL     1       2.077   0.168  -1.144  0.00  0.00    -0.239 N 
ATOM      6  C   UNL     1       0.019   0.438   0.181  0.00  0.00    +0.153 C 
ATOM      7  C   UNL     1       0.604  -0.568   1.157  0.00  0.00    +0.240 C 
ATOM      8  C   UNL     1       0.862   0.820  -1.025  0.00  0.00    +0.240 C 
ATOM      9  C   UNL     1       2.619  -0.774  -0.283  0.00  0.00    +0.312 C 
ATOM     10  H   UNL     1       2.218  -1.750   1.445  0.00  0.00    +0.159 HD
ATOM     11  H   UNL     1       2.620   0.401  -1.931  0.00  0.00    +0.159 HD
ENDROOT
BRANCH   6  12
ATOM     12  C   UNL     1      -1.220  -0.210  -0.371  0.00  0.00    -0.032 C 
ATOM     13  C   UNL     1      -2.424   0.370  -0.207  0.00  0.00    -0.034 C 
ATOM     14  C   UNL     1      -0.977  -1.514  -1.077  0.00  0.00    +0.027 C 
BRANCH  13  15
ATOM     15  C   UNL     1      -3.754  -0.112  -0.712  0.00  0.00    +0.025 C 
ATOM     16  C   UNL     1      -4.434  -1.022   0.298  0.00  0.00    +0.005 C 
ENDBRANCH  13  15
ENDBRANCH   6  12
BRANCH   6  17
ATOM     17  C   UNL     1      -0.330   1.720   0.949  0.00  0.00    +0.021 C 
ATOM     18  C   UNL     1       0.904   2.336   1.572  0.00  0.00    +0.001 C 
ENDBRANCH   6  17
TORSDOF 3
