REMARK  Name = 3351
REMARK  5 active torsions:
REMARK  status: ('A' for Active; 'I' for Inactive)
REMARK    1  A    between atoms: N_2  and  C_10
REMARK    2  A    between atoms: C_8  and  C_20
REMARK    3  A    between atoms: C_10  and  C_13
REMARK    4  A    between atoms: C_20  and  O_21
REMARK    5  A    between atoms: O_21  and  C_23
REMARK                            x       y       z     vdW  Elec       q    Type
REMARK                         _______ _______ _______ _____ _____    ______ ____
ROOT
ATOM      1  O   UNL     1      -1.992   1.809   1.133  0.00  0.00    -0.271 OA
ATOM      2  N   UNL     1       1.868  -1.054  -0.215  0.00  0.00    +0.392 N 
ATOM      3  N   UNL     1      -0.683   0.221   0.055  0.00  0.00    -0.281 N 
ATOM      4  C   UNL     1       1.701   0.096   0.685  0.00  0.00    -0.055 C 
ATOM      5  C   UNL     1       0.631  -1.846  -0.273  0.00  0.00    -0.055 C 
ATOM      6  C   UNL     1       0.552   0.988   0.216  0.00  0.00    +0.071 C 
ATOM      7  C   UNL     1      -0.544  -0.992  -0.755  0.00  0.00    +0.071 C 
ATOM      8  C   UNL     1      -1.884   0.727   0.550  0.00  0.00    +0.270 C 
ATOM      9  H   UNL     1       2.071  -0.704  -1.152  0.00  0.00    -0.079 HD
ENDROOT
BRANCH   2  10
ATOM     10  C   UNL     1       2.990  -1.886   0.217  0.00  0.00    -0.050 C 
BRANCH  10  13
ATOM     11  O   UNL     1       6.283   1.218  -1.758  0.00  0.00    -0.435 OA
ATOM     12  O   UNL     1       7.776   1.014   0.123  0.00  0.00    -0.435 OA
ATOM     13  C   UNL     1       4.286  -1.120   0.226  0.00  0.00    -0.040 C 
ATOM     14  C   UNL     1       4.601  -0.304  -0.856  0.00  0.00    +0.034 C 
ATOM     15  C   UNL     1       5.146  -1.246   1.323  0.00  0.00    -0.003 C 
ATOM     16  C   UNL     1       5.800   0.378  -0.803  0.00  0.00    +0.176 C 
ATOM     17  C   UNL     1       6.652   0.261   0.271  0.00  0.00    +0.176 C 
ATOM     18  C   UNL     1       6.354  -0.544   1.351  0.00  0.00    +0.040 C 
ATOM     19  C   UNL     1       7.535   1.618  -1.165  0.00  0.00    +0.429 C 
ENDBRANCH  10  13
ENDBRANCH   2  10
BRANCH   8  20
ATOM     20  C   UNL     1      -3.110  -0.127   0.348  0.00  0.00    +0.290 C 
BRANCH  20  21
ATOM     21  O   UNL     1      -4.181   0.557   0.950  0.00  0.00    -0.466 OA
BRANCH  21  23
ATOM     22 CL   UNL     1      -9.553  -0.402  -1.219  0.00  0.00    -0.082 Cl
ATOM     23  C   UNL     1      -5.441   0.331   0.443  0.00  0.00    +0.139 C 
ATOM     24  C   UNL     1      -5.737  -0.899  -0.124  0.00  0.00    +0.038 C 
ATOM     25  C   UNL     1      -6.392   1.339   0.507  0.00  0.00    +0.038 C 
ATOM     26  C   UNL     1      -7.013  -1.127  -0.640  0.00  0.00    +0.015 C 
ATOM     27  C   UNL     1      -7.668   1.111  -0.009  0.00  0.00    +0.015 C 
ATOM     28  C   UNL     1      -7.979  -0.121  -0.582  0.00  0.00    +0.058 C 
ENDBRANCH  21  23
ENDBRANCH  20  21
ENDBRANCH   8  20
TORSDOF 5
