REMARK  Name = 656655
REMARK  9 active torsions:
REMARK  status: ('A' for Active; 'I' for Inactive)
REMARK    1  A    between atoms: C_1  and  O_2
REMARK    2  A    between atoms: C_1  and  C_4
REMARK    3  A    between atoms: C_1  and  C_12
REMARK    4  A    between atoms: C_4  and  O_5
REMARK    5  A    between atoms: C_4  and  C_7
REMARK    6  A    between atoms: C_7  and  C_9
REMARK    7  A    between atoms: C_7  and  O_10
REMARK    8  A    between atoms: C_12  and  C_14
REMARK    9  A    between atoms: C_12  and  O_15
REMARK                            x       y       z     vdW  Elec       q    Type
REMARK                         _______ _______ _______ _____ _____    ______ ____
ROOT
ATOM      1  C   UNL     1       0.611  -0.458  -0.048  0.00  0.00    +0.167 C 
ENDROOT
BRANCH   1   2
ATOM      2  O   UNL     1       0.488  -1.354   1.062  0.00  0.00    -0.379 OA
ATOM      3  H   UNL     1      -0.376  -1.793   1.029  0.00  0.00    +0.211 HD
ENDBRANCH   1   2
BRANCH   1   4
ATOM      4  C   UNL     1      -0.613   0.481  -0.044  0.00  0.00    +0.167 C 
BRANCH   4   5
ATOM      5  O   UNL     1      -0.545   1.359   1.087  0.00  0.00    -0.379 OA
ATOM      6  H   UNL     1       0.315   1.808   1.097  0.00  0.00    +0.211 HD
ENDBRANCH   4   5
BRANCH   4   7
ATOM      7  C   UNL     1      -1.986  -0.214  -0.030  0.00  0.00    +0.151 C 
BRANCH   7   9
ATOM      8 BR   UNL     1      -4.840  -0.232   0.142  0.00  0.00    -0.078 Br
ATOM      9  C   UNL     1      -3.155   0.758   0.047  0.00  0.00    +0.099 C 
ENDBRANCH   7   9
BRANCH   7  10
ATOM     10  O   UNL     1      -2.084  -0.945  -1.261  0.00  0.00    -0.381 OA
ATOM     11  H   UNL     1      -1.346  -1.570  -1.326  0.00  0.00    +0.210 HD
ENDBRANCH   7  10
ENDBRANCH   4   7
ENDBRANCH   1   4
BRANCH   1  12
ATOM     12  C   UNL     1       1.988   0.231   0.019  0.00  0.00    +0.151 C 
BRANCH  12  14
ATOM     13 BR   UNL     1       4.846   0.122   0.083  0.00  0.00    -0.078 Br
ATOM     14  C   UNL     1       3.119  -0.792   0.084  0.00  0.00    +0.099 C 
ENDBRANCH  12  14
BRANCH  12  15
ATOM     15  O   UNL     1       2.172   1.043  -1.140  0.00  0.00    -0.381 OA
ATOM     16  H   UNL     1       1.459   1.698  -1.193  0.00  0.00    +0.210 HD
ENDBRANCH  12  15
ENDBRANCH   1  12
TORSDOF 9
