REMARK  Name = 4626
REMARK  3 active torsions:
REMARK  status: ('A' for Active; 'I' for Inactive)
REMARK    1  A    between atoms: N_2  and  C_9
REMARK    2  A    between atoms: C_3  and  O_7
REMARK    3  A    between atoms: C_9  and  C_12
REMARK                            x       y       z     vdW  Elec       q    Type
REMARK                         _______ _______ _______ _____ _____    ______ ____
ROOT
ATOM      1  O   UNL     1       0.430  -2.154  -0.564  0.00  0.00    -0.275 OA
ATOM      2  N   UNL     1       0.086   0.159  -0.306  0.00  0.00    -0.269 N 
ATOM      3  C   UNL     1       2.160   0.744   0.564  0.00  0.00    +0.139 C 
ATOM      4  C   UNL     1       0.747   1.259   0.362  0.00  0.00    +0.123 C 
ATOM      5  C   UNL     1       2.004  -0.771   0.656  0.00  0.00    +0.116 C 
ATOM      6  C   UNL     1       0.763  -1.048  -0.163  0.00  0.00    +0.229 C 
ENDROOT
BRANCH   3   7
ATOM      7  O   UNL     1       2.958   1.056  -0.574  0.00  0.00    -0.382 OA
ATOM      8  H   UNL     1       3.063   2.018  -0.642  0.00  0.00    +0.210 HD
ENDBRANCH   3   7
BRANCH   2   9
ATOM      9  C   UNL     1      -1.208   0.324  -0.933  0.00  0.00    +0.179 C 
BRANCH   9  12
ATOM     10  O   UNL     1      -2.200  -0.571   1.086  0.00  0.00    -0.273 OA
ATOM     11  N   UNL     1      -3.441   0.852  -0.225  0.00  0.00    -0.327 N 
ATOM     12  C   UNL     1      -2.299   0.150   0.097  0.00  0.00    +0.240 C 
ATOM     13  H   UNL     1      -4.224   0.819   0.370  0.00  0.00    +0.145 HD
ATOM     14  H   UNL     1      -3.472   1.388  -1.051  0.00  0.00    +0.145 HD
ENDBRANCH   9  12
ENDBRANCH   2   9
TORSDOF 3
