REMARK  Name = 4806
REMARK  6 active torsions:
REMARK  status: ('A' for Active; 'I' for Inactive)
REMARK    1  A    between atoms: C_1  and  S_21
REMARK    2  A    between atoms: C_2  and  N_8
REMARK    3  A    between atoms: C_9  and  C_11
REMARK    4  A    between atoms: C_12  and  C_18
REMARK    5  A    between atoms: C_18  and  O_19
REMARK    6  A    between atoms: S_21  and  N_25
REMARK                            x       y       z     vdW  Elec       q    Type
REMARK                         _______ _______ _______ _____ _____    ______ ____
ROOT
ATOM      1  C   UNL     1       2.669   1.373   0.209  0.00  0.00    +0.125 C 
ATOM      2  C   UNL     1      -0.085   1.090   0.253  0.00  0.00    +0.051 C 
ATOM      3  C   UNL     1       2.004   0.845  -0.898  0.00  0.00    +0.021 C 
ATOM      4  C   UNL     1       1.946   1.759   1.337  0.00  0.00    +0.021 C 
ATOM      5  C   UNL     1       0.617   0.702  -0.876  0.00  0.00    +0.016 C 
ATOM      6  C   UNL     1       0.558   1.617   1.360  0.00  0.00    +0.016 C 
ENDROOT
BRANCH   2   8
ATOM      7  O   UNL     1      -1.956   0.024  -1.833  0.00  0.00    -0.270 OA
ATOM      8  N   UNL     1      -1.493   0.945   0.276  0.00  0.00    -0.280 N 
ATOM      9  C   UNL     1      -2.332   0.439  -0.726  0.00  0.00    +0.250 C 
ATOM     10  H   UNL     1      -1.941   1.236   1.102  0.00  0.00    +0.155 HD
BRANCH   9  11
ATOM     11  C   UNL     1      -3.757   0.439  -0.419  0.00  0.00    +0.060 C 
ATOM     12  C   UNL     1      -4.364  -0.652   0.201  0.00  0.00    +0.080 C 
ATOM     13  C   UNL     1      -4.515   1.560  -0.758  0.00  0.00    +0.005 C 
ATOM     14  C   UNL     1      -5.730  -0.623   0.483  0.00  0.00    +0.007 C 
ATOM     15  C   UNL     1      -5.880   1.589  -0.476  0.00  0.00    +0.000 C 
ATOM     16  C   UNL     1      -6.488   0.498   0.144  0.00  0.00    +0.000 C 
BRANCH  12  18
ATOM     17  O   UNL     1      -2.600  -2.252  -0.026  0.00  0.00    -0.245 OA
ATOM     18  C   UNL     1      -3.600  -1.838   0.566  0.00  0.00    +0.338 C 
BRANCH  18  19
ATOM     19  O   UNL     1      -4.109  -2.465   1.661  0.00  0.00    -0.477 OA
ATOM     20  H   UNL     1      -4.870  -2.122   2.086  0.00  0.00    +0.295 HD
ENDBRANCH  18  19
ENDBRANCH  12  18
ENDBRANCH   9  11
ENDBRANCH   2   8
BRANCH   1  21
ATOM     21  S   UNL     1       4.405   1.552   0.181  0.00  0.00    +0.075 S 
ATOM     22  O   UNL     1       4.760   2.598   1.134  0.00  0.00    -0.150 OA
ATOM     23  O   UNL     1       4.839   1.687  -1.204  0.00  0.00    -0.150 OA
BRANCH  21  25
ATOM     24  S   UNL     1       4.088  -2.571   1.141  0.00  0.00    -0.050 S 
ATOM     25  N   UNL     1       4.954   0.045   0.812  0.00  0.00    -0.194 N 
ATOM     26  N   UNL     1       4.240  -1.276  -1.091  0.00  0.00    -0.221 NA
ATOM     27  C   UNL     1       4.454  -1.162   0.212  0.00  0.00    +0.179 C 
ATOM     28  C   UNL     1       3.613  -3.384  -0.292  0.00  0.00    +0.059 C 
ATOM     29  C   UNL     1       3.762  -2.540  -1.373  0.00  0.00    +0.108 C 
ATOM     30  H   UNL     1       5.591   0.012   1.562  0.00  0.00    +0.176 HD
ENDBRANCH  21  25
ENDBRANCH   1  21
TORSDOF 6
