REMARK  Name = 4039
REMARK  7 active torsions:
REMARK  status: ('A' for Active; 'I' for Inactive)
REMARK    1  A    between atoms: C_1  and  C_3
REMARK    2  A    between atoms: C_1  and  O_11
REMARK    3  A    between atoms: C_3  and  O_4
REMARK    4  A    between atoms: O_4  and  C_5
REMARK    5  A    between atoms: C_5  and  C_6
REMARK    6  A    between atoms: C_6  and  N_7
REMARK    7  A    between atoms: O_11  and  C_13
REMARK                            x       y       z     vdW  Elec       q    Type
REMARK                         _______ _______ _______ _____ _____    ______ ____
ROOT
ATOM      1  C   UNL     1      -0.183   0.081  -0.032  0.00  0.00    +0.314 C 
ENDROOT
BRANCH   1   3
ATOM      2  O   UNL     1       1.243  -1.874  -0.180  0.00  0.00    -0.246 OA
ATOM      3  C   UNL     1       1.127  -0.657  -0.112  0.00  0.00    +0.362 C 
BRANCH   3   4
ATOM      4  O   UNL     1       2.157   0.244  -0.098  0.00  0.00    -0.448 OA
BRANCH   4   5
ATOM      5  C   UNL     1       3.465  -0.308  -0.170  0.00  0.00    +0.186 C 
BRANCH   5   6
ATOM      6  C   UNL     1       4.477   0.827  -0.143  0.00  0.00    -0.029 C 
BRANCH   6   7
ATOM      7  N   UNL     1       5.841   0.303  -0.196  0.00  0.00    +0.387 N 
ATOM      8  C   UNL     1       6.086  -0.603   0.925  0.00  0.00    -0.101 C 
ATOM      9  C   UNL     1       6.810   1.399  -0.188  0.00  0.00    -0.101 C 
ATOM     10  H   UNL     1       5.953  -0.220  -1.065  0.00  0.00    -0.080 HD
ENDBRANCH   6   7
ENDBRANCH   5   6
ENDBRANCH   4   5
ENDBRANCH   3   4
ENDBRANCH   1   3
BRANCH   1  11
ATOM     11  O   UNL     1      -1.240  -0.858  -0.073  0.00  0.00    -0.464 OA
BRANCH  11  13
ATOM     12 CL   UNL     1      -6.773   1.095   0.133  0.00  0.00    -0.082 Cl
ATOM     13  C   UNL     1      -2.511  -0.409  -0.027  0.00  0.00    +0.139 C 
ATOM     14  C   UNL     1      -2.776   0.964   0.059  0.00  0.00    +0.038 C 
ATOM     15  C   UNL     1      -3.583  -1.310  -0.063  0.00  0.00    +0.038 C 
ATOM     16  C   UNL     1      -4.091   1.428   0.108  0.00  0.00    +0.015 C 
ATOM     17  C   UNL     1      -4.898  -0.846  -0.014  0.00  0.00    +0.015 C 
ATOM     18  C   UNL     1      -5.152   0.523   0.072  0.00  0.00    +0.058 C 
ENDBRANCH  11  13
ENDBRANCH   1  11
TORSDOF 7
