REMARK  Name = 4514
REMARK  8 active torsions:
REMARK  status: ('A' for Active; 'I' for Inactive)
REMARK    1  A    between atoms: C_1  and  N_7
REMARK    2  A    between atoms: C_2  and  C_23
REMARK    3  A    between atoms: C_5  and  N_21
REMARK    4  A    between atoms: C_9  and  C_12
REMARK    5  A    between atoms: C_12  and  N_13
REMARK    6  A    between atoms: N_13  and  C_15
REMARK    7  A    between atoms: N_13  and  C_17
REMARK    8  A    between atoms: C_23  and  C_25
REMARK                            x       y       z     vdW  Elec       q    Type
REMARK                         _______ _______ _______ _____ _____    ______ ____
ROOT
ATOM      1  C   UNL     1       0.695  -0.442   1.096  0.00  0.00    +0.060 C 
ATOM      2  C   UNL     1      -0.642  -0.305   0.738  0.00  0.00    +0.055 C 
ATOM      3  C   UNL     1       1.272  -1.703   1.204  0.00  0.00    +0.017 C 
ATOM      4  C   UNL     1      -1.411  -1.442   0.486  0.00  0.00    +0.029 C 
ATOM      5  C   UNL     1      -0.838  -2.709   0.594  0.00  0.00    +0.143 C 
ATOM      6  C   UNL     1       0.503  -2.840   0.953  0.00  0.00    +0.025 C 
ENDROOT
BRANCH   1   7
ATOM      7  N   UNL     1       1.483   0.678   1.350  0.00  0.00    -0.253 N 
ATOM      8  N   UNL     1       2.860   2.388   1.013  0.00  0.00    -0.234 NA
ATOM      9  C   UNL     1       2.232   1.386   0.473  0.00  0.00    +0.095 C 
ATOM     10  C   UNL     1       1.642   1.276   2.568  0.00  0.00    +0.091 C 
ATOM     11  C   UNL     1       2.496   2.328   2.335  0.00  0.00    +0.116 C 
BRANCH   9  12
ATOM     12  C   UNL     1       2.302   1.017  -0.984  0.00  0.00    -0.014 C 
BRANCH  12  13
ATOM     13  N   UNL     1       3.395   0.080  -1.237  0.00  0.00    +0.392 N 
ATOM     14  H   UNL     1       3.244  -0.754  -0.670  0.00  0.00    -0.079 HD
BRANCH  13  15
ATOM     15  C   UNL     1       3.414  -0.315  -2.645  0.00  0.00    -0.077 C 
ATOM     16  C   UNL     1       2.112  -0.989  -3.044  0.00  0.00    -0.025 C 
ENDBRANCH  13  15
BRANCH  13  17
ATOM     17  C   UNL     1       4.676   0.673  -0.856  0.00  0.00    -0.077 C 
ATOM     18  C   UNL     1       5.825  -0.288  -1.112  0.00  0.00    -0.025 C 
ENDBRANCH  13  17
ENDBRANCH  12  13
ENDBRANCH   9  12
ENDBRANCH   1   7
BRANCH   5  21
ATOM     19  O   UNL     1      -1.085  -4.997   0.440  0.00  0.00    -0.126 OA
ATOM     20  O   UNL     1      -2.825  -3.727   0.017  0.00  0.00    -0.126 OA
ATOM     21  N   UNL     1      -1.620  -3.866   0.338  0.00  0.00    +0.058 N 
ENDBRANCH   5  21
BRANCH   2  23
ATOM     22  O   UNL     1      -0.886   1.950   1.311  0.00  0.00    -0.286 OA
ATOM     23  C   UNL     1      -1.275   1.003   0.614  0.00  0.00    +0.198 C 
BRANCH  23  25
ATOM     24 CL   UNL     1      -3.954   1.951   1.797  0.00  0.00    -0.082 Cl
ATOM     25  C   UNL     1      -2.397   1.259  -0.336  0.00  0.00    +0.050 C 
ATOM     26  C   UNL     1      -3.624   1.686   0.122  0.00  0.00    +0.061 C 
ATOM     27  C   UNL     1      -2.139   1.048  -1.674  0.00  0.00    +0.004 C 
ATOM     28  C   UNL     1      -4.643   1.915  -0.802  0.00  0.00    +0.011 C 
ATOM     29  C   UNL     1      -3.159   1.277  -2.598  0.00  0.00    +0.000 C 
ATOM     30  C   UNL     1      -4.411   1.710  -2.162  0.00  0.00    +0.001 C 
ENDBRANCH  23  25
ENDBRANCH   2  23
TORSDOF 8
