4839
  -OEChem-10061700203D

 49 51  0     1  0  0  0  0  0999 V2000
    0.8683    1.0198   -0.3727 O   0  0  0  0  0  0  0  0  0  0  0  0
    0.2738   -0.8509   -1.5753 O   0  0  0  0  0  0  0  0  0  0  0  0
    4.2365   -0.5030   -0.0086 N   0  0  1  0  0  0  0  0  0  0  0  0
    2.2556    0.8420   -0.6378 C   0  0  1  0  0  0  0  0  0  0  0  0
    2.9892    2.1264   -0.2648 C   0  0  0  0  0  0  0  0  0  0  0  0
    2.7864   -0.3499    0.1640 C   0  0  0  0  0  0  0  0  0  0  0  0
    4.4959    1.9314   -0.3719 C   0  0  0  0  0  0  0  0  0  0  0  0
    4.9533    0.7059    0.4212 C   0  0  0  0  0  0  0  0  0  0  0  0
    4.7191   -1.6726    0.7252 C   0  0  0  0  0  0  0  0  0  0  0  0
    6.1953   -1.9159    0.4610 C   0  0  0  0  0  0  0  0  0  0  0  0
   -1.1147   -0.1056    0.2935 C   0  0  0  0  0  0  0  0  0  0  0  0
    0.0581   -0.0436   -0.6802 C   0  0  0  0  0  0  0  0  0  0  0  0
   -1.9659    1.1570    0.3135 C   0  0  0  0  0  0  0  0  0  0  0  0
   -1.9610   -1.3612    0.1263 C   0  0  0  0  0  0  0  0  0  0  0  0
   -2.6096    1.5080    1.4821 C   0  0  0  0  0  0  0  0  0  0  0  0
   -3.0271   -1.3338   -0.7483 C   0  0  0  0  0  0  0  0  0  0  0  0
   -2.0673    1.9103   -0.8375 C   0  0  0  0  0  0  0  0  0  0  0  0
   -1.6346   -2.4858    0.8549 C   0  0  0  0  0  0  0  0  0  0  0  0
   -3.3897    2.6643    1.5003 C   0  0  0  0  0  0  0  0  0  0  0  0
   -3.8023   -2.4833   -0.9011 C   0  0  0  0  0  0  0  0  0  0  0  0
   -2.8473    3.0665   -0.8194 C   0  0  0  0  0  0  0  0  0  0  0  0
   -2.4097   -3.6354    0.7020 C   0  0  0  0  0  0  0  0  0  0  0  0
   -3.5085    3.4435    0.3496 C   0  0  0  0  0  0  0  0  0  0  0  0
   -3.4936   -3.6341   -0.1760 C   0  0  0  0  0  0  0  0  0  0  0  0
    2.3907    0.6646   -1.7135 H   0  0  0  0  0  0  0  0  0  0  0  0
    2.7214    2.4245    0.7573 H   0  0  0  0  0  0  0  0  0  0  0  0
    2.6617    2.9490   -0.9115 H   0  0  0  0  0  0  0  0  0  0  0  0
    2.5232   -0.2306    1.2247 H   0  0  0  0  0  0  0  0  0  0  0  0
    2.2943   -1.2717   -0.1658 H   0  0  0  0  0  0  0  0  0  0  0  0
    4.7757    1.8137   -1.4266 H   0  0  0  0  0  0  0  0  0  0  0  0
    5.0108    2.8255   -0.0024 H   0  0  0  0  0  0  0  0  0  0  0  0
    6.0297    0.6181    0.2430 H   0  0  0  0  0  0  0  0  0  0  0  0
    4.8098    0.8865    1.4947 H   0  0  0  0  0  0  0  0  0  0  0  0
    4.5454   -1.5778    1.8045 H   0  0  0  0  0  0  0  0  0  0  0  0
    4.1718   -2.5612    0.3862 H   0  0  0  0  0  0  0  0  0  0  0  0
   -0.6338   -0.1723    1.2829 H   0  0  0  0  0  0  0  0  0  0  0  0
    6.4278   -1.8787   -0.6087 H   0  0  0  0  0  0  0  0  0  0  0  0
    6.8383   -1.2057    0.9896 H   0  0  0  0  0  0  0  0  0  0  0  0
    6.4709   -2.9139    0.8201 H   0  0  0  0  0  0  0  0  0  0  0  0
   -2.5233    0.9066    2.3820 H   0  0  0  0  0  0  0  0  0  0  0  0
   -3.2842   -0.4677   -1.3468 H   0  0  0  0  0  0  0  0  0  0  0  0
   -1.5777    1.6320   -1.7653 H   0  0  0  0  0  0  0  0  0  0  0  0
   -0.7910   -2.4975    1.5383 H   0  0  0  0  0  0  0  0  0  0  0  0
   -3.9050    2.9575    2.4102 H   0  0  0  0  0  0  0  0  0  0  0  0
   -4.6430   -2.4845   -1.5888 H   0  0  0  0  0  0  0  0  0  0  0  0
   -2.9433    3.6713   -1.7165 H   0  0  0  0  0  0  0  0  0  0  0  0
   -2.1686   -4.5319    1.2657 H   0  0  0  0  0  0  0  0  0  0  0  0
   -4.1168    4.3431    0.3633 H   0  0  0  0  0  0  0  0  0  0  0  0
   -4.0961   -4.5296   -0.2961 H   0  0  0  0  0  0  0  0  0  0  0  0
  1  4  1  0  0  0  0
  1 12  1  0  0  0  0
  2 12  2  0  0  0  0
  3  6  1  0  0  0  0
  3  8  1  0  0  0  0
  3  9  1  0  0  0  0
  4  5  1  0  0  0  0
  4  6  1  0  0  0  0
  4 25  1  0  0  0  0
  5  7  1  0  0  0  0
  5 26  1  0  0  0  0
  5 27  1  0  0  0  0
  6 28  1  0  0  0  0
  6 29  1  0  0  0  0
  7  8  1  0  0  0  0
  7 30  1  0  0  0  0
  7 31  1  0  0  0  0
  8 32  1  0  0  0  0
  8 33  1  0  0  0  0
  9 10  1  0  0  0  0
  9 34  1  0  0  0  0
  9 35  1  0  0  0  0
 10 37  1  0  0  0  0
 10 38  1  0  0  0  0
 10 39  1  0  0  0  0
 11 12  1  0  0  0  0
 11 13  1  0  0  0  0
 11 14  1  0  0  0  0
 11 36  1  0  0  0  0
 13 15  2  0  0  0  0
 13 17  1  0  0  0  0
 14 16  2  0  0  0  0
 14 18  1  0  0  0  0
 15 19  1  0  0  0  0
 15 40  1  0  0  0  0
 16 20  1  0  0  0  0
 16 41  1  0  0  0  0
 17 21  2  0  0  0  0
 17 42  1  0  0  0  0
 18 22  2  0  0  0  0
 18 43  1  0  0  0  0
 19 23  2  0  0  0  0
 19 44  1  0  0  0  0
 20 24  2  0  0  0  0
 20 45  1  0  0  0  0
 21 23  1  0  0  0  0
 21 46  1  0  0  0  0
 22 24  1  0  0  0  0
 22 47  1  0  0  0  0
 23 48  1  0  0  0  0
 24 49  1  0  0  0  0
M  END
> <DATABASE_ID>
DB13351

> <DATABASE_NAME>
drugbank

> <ORIGINAL_SOURCE>
PUBCHEM

> <ORIGINAL_SOURCE_URL>
https://pubchem.ncbi.nlm.nih.gov/rest/pug/compound/inchikey/KTHVBAZBLKXIHZ-UHFFFAOYSA-N/SDF?record_type=3d

> <SMILES>
CCN1CCCC(C1)OC(=O)C(C1=CC=CC=C1)C1=CC=CC=C1

> <INCHI_IDENTIFIER>
InChI=1S/C21H25NO2/c1-2-22-15-9-14-19(16-22)24-21(23)20(17-10-5-3-6-11-17)18-12-7-4-8-13-18/h3-8,10-13,19-20H,2,9,14-16H2,1H3

> <INCHI_KEY>
KTHVBAZBLKXIHZ-UHFFFAOYSA-N

> <FORMULA>
C21H25NO2

> <MOLECULAR_WEIGHT>
323.436

> <EXACT_MASS>
323.188529049

> <JCHEM_ACCEPTOR_COUNT>
2

> <JCHEM_ATOM_COUNT>
49

> <JCHEM_AVERAGE_POLARIZABILITY>
36.99885163093022

> <JCHEM_BIOAVAILABILITY>
1

> <JCHEM_DONOR_COUNT>
0

> <JCHEM_FORMAL_CHARGE>
0

> <JCHEM_GHOSE_FILTER>
1

> <JCHEM_IUPAC>
1-ethylpiperidin-3-yl 2,2-diphenylacetate

> <ALOGPS_LOGP>
4.33

> <JCHEM_LOGP>
4.274695425999999

> <ALOGPS_LOGS>
-4.47

> <JCHEM_MDDR_LIKE_RULE>
1

> <JCHEM_NUMBER_OF_RINGS>
3

> <JCHEM_PHYSIOLOGICAL_CHARGE>
1

> <JCHEM_PKA_STRONGEST_BASIC>
8.308186572871112

> <JCHEM_POLAR_SURFACE_AREA>
29.540000000000003

> <JCHEM_REFRACTIVITY>
96.78309999999999

> <JCHEM_ROTATABLE_BOND_COUNT>
6

> <JCHEM_RULE_OF_FIVE>
1

> <ALOGPS_SOLUBILITY>
1.11e-02 g/l

> <JCHEM_TRADITIONAL_IUPAC>
1-ethylpiperidin-3-yl diphenylacetate

> <JCHEM_VEBER_RULE>
1

> <DRUGBANK_ID>
DB13351

> <DRUG_GROUPS>
experimental

> <GENERIC_NAME>
Piperidolate

$$$$
