REMARK  Name = 4839
REMARK  6 active torsions:
REMARK  status: ('A' for Active; 'I' for Inactive)
REMARK    1  A    between atoms: C_1  and  C_2
REMARK    2  A    between atoms: C_1  and  C_8
REMARK    3  A    between atoms: C_1  and  C_15
REMARK    4  A    between atoms: C_15  and  O_16
REMARK    5  A    between atoms: O_16  and  C_18
REMARK    6  A    between atoms: N_17  and  C_24
REMARK                            x       y       z     vdW  Elec       q    Type
REMARK                         _______ _______ _______ _____ _____    ______ ____
ROOT
ATOM      1  C   UNL     1      -1.115  -0.106   0.293  0.00  0.00    +0.143 C 
ENDROOT
BRANCH   1   2
ATOM      2  C   UNL     1      -1.966   1.157   0.314  0.00  0.00    -0.008 C 
ATOM      3  C   UNL     1      -2.610   1.508   1.482  0.00  0.00    -0.003 C 
ATOM      4  C   UNL     1      -2.067   1.910  -0.838  0.00  0.00    -0.003 C 
ATOM      5  C   UNL     1      -3.390   2.664   1.500  0.00  0.00    -0.000 C 
ATOM      6  C   UNL     1      -2.847   3.067  -0.819  0.00  0.00    -0.000 C 
ATOM      7  C   UNL     1      -3.509   3.443   0.350  0.00  0.00    -0.000 C 
ENDBRANCH   1   2
BRANCH   1   8
ATOM      8  C   UNL     1      -1.961  -1.361   0.126  0.00  0.00    -0.008 C 
ATOM      9  C   UNL     1      -3.027  -1.334  -0.748  0.00  0.00    -0.003 C 
ATOM     10  C   UNL     1      -1.635  -2.486   0.855  0.00  0.00    -0.003 C 
ATOM     11  C   UNL     1      -3.802  -2.483  -0.901  0.00  0.00    -0.000 C 
ATOM     12  C   UNL     1      -2.410  -3.635   0.702  0.00  0.00    -0.000 C 
ATOM     13  C   UNL     1      -3.494  -3.634  -0.176  0.00  0.00    -0.000 C 
ENDBRANCH   1   8
BRANCH   1  15
ATOM     14  O   UNL     1       0.274  -0.851  -1.575  0.00  0.00    -0.249 OA
ATOM     15  C   UNL     1       0.058  -0.044  -0.680  0.00  0.00    +0.325 C 
BRANCH  15  16
ATOM     16  O   UNL     1       0.868   1.020  -0.373  0.00  0.00    -0.454 OA
BRANCH  16  18
ATOM     17  N   UNL     1       4.237  -0.503  -0.009  0.00  0.00    +0.389 N 
ATOM     18  C   UNL     1       2.256   0.842  -0.638  0.00  0.00    +0.148 C 
ATOM     19  C   UNL     1       2.989   2.126  -0.265  0.00  0.00    +0.039 C 
ATOM     20  C   UNL     1       2.786  -0.350   0.164  0.00  0.00    -0.033 C 
ATOM     21  C   UNL     1       4.496   1.931  -0.372  0.00  0.00    -0.019 C 
ATOM     22  C   UNL     1       4.953   0.706   0.421  0.00  0.00    -0.077 C 
ATOM     23  H   UNL     1       4.422  -0.642  -1.002  0.00  0.00    -0.080 HD
BRANCH  17  24
ATOM     24  C   UNL     1       4.719  -1.673   0.725  0.00  0.00    -0.077 C 
ATOM     25  C   UNL     1       6.195  -1.916   0.461  0.00  0.00    -0.025 C 
ENDBRANCH  17  24
ENDBRANCH  16  18
ENDBRANCH  15  16
ENDBRANCH   1  15
TORSDOF 6
