REMARK  Name = 11439
REMARK  0 active torsions:
REMARK  status: ('A' for Active; 'I' for Inactive)
REMARK                            x       y       z     vdW  Elec       q    Type
REMARK                         _______ _______ _______ _____ _____    ______ ____
ROOT
ATOM      1  O   UNL     1       2.300  -0.604   0.000  0.00  0.00    -0.270 OA
ATOM      2  O   UNL     1      -2.300  -0.604   0.001  0.00  0.00    -0.270 OA
ATOM      3  N   UNL     1       0.000  -0.935   0.000  0.00  0.00    -0.248 N 
ATOM      4  C   UNL     1       0.762   1.261   0.001  0.00  0.00    +0.063 C 
ATOM      5  C   UNL     1      -0.761   1.261  -0.001  0.00  0.00    +0.063 C 
ATOM      6  C   UNL     1       1.150  -0.189   0.000  0.00  0.00    +0.252 C 
ATOM      7  C   UNL     1      -1.150  -0.189   0.000  0.00  0.00    +0.252 C 
ATOM      8  H   UNL     1       0.000  -1.919   0.000  0.00  0.00    +0.158 HD
ENDROOT
TORSDOF 0
