REMARK  Name = 44556193
REMARK  4 active torsions:
REMARK  status: ('A' for Active; 'I' for Inactive)
REMARK    1  A    between atoms: N_3  and  C_22
REMARK    2  A    between atoms: C_10  and  C_14
REMARK    3  A    between atoms: C_16  and  C_19
REMARK    4  A    between atoms: C_22  and  C_24
REMARK                            x       y       z     vdW  Elec       q    Type
REMARK                         _______ _______ _______ _____ _____    ______ ____
ROOT
ATOM      1 CL   UNL     1      -1.228   3.569   0.692  0.00  0.00    -0.082 Cl
ATOM      2  O   UNL     1      -3.898   2.226   0.081  0.00  0.00    -0.270 OA
ATOM      3  N   UNL     1      -3.821  -0.060  -0.466  0.00  0.00    -0.274 N 
ATOM      4  C   UNL     1      -2.798  -1.090  -0.606  0.00  0.00    +0.121 C 
ATOM      5  C   UNL     1      -3.303   1.180  -0.110  0.00  0.00    +0.250 C 
ATOM      6  C   UNL     1      -1.554  -0.335  -0.288  0.00  0.00    +0.003 C 
ATOM      7  C   UNL     1      -1.852   0.998   0.003  0.00  0.00    +0.062 C 
ATOM      8  C   UNL     1      -0.245  -0.780  -0.254  0.00  0.00    +0.001 C 
ATOM      9  C   UNL     1      -0.883   1.925   0.332  0.00  0.00    +0.062 C 
ATOM     10  C   UNL     1       0.756   0.140   0.077  0.00  0.00    +0.038 C 
ATOM     11  C   UNL     1       0.439   1.480   0.368  0.00  0.00    +0.015 C 
ENDROOT
BRANCH  10  14
ATOM     12  O   UNL     1       2.349  -1.599  -0.174  0.00  0.00    -0.353 OA
ATOM     13  N   UNL     1       3.709  -1.869  -0.093  0.00  0.00    -0.072 NA
ATOM     14  C   UNL     1       2.132  -0.292   0.121  0.00  0.00    +0.177 C 
ATOM     15  C   UNL     1       3.325   0.322   0.398  0.00  0.00    +0.067 C 
ATOM     16  C   UNL     1       4.272  -0.707   0.250  0.00  0.00    +0.176 C 
BRANCH  16  19
ATOM     17  O   UNL     1       6.221  -1.357   1.281  0.00  0.00    -0.268 OA
ATOM     18  N   UNL     1       6.446   0.265  -0.387  0.00  0.00    -0.271 N 
ATOM     19  C   UNL     1       5.694  -0.623   0.421  0.00  0.00    +0.270 C 
ATOM     20  C   UNL     1       5.821   1.121  -1.393  0.00  0.00    +0.115 C 
ATOM     21  C   UNL     1       7.893   0.383  -0.270  0.00  0.00    +0.115 C 
ENDBRANCH  16  19
ENDBRANCH  10  14
BRANCH   3  22
ATOM     22  C   UNL     1      -5.220  -0.354  -0.689  0.00  0.00    +0.076 C 
ATOM     23  C   UNL     1      -5.434  -0.792  -2.108  0.00  0.00    +0.022 C 
BRANCH  22  24
ATOM     24  C   UNL     1      -5.706  -1.404   0.302  0.00  0.00    +0.018 C 
ATOM     25  C   UNL     1      -5.993  -1.000   1.719  0.00  0.00    +0.002 C 
ATOM     26  C   UNL     1      -7.123  -1.347   0.794  0.00  0.00    +0.002 C 
ENDBRANCH  22  24
ENDBRANCH   3  22
TORSDOF 4
