REMARK  Name = 77846445
REMARK  5 active torsions:
REMARK  status: ('A' for Active; 'I' for Inactive)
REMARK    1  A    between atoms: N_2  and  N_20
REMARK    2  A    between atoms: C_3  and  C_9
REMARK    3  A    between atoms: N_7  and  O_14
REMARK    4  A    between atoms: O_14  and  S_15
REMARK    5  A    between atoms: C_21  and  C_24
REMARK                            x       y       z     vdW  Elec       q    Type
REMARK                         _______ _______ _______ _____ _____    ______ ____
ROOT
ATOM      1  O   UNL     1       0.966   2.035   1.269  0.00  0.00    -0.272 OA
ATOM      2  N   UNL     1       1.391   1.222  -0.866  0.00  0.00    -0.233 N 
ATOM      3  C   UNL     1       0.586   1.690   0.153  0.00  0.00    +0.256 C 
ATOM      4  H   UNL     1       1.001   0.967  -1.734  0.00  0.00    +0.173 HD
ENDROOT
BRANCH   3   9
ATOM      5  O   UNL     1      -3.062   0.902  -2.189  0.00  0.00    -0.250 OA
ATOM      6  N   UNL     1      -1.279   0.378  -0.648  0.00  0.00    -0.254 N 
ATOM      7  N   UNL     1      -3.398  -0.158  -0.101  0.00  0.00    -0.126 N 
ATOM      8  C   UNL     1      -2.570  -0.295   1.088  0.00  0.00    +0.127 C 
ATOM      9  C   UNL     1      -0.863   1.710  -0.228  0.00  0.00    +0.155 C 
ATOM     10  C   UNL     1      -1.257  -0.636   0.406  0.00  0.00    +0.118 C 
ATOM     11  C   UNL     1      -2.359   1.055   1.822  0.00  0.00    +0.026 C 
ATOM     12  C   UNL     1      -1.774   2.191   0.930  0.00  0.00    +0.031 C 
ATOM     13  C   UNL     1      -2.653   0.376  -1.165  0.00  0.00    +0.332 C 
BRANCH   7  14
ATOM     14  O   UNL     1      -4.756   0.079   0.050  0.00  0.00    -0.094 OA
BRANCH  14  15
ATOM     15  S   UNL     1      -5.640  -1.306   0.027  0.00  0.00    +0.258 S 
ATOM     16  O   UNL     1      -7.170  -0.778  -0.168  0.00  0.00    -0.114 OA
ATOM     17  O   UNL     1      -5.552  -1.922   1.338  0.00  0.00    -0.020 OA
ATOM     18  O   UNL     1      -5.279  -2.051  -1.165  0.00  0.00    -0.114 OA
ENDBRANCH  14  15
ENDBRANCH   7  14
ENDBRANCH   3   9
BRANCH   2  20
ATOM     19  O   UNL     1       2.598  -1.063   0.138  0.00  0.00    -0.274 OA
ATOM     20  N   UNL     1       2.742   1.118  -0.652  0.00  0.00    -0.234 N 
ATOM     21  C   UNL     1       3.251  -0.062  -0.148  0.00  0.00    +0.235 C 
ATOM     22  H   UNL     1       3.340   1.873  -0.855  0.00  0.00    +0.173 HD
BRANCH  21  24
ATOM     23  N   UNL     1       6.617  -0.982   1.306  0.00  0.00    +0.384 N 
ATOM     24  C   UNL     1       4.741  -0.024  -0.004  0.00  0.00    +0.057 C 
ATOM     25  C   UNL     1       5.403  -0.469  -1.309  0.00  0.00    +0.005 C 
ATOM     26  C   UNL     1       5.160  -0.925   1.161  0.00  0.00    -0.072 C 
ATOM     27  C   UNL     1       6.912  -0.604  -1.125  0.00  0.00    -0.023 C 
ATOM     28  C   UNL     1       7.246  -1.480   0.081  0.00  0.00    -0.082 C 
ATOM     29  H   UNL     1       6.851  -1.605   2.079  0.00  0.00    -0.085 HD
ATOM     30  H   UNL     1       6.963  -0.040   1.490  0.00  0.00    -0.085 HD
ENDBRANCH  21  24
ENDBRANCH   2  20
TORSDOF 5
