REMARK  Name = 71940
REMARK  3 active torsions:
REMARK  status: ('A' for Active; 'I' for Inactive)
REMARK    1  A    between atoms: C_11  and  C_15
REMARK    2  A    between atoms: C_15  and  O_16
REMARK    3  A    between atoms: O_16  and  C_17
REMARK                            x       y       z     vdW  Elec       q    Type
REMARK                         _______ _______ _______ _____ _____    ______ ____
ROOT
ATOM      1  O   UNL     1      -0.835  -1.628   0.610  0.00  0.00    -0.269 OA
ATOM      2  N   UNL     1       1.179  -0.484   0.193  0.00  0.00    -0.245 N 
ATOM      3  N   UNL     1       1.087   1.856  -0.210  0.00  0.00    -0.273 N 
ATOM      4  C   UNL     1       1.929  -1.772   0.331  0.00  0.00    +0.082 C 
ATOM      5  C   UNL     1       3.384  -1.525   0.704  0.00  0.00    +0.025 C 
ATOM      6  C   UNL     1       4.002  -0.525  -0.246  0.00  0.00    +0.030 C 
ATOM      7  C   UNL     1       3.267   0.796  -0.144  0.00  0.00    +0.004 C 
ATOM      8  C   UNL     1       1.775   0.703  -0.062  0.00  0.00    +0.105 C 
ATOM      9  C   UNL     1       1.782  -2.567  -0.968  0.00  0.00    +0.022 C 
ATOM     10  C   UNL     1      -0.271  -0.576   0.344  0.00  0.00    +0.261 C 
ATOM     11  C   UNL     1      -0.983   0.698   0.145  0.00  0.00    +0.144 C 
ATOM     12  C   UNL     1      -0.295   1.813  -0.115  0.00  0.00    +0.077 C 
ATOM     13  C   UNL     1       1.725   3.165  -0.470  0.00  0.00    +0.119 C 
ENDROOT
BRANCH  11  15
ATOM     14  O   UNL     1      -3.025   1.816   0.591  0.00  0.00    -0.245 OA
ATOM     15  C   UNL     1      -2.442   0.808   0.225  0.00  0.00    +0.347 C 
BRANCH  15  16
ATOM     16  O   UNL     1      -2.988  -0.370  -0.170  0.00  0.00    -0.445 OA
BRANCH  16  17
ATOM     17  C   UNL     1      -4.418  -0.420  -0.147  0.00  0.00    +0.209 C 
ATOM     18  C   UNL     1      -4.871  -1.788  -0.610  0.00  0.00    +0.051 C 
ENDBRANCH  16  17
ENDBRANCH  15  16
ENDBRANCH  11  15
TORSDOF 3
