REMARK  Name = 11259
REMARK  4 active torsions:
REMARK  status: ('A' for Active; 'I' for Inactive)
REMARK    1  A    between atoms: S_1  and  C_4
REMARK    2  A    between atoms: S_1  and  N_16
REMARK    3  A    between atoms: C_7  and  N_11
REMARK    4  A    between atoms: N_15  and  C_20
REMARK                            x       y       z     vdW  Elec       q    Type
REMARK                         _______ _______ _______ _____ _____    ______ ____
ROOT
ATOM      1  S   UNL     1       1.249  -2.250  -0.198  0.00  0.00    +0.077 S 
ATOM      2  O   UNL     1       1.327  -2.760   1.157  0.00  0.00    -0.150 OA
ATOM      3  O   UNL     1       1.653  -3.077  -1.319  0.00  0.00    -0.150 OA
ENDROOT
BRANCH   1   4
ATOM      4  C   UNL     1       2.207  -0.767  -0.284  0.00  0.00    +0.126 C 
ATOM      5  C   UNL     1       2.422  -0.033   0.869  0.00  0.00    +0.034 C 
ATOM      6  C   UNL     1       2.725  -0.368  -1.504  0.00  0.00    +0.020 C 
ATOM      7  C   UNL     1       3.178   1.137   0.800  0.00  0.00    +0.039 C 
ATOM      8  C   UNL     1       3.708   1.555  -0.421  0.00  0.00    -0.009 C 
ATOM      9  C   UNL     1       3.481   0.802  -1.573  0.00  0.00    -0.002 C 
ATOM     10  C   UNL     1       4.521   2.804  -0.523  0.00  0.00    +0.032 C 
BRANCH   7  11
ATOM     11  N   UNL     1       3.397   1.887   1.977  0.00  0.00    -0.357 N 
ATOM     12  H   UNL     1       3.018   1.582   2.833  0.00  0.00    +0.142 HD
ATOM     13  H   UNL     1       3.929   2.715   1.941  0.00  0.00    +0.142 HD
ENDBRANCH   7  11
ENDBRANCH   1   4
BRANCH   1  16
ATOM     14  O   UNL     1      -0.845  -0.929   1.677  0.00  0.00    -0.251 OA
ATOM     15  N   UNL     1      -2.391  -0.652  -0.019  0.00  0.00    -0.289 N 
ATOM     16  N   UNL     1      -0.323  -1.641  -0.485  0.00  0.00    -0.169 N 
ATOM     17  C   UNL     1      -1.177  -1.055   0.502  0.00  0.00    +0.319 C 
ATOM     18  H   UNL     1      -2.562  -0.797  -0.977  0.00  0.00    +0.151 HD
ATOM     19  H   UNL     1      -0.669  -1.699  -1.405  0.00  0.00    +0.178 HD
BRANCH  15  20
ATOM     20  C   UNL     1      -3.421  -0.026   0.780  0.00  0.00    +0.073 C 
ATOM     21  C   UNL     1      -3.228   1.493   0.835  0.00  0.00    +0.020 C 
ATOM     22  C   UNL     1      -4.817  -0.391   0.264  0.00  0.00    +0.020 C 
ATOM     23  C   UNL     1      -3.561   2.173  -0.493  0.00  0.00    +0.002 C 
ATOM     24  C   UNL     1      -5.146   0.292  -1.064  0.00  0.00    +0.002 C 
ATOM     25  C   UNL     1      -4.958   1.804  -0.981  0.00  0.00    +0.000 C 
ENDBRANCH  15  20
ENDBRANCH   1  16
TORSDOF 4
