REMARK  Name = 9926832
REMARK  4 active torsions:
REMARK  status: ('A' for Active; 'I' for Inactive)
REMARK    1  A    between atoms: C_5  and  O_12
REMARK    2  A    between atoms: C_5  and  C_16
REMARK    3  A    between atoms: C_11  and  O_14
REMARK    4  A    between atoms: C_17  and  C_18
REMARK                            x       y       z     vdW  Elec       q    Type
REMARK                         _______ _______ _______ _____ _____    ______ ____
ROOT
ATOM      1  O   UNL     1      -3.664   2.321  -0.784  0.00  0.00    -0.226 OA
ATOM      2  N   UNL     1      -3.273   0.340   0.343  0.00  0.00    -0.248 N 
ATOM      3  C   UNL     1      -1.389  -1.038   0.639  0.00  0.00    +0.056 C 
ATOM      4  C   UNL     1      -2.015  -0.010  -0.322  0.00  0.00    +0.082 C 
ATOM      5  C   UNL     1      -0.288  -1.921   0.027  0.00  0.00    +0.143 C 
ATOM      6  C   UNL     1      -2.627  -1.780   1.170  0.00  0.00    +0.027 C 
ATOM      7  C   UNL     1      -2.298  -0.564  -1.726  0.00  0.00    +0.020 C 
ATOM      8  C   UNL     1      -0.658  -2.437  -1.371  0.00  0.00    +0.040 C 
ATOM      9  C   UNL     1      -3.638  -0.652   1.349  0.00  0.00    +0.097 C 
ATOM     10  C   UNL     1      -1.112  -1.320  -2.307  0.00  0.00    +0.005 C 
ATOM     11  C   UNL     1      -3.986   1.496   0.068  0.00  0.00    +0.405 C 
ENDROOT
BRANCH   5  12
ATOM     12  O   UNL     1      -0.083  -3.045   0.887  0.00  0.00    -0.375 OA
ATOM     13  H   UNL     1      -0.901  -3.562   0.943  0.00  0.00    +0.211 HD
ENDBRANCH   5  12
BRANCH  11  14
ATOM     14  O   UNL     1      -5.096   1.613   0.861  0.00  0.00    -0.430 OA
ATOM     15  C   UNL     1      -5.896   2.782   0.650  0.00  0.00    +0.257 C 
ENDBRANCH  11  14
BRANCH   5  16
ATOM     16  C   UNL     1       0.978  -1.159  -0.033  0.00  0.00    -0.061 C 
ATOM     17  C   UNL     1       2.007  -0.541  -0.081  0.00  0.00    -0.062 C 
BRANCH  17  18
ATOM     18  C   UNL     1       3.232   0.195  -0.137  0.00  0.00    +0.041 C 
ATOM     19  C   UNL     1       4.224  -0.031   0.817  0.00  0.00    +0.004 C 
ATOM     20  C   UNL     1       3.433   1.137  -1.145  0.00  0.00    +0.008 C 
ATOM     21  C   UNL     1       5.419   0.686   0.761  0.00  0.00    -0.021 C 
ATOM     22  C   UNL     1       4.628   1.854  -1.200  0.00  0.00    +0.000 C 
ATOM     23  C   UNL     1       5.621   1.628  -0.247  0.00  0.00    -0.004 C 
ATOM     24  C   UNL     1       6.481   0.446   1.781  0.00  0.00    +0.031 C 
ENDBRANCH  17  18
ENDBRANCH   5  16
TORSDOF 4
