REMARK  Name = 432824
REMARK  3 active torsions:
REMARK  status: ('A' for Active; 'I' for Inactive)
REMARK    1  A    between atoms: N_2  and  C_18
REMARK    2  A    between atoms: C_4  and  C_8
REMARK    3  A    between atoms: C_11  and  C_17
REMARK                            x       y       z     vdW  Elec       q    Type
REMARK                         _______ _______ _______ _____ _____    ______ ____
ROOT
ATOM      1  O   UNL     1       1.140   1.172   1.528  0.00  0.00    -0.356 OA
ATOM      2  N   UNL     1       3.156  -0.056  -0.067  0.00  0.00    +0.392 N 
ATOM      3  C   UNL     1       1.737  -0.115  -0.451  0.00  0.00    -0.042 C 
ATOM      4  C   UNL     1       0.998   1.114   0.102  0.00  0.00    +0.117 C 
ATOM      5  C   UNL     1       3.277   0.029   1.394  0.00  0.00    -0.045 C 
ATOM      6  C   UNL     1       2.515   1.248   1.906  0.00  0.00    +0.120 C 
ATOM      7  H   UNL     1       3.572   0.779  -0.480  0.00  0.00    -0.079 HD
ENDROOT
BRANCH   4   8
ATOM      8  C   UNL     1      -0.476   1.073  -0.241  0.00  0.00    +0.002 C 
ATOM      9  C   UNL     1      -1.262   0.002   0.185  0.00  0.00    +0.002 C 
ATOM     10  C   UNL     1      -1.049   2.107  -0.981  0.00  0.00    -0.002 C 
ATOM     11  C   UNL     1      -2.620  -0.035  -0.131  0.00  0.00    +0.071 C 
ATOM     12  C   UNL     1      -2.407   2.070  -1.296  0.00  0.00    -0.000 C 
ATOM     13  C   UNL     1      -3.193   0.999  -0.871  0.00  0.00    +0.004 C 
BRANCH  11  17
ATOM     14  F   UNL     1      -4.769  -1.083  -0.055  0.00  0.00    -0.166 F 
ATOM     15  F   UNL     1      -3.041  -2.390  -0.151  0.00  0.00    -0.166 F 
ATOM     16  F   UNL     1      -3.482  -1.308   1.683  0.00  0.00    -0.166 F 
ATOM     17  C   UNL     1      -3.461  -1.180   0.325  0.00  0.00    +0.419 C 
ENDBRANCH  11  17
ENDBRANCH   4   8
BRANCH   2  18
ATOM     18  C   UNL     1       3.880  -1.218  -0.580  0.00  0.00    -0.058 C 
ATOM     19  C   UNL     1       5.357  -1.128  -0.206  0.00  0.00    -0.023 C 
ATOM     20  C   UNL     1       3.702  -1.300  -2.093  0.00  0.00    -0.023 C 
ENDBRANCH   2  18
TORSDOF 3
