REMARK  Name = 2450
REMARK  5 active torsions:
REMARK  status: ('A' for Active; 'I' for Inactive)
REMARK    1  A    between atoms: C_2  and  N_5
REMARK    2  A    between atoms: C_2  and  C_6
REMARK    3  A    between atoms: C_2  and  C_9
REMARK    4  A    between atoms: C_6  and  O_7
REMARK    5  A    between atoms: C_9  and  O_10
REMARK                            x       y       z     vdW  Elec       q    Type
REMARK                         _______ _______ _______ _____ _____    ______ ____
ROOT
ATOM      1 BR   UNL     1       0.405   1.385   1.697  0.00  0.00    -0.047 Br
ATOM      2  C   UNL     1       0.201   0.116   0.218  0.00  0.00    +0.243 C 
ENDROOT
BRANCH   2   5
ATOM      3  O   UNL     1      -2.131  -0.308   0.360  0.00  0.00    -0.130 OA
ATOM      4  O   UNL     1      -1.451   1.125  -1.152  0.00  0.00    -0.130 OA
ATOM      5  N   UNL     1      -1.245   0.334  -0.221  0.00  0.00    +0.045 N 
ENDBRANCH   2   5
BRANCH   2   6
ATOM      6  C   UNL     1       0.374  -1.316   0.736  0.00  0.00    +0.178 C 
BRANCH   6   7
ATOM      7  O   UNL     1       0.153  -2.256  -0.311  0.00  0.00    -0.379 OA
ATOM      8  H   UNL     1       0.267  -3.156   0.034  0.00  0.00    +0.211 HD
ENDBRANCH   6   7
ENDBRANCH   2   6
BRANCH   2   9
ATOM      9  C   UNL     1       1.176   0.499  -0.899  0.00  0.00    +0.178 C 
BRANCH   9  10
ATOM     10  O   UNL     1       2.517   0.420  -0.429  0.00  0.00    -0.379 OA
ATOM     11  H   UNL     1       3.125   0.665  -1.144  0.00  0.00    +0.211 HD
ENDBRANCH   9  10
ENDBRANCH   2   9
TORSDOF 5
