REMARK  Name = 5251503
REMARK  4 active torsions:
REMARK  status: ('A' for Active; 'I' for Inactive)
REMARK    1  A    between atoms: N_1  and  C_4
REMARK    2  A    between atoms: N_1  and  C_8
REMARK    3  A    between atoms: C_4  and  N_5
REMARK    4  A    between atoms: C_8  and  O_9
REMARK                            x       y       z     vdW  Elec       q    Type
REMARK                         _______ _______ _______ _____ _____    ______ ____
ROOT
ATOM      1  N   UNL     1      -0.520  -0.236  -0.006  0.00  0.00    -0.292 N 
ATOM      2  H   UNL     1      -0.433  -1.216  -0.008  0.00  0.00    +0.151 HD
ENDROOT
BRANCH   1   4
ATOM      3  S   UNL     1       0.774   2.169   0.003  0.00  0.00    -0.019 S 
ATOM      4  C   UNL     1       0.658   0.491   0.001  0.00  0.00    +0.133 C 
BRANCH   4   5
ATOM      5  N   UNL     1       1.825  -0.250   0.003  0.00  0.00    -0.315 N 
ATOM      6  C   UNL     1       1.935  -1.696  -0.001  0.00  0.00    +0.110 C 
ATOM      7  H   UNL     1       2.669   0.256   0.007  0.00  0.00    +0.148 HD
ENDBRANCH   4   5
ENDBRANCH   1   4
BRANCH   1   8
ATOM      8  C   UNL     1      -1.872   0.297  -0.009  0.00  0.00    +0.235 C 
BRANCH   8   9
ATOM      9  O   UNL     1      -2.799  -0.775   0.009  0.00  0.00    -0.364 OA
ATOM     10  H   UNL     1      -3.703  -0.421   0.007  0.00  0.00    +0.212 HD
ENDBRANCH   8   9
ENDBRANCH   1   8
TORSDOF 4
