REMARK  Name = 36910
REMARK  10 active torsions:
REMARK  status: ('A' for Active; 'I' for Inactive)
REMARK    1  A    between atoms: N_1  and  C_9
REMARK    2  A    between atoms: N_2  and  C_22
REMARK    3  A    between atoms: C_9  and  C_10
REMARK    4  A    between atoms: C_10  and  O_11
REMARK    5  A    between atoms: C_10  and  C_13
REMARK    6  A    between atoms: C_13  and  C_14
REMARK    7  A    between atoms: C_13  and  O_20
REMARK    8  A    between atoms: C_22  and  C_23
REMARK    9  A    between atoms: C_23  and  C_24
REMARK   10  A    between atoms: C_23  and  O_30
REMARK                            x       y       z     vdW  Elec       q    Type
REMARK                         _______ _______ _______ _____ _____    ______ ____
ROOT
ATOM      1  N   UNL     1      -0.985   1.348  -0.049  0.00  0.00    +0.386 N 
ATOM      2  N   UNL     1       1.876   0.951  -0.172  0.00  0.00    +0.386 N 
ATOM      3  C   UNL     1      -0.130   2.213  -0.872  0.00  0.00    -0.101 C 
ATOM      4  C   UNL     1      -0.236   0.837   1.105  0.00  0.00    -0.101 C 
ATOM      5  C   UNL     1       1.127   1.464  -1.326  0.00  0.00    -0.101 C 
ATOM      6  C   UNL     1       1.021   0.087   0.651  0.00  0.00    -0.101 C 
ATOM      7  H   UNL     1      -1.281   0.554  -0.617  0.00  0.00    -0.080 HD
ATOM      8  H   UNL     1       2.174   1.744   0.396  0.00  0.00    -0.080 HD
ENDROOT
BRANCH   1   9
ATOM      9  C   UNL     1      -2.183   2.064   0.385  0.00  0.00    -0.045 C 
BRANCH   9  10
ATOM     10  C   UNL     1      -3.333   1.113   0.746  0.00  0.00    +0.121 C 
BRANCH  10  11
ATOM     11  O   UNL     1      -4.468   1.893   1.140  0.00  0.00    -0.384 OA
ATOM     12  H   UNL     1      -4.212   2.501   1.852  0.00  0.00    +0.210 HD
ENDBRANCH  10  11
BRANCH  10  13
ATOM     13  C   UNL     1      -3.784   0.166  -0.382  0.00  0.00    +0.162 C 
BRANCH  13  14
ATOM     14  C   UNL     1      -4.970  -0.701  -0.030  0.00  0.00    +0.007 C 
ATOM     15  C   UNL     1      -4.770  -1.953   0.551  0.00  0.00    -0.002 C 
ATOM     16  C   UNL     1      -6.264  -0.248  -0.284  0.00  0.00    -0.002 C 
ATOM     17  C   UNL     1      -5.865  -2.753   0.877  0.00  0.00    -0.000 C 
ATOM     18  C   UNL     1      -7.359  -1.049   0.042  0.00  0.00    -0.000 C 
ATOM     19  C   UNL     1      -7.159  -2.301   0.623  0.00  0.00    -0.000 C 
ENDBRANCH  13  14
BRANCH  13  20
ATOM     20  O   UNL     1      -4.151   0.948  -1.524  0.00  0.00    -0.347 OA
ATOM     21  C   UNL     1      -4.039   0.193  -2.718  0.00  0.00    +0.175 C 
ENDBRANCH  13  20
ENDBRANCH  10  13
ENDBRANCH   9  10
ENDBRANCH   1   9
BRANCH   2  22
ATOM     22  C   UNL     1       3.073   0.234  -0.608  0.00  0.00    -0.043 C 
BRANCH  22  23
ATOM     23  C   UNL     1       4.105   0.157   0.525  0.00  0.00    +0.117 C 
BRANCH  23  24
ATOM     24  C   UNL     1       5.351  -0.583   0.090  0.00  0.00    +0.002 C 
ATOM     25  C   UNL     1       5.437  -1.965   0.263  0.00  0.00    -0.002 C 
ATOM     26  C   UNL     1       6.413   0.116  -0.484  0.00  0.00    -0.002 C 
ATOM     27  C   UNL     1       6.586  -2.647  -0.138  0.00  0.00    -0.000 C 
ATOM     28  C   UNL     1       7.561  -0.567  -0.886  0.00  0.00    -0.000 C 
ATOM     29  C   UNL     1       7.647  -1.949  -0.712  0.00  0.00    -0.000 C 
ENDBRANCH  23  24
BRANCH  23  30
ATOM     30  O   UNL     1       4.487   1.469   0.936  0.00  0.00    -0.351 OA
ATOM     31  C   UNL     1       5.013   1.464   2.254  0.00  0.00    +0.174 C 
ENDBRANCH  23  30
ENDBRANCH  22  23
ENDBRANCH   2  22
TORSDOF 10
