REMARK  Name = 70569
REMARK  5 active torsions:
REMARK  status: ('A' for Active; 'I' for Inactive)
REMARK    1  A    between atoms: N_3  and  C_14
REMARK    2  A    between atoms: C_14  and  C_15
REMARK    3  A    between atoms: C_15  and  C_16
REMARK    4  A    between atoms: C_16  and  C_17
REMARK    5  A    between atoms: C_17  and  C_18
REMARK                            x       y       z     vdW  Elec       q    Type
REMARK                         _______ _______ _______ _____ _____    ______ ____
ROOT
ATOM      1  O   UNL     1      -0.323   2.007  -0.819  0.00  0.00    -0.272 OA
ATOM      2  O   UNL     1       0.063  -2.655  -0.461  0.00  0.00    -0.252 OA
ATOM      3  N   UNL     1      -0.085  -0.326  -0.656  0.00  0.00    -0.212 N 
ATOM      4  N   UNL     1      -1.950  -1.670   0.164  0.00  0.00    -0.228 N 
ATOM      5  N   UNL     1      -3.101   1.638   0.229  0.00  0.00    -0.239 NA
ATOM      6  N   UNL     1      -3.948  -0.357   0.749  0.00  0.00    -0.240 NA
ATOM      7  C   UNL     1      -2.118   0.726  -0.030  0.00  0.00    +0.192 C 
ATOM      8  C   UNL     1      -0.794   0.911  -0.530  0.00  0.00    +0.254 C 
ATOM      9  C   UNL     1      -2.662  -0.486   0.297  0.00  0.00    +0.136 C 
ATOM     10  C   UNL     1      -0.619  -1.633  -0.322  0.00  0.00    +0.318 C 
ATOM     11  C   UNL     1      -4.183   0.938   0.696  0.00  0.00    +0.203 C 
ATOM     12  C   UNL     1      -2.573  -2.937   0.525  0.00  0.00    +0.123 C 
ATOM     13  C   UNL     1      -3.040   3.069   0.053  0.00  0.00    +0.092 C 
ENDROOT
BRANCH   3  14
ATOM     14  C   UNL     1       1.262  -0.268  -1.152  0.00  0.00    +0.103 C 
BRANCH  14  15
ATOM     15  C   UNL     1       2.291  -0.104  -0.037  0.00  0.00    +0.022 C 
BRANCH  15  16
ATOM     16  C   UNL     1       3.725  -0.018  -0.570  0.00  0.00    +0.002 C 
BRANCH  16  17
ATOM     17  C   UNL     1       4.724   0.207   0.569  0.00  0.00    +0.000 C 
BRANCH  17  18
ATOM     18  C   UNL     1       6.172   0.331   0.089  0.00  0.00    +0.000 C 
ATOM     19  C   UNL     1       7.160   0.625   1.208  0.00  0.00    +0.000 C 
ENDBRANCH  17  18
ENDBRANCH  16  17
ENDBRANCH  15  16
ENDBRANCH  14  15
ENDBRANCH   3  14
TORSDOF 5
