REMARK  Name = 2541
REMARK  8 active torsions:
REMARK  status: ('A' for Active; 'I' for Inactive)
REMARK    1  A    between atoms: C_1  and  C_19
REMARK    2  A    between atoms: C_4  and  C_7
REMARK    3  A    between atoms: C_8  and  C_17
REMARK    4  A    between atoms: C_19  and  N_20
REMARK    5  A    between atoms: C_24  and  O_33
REMARK    6  A    between atoms: C_25  and  C_30
REMARK    7  A    between atoms: C_30  and  O_31
REMARK    8  A    between atoms: O_33  and  C_34
REMARK                            x       y       z     vdW  Elec       q    Type
REMARK                         _______ _______ _______ _____ _____    ______ ____
ROOT
ATOM      1  C   UNL     1       0.445  -0.929   1.298  0.00  0.00    -0.002 C 
ATOM      2  C   UNL     1      -0.001  -1.550   0.139  0.00  0.00    -0.003 C 
ATOM      3  C   UNL     1      -0.442  -0.277   2.145  0.00  0.00    -0.003 C 
ATOM      4  C   UNL     1      -2.257  -0.864   0.664  0.00  0.00    +0.001 C 
ATOM      5  C   UNL     1      -1.359  -1.517  -0.180  0.00  0.00    -0.000 C 
ATOM      6  C   UNL     1      -1.799  -0.244   1.826  0.00  0.00    -0.000 C 
ENDROOT
BRANCH   4   7
ATOM      7  C   UNL     1      -3.666  -0.831   0.333  0.00  0.00    +0.009 C 
ATOM      8  C   UNL     1      -4.217   0.195  -0.439  0.00  0.00    +0.065 C 
ATOM      9  C   UNL     1      -4.486  -1.858   0.805  0.00  0.00    +0.001 C 
ATOM     10  C   UNL     1      -5.580   0.192  -0.737  0.00  0.00    +0.010 C 
ATOM     11  C   UNL     1      -5.848  -1.861   0.507  0.00  0.00    +0.000 C 
ATOM     12  C   UNL     1      -6.395  -0.835  -0.264  0.00  0.00    +0.001 C 
BRANCH   8  17
ATOM     13  N   UNL     1      -3.202   2.408  -0.280  0.00  0.00    -0.110 NA
ATOM     14  N   UNL     1      -2.793   1.208  -2.156  0.00  0.00    -0.087 NA
ATOM     15  N   UNL     1      -2.417   3.034  -1.168  0.00  0.00    -0.140 N 
ATOM     16  N   UNL     1      -2.147   2.360  -2.295  0.00  0.00    -0.022 NA
ATOM     17  C   UNL     1      -3.409   1.274  -0.946  0.00  0.00    +0.073 C 
ATOM     18  H   UNL     1      -2.059   3.936  -1.002  0.00  0.00    +0.197 HD
ENDBRANCH   8  17
ENDBRANCH   4   7
BRANCH   1  19
ATOM     19  C   UNL     1       1.909  -0.965   1.643  0.00  0.00    +0.128 C 
BRANCH  19  20
ATOM     20  N   UNL     1       2.729  -0.670   0.489  0.00  0.00    -0.226 N 
ATOM     21  N   UNL     1       3.929  -1.039  -1.345  0.00  0.00    -0.357 NA
ATOM     22  C   UNL     1       3.164   0.566   0.081  0.00  0.00    +0.089 C 
ATOM     23  C   UNL     1       3.910   0.308  -1.065  0.00  0.00    +0.132 C 
ATOM     24  C   UNL     1       3.212  -1.595  -0.395  0.00  0.00    +0.347 C 
ATOM     25  C   UNL     1       2.974   1.846   0.601  0.00  0.00    +0.091 C 
ATOM     26  C   UNL     1       4.510   1.381  -1.747  0.00  0.00    +0.086 C 
ATOM     27  C   UNL     1       3.578   2.902  -0.090  0.00  0.00    +0.004 C 
ATOM     28  C   UNL     1       4.333   2.675  -1.243  0.00  0.00    -0.018 C 
BRANCH  25  30
ATOM     29  O   UNL     1       2.638   2.129   2.953  0.00  0.00    -0.245 OA
ATOM     30  C   UNL     1       2.196   2.106   1.798  0.00  0.00    +0.339 C 
BRANCH  30  31
ATOM     31  O   UNL     1       0.880   2.334   1.528  0.00  0.00    -0.477 OA
ATOM     32  H   UNL     1       0.572   2.311   0.643  0.00  0.00    +0.295 HD
ENDBRANCH  30  31
ENDBRANCH  25  30
BRANCH  24  33
ATOM     33  O   UNL     1       2.973  -2.892  -0.288  0.00  0.00    -0.441 OA
BRANCH  33  34
ATOM     34  C   UNL     1       3.520  -3.788  -1.262  0.00  0.00    +0.210 C 
ATOM     35  C   UNL     1       3.118  -5.204  -0.910  0.00  0.00    +0.051 C 
ENDBRANCH  33  34
ENDBRANCH  24  33
ENDBRANCH  19  20
ENDBRANCH   1  19
TORSDOF 8
