36846
  -OEChem-10061700233D

 45 48  0     0  0  0  0  0  0999 V2000
   -1.6123    1.5248   -0.4351 O   0  0  0  0  0  0  0  0  0  0  0  0
   -0.6100   -2.2058    1.3357 O   0  0  0  0  0  0  0  0  0  0  0  0
    4.7802    2.1286    0.4947 N   0  0  0  0  0  0  0  0  0  0  0  0
   -2.0279   -0.5878    0.1913 C   0  0  0  0  0  0  0  0  0  0  0  0
   -1.0178    0.3121   -0.1560 C   0  0  0  0  0  0  0  0  0  0  0  0
    0.3968    0.0678   -0.2276 C   0  0  0  0  0  0  0  0  0  0  0  0
   -3.2711    0.1056    0.1045 C   0  0  0  0  0  0  0  0  0  0  0  0
   -1.8178   -2.0112    0.5802 C   0  0  0  0  0  0  0  0  0  0  0  0
    1.0017   -1.2962   -0.2540 C   0  0  0  0  0  0  0  0  0  0  0  0
   -2.9539    1.3973   -0.2820 C   0  0  0  0  0  0  0  0  0  0  0  0
    1.2079    1.1432   -0.2205 C   0  0  0  0  0  0  0  0  0  0  0  0
    2.7008    1.0571   -0.2377 C   0  0  0  0  0  0  0  0  0  0  0  0
    0.4776   -2.3576    0.5087 C   0  0  0  0  0  0  0  0  0  0  0  0
    3.3257    2.2382    0.5037 C   0  0  0  0  0  0  0  0  0  0  0  0
   -4.6253   -0.2166    0.3123 C   0  0  0  0  0  0  0  0  0  0  0  0
    2.1118   -1.5733   -1.0733 C   0  0  0  0  0  0  0  0  0  0  0  0
   -3.8907    2.4101   -0.4813 C   0  0  0  0  0  0  0  0  0  0  0  0
    1.0822   -3.6199    0.5109 C   0  0  0  0  0  0  0  0  0  0  0  0
   -5.5932    0.7788    0.1204 C   0  0  0  0  0  0  0  0  0  0  0  0
   -5.2295    2.0693   -0.2697 C   0  0  0  0  0  0  0  0  0  0  0  0
    2.7015   -2.8409   -1.0905 C   0  0  0  0  0  0  0  0  0  0  0  0
    2.1925   -3.8605   -0.2923 C   0  0  0  0  0  0  0  0  0  0  0  0
    5.3847    3.2366    1.2360 C   0  0  0  0  0  0  0  0  0  0  0  0
    5.2860    2.1002   -0.8785 C   0  0  0  0  0  0  0  0  0  0  0  0
   -2.6367   -2.3388    1.2307 H   0  0  0  0  0  0  0  0  0  0  0  0
   -1.8415   -2.6624   -0.3043 H   0  0  0  0  0  0  0  0  0  0  0  0
    0.7891    2.1480   -0.2128 H   0  0  0  0  0  0  0  0  0  0  0  0
    3.0000    1.0937   -1.2892 H   0  0  0  0  0  0  0  0  0  0  0  0
    3.0918    0.1627    0.2542 H   0  0  0  0  0  0  0  0  0  0  0  0
    2.9988    3.1860    0.0538 H   0  0  0  0  0  0  0  0  0  0  0  0
    2.9654    2.2348    1.5411 H   0  0  0  0  0  0  0  0  0  0  0  0
   -4.9249   -1.2152    0.6157 H   0  0  0  0  0  0  0  0  0  0  0  0
    2.4937   -0.8584   -1.7950 H   0  0  0  0  0  0  0  0  0  0  0  0
   -3.5991    3.4087   -0.7842 H   0  0  0  0  0  0  0  0  0  0  0  0
    0.6815   -4.4207    1.1266 H   0  0  0  0  0  0  0  0  0  0  0  0
   -6.6421    0.5412    0.2780 H   0  0  0  0  0  0  0  0  0  0  0  0
   -6.0005    2.8225   -0.4115 H   0  0  0  0  0  0  0  0  0  0  0  0
    3.5479   -3.0349   -1.7433 H   0  0  0  0  0  0  0  0  0  0  0  0
    2.6532   -4.8437   -0.3049 H   0  0  0  0  0  0  0  0  0  0  0  0
    5.0296    3.2455    2.2727 H   0  0  0  0  0  0  0  0  0  0  0  0
    5.1574    4.2092    0.7846 H   0  0  0  0  0  0  0  0  0  0  0  0
    6.4736    3.1222    1.2807 H   0  0  0  0  0  0  0  0  0  0  0  0
    5.0811    1.1442   -1.3702 H   0  0  0  0  0  0  0  0  0  0  0  0
    6.3797    2.1861   -0.8830 H   0  0  0  0  0  0  0  0  0  0  0  0
    4.8888    2.9183   -1.4904 H   0  0  0  0  0  0  0  0  0  0  0  0
  1  5  1  0  0  0  0
  1 10  1  0  0  0  0
  2  8  1  0  0  0  0
  2 13  1  0  0  0  0
  3 14  1  0  0  0  0
  3 23  1  0  0  0  0
  3 24  1  0  0  0  0
  4  5  2  0  0  0  0
  4  7  1  0  0  0  0
  4  8  1  0  0  0  0
  5  6  1  0  0  0  0
  6  9  1  0  0  0  0
  6 11  2  0  0  0  0
  7 10  1  0  0  0  0
  7 15  2  0  0  0  0
  8 25  1  0  0  0  0
  8 26  1  0  0  0  0
  9 13  1  0  0  0  0
  9 16  2  0  0  0  0
 10 17  2  0  0  0  0
 11 12  1  0  0  0  0
 11 27  1  0  0  0  0
 12 14  1  0  0  0  0
 12 28  1  0  0  0  0
 12 29  1  0  0  0  0
 13 18  2  0  0  0  0
 14 30  1  0  0  0  0
 14 31  1  0  0  0  0
 15 19  1  0  0  0  0
 15 32  1  0  0  0  0
 16 21  1  0  0  0  0
 16 33  1  0  0  0  0
 17 20  1  0  0  0  0
 17 34  1  0  0  0  0
 18 22  1  0  0  0  0
 18 35  1  0  0  0  0
 19 20  2  0  0  0  0
 19 36  1  0  0  0  0
 20 37  1  0  0  0  0
 21 22  2  0  0  0  0
 21 38  1  0  0  0  0
 22 39  1  0  0  0  0
 23 40  1  0  0  0  0
 23 41  1  0  0  0  0
 23 42  1  0  0  0  0
 24 43  1  0  0  0  0
 24 44  1  0  0  0  0
 24 45  1  0  0  0  0
M  END
> <DATABASE_ID>
DB13463

> <DATABASE_NAME>
drugbank

> <ORIGINAL_SOURCE>
PUBCHEM

> <ORIGINAL_SOURCE_URL>
https://pubchem.ncbi.nlm.nih.gov/rest/pug/compound/inchikey/VZVRZTZPHOHSCK-UHFFFAOYSA-N/SDF?record_type=3d

> <SMILES>
CN(C)CCC=C1C2=C(COC3=CC=CC=C13)C1=CC=CC=C1O2

> <INCHI_IDENTIFIER>
InChI=1S/C21H21NO2/c1-22(2)13-7-10-17-15-8-3-5-11-19(15)23-14-18-16-9-4-6-12-20(16)24-21(17)18/h3-6,8-12H,7,13-14H2,1-2H3

> <INCHI_KEY>
VZVRZTZPHOHSCK-UHFFFAOYSA-N

> <FORMULA>
C21H21NO2

> <MOLECULAR_WEIGHT>
319.404

> <EXACT_MASS>
319.15722892

> <JCHEM_ACCEPTOR_COUNT>
2

> <JCHEM_ATOM_COUNT>
45

> <JCHEM_AVERAGE_POLARIZABILITY>
36.96339281024891

> <JCHEM_BIOAVAILABILITY>
1

> <JCHEM_DONOR_COUNT>
0

> <JCHEM_FORMAL_CHARGE>
0

> <JCHEM_GHOSE_FILTER>
1

> <JCHEM_IUPAC>
(3-{9,18-dioxatetracyclo[9.7.0.0^{3,8}.0^{12,17}]octadeca-1(11),3,5,7,12,14,16-heptaen-2-ylidene}propyl)dimethylamine

> <ALOGPS_LOGP>
4.55

> <JCHEM_LOGP>
3.9190985990000007

> <ALOGPS_LOGS>
-4.28

> <JCHEM_MDDR_LIKE_RULE>
0

> <JCHEM_NUMBER_OF_RINGS>
4

> <JCHEM_PHYSIOLOGICAL_CHARGE>
1

> <JCHEM_PKA_STRONGEST_BASIC>
9.760688624374618

> <JCHEM_POLAR_SURFACE_AREA>
25.61

> <JCHEM_REFRACTIVITY>
106.96340000000001

> <JCHEM_ROTATABLE_BOND_COUNT>
3

> <JCHEM_RULE_OF_FIVE>
1

> <ALOGPS_SOLUBILITY>
1.66e-02 g/l

> <JCHEM_TRADITIONAL_IUPAC>
(3-{9,18-dioxatetracyclo[9.7.0.0^{3,8}.0^{12,17}]octadeca-1(11),3,5,7,12,14,16-heptaen-2-ylidene}propyl)dimethylamine

> <JCHEM_VEBER_RULE>
1

> <DRUGBANK_ID>
DB13463

> <DRUG_GROUPS>
experimental

> <GENERIC_NAME>
Oxetorone

$$$$
