REMARK  Name = 4538
REMARK  5 active torsions:
REMARK  status: ('A' for Active; 'I' for Inactive)
REMARK    1  A    between atoms: C_1  and  C_2
REMARK    2  A    between atoms: C_1  and  O_10
REMARK    3  A    between atoms: C_1  and  C_12
REMARK    4  A    between atoms: C_5  and  O_8
REMARK    5  A    between atoms: C_12  and  N_13
REMARK                            x       y       z     vdW  Elec       q    Type
REMARK                         _______ _______ _______ _____ _____    ______ ____
ROOT
ATOM      1  C   UNL     1       1.663  -0.419  -0.246  0.00  0.00    +0.111 C 
ENDROOT
BRANCH   1   2
ATOM      2  C   UNL     1       0.180  -0.417  -0.092  0.00  0.00    +0.005 C 
ATOM      3  C   UNL     1      -0.523   0.787  -0.122  0.00  0.00    +0.035 C 
ATOM      4  C   UNL     1      -0.504  -1.620   0.083  0.00  0.00    -0.002 C 
ATOM      5  C   UNL     1      -1.910   0.789   0.023  0.00  0.00    +0.133 C 
ATOM      6  C   UNL     1      -1.892  -1.618   0.227  0.00  0.00    +0.003 C 
ATOM      7  C   UNL     1      -2.595  -0.414   0.197  0.00  0.00    +0.037 C 
BRANCH   5   8
ATOM      8  O   UNL     1      -2.596   1.964  -0.006  0.00  0.00    -0.506 OA
ATOM      9  H   UNL     1      -2.136   2.772  -0.123  0.00  0.00    +0.292 HD
ENDBRANCH   5   8
ENDBRANCH   1   2
BRANCH   1  10
ATOM     10  O   UNL     1       1.999   0.076  -1.549  0.00  0.00    -0.382 OA
ATOM     11  H   UNL     1       1.559  -0.465  -2.224  0.00  0.00    +0.211 HD
ENDBRANCH   1  10
BRANCH   1  12
ATOM     12  C   UNL     1       2.362   0.441   0.826  0.00  0.00    -0.052 C 
BRANCH  12  13
ATOM     13  N   UNL     1       3.814   0.431   0.660  0.00  0.00    +0.382 N 
ATOM     14  H   UNL     1       4.243   1.008   1.383  0.00  0.00    -0.089 HD
ATOM     15  H   UNL     1       4.053   0.804  -0.259  0.00  0.00    -0.089 HD
ATOM     16  H   UNL     1       4.159  -0.525   0.739  0.00  0.00    -0.089 HD
ENDBRANCH  12  13
ENDBRANCH   1  12
TORSDOF 5
