REMARK  Name = 24767976
REMARK  5 active torsions:
REMARK  status: ('A' for Active; 'I' for Inactive)
REMARK    1  A    between atoms: C_1  and  N_9
REMARK    2  A    between atoms: C_2  and  O_19
REMARK    3  A    between atoms: C_10  and  C_14
REMARK    4  A    between atoms: O_19  and  C_27
REMARK    5  A    between atoms: C_31  and  C_33
REMARK                            x       y       z     vdW  Elec       q    Type
REMARK                         _______ _______ _______ _____ _____    ______ ____
ROOT
ATOM      1  C   UNL     1      -2.423   1.448  -0.968  0.00  0.00    +0.050 C 
ATOM      2  C   UNL     1      -0.698   2.944  -0.181  0.00  0.00    +0.148 C 
ATOM      3  C   UNL     1      -2.276   1.956  -2.258  0.00  0.00    -0.008 C 
ATOM      4  C   UNL     1      -1.634   1.942   0.071  0.00  0.00    +0.052 C 
ATOM      5  C   UNL     1      -1.339   2.959  -2.510  0.00  0.00    +0.000 C 
ATOM      6  C   UNL     1      -0.550   3.453  -1.471  0.00  0.00    +0.037 C 
ATOM      7  C   UNL     1      -3.108   1.446  -3.390  0.00  0.00    +0.032 C 
ENDROOT
BRANCH   1   9
ATOM      8  O   UNL     1      -3.084   0.063   1.608  0.00  0.00    -0.268 OA
ATOM      9  N   UNL     1      -3.355   0.443  -0.696  0.00  0.00    -0.279 N 
ATOM     10  C   UNL     1      -3.624  -0.172   0.532  0.00  0.00    +0.265 C 
ATOM     11  H   UNL     1      -3.887   0.128  -1.463  0.00  0.00    +0.155 HD
BRANCH  10  14
ATOM     12  N   UNL     1      -4.707  -2.324   1.320  0.00  0.00    -0.206 N 
ATOM     13  N   UNL     1      -5.748  -3.140   1.083  0.00  0.00    -0.182 NA
ATOM     14  C   UNL     1      -4.661  -1.237   0.497  0.00  0.00    +0.124 C 
ATOM     15  C   UNL     1      -5.747  -1.350  -0.336  0.00  0.00    +0.037 C 
ATOM     16  C   UNL     1      -6.380  -2.540   0.071  0.00  0.00    +0.078 C 
ATOM     17  C   UNL     1      -3.775  -2.655   2.373  0.00  0.00    +0.140 C 
ATOM     18  C   UNL     1      -7.602  -3.142  -0.488  0.00  0.00    +0.054 C 
ENDBRANCH  10  14
ENDBRANCH   1   9
BRANCH   2  19
ATOM     19  O   UNL     1       0.090   3.438   0.856  0.00  0.00    -0.435 OA
BRANCH  19  27
ATOM     20  N   UNL     1       4.642   0.707   1.381  0.00  0.00    -0.373 NA
ATOM     21  N   UNL     1       2.676   1.137   0.419  0.00  0.00    -0.173 N 
ATOM     22  N   UNL     1       1.478   1.730   0.157  0.00  0.00    -0.138 NA
ATOM     23  C   UNL     1       4.415  -0.176   0.356  0.00  0.00    +0.187 C 
ATOM     24  C   UNL     1       3.208   0.068  -0.253  0.00  0.00    +0.193 C 
ATOM     25  C   UNL     1       3.583   1.491   1.404  0.00  0.00    +0.204 C 
ATOM     26  C   UNL     1       3.241   2.584   2.235  0.00  0.00    +0.054 C 
ATOM     27  C   UNL     1       1.227   2.720   0.951  0.00  0.00    +0.245 C 
ATOM     28  C   UNL     1       2.081   3.225   2.047  0.00  0.00    +0.063 C 
ATOM     29  O   UNL     1       4.279  -2.275  -1.797  0.00  0.00    -0.275 OA
ATOM     30  N   UNL     1       5.307  -1.165   0.015  0.00  0.00    -0.261 N 
ATOM     31  C   UNL     1       5.202  -2.132  -1.006  0.00  0.00    +0.227 C 
ATOM     32  H   UNL     1       6.128  -1.203   0.555  0.00  0.00    +0.157 HD
BRANCH  31  33
ATOM     33  C   UNL     1       6.370  -3.064  -1.101  0.00  0.00    +0.077 C 
ATOM     34  C   UNL     1       6.129  -4.544  -1.036  0.00  0.00    +0.010 C 
ATOM     35  C   UNL     1       6.785  -3.839   0.115  0.00  0.00    +0.010 C 
ENDBRANCH  31  33
ENDBRANCH  19  27
ENDBRANCH   2  19
TORSDOF 5
