REMARK  Name = 1550874
REMARK  5 active torsions:
REMARK  status: ('A' for Active; 'I' for Inactive)
REMARK    1  A    between atoms: N_2  and  C_13
REMARK    2  A    between atoms: C_3  and  C_6
REMARK    3  A    between atoms: C_5  and  C_7
REMARK    4  A    between atoms: C_13  and  C_14
REMARK    5  A    between atoms: C_14  and  O_15
REMARK                            x       y       z     vdW  Elec       q    Type
REMARK                         _______ _______ _______ _____ _____    ______ ____
ROOT
ATOM      1  O   UNL     1      -1.969   1.790  -0.232  0.00  0.00    -0.270 OA
ATOM      2  N   UNL     1      -2.754  -0.365  -0.605  0.00  0.00    -0.298 N 
ATOM      3  C   UNL     1      -1.776   0.587  -0.375  0.00  0.00    +0.246 C 
ATOM      4  H   UNL     1      -2.480  -1.306  -0.704  0.00  0.00    +0.150 HD
ENDROOT
BRANCH   3   6
ATOM      5  C   UNL     1       0.653   0.757  -0.086  0.00  0.00    +0.005 C 
ATOM      6  C   UNL     1      -0.416  -0.020  -0.315  0.00  0.00    +0.058 C 
BRANCH   5   7
ATOM      7  C   UNL     1       2.040   0.265   0.003  0.00  0.00    +0.000 C 
ATOM      8  C   UNL     1       2.361  -0.963  -0.551  0.00  0.00    +0.000 C 
ATOM      9  C   UNL     1       2.995   1.041   0.639  0.00  0.00    +0.000 C 
ATOM     10  C   UNL     1       3.673  -1.429  -0.467  0.00  0.00    +0.000 C 
ATOM     11  C   UNL     1       4.308   0.576   0.724  0.00  0.00    +0.000 C 
ATOM     12  C   UNL     1       4.646  -0.659   0.171  0.00  0.00    +0.000 C 
ENDBRANCH   5   7
ENDBRANCH   3   6
BRANCH   2  13
ATOM     13  C   UNL     1      -4.160  -0.044  -0.708  0.00  0.00    +0.122 C 
BRANCH  13  14
ATOM     14  C   UNL     1      -4.847  -0.108   0.644  0.00  0.00    +0.158 C 
BRANCH  14  15
ATOM     15  O   UNL     1      -4.754  -1.430   1.159  0.00  0.00    -0.380 OA
ATOM     16  H   UNL     1      -5.193  -1.472   2.023  0.00  0.00    +0.211 HD
ENDBRANCH  14  15
ENDBRANCH  13  14
ENDBRANCH   2  13
TORSDOF 5
