3033860
  -OEChem-10061700273D

 54 58  0     0  0  0  0  0  0999 V2000
    0.8804   -2.1558   -1.8869 Cl  0  0  0  0  0  0  0  0  0  0  0  0
   -1.1951    2.3552   -1.5599 O   0  0  0  0  0  0  0  0  0  0  0  0
    5.6148    3.5054   -0.5079 O   0  5  0  0  0  0  0  0  0  0  0  0
    6.1293    1.5353    0.3238 O   0  0  0  0  0  0  0  0  0  0  0  0
   -4.8169    0.6222   -0.0764 N   0  0  0  0  0  0  0  0  0  0  0  0
   -7.3155   -0.7197    0.1664 N   0  0  0  0  0  0  0  0  0  0  0  0
   -0.2115    1.0913    0.1886 N   0  0  0  0  0  0  0  0  0  0  0  0
   -2.0841    0.1650    1.0322 N   0  0  0  0  0  0  0  0  0  0  0  0
    0.8504   -1.3497    1.5902 N   0  0  0  0  0  0  0  0  0  0  0  0
    5.2870    2.3755   -0.0733 N   0  3  0  0  0  0  0  0  0  0  0  0
   -4.8756   -0.6924    0.5566 C   0  0  0  0  0  0  0  0  0  0  0  0
   -6.0537    1.3966   -0.0232 C   0  0  0  0  0  0  0  0  0  0  0  0
   -6.0680   -1.4833    0.0161 C   0  0  0  0  0  0  0  0  0  0  0  0
   -7.2207    0.5600   -0.5509 C   0  0  0  0  0  0  0  0  0  0  0  0
   -3.6545    1.1556   -0.5165 C   0  0  0  0  0  0  0  0  0  0  0  0
   -2.4270    0.9594   -0.0327 C   0  0  0  0  0  0  0  0  0  0  0  0
   -8.4551   -1.4972   -0.3183 C   0  0  0  0  0  0  0  0  0  0  0  0
   -0.7938    0.2912    1.1182 C   0  0  0  0  0  0  0  0  0  0  0  0
    1.1722    1.3658    0.0796 C   0  0  0  0  0  0  0  0  0  0  0  0
   -1.2149    1.6045   -0.6026 C   0  0  0  0  0  0  0  0  0  0  0  0
    2.1540    0.4304    0.4673 C   0  0  0  0  0  0  0  0  0  0  0  0
    0.0160   -0.3369    2.2045 C   0  0  0  0  0  0  0  0  0  0  0  0
    1.8165   -0.9869    0.8154 C   0  0  0  0  0  0  0  0  0  0  0  0
    1.5967    2.6133   -0.4092 C   0  0  0  0  0  0  0  0  0  0  0  0
    3.5146    0.7809    0.4314 C   0  0  0  0  0  0  0  0  0  0  0  0
    2.6291   -2.0805    0.2064 C   0  0  0  0  0  0  0  0  0  0  0  0
    3.9094    2.0346   -0.0284 C   0  0  0  0  0  0  0  0  0  0  0  0
    2.9525    2.9444   -0.4606 C   0  0  0  0  0  0  0  0  0  0  0  0
    2.2787   -2.6608   -1.0077 C   0  0  0  0  0  0  0  0  0  0  0  0
    3.7607   -2.5069    0.8941 C   0  0  0  0  0  0  0  0  0  0  0  0
    3.0689   -3.6794   -1.5408 C   0  0  0  0  0  0  0  0  0  0  0  0
    4.5506   -3.5254    0.3610 C   0  0  0  0  0  0  0  0  0  0  0  0
    4.2047   -4.1117   -0.8563 C   0  0  0  0  0  0  0  0  0  0  0  0
   -4.9545   -0.5739    1.6444 H   0  0  0  0  0  0  0  0  0  0  0  0
   -3.9828   -1.2933    0.3496 H   0  0  0  0  0  0  0  0  0  0  0  0
   -5.9767    2.3148   -0.6186 H   0  0  0  0  0  0  0  0  0  0  0  0
   -6.2432    1.7021    1.0136 H   0  0  0  0  0  0  0  0  0  0  0  0
   -5.8950   -1.7355   -1.0390 H   0  0  0  0  0  0  0  0  0  0  0  0
   -6.1374   -2.4263    0.5716 H   0  0  0  0  0  0  0  0  0  0  0  0
   -8.1453    1.1341   -0.4156 H   0  0  0  0  0  0  0  0  0  0  0  0
   -7.0936    0.3905   -1.6286 H   0  0  0  0  0  0  0  0  0  0  0  0
   -3.8072    1.8775   -1.3135 H   0  0  0  0  0  0  0  0  0  0  0  0
   -9.3891   -0.9444   -0.1679 H   0  0  0  0  0  0  0  0  0  0  0  0
   -8.5498   -2.4321    0.2450 H   0  0  0  0  0  0  0  0  0  0  0  0
   -8.3674   -1.7431   -1.3828 H   0  0  0  0  0  0  0  0  0  0  0  0
    0.6033    0.4152    2.7426 H   0  0  0  0  0  0  0  0  0  0  0  0
   -0.6540   -0.8114    2.9286 H   0  0  0  0  0  0  0  0  0  0  0  0
    0.8829    3.3741   -0.7131 H   0  0  0  0  0  0  0  0  0  0  0  0
    4.2655    0.0707    0.7601 H   0  0  0  0  0  0  0  0  0  0  0  0
    3.2198    3.9310   -0.8309 H   0  0  0  0  0  0  0  0  0  0  0  0
    4.0357   -2.0692    1.8502 H   0  0  0  0  0  0  0  0  0  0  0  0
    2.8131   -4.1469   -2.4883 H   0  0  0  0  0  0  0  0  0  0  0  0
    5.4334   -3.8641    0.8954 H   0  0  0  0  0  0  0  0  0  0  0  0
    4.8195   -4.9054   -1.2708 H   0  0  0  0  0  0  0  0  0  0  0  0
  1 29  1  0  0  0  0
  2 20  2  0  0  0  0
  3 10  1  0  0  0  0
  4 10  2  0  0  0  0
  5 11  1  0  0  0  0
  5 12  1  0  0  0  0
  5 15  1  0  0  0  0
  6 13  1  0  0  0  0
  6 14  1  0  0  0  0
  6 17  1  0  0  0  0
  7 18  1  0  0  0  0
  7 19  1  0  0  0  0
  7 20  1  0  0  0  0
  8 16  1  0  0  0  0
  8 18  2  0  0  0  0
  9 22  1  0  0  0  0
  9 23  2  0  0  0  0
 10 27  1  0  0  0  0
 11 13  1  0  0  0  0
 11 34  1  0  0  0  0
 11 35  1  0  0  0  0
 12 14  1  0  0  0  0
 12 36  1  0  0  0  0
 12 37  1  0  0  0  0
 13 38  1  0  0  0  0
 13 39  1  0  0  0  0
 14 40  1  0  0  0  0
 14 41  1  0  0  0  0
 15 16  2  0  0  0  0
 15 42  1  0  0  0  0
 16 20  1  0  0  0  0
 17 43  1  0  0  0  0
 17 44  1  0  0  0  0
 17 45  1  0  0  0  0
 18 22  1  0  0  0  0
 19 21  2  0  0  0  0
 19 24  1  0  0  0  0
 21 23  1  0  0  0  0
 21 25  1  0  0  0  0
 22 46  1  0  0  0  0
 22 47  1  0  0  0  0
 23 26  1  0  0  0  0
 24 28  2  0  0  0  0
 24 48  1  0  0  0  0
 25 27  2  0  0  0  0
 25 49  1  0  0  0  0
 26 29  1  0  0  0  0
 26 30  2  0  0  0  0
 27 28  1  0  0  0  0
 28 50  1  0  0  0  0
 29 31  2  0  0  0  0
 30 32  1  0  0  0  0
 30 51  1  0  0  0  0
 31 33  1  0  0  0  0
 31 52  1  0  0  0  0
 32 33  2  0  0  0  0
 32 53  1  0  0  0  0
 33 54  1  0  0  0  0
M  CHG  2   3  -1  10   1
M  END
> <DATABASE_ID>
DB13643

> <DATABASE_NAME>
drugbank

> <ORIGINAL_SOURCE>
PUBCHEM

> <ORIGINAL_SOURCE_URL>
https://pubchem.ncbi.nlm.nih.gov/rest/pug/compound/inchikey/UTEFBSAVJNEPTR-RGEXLXHISA-N/SDF?record_type=3d

> <SMILES>
[H]\C(N1CCN(C)CC1)=C1\N=C2CN=C(C3=CC=CC=C3Cl)C3=C(C=CC(=C3)N(=O)=O)N2C1=O

> <INCHI_IDENTIFIER>
InChI=1S/C23H21ClN6O3/c1-27-8-10-28(11-9-27)14-19-23(31)29-20-7-6-15(30(32)33)12-17(20)22(25-13-21(29)26-19)16-4-2-3-5-18(16)24/h2-7,12,14H,8-11,13H2,1H3/b19-14-

> <INCHI_KEY>
UTEFBSAVJNEPTR-RGEXLXHISA-N

> <FORMULA>
C23H21ClN6O3

> <MOLECULAR_WEIGHT>
464.904

> <EXACT_MASS>
464.136366275

> <JCHEM_ACCEPTOR_COUNT>
7

> <JCHEM_ATOM_COUNT>
54

> <JCHEM_AVERAGE_POLARIZABILITY>
48.068009644575405

> <JCHEM_BIOAVAILABILITY>
1

> <JCHEM_DONOR_COUNT>
0

> <JCHEM_FORMAL_CHARGE>
0

> <JCHEM_GHOSE_FILTER>
1

> <JCHEM_IUPAC>
(4Z)-9-(2-chlorophenyl)-4-[(4-methylpiperazin-1-yl)methylidene]-12-nitro-2,5,8-triazatricyclo[8.4.0.0²,⁶]tetradeca-1(10),5,8,11,13-pentaen-3-one

> <ALOGPS_LOGP>
2.80

> <JCHEM_LOGP>
2.6784083836666666

> <ALOGPS_LOGS>
-3.71

> <JCHEM_MDDR_LIKE_RULE>
0

> <JCHEM_NUMBER_OF_RINGS>
5

> <JCHEM_PHYSIOLOGICAL_CHARGE>
1

> <JCHEM_PKA_STRONGEST_ACIDIC>
19.13464169919963

> <JCHEM_PKA_STRONGEST_BASIC>
8.06004295325157

> <JCHEM_POLAR_SURFACE_AREA>
97.33000000000001

> <JCHEM_REFRACTIVITY>
126.86799999999994

> <JCHEM_ROTATABLE_BOND_COUNT>
3

> <JCHEM_RULE_OF_FIVE>
1

> <ALOGPS_SOLUBILITY>
9.17e-02 g/l

> <JCHEM_TRADITIONAL_IUPAC>
loprazolam

> <JCHEM_VEBER_RULE>
0

> <DRUGBANK_ID>
DB13643

> <DRUG_GROUPS>
experimental

> <GENERIC_NAME>
Loprazolam

> <SYNONYMS>
Triazulenone

$$$$
