REMARK  Name = 5648
REMARK  10 active torsions:
REMARK  status: ('A' for Active; 'I' for Inactive)
REMARK    1  A    between atoms: C_1  and  C_2
REMARK    2  A    between atoms: C_1  and  C_9
REMARK    3  A    between atoms: C_1  and  C_19
REMARK    4  A    between atoms: C_9  and  O_10
REMARK    5  A    between atoms: O_10  and  C_11
REMARK    6  A    between atoms: C_11  and  C_12
REMARK    7  A    between atoms: C_12  and  N_13
REMARK    8  A    between atoms: N_13  and  C_15
REMARK    9  A    between atoms: N_13  and  C_17
REMARK   10  A    between atoms: C_19  and  C_21
REMARK                            x       y       z     vdW  Elec       q    Type
REMARK                         _______ _______ _______ _____ _____    ______ ____
ROOT
ATOM      1  C   UNL     1       1.753   0.727   0.176  0.00  0.00    +0.121 C 
ENDROOT
BRANCH   1   2
ATOM      2  C   UNL     1       2.242  -0.717   0.216  0.00  0.00    -0.012 C 
ATOM      3  C   UNL     1       2.987  -1.171   1.304  0.00  0.00    -0.004 C 
ATOM      4  C   UNL     1       1.943  -1.584  -0.835  0.00  0.00    -0.004 C 
ATOM      5  C   UNL     1       3.434  -2.492   1.341  0.00  0.00    -0.000 C 
ATOM      6  C   UNL     1       2.389  -2.905  -0.798  0.00  0.00    -0.000 C 
ATOM      7  C   UNL     1       3.135  -3.358   0.290  0.00  0.00    -0.000 C 
ENDBRANCH   1   2
BRANCH   1   9
ATOM      8  O   UNL     1       0.346   1.207  -1.773  0.00  0.00    -0.250 OA
ATOM      9  C   UNL     1       0.439   0.882  -0.596  0.00  0.00    +0.321 C 
BRANCH   9  10
ATOM     10  O   UNL     1      -0.614   0.547   0.209  0.00  0.00    -0.451 OA
BRANCH  10  11
ATOM     11  C   UNL     1      -1.905   0.590  -0.408  0.00  0.00    +0.186 C 
BRANCH  11  12
ATOM     12  C   UNL     1      -2.964   0.196   0.603  0.00  0.00    -0.025 C 
BRANCH  12  13
ATOM     13  N   UNL     1      -4.296   0.206  -0.053  0.00  0.00    +0.391 N 
ATOM     14  C   UNL     1      -4.637   1.610  -0.570  0.00  0.00    -0.096 C 
BRANCH  13  15
ATOM     15  C   UNL     1      -5.392  -0.219   0.933  0.00  0.00    -0.073 C 
ATOM     16  C   UNL     1      -5.438   0.765   2.082  0.00  0.00    -0.024 C 
ENDBRANCH  13  15
BRANCH  13  17
ATOM     17  C   UNL     1      -4.323  -0.761  -1.244  0.00  0.00    -0.073 C 
ATOM     18  C   UNL     1      -3.990  -2.156  -0.761  0.00  0.00    -0.024 C 
ENDBRANCH  13  17
ENDBRANCH  12  13
ENDBRANCH  11  12
ENDBRANCH  10  11
ENDBRANCH   9  10
ENDBRANCH   1   9
BRANCH   1  19
ATOM     19  C   UNL     1       2.837   1.768  -0.254  0.00  0.00    +0.015 C 
ATOM     20  C   UNL     1       3.693   1.312  -1.442  0.00  0.00    +0.001 C 
BRANCH  19  21
ATOM     21  C   UNL     1       3.711   2.197   0.947  0.00  0.00    +0.001 C 
ATOM     22  C   UNL     1       4.651   3.354   0.631  0.00  0.00    +0.000 C 
ENDBRANCH  19  21
ENDBRANCH   1  19
TORSDOF 10
