REMARK  Name = 4640
REMARK  6 active torsions:
REMARK  status: ('A' for Active; 'I' for Inactive)
REMARK    1  A    between atoms: C_1  and  C_3
REMARK    2  A    between atoms: C_1  and  C_17
REMARK    3  A    between atoms: C_10  and  O_13
REMARK    4  A    between atoms: C_11  and  O_15
REMARK    5  A    between atoms: C_17  and  N_18
REMARK    6  A    between atoms: N_19  and  C_25
REMARK                            x       y       z     vdW  Elec       q    Type
REMARK                         _______ _______ _______ _____ _____    ______ ____
ROOT
ATOM      1  C   UNL     1      -0.696  -1.493   0.694  0.00  0.00    +0.005 C 
ENDROOT
BRANCH   1   3
ATOM      2  N   UNL     1      -4.113  -2.455  -0.170  0.00  0.00    -0.357 N 
ATOM      3  C   UNL     1      -2.151  -1.610   0.348  0.00  0.00    -0.011 A 
ATOM      4  C   UNL     1      -3.051  -0.532   0.220  0.00  0.00    +0.016 A 
ATOM      5  C   UNL     1      -2.812  -2.777   0.107  0.00  0.00    +0.030 A 
ATOM      6  C   UNL     1      -4.288  -1.091  -0.108  0.00  0.00    +0.059 A 
ATOM      7  C   UNL     1      -2.951   0.867   0.349  0.00  0.00    +0.041 C 
ATOM      8  C   UNL     1      -2.360  -4.182   0.107  0.00  0.00    +0.049 C 
ATOM      9  C   UNL     1      -5.435  -0.317  -0.316  0.00  0.00    +0.057 C 
ATOM     10  C   UNL     1      -4.090   1.654   0.144  0.00  0.00    +0.172 C 
ATOM     11  C   UNL     1      -5.312   1.069  -0.183  0.00  0.00    +0.174 C 
ATOM     12  H   UNL     1      -4.821  -3.105  -0.383  0.00  0.00    +0.166 HD
BRANCH  10  13
ATOM     13  O   UNL     1      -3.988   3.009   0.270  0.00  0.00    -0.468 OA
ATOM     14  C   UNL     1      -3.654   3.743  -0.905  0.00  0.00    +0.253 C 
ENDBRANCH  10  13
BRANCH  11  15
ATOM     15  O   UNL     1      -6.415   1.849  -0.379  0.00  0.00    -0.468 OA
ATOM     16  C   UNL     1      -7.223   2.125   0.762  0.00  0.00    +0.253 C 
ENDBRANCH  11  15
ENDBRANCH   1   3
BRANCH   1  17
ATOM     17  C   UNL     1       0.183  -1.344  -0.550  0.00  0.00    -0.072 C 
BRANCH  17  18
ATOM     18  N   UNL     1       1.597  -1.256  -0.188  0.00  0.00    +0.389 N 
ATOM     19  N   UNL     1       4.195  -0.071  -0.092  0.00  0.00    -0.312 N 
ATOM     20  C   UNL     1       1.843  -0.070   0.641  0.00  0.00    -0.055 C 
ATOM     21  C   UNL     1       2.435  -1.204  -1.393  0.00  0.00    -0.055 C 
ATOM     22  C   UNL     1       3.310   0.004   1.074  0.00  0.00    +0.068 C 
ATOM     23  C   UNL     1       3.921  -1.169  -1.028  0.00  0.00    +0.068 C 
ATOM     24  H   UNL     1       1.841  -2.089   0.347  0.00  0.00    -0.080 HD
BRANCH  19  25
ATOM     25  C   UNL     1       5.510   0.399   0.003  0.00  0.00    +0.048 C 
ATOM     26  C   UNL     1       6.208   0.358   1.226  0.00  0.00    +0.015 C 
ATOM     27  C   UNL     1       6.174   0.928  -1.121  0.00  0.00    +0.015 C 
ATOM     28  C   UNL     1       7.519   0.826   1.321  0.00  0.00    +0.001 C 
ATOM     29  C   UNL     1       7.485   1.396  -1.027  0.00  0.00    +0.001 C 
ATOM     30  C   UNL     1       8.157   1.345   0.194  0.00  0.00    +0.000 C 
ENDBRANCH  19  25
ENDBRANCH  17  18
ENDBRANCH   1  17
TORSDOF 6
