REMARK  Name = 76958312
REMARK  3 active torsions:
REMARK  status: ('A' for Active; 'I' for Inactive)
REMARK    1  A    between atoms: C_16  and  C_21
REMARK    2  A    between atoms: C_26  and  N_28
REMARK    3  A    between atoms: N_29  and  C_34
REMARK                            x       y       z     vdW  Elec       q    Type
REMARK                         _______ _______ _______ _____ _____    ______ ____
ROOT
ATOM      1  O   UNL     1      -4.523   3.584   1.672  0.00  0.00    -0.350 OA
ATOM      2  O   UNL     1      -6.057  -4.466   0.780  0.00  0.00    -0.350 OA
ATOM      3  N   UNL     1      -3.760   2.215  -0.685  0.00  0.00    -0.231 N 
ATOM      4  N   UNL     1      -4.119  -0.029  -0.303  0.00  0.00    -0.246 NA
ATOM      5  N   UNL     1      -1.902   0.861  -0.534  0.00  0.00    -0.260 NA
ATOM      6  N   UNL     1      -4.387  -2.315   0.084  0.00  0.00    -0.228 N 
ATOM      7  N   UNL     1      -2.218  -1.484  -0.135  0.00  0.00    -0.260 NA
ATOM      8  C   UNL     1      -5.172   2.516  -0.444  0.00  0.00    +0.114 C 
ATOM      9  C   UNL     1      -3.043   3.426  -0.283  0.00  0.00    +0.114 C 
ATOM     10  C   UNL     1      -5.298   3.923  -1.054  0.00  0.00    +0.025 C 
ATOM     11  C   UNL     1      -3.891   4.524  -0.948  0.00  0.00    +0.025 C 
ATOM     12  C   UNL     1      -3.151   3.502   1.252  0.00  0.00    +0.163 C 
ATOM     13  C   UNL     1      -5.348   2.563   1.085  0.00  0.00    +0.163 C 
ATOM     14  C   UNL     1      -3.240   0.967  -0.501  0.00  0.00    +0.224 C 
ATOM     15  C   UNL     1      -3.536  -1.226  -0.127  0.00  0.00    +0.224 C 
ATOM     16  C   UNL     1      -1.463  -0.393  -0.343  0.00  0.00    +0.163 C 
ATOM     17  C   UNL     1      -3.825  -3.655   0.284  0.00  0.00    +0.135 C 
ATOM     18  C   UNL     1      -5.675  -2.071   0.749  0.00  0.00    +0.135 C 
ATOM     19  C   UNL     1      -6.639  -3.209   0.436  0.00  0.00    +0.164 C 
ATOM     20  C   UNL     1      -4.889  -4.709  -0.003  0.00  0.00    +0.164 C 
ENDROOT
BRANCH  16  21
ATOM     21  C   UNL     1      -0.037  -0.590  -0.364  0.00  0.00    +0.087 C 
ATOM     22  C   UNL     1       0.493  -1.806  -0.795  0.00  0.00    +0.013 C 
ATOM     23  C   UNL     1       0.814   0.436   0.047  0.00  0.00    +0.013 C 
ATOM     24  C   UNL     1       1.875  -1.996  -0.815  0.00  0.00    +0.015 C 
ATOM     25  C   UNL     1       2.196   0.245   0.027  0.00  0.00    +0.015 C 
ATOM     26  C   UNL     1       2.726  -0.971  -0.404  0.00  0.00    +0.052 C 
BRANCH  26  28
ATOM     27  O   UNL     1       4.938   0.883   0.363  0.00  0.00    -0.252 OA
ATOM     28  N   UNL     1       4.108  -1.161  -0.424  0.00  0.00    -0.268 N 
ATOM     29  N   UNL     1       6.389  -0.854  -0.227  0.00  0.00    -0.268 N 
ATOM     30  C   UNL     1       5.131  -0.256  -0.051  0.00  0.00    +0.308 C 
ATOM     31  H   UNL     1       4.413  -2.043  -0.740  0.00  0.00    +0.156 HD
ATOM     32  H   UNL     1       6.384  -1.777  -0.569  0.00  0.00    +0.156 HD
BRANCH  29  34
ATOM     33  N   UNL     1      10.180   0.813   0.529  0.00  0.00    -0.242 NA
ATOM     34  C   UNL     1       7.663  -0.293   0.027  0.00  0.00    +0.055 C 
ATOM     35  C   UNL     1       8.813  -1.039  -0.208  0.00  0.00    +0.035 C 
ATOM     36  C   UNL     1       7.770   1.005   0.513  0.00  0.00    +0.035 C 
ATOM     37  C   UNL     1      10.036  -0.446   0.057  0.00  0.00    +0.100 C 
ATOM     38  C   UNL     1       9.041   1.507   0.745  0.00  0.00    +0.100 C 
ENDBRANCH  29  34
ENDBRANCH  26  28
ENDBRANCH  16  21
TORSDOF 3
