REMARK  Name = 66599893
REMARK  9 active torsions:
REMARK  status: ('A' for Active; 'I' for Inactive)
REMARK    1  A    between atoms: C_1  and  C_2
REMARK    2  A    between atoms: C_1  and  C_22
REMARK    3  A    between atoms: C_1  and  C_34
REMARK    4  A    between atoms: C_5  and  C_8
REMARK    5  A    between atoms: C_8  and  O_9
REMARK    6  A    between atoms: O_9  and  C_11
REMARK    7  A    between atoms: C_11  and  C_12
REMARK    8  A    between atoms: N_21  and  C_25
REMARK    9  A    between atoms: C_34  and  N_35
REMARK                            x       y       z     vdW  Elec       q    Type
REMARK                         _______ _______ _______ _____ _____    ______ ____
ROOT
ATOM      1  C   UNL     1       2.115  -3.391   0.069  0.00  0.00    +0.077 C 
ENDROOT
BRANCH   1   2
ATOM      2  C   UNL     1       0.626  -3.104   0.181  0.00  0.00    -0.016 C 
ATOM      3  C   UNL     1       0.031  -2.981   1.437  0.00  0.00    -0.004 C 
ATOM      4  C   UNL     1      -0.146  -2.963  -0.973  0.00  0.00    -0.004 C 
ATOM      5  C   UNL     1      -2.106  -2.578   0.386  0.00  0.00    +0.021 C 
ATOM      6  C   UNL     1      -1.335  -2.719   1.539  0.00  0.00    -0.001 C 
ATOM      7  C   UNL     1      -1.512  -2.701  -0.870  0.00  0.00    -0.001 C 
BRANCH   5   8
ATOM      8  C   UNL     1      -3.567  -2.296   0.495  0.00  0.00    +0.235 C 
BRANCH   8   9
ATOM      9  O   UNL     1      -3.810  -0.931   0.178  0.00  0.00    -0.440 OA
BRANCH   9  11
ATOM     10  O   UNL     1      -6.065  -1.226   0.532  0.00  0.00    -0.245 OA
ATOM     11  C   UNL     1      -5.108  -0.527   0.236  0.00  0.00    +0.341 C 
BRANCH  11  12
ATOM     12  C   UNL     1      -5.227   0.911  -0.116  0.00  0.00    +0.072 C 
ATOM     13  C   UNL     1      -5.753   1.833   0.788  0.00  0.00    -0.016 C 
ATOM     14  C   UNL     1      -5.431   3.601  -0.827  0.00  0.00    -0.022 C 
ATOM     15  C   UNL     1      -5.855   3.178   0.433  0.00  0.00    -0.008 C 
ATOM     16  C   UNL     1      -4.803   1.333  -1.376  0.00  0.00    +0.006 C 
ATOM     17  C   UNL     1      -4.905   2.678  -1.732  0.00  0.00    -0.004 C 
ATOM     18  C   UNL     1      -6.214   1.408   2.144  0.00  0.00    +0.031 C 
ATOM     19  C   UNL     1      -5.540   5.038  -1.209  0.00  0.00    +0.031 C 
ENDBRANCH  11  12
ENDBRANCH   9  11
ENDBRANCH   8   9
ENDBRANCH   5   8
ENDBRANCH   1   2
BRANCH   1  22
ATOM     20  O   UNL     1       2.996  -2.206  -1.845  0.00  0.00    -0.275 OA
ATOM     21  N   UNL     1       3.256  -1.246   0.286  0.00  0.00    -0.284 N 
ATOM     22  C   UNL     1       2.830  -2.224  -0.628  0.00  0.00    +0.228 C 
ATOM     23  H   UNL     1       3.050  -1.423   1.232  0.00  0.00    +0.155 HD
BRANCH  21  25
ATOM     24  N   UNL     1       6.327   4.398   0.269  0.00  0.00    -0.242 NA
ATOM     25  C   UNL     1       3.934  -0.054   0.022  0.00  0.00    +0.050 C 
ATOM     26  C   UNL     1       4.282   0.796   1.073  0.00  0.00    +0.015 C 
ATOM     27  C   UNL     1       4.962   1.999   0.824  0.00  0.00    +0.004 C 
ATOM     28  C   UNL     1       4.261   0.284  -1.288  0.00  0.00    +0.015 C 
ATOM     29  C   UNL     1       5.292   2.338  -0.505  0.00  0.00    +0.019 C 
ATOM     30  C   UNL     1       4.937   1.474  -1.555  0.00  0.00    +0.003 C 
ATOM     31  C   UNL     1       5.325   2.873   1.856  0.00  0.00    +0.021 C 
ATOM     32  C   UNL     1       5.969   3.541  -0.714  0.00  0.00    +0.099 C 
ATOM     33  C   UNL     1       5.996   4.041   1.528  0.00  0.00    +0.099 C 
ENDBRANCH  21  25
ENDBRANCH   1  22
BRANCH   1  34
ATOM     34  C   UNL     1       2.417  -4.716  -0.660  0.00  0.00    -0.072 C 
BRANCH  34  35
ATOM     35  N   UNL     1       1.820  -5.861   0.022  0.00  0.00    +0.381 N 
ATOM     36  H   UNL     1       2.041  -6.715  -0.490  0.00  0.00    -0.089 HD
ATOM     37  H   UNL     1       0.808  -5.742   0.063  0.00  0.00    -0.089 HD
ATOM     38  H   UNL     1       2.193  -5.925   0.969  0.00  0.00    -0.089 HD
ENDBRANCH  34  35
ENDBRANCH   1  34
TORSDOF 9
