6433122
  -OEChem-10051722593D

 49 52  0     0  0  0  0  0  0999 V2000
   -8.6687   -2.1693    0.0144 F   0  0  0  0  0  0  0  0  0  0  0  0
    2.5316    2.4859   -1.8465 O   0  0  0  0  0  0  0  0  0  0  0  0
   -1.6369    1.1006    0.5330 N   0  0  0  0  0  0  0  0  0  0  0  0
    1.0350    1.8636   -0.1619 N   0  0  0  0  0  0  0  0  0  0  0  0
    3.1364   -0.9937   -1.2174 N   0  0  0  0  0  0  0  0  0  0  0  0
    6.4964   -3.9496    0.3555 N   0  0  0  0  0  0  0  0  0  0  0  0
   -1.3302    1.5978   -0.8161 C   0  0  0  0  0  0  0  0  0  0  0  0
   -0.4882    0.3666    1.0832 C   0  0  0  0  0  0  0  0  0  0  0  0
   -0.1118    2.5192   -0.7865 C   0  0  0  0  0  0  0  0  0  0  0  0
    0.7562    1.2552    1.1437 C   0  0  0  0  0  0  0  0  0  0  0  0
   -2.8263    0.2502    0.5090 C   0  0  0  0  0  0  0  0  0  0  0  0
   -4.0525    1.0364    0.0439 C   0  0  0  0  0  0  0  0  0  0  0  0
    2.2849    1.9187   -0.7831 C   0  0  0  0  0  0  0  0  0  0  0  0
    3.4175    1.2557   -0.1229 C   0  0  0  0  0  0  0  0  0  0  0  0
   -5.2910    0.1762    0.0359 C   0  0  0  0  0  0  0  0  0  0  0  0
    3.7349   -0.0782   -0.3813 C   0  0  0  0  0  0  0  0  0  0  0  0
    4.8077   -0.7251    0.2357 C   0  0  0  0  0  0  0  0  0  0  0  0
    4.2101    1.9547    0.7863 C   0  0  0  0  0  0  0  0  0  0  0  0
   -5.6213   -0.5311   -1.1099 C   0  0  0  0  0  0  0  0  0  0  0  0
   -6.0788    0.1070    1.1748 C   0  0  0  0  0  0  0  0  0  0  0  0
    5.5981   -0.0039    1.1526 C   0  0  0  0  0  0  0  0  0  0  0  0
    4.8316   -2.0590   -0.2595 C   0  0  0  0  0  0  0  0  0  0  0  0
    5.2869    1.3348    1.4171 C   0  0  0  0  0  0  0  0  0  0  0  0
    3.7922   -2.1937   -1.1505 C   0  0  0  0  0  0  0  0  0  0  0  0
   -6.7669   -1.3268   -1.1172 C   0  0  0  0  0  0  0  0  0  0  0  0
   -7.2245   -0.6888    1.1678 C   0  0  0  0  0  0  0  0  0  0  0  0
   -7.5685   -1.4058    0.0217 C   0  0  0  0  0  0  0  0  0  0  0  0
    5.7460   -3.0976    0.0783 C   0  0  0  0  0  0  0  0  0  0  0  0
   -2.1398    2.2045   -1.2289 H   0  0  0  0  0  0  0  0  0  0  0  0
   -1.1469    0.7639   -1.5065 H   0  0  0  0  0  0  0  0  0  0  0  0
   -0.2713   -0.5213    0.4741 H   0  0  0  0  0  0  0  0  0  0  0  0
   -0.7140    0.0219    2.0994 H   0  0  0  0  0  0  0  0  0  0  0  0
    0.1351    2.8405   -1.8038 H   0  0  0  0  0  0  0  0  0  0  0  0
   -0.3255    3.4223   -0.2014 H   0  0  0  0  0  0  0  0  0  0  0  0
    0.6030    2.0784    1.8522 H   0  0  0  0  0  0  0  0  0  0  0  0
    1.6030    0.6689    1.5067 H   0  0  0  0  0  0  0  0  0  0  0  0
   -2.6705   -0.6268   -0.1343 H   0  0  0  0  0  0  0  0  0  0  0  0
   -3.0194   -0.1320    1.5201 H   0  0  0  0  0  0  0  0  0  0  0  0
   -3.9432    1.4311   -0.9712 H   0  0  0  0  0  0  0  0  0  0  0  0
   -4.2150    1.9088    0.6906 H   0  0  0  0  0  0  0  0  0  0  0  0
    3.9934    2.9961    1.0132 H   0  0  0  0  0  0  0  0  0  0  0  0
    2.3286   -0.8080   -1.7957 H   0  0  0  0  0  0  0  0  0  0  0  0
   -5.0024   -0.4789   -2.0012 H   0  0  0  0  0  0  0  0  0  0  0  0
   -5.8181    0.6600    2.0727 H   0  0  0  0  0  0  0  0  0  0  0  0
    6.4410   -0.4719    1.6531 H   0  0  0  0  0  0  0  0  0  0  0  0
    5.8931    1.8960    2.1233 H   0  0  0  0  0  0  0  0  0  0  0  0
    3.4564   -3.0328   -1.7446 H   0  0  0  0  0  0  0  0  0  0  0  0
   -7.0348   -1.8855   -2.0091 H   0  0  0  0  0  0  0  0  0  0  0  0
   -7.8486   -0.7506    2.0543 H   0  0  0  0  0  0  0  0  0  0  0  0
  1 27  1  0  0  0  0
  2 13  2  0  0  0  0
  3  7  1  0  0  0  0
  3  8  1  0  0  0  0
  3 11  1  0  0  0  0
  4  9  1  0  0  0  0
  4 10  1  0  0  0  0
  4 13  1  0  0  0  0
  5 16  1  0  0  0  0
  5 24  1  0  0  0  0
  5 42  1  0  0  0  0
  6 28  3  0  0  0  0
  7  9  1  0  0  0  0
  7 29  1  0  0  0  0
  7 30  1  0  0  0  0
  8 10  1  0  0  0  0
  8 31  1  0  0  0  0
  8 32  1  0  0  0  0
  9 33  1  0  0  0  0
  9 34  1  0  0  0  0
 10 35  1  0  0  0  0
 10 36  1  0  0  0  0
 11 12  1  0  0  0  0
 11 37  1  0  0  0  0
 11 38  1  0  0  0  0
 12 15  1  0  0  0  0
 12 39  1  0  0  0  0
 12 40  1  0  0  0  0
 13 14  1  0  0  0  0
 14 16  1  0  0  0  0
 14 18  2  0  0  0  0
 15 19  2  0  0  0  0
 15 20  1  0  0  0  0
 16 17  2  0  0  0  0
 17 21  1  0  0  0  0
 17 22  1  0  0  0  0
 18 23  1  0  0  0  0
 18 41  1  0  0  0  0
 19 25  1  0  0  0  0
 19 43  1  0  0  0  0
 20 26  2  0  0  0  0
 20 44  1  0  0  0  0
 21 23  2  0  0  0  0
 21 45  1  0  0  0  0
 22 24  2  0  0  0  0
 22 28  1  0  0  0  0
 23 46  1  0  0  0  0
 24 47  1  0  0  0  0
 25 27  2  0  0  0  0
 25 48  1  0  0  0  0
 26 27  1  0  0  0  0
 26 49  1  0  0  0  0
M  END
> <DATABASE_ID>
DB13094

> <DATABASE_NAME>
drugbank

> <ORIGINAL_SOURCE>
PUBCHEM

> <ORIGINAL_SOURCE_URL>
https://pubchem.ncbi.nlm.nih.gov/rest/pug/compound/inchikey/AQRLDDAFYYAIJP-UHFFFAOYSA-N/SDF?record_type=3d

> <SMILES>
FC1=CC=C(CCN2CCN(CC2)C(=O)C2=C3NC=C(C#N)C3=CC=C2)C=C1

> <INCHI_IDENTIFIER>
InChI=1S/C22H21FN4O/c23-18-6-4-16(5-7-18)8-9-26-10-12-27(13-11-26)22(28)20-3-1-2-19-17(14-24)15-25-21(19)20/h1-7,15,25H,8-13H2

> <INCHI_KEY>
AQRLDDAFYYAIJP-UHFFFAOYSA-N

> <FORMULA>
C22H21FN4O

> <MOLECULAR_WEIGHT>
376.435

> <EXACT_MASS>
376.169939475

> <JCHEM_ACCEPTOR_COUNT>
3

> <JCHEM_ATOM_COUNT>
49

> <JCHEM_AVERAGE_POLARIZABILITY>
40.94505327963435

> <JCHEM_BIOAVAILABILITY>
1

> <JCHEM_DONOR_COUNT>
1

> <JCHEM_FORMAL_CHARGE>
0

> <JCHEM_GHOSE_FILTER>
1

> <JCHEM_IUPAC>
7-{4-[2-(4-fluorophenyl)ethyl]piperazine-1-carbonyl}-1H-indole-3-carbonitrile

> <ALOGPS_LOGP>
3.03

> <JCHEM_LOGP>
3.2290522606666654

> <ALOGPS_LOGS>
-4.30

> <JCHEM_MDDR_LIKE_RULE>
0

> <JCHEM_NUMBER_OF_RINGS>
4

> <JCHEM_PHYSIOLOGICAL_CHARGE>
1

> <JCHEM_PKA_STRONGEST_ACIDIC>
13.202253582307524

> <JCHEM_PKA_STRONGEST_BASIC>
7.045533325589986

> <JCHEM_POLAR_SURFACE_AREA>
63.13

> <JCHEM_REFRACTIVITY>
107.37200000000001

> <JCHEM_ROTATABLE_BOND_COUNT>
4

> <JCHEM_RULE_OF_FIVE>
1

> <ALOGPS_SOLUBILITY>
1.88e-02 g/l

> <JCHEM_TRADITIONAL_IUPAC>
pruvanserin

> <JCHEM_VEBER_RULE>
0

> <DRUGBANK_ID>
DB13094

> <DRUG_GROUPS>
investigational

> <GENERIC_NAME>
Pruvanserin

$$$$
