REMARK  Name = 99479
REMARK  1 active torsions:
REMARK  status: ('A' for Active; 'I' for Inactive)
REMARK    1  A    between atoms: C_12  and  O_16
REMARK                            x       y       z     vdW  Elec       q    Type
REMARK                         _______ _______ _______ _____ _____    ______ ____
ROOT
ATOM      1  O   UNL     1      -1.577   1.022   0.144  0.00  0.00    -0.483 OA
ATOM      2  C   UNL     1      -2.692   0.133  -0.057  0.00  0.00    +0.134 C 
ATOM      3  C   UNL     1      -2.465  -1.227   0.624  0.00  0.00    +0.045 C 
ATOM      4  C   UNL     1      -1.192  -1.894   0.122  0.00  0.00    +0.033 C 
ATOM      5  C   UNL     1      -0.069  -0.901   0.083  0.00  0.00    +0.010 A 
ATOM      6  C   UNL     1      -0.322   0.475   0.088  0.00  0.00    +0.130 A 
ATOM      7  C   UNL     1      -3.899   0.819   0.599  0.00  0.00    +0.044 C 
ATOM      8  C   UNL     1      -2.962   0.005  -1.563  0.00  0.00    +0.044 C 
ATOM      9  C   UNL     1       1.256  -1.352   0.009  0.00  0.00    +0.010 A 
ATOM     10  C   UNL     1       0.738   1.385   0.055  0.00  0.00    +0.011 A 
ATOM     11  C   UNL     1       2.053   0.927  -0.006  0.00  0.00    +0.010 A 
ATOM     12  C   UNL     1       2.312  -0.441  -0.033  0.00  0.00    +0.125 A 
ATOM     13  C   UNL     1       1.565  -2.817  -0.019  0.00  0.00    +0.034 C 
ATOM     14  C   UNL     1       0.465   2.857   0.094  0.00  0.00    +0.034 C 
ATOM     15  C   UNL     1       3.189   1.899  -0.040  0.00  0.00    +0.034 C 
ENDROOT
BRANCH  12  16
ATOM     16  O   UNL     1       3.599  -0.889  -0.099  0.00  0.00    -0.506 OA
ATOM     17  H   UNL     1       3.775  -1.809  -0.117  0.00  0.00    +0.292 HD
ENDBRANCH  12  16
TORSDOF 1
