REMARK  Name = 8830
REMARK  11 active torsions:
REMARK  status: ('A' for Active; 'I' for Inactive)
REMARK    1  A    between atoms: C_1  and  C_3
REMARK    2  A    between atoms: C_1  and  C_9
REMARK    3  A    between atoms: C_3  and  O_4
REMARK    4  A    between atoms: O_4  and  C_5
REMARK    5  A    between atoms: C_5  and  C_6
REMARK    6  A    between atoms: C_6  and  C_7
REMARK    7  A    between atoms: C_9  and  C_11
REMARK    8  A    between atoms: C_11  and  O_12
REMARK    9  A    between atoms: O_12  and  C_13
REMARK   10  A    between atoms: C_13  and  C_14
REMARK   11  A    between atoms: C_14  and  C_15
REMARK                            x       y       z     vdW  Elec       q    Type
REMARK                         _______ _______ _______ _____ _____    ______ ____
ROOT
ATOM      1  C   UNL     1      -0.665   0.372  -0.102  0.00  0.00    +0.121 C 
ENDROOT
BRANCH   1   3
ATOM      2  O   UNL     1      -1.807  -1.778  -0.091  0.00  0.00    -0.250 OA
ATOM      3  C   UNL     1      -1.861  -0.556  -0.072  0.00  0.00    +0.318 C 
BRANCH   3   4
ATOM      4  O   UNL     1      -3.001   0.195  -0.032  0.00  0.00    -0.448 OA
BRANCH   4   5
ATOM      5  C   UNL     1      -4.226  -0.546  -0.009  0.00  0.00    +0.208 C 
BRANCH   5   6
ATOM      6  C   UNL     1      -5.391   0.431   0.035  0.00  0.00    +0.047 C 
BRANCH   6   7
ATOM      7  C   UNL     1      -6.734  -0.294   0.078  0.00  0.00    +0.004 C 
ATOM      8  C   UNL     1      -7.893   0.685   0.166  0.00  0.00    +0.000 C 
ENDBRANCH   6   7
ENDBRANCH   5   6
ENDBRANCH   4   5
ENDBRANCH   3   4
ENDBRANCH   1   3
BRANCH   1   9
ATOM      9  C   UNL     1       0.665  -0.376  -0.069  0.00  0.00    +0.121 C 
BRANCH   9  11
ATOM     10  O   UNL     1       1.805   1.776  -0.088  0.00  0.00    -0.250 OA
ATOM     11  C   UNL     1       1.860   0.554  -0.057  0.00  0.00    +0.318 C 
BRANCH  11  12
ATOM     12  O   UNL     1       3.002  -0.195  -0.015  0.00  0.00    -0.448 OA
BRANCH  12  13
ATOM     13  C   UNL     1       4.225   0.547  -0.008  0.00  0.00    +0.208 C 
BRANCH  13  14
ATOM     14  C   UNL     1       5.392  -0.429   0.040  0.00  0.00    +0.047 C 
BRANCH  14  15
ATOM     15  C   UNL     1       6.734   0.297   0.067  0.00  0.00    +0.004 C 
ATOM     16  C   UNL     1       7.895  -0.680   0.158  0.00  0.00    +0.000 C 
ENDBRANCH  14  15
ENDBRANCH  13  14
ENDBRANCH  12  13
ENDBRANCH  11  12
ENDBRANCH   9  11
ENDBRANCH   1   9
TORSDOF 11
