REMARK  Name = 30966
REMARK  5 active torsions:
REMARK  status: ('A' for Active; 'I' for Inactive)
REMARK    1  A    between atoms: C_1  and  C_2
REMARK    2  A    between atoms: C_1  and  C_8
REMARK    3  A    between atoms: C_1  and  C_14
REMARK    4  A    between atoms: C_14  and  C_15
REMARK    5  A    between atoms: C_15  and  N_17
REMARK                            x       y       z     vdW  Elec       q    Type
REMARK                         _______ _______ _______ _____ _____    ______ ____
ROOT
ATOM      1  C   UNL     1       0.211  -0.248  -0.528  0.00  0.00    +0.043 C 
ENDROOT
BRANCH   1   2
ATOM      2  C   UNL     1       0.058   1.223  -0.145  0.00  0.00    -0.019 C 
ATOM      3  C   UNL     1       0.536   2.184  -1.007  0.00  0.00    -0.004 C 
ATOM      4  C   UNL     1      -0.552   1.535   1.050  0.00  0.00    -0.004 C 
ATOM      5  C   UNL     1       0.396   3.527  -0.656  0.00  0.00    -0.000 C 
ATOM      6  C   UNL     1      -0.692   2.878   1.400  0.00  0.00    -0.000 C 
ATOM      7  C   UNL     1      -0.218   3.874   0.547  0.00  0.00    -0.000 C 
ENDBRANCH   1   2
BRANCH   1   8
ATOM      8  C   UNL     1       1.611  -0.757  -0.213  0.00  0.00    -0.019 C 
ATOM      9  C   UNL     1       2.633  -0.487  -1.100  0.00  0.00    -0.004 C 
ATOM     10  C   UNL     1       1.814  -1.471   0.949  0.00  0.00    -0.004 C 
ATOM     11  C   UNL     1       3.915  -0.953  -0.812  0.00  0.00    -0.000 C 
ATOM     12  C   UNL     1       3.097  -1.937   1.238  0.00  0.00    -0.000 C 
ATOM     13  C   UNL     1       4.147  -1.678   0.357  0.00  0.00    -0.000 C 
ENDBRANCH   1   8
BRANCH   1  14
ATOM     14  C   UNL     1      -0.919  -1.149   0.043  0.00  0.00    -0.012 C 
BRANCH  14  15
ATOM     15  C   UNL     1      -2.343  -0.816  -0.455  0.00  0.00    -0.058 C 
ATOM     16  C   UNL     1      -2.401  -0.904  -1.981  0.00  0.00    -0.023 C 
BRANCH  15  17
ATOM     17  N   UNL     1      -3.338  -1.730   0.103  0.00  0.00    +0.385 N 
ATOM     18  C   UNL     1      -4.679  -1.367  -0.354  0.00  0.00    -0.101 C 
ATOM     19  C   UNL     1      -3.276  -1.722   1.564  0.00  0.00    -0.101 C 
ATOM     20  H   UNL     1      -3.130  -2.674  -0.223  0.00  0.00    -0.080 HD
ENDBRANCH  15  17
ENDBRANCH  14  15
ENDBRANCH   1  14
TORSDOF 5
