REMARK  Name = 17182
REMARK  10 active torsions:
REMARK  status: ('A' for Active; 'I' for Inactive)
REMARK    1  A    between atoms: C_1  and  C_3
REMARK    2  A    between atoms: C_1  and  C_19
REMARK    3  A    between atoms: C_3  and  N_4
REMARK    4  A    between atoms: N_5  and  C_12
REMARK    5  A    between atoms: C_12  and  C_13
REMARK    6  A    between atoms: C_13  and  O_14
REMARK    7  A    between atoms: O_14  and  C_15
REMARK    8  A    between atoms: C_15  and  C_16
REMARK    9  A    between atoms: C_16  and  O_17
REMARK   10  A    between atoms: C_19  and  N_21
REMARK                            x       y       z     vdW  Elec       q    Type
REMARK                         _______ _______ _______ _____ _____    ______ ____
ROOT
ATOM      1  C   UNL     1       1.764  -1.300  -2.390  0.00  0.00    -0.001 C 
ATOM      2  C   UNL     1       2.187  -2.028  -3.672  0.00  0.00    -0.000 C 
ENDROOT
BRANCH   1   3
ATOM      3  C   UNL     1       0.368  -0.677  -2.580  0.00  0.00    -0.076 C 
BRANCH   3   4
ATOM      4  N   UNL     1      -0.277  -0.379  -1.302  0.00  0.00    +0.384 N 
ATOM      5  N   UNL     1      -2.571  -0.213   0.449  0.00  0.00    +0.386 N 
ATOM      6  C   UNL     1      -1.281   0.680  -1.460  0.00  0.00    -0.101 C 
ATOM      7  C   UNL     1      -0.890  -1.585  -0.733  0.00  0.00    -0.101 C 
ATOM      8  C   UNL     1      -1.960   0.993  -0.122  0.00  0.00    -0.101 C 
ATOM      9  C   UNL     1      -1.567  -1.272   0.606  0.00  0.00    -0.101 C 
ATOM     10  H   UNL     1       0.441  -0.047  -0.657  0.00  0.00    -0.080 HD
ATOM     11  H   UNL     1      -3.290  -0.544  -0.195  0.00  0.00    -0.080 HD
BRANCH   5  12
ATOM     12  C   UNL     1      -3.214   0.086   1.727  0.00  0.00    -0.045 C 
BRANCH  12  13
ATOM     13  C   UNL     1      -4.565   0.749   1.506  0.00  0.00    +0.120 C 
BRANCH  13  14
ATOM     14  O   UNL     1      -5.386  -0.129   0.747  0.00  0.00    -0.353 OA
BRANCH  14  15
ATOM     15  C   UNL     1      -6.668   0.434   0.506  0.00  0.00    +0.174 C 
BRANCH  15  16
ATOM     16  C   UNL     1      -7.486  -0.535  -0.326  0.00  0.00    +0.169 C 
BRANCH  16  17
ATOM     17  O   UNL     1      -6.828  -0.750  -1.568  0.00  0.00    -0.379 OA
ATOM     18  H   UNL     1      -7.346  -1.370  -2.105  0.00  0.00    +0.211 HD
ENDBRANCH  16  17
ENDBRANCH  15  16
ENDBRANCH  14  15
ENDBRANCH  13  14
ENDBRANCH  12  13
ENDBRANCH   5  12
ENDBRANCH   3   4
ENDBRANCH   1   3
BRANCH   1  19
ATOM     19  C   UNL     1       2.838  -0.292  -1.944  0.00  0.00    +0.093 C 
BRANCH  19  21
ATOM     20  S   UNL     1       1.461   0.725   2.255  0.00  0.00    -0.084 S 
ATOM     21  N   UNL     1       2.677   0.091  -0.535  0.00  0.00    -0.286 N 
ATOM     22  C   UNL     1       2.807  -0.930   0.439  0.00  0.00    +0.058 C 
ATOM     23  C   UNL     1       2.469   1.465  -0.253  0.00  0.00    +0.058 C 
ATOM     24  C   UNL     1       2.317  -0.753   1.748  0.00  0.00    +0.043 C 
ATOM     25  C   UNL     1       1.945   1.880   0.987  0.00  0.00    +0.043 C 
ATOM     26  C   UNL     1       3.460  -2.151   0.159  0.00  0.00    +0.015 C 
ATOM     27  C   UNL     1       2.807   2.478  -1.177  0.00  0.00    +0.015 C 
ATOM     28  C   UNL     1       2.456  -1.766   2.712  0.00  0.00    +0.008 C 
ATOM     29  C   UNL     1       1.748   3.245   1.265  0.00  0.00    +0.008 C 
ATOM     30  C   UNL     1       3.600  -3.154   1.123  0.00  0.00    +0.001 C 
ATOM     31  C   UNL     1       2.613   3.833  -0.894  0.00  0.00    +0.001 C 
ATOM     32  C   UNL     1       3.094  -2.962   2.400  0.00  0.00    +0.001 C 
ATOM     33  C   UNL     1       2.080   4.216   0.327  0.00  0.00    +0.001 C 
ENDBRANCH  19  21
ENDBRANCH   1  19
TORSDOF 10
