REMARK  Name = 2780
REMARK  6 active torsions:
REMARK  status: ('A' for Active; 'I' for Inactive)
REMARK    1  A    between atoms: N_2  and  C_18
REMARK    2  A    between atoms: C_3  and  C_6
REMARK    3  A    between atoms: C_7  and  O_15
REMARK    4  A    between atoms: C_11  and  N_12
REMARK    5  A    between atoms: N_17  and  C_24
REMARK    6  A    between atoms: C_24  and  C_25
REMARK                            x       y       z     vdW  Elec       q    Type
REMARK                         _______ _______ _______ _____ _____    ______ ____
ROOT
ATOM      1  O   UNL     1       2.534   2.288   1.174  0.00  0.00    -0.270 OA
ATOM      2  N   UNL     1       0.791   0.809   0.781  0.00  0.00    -0.303 N 
ATOM      3  C   UNL     1       2.126   1.182   0.828  0.00  0.00    +0.249 C 
ATOM      4  H   UNL     1       0.565  -0.104   0.489  0.00  0.00    +0.150 HD
ENDROOT
BRANCH   3   6
ATOM      5 CL   UNL     1       3.261  -3.818   0.446  0.00  0.00    -0.081 Cl
ATOM      6  C   UNL     1       3.103   0.150   0.397  0.00  0.00    +0.088 C 
ATOM      7  C   UNL     1       4.297   0.534  -0.181  0.00  0.00    +0.144 C 
ATOM      8  C   UNL     1       2.776  -1.177   0.593  0.00  0.00    +0.020 C 
ATOM      9  C   UNL     1       5.202  -0.450  -0.579  0.00  0.00    +0.052 C 
ATOM     10  C   UNL     1       3.681  -2.161   0.195  0.00  0.00    +0.071 C 
ATOM     11  C   UNL     1       4.894  -1.798  -0.391  0.00  0.00    +0.055 C 
BRANCH  11  12
ATOM     12  N   UNL     1       5.831  -2.771  -0.805  0.00  0.00    -0.356 N 
ATOM     13  H   UNL     1       6.681  -2.493  -1.216  0.00  0.00    +0.142 HD
ATOM     14  H   UNL     1       5.633  -3.728  -0.682  0.00  0.00    +0.142 HD
ENDBRANCH  11  12
BRANCH   7  15
ATOM     15  O   UNL     1       4.616   1.845  -0.372  0.00  0.00    -0.471 OA
ATOM     16  C   UNL     1       4.223   2.433  -1.611  0.00  0.00    +0.252 C 
ENDBRANCH   7  15
ENDBRANCH   3   6
BRANCH   2  18
ATOM     17  N   UNL     1      -2.684   1.035  -0.406  0.00  0.00    +0.390 N 
ATOM     18  C   UNL     1      -0.279   1.710   1.144  0.00  0.00    +0.068 C 
ATOM     19  C   UNL     1      -1.462   0.947   1.746  0.00  0.00    -0.003 C 
ATOM     20  C   UNL     1      -0.742   2.532  -0.060  0.00  0.00    -0.003 C 
ATOM     21  C   UNL     1      -2.239   0.159   0.686  0.00  0.00    -0.075 C 
ATOM     22  C   UNL     1      -1.544   1.691  -1.060  0.00  0.00    -0.075 C 
ATOM     23  H   UNL     1      -3.275   1.762  -0.004  0.00  0.00    -0.079 HD
BRANCH  17  24
ATOM     24  C   UNL     1      -3.468   0.279  -1.382  0.00  0.00    -0.050 C 
BRANCH  24  25
ATOM     25  C   UNL     1      -4.693  -0.337  -0.761  0.00  0.00    -0.043 C 
ATOM     26  C   UNL     1      -4.617  -1.612  -0.217  0.00  0.00    -0.006 C 
ATOM     27  C   UNL     1      -5.882   0.379  -0.741  0.00  0.00    -0.006 C 
ATOM     28  C   UNL     1      -5.753  -2.182   0.359  0.00  0.00    -0.000 C 
ATOM     29  C   UNL     1      -7.018  -0.192  -0.166  0.00  0.00    -0.000 C 
ATOM     30  C   UNL     1      -6.953  -1.472   0.385  0.00  0.00    -0.000 C 
ENDBRANCH  24  25
ENDBRANCH  17  24
ENDBRANCH   2  18
TORSDOF 6
