REMARK  Name = 65589
REMARK  4 active torsions:
REMARK  status: ('A' for Active; 'I' for Inactive)
REMARK    1  A    between atoms: N_1  and  C_16
REMARK    2  A    between atoms: C_16  and  C_17
REMARK    3  A    between atoms: C_17  and  C_18
REMARK    4  A    between atoms: C_18  and  N_20
REMARK                            x       y       z     vdW  Elec       q    Type
REMARK                         _______ _______ _______ _____ _____    ______ ____
ROOT
ATOM      1  N   UNL     1      -0.496   0.096   0.541  0.00  0.00    -0.287 N 
ATOM      2  C   UNL     1      -1.535   1.048   0.379  0.00  0.00    +0.048 C 
ATOM      3  C   UNL     1      -0.567  -1.316   0.384  0.00  0.00    +0.048 C 
ATOM      4  C   UNL     1      -2.108   0.085  -1.879  0.00  0.00    +0.032 C 
ATOM      5  C   UNL     1      -2.472  -1.311  -1.400  0.00  0.00    +0.032 C 
ATOM      6  C   UNL     1      -2.336   1.077  -0.776  0.00  0.00    -0.008 C 
ATOM      7  C   UNL     1      -1.482  -1.979  -0.469  0.00  0.00    -0.008 C 
ATOM      8  C   UNL     1      -1.791   2.012   1.378  0.00  0.00    +0.015 C 
ATOM      9  C   UNL     1       0.292  -2.145   1.155  0.00  0.00    +0.015 C 
ATOM     10  C   UNL     1      -3.350   2.042  -0.913  0.00  0.00    -0.003 C 
ATOM     11  C   UNL     1      -1.522  -3.395  -0.492  0.00  0.00    -0.003 C 
ATOM     12  C   UNL     1      -2.801   2.966   1.236  0.00  0.00    +0.001 C 
ATOM     13  C   UNL     1       0.250  -3.541   1.104  0.00  0.00    +0.001 C 
ATOM     14  C   UNL     1      -3.581   2.981   0.088  0.00  0.00    -0.000 C 
ATOM     15  C   UNL     1      -0.664  -4.169   0.280  0.00  0.00    -0.000 C 
ENDROOT
BRANCH   1  16
ATOM     16  C   UNL     1       0.749   0.661   1.086  0.00  0.00    +0.094 C 
BRANCH  16  17
ATOM     17  C   UNL     1       1.905   0.472   0.111  0.00  0.00    +0.005 C 
BRANCH  17  18
ATOM     18  C   UNL     1       3.212   1.044   0.641  0.00  0.00    -0.026 C 
BRANCH  18  20
ATOM     19  O   UNL     1       3.959   1.599  -1.510  0.00  0.00    -0.290 OA
ATOM     20  N   UNL     1       4.284   0.896  -0.370  0.00  0.00    +0.428 N 
ATOM     21  C   UNL     1       4.465  -0.556  -0.738  0.00  0.00    -0.045 C 
ATOM     22  C   UNL     1       5.590   1.431   0.166  0.00  0.00    -0.045 C 
ENDBRANCH  18  20
ENDBRANCH  17  18
ENDBRANCH  16  17
ENDBRANCH   1  16
TORSDOF 4
