REMARK  Name = 33675
REMARK  5 active torsions:
REMARK  status: ('A' for Active; 'I' for Inactive)
REMARK    1  A    between atoms: C_3  and  C_22
REMARK    2  A    between atoms: C_10  and  C_14
REMARK    3  A    between atoms: C_11  and  O_20
REMARK    4  A    between atoms: C_22  and  C_25
REMARK    5  A    between atoms: N_24  and  O_27
REMARK                            x       y       z     vdW  Elec       q    Type
REMARK                         _______ _______ _______ _____ _____    ______ ____
ROOT
ATOM      1  O   UNL     1      -1.784   2.454  -1.519  0.00  0.00    -0.267 OA
ATOM      2  N   UNL     1      -0.324   0.890  -0.781  0.00  0.00    -0.279 N 
ATOM      3  C   UNL     1       1.920   0.781  -0.694  0.00  0.00    +0.001 A 
ATOM      4  C   UNL     1       1.419  -0.537  -0.584  0.00  0.00    +0.017 A 
ATOM      5  C   UNL     1       0.020  -0.459  -0.636  0.00  0.00    +0.066 A 
ATOM      6  C   UNL     1       0.845   1.627  -0.805  0.00  0.00    +0.041 A 
ATOM      7  C   UNL     1       2.040  -1.795  -0.442  0.00  0.00    +0.038 C 
ATOM      8  C   UNL     1      -0.767  -1.623  -0.558  0.00  0.00    +0.021 C 
ATOM      9  C   UNL     1       0.886   3.102  -0.938  0.00  0.00    +0.050 C 
ATOM     10  C   UNL     1      -1.624   1.435  -0.855  0.00  0.00    +0.264 C 
ATOM     11  C   UNL     1       1.256  -2.947  -0.360  0.00  0.00    +0.139 C 
ATOM     12  C   UNL     1      -0.129  -2.860  -0.418  0.00  0.00    +0.038 C 
ENDROOT
BRANCH  10  14
ATOM     13 CL   UNL     1      -6.451  -0.895   1.800  0.00  0.00    -0.082 Cl
ATOM     14  C   UNL     1      -2.815   0.861  -0.199  0.00  0.00    +0.057 C 
ATOM     15  C   UNL     1      -2.676   0.148   0.989  0.00  0.00    +0.006 C 
ATOM     16  C   UNL     1      -4.072   1.033  -0.773  0.00  0.00    +0.006 C 
ATOM     17  C   UNL     1      -3.801  -0.396   1.608  0.00  0.00    +0.012 C 
ATOM     18  C   UNL     1      -5.198   0.489  -0.154  0.00  0.00    +0.012 C 
ATOM     19  C   UNL     1      -5.062  -0.225   1.036  0.00  0.00    +0.058 C 
ENDBRANCH  10  14
BRANCH  11  20
ATOM     20  O   UNL     1       1.854  -4.163  -0.223  0.00  0.00    -0.471 OA
ATOM     21  C   UNL     1       3.279  -4.182  -0.170  0.00  0.00    +0.252 C 
ENDBRANCH  11  20
BRANCH   3  22
ATOM     22  C   UNL     1       3.345   1.177  -0.685  0.00  0.00    +0.115 C 
BRANCH  22  25
ATOM     23  O   UNL     1       3.087   1.841   1.618  0.00  0.00    -0.273 OA
ATOM     24  N   UNL     1       5.194   1.263   0.871  0.00  0.00    -0.197 N 
ATOM     25  C   UNL     1       3.844   1.464   0.725  0.00  0.00    +0.249 C 
ATOM     26  H   UNL     1       5.761   0.959   0.126  0.00  0.00    +0.182 HD
BRANCH  24  27
ATOM     27  O   UNL     1       5.715   1.517   2.147  0.00  0.00    -0.295 OA
ATOM     28  H   UNL     1       6.670   1.347   2.146  0.00  0.00    +0.241 HD
ENDBRANCH  24  27
ENDBRANCH  22  25
ENDBRANCH   3  22
TORSDOF 5
