REMARK  Name = 20313
REMARK  3 active torsions:
REMARK  status: ('A' for Active; 'I' for Inactive)
REMARK    1  A    between atoms: C_8  and  C_17
REMARK    2  A    between atoms: C_17  and  C_18
REMARK    3  A    between atoms: C_18  and  N_20
REMARK                            x       y       z     vdW  Elec       q    Type
REMARK                         _______ _______ _______ _____ _____    ______ ____
ROOT
ATOM      1  C   UNL     1       0.546   0.361  -0.314  0.00  0.00    -0.005 C 
ATOM      2  C   UNL     1       2.790  -0.879   1.464  0.00  0.00    +0.031 C 
ATOM      3  C   UNL     1       1.392  -1.380   1.829  0.00  0.00    +0.031 C 
ATOM      4  C   UNL     1       1.915   0.931  -0.205  0.00  0.00    -0.004 C 
ATOM      5  C   UNL     1       0.262  -1.086  -0.408  0.00  0.00    -0.004 C 
ATOM      6  C   UNL     1       2.926   0.364   0.602  0.00  0.00    -0.022 C 
ATOM      7  C   UNL     1       0.667  -1.939   0.632  0.00  0.00    -0.022 C 
ATOM      8  C   UNL     1      -0.521   1.179  -0.227  0.00  0.00    -0.028 C 
ATOM      9  C   UNL     1       2.230   2.063  -0.990  0.00  0.00    -0.000 C 
ATOM     10  C   UNL     1      -0.400  -1.618  -1.525  0.00  0.00    -0.000 C 
ATOM     11  C   UNL     1       4.207   0.960   0.600  0.00  0.00    -0.004 C 
ATOM     12  C   UNL     1       0.396  -3.312   0.542  0.00  0.00    -0.004 C 
ATOM     13  C   UNL     1       3.500   2.639  -0.966  0.00  0.00    -0.000 C 
ATOM     14  C   UNL     1      -0.663  -2.986  -1.603  0.00  0.00    -0.000 C 
ATOM     15  C   UNL     1       4.490   2.087  -0.168  0.00  0.00    -0.000 C 
ATOM     16  C   UNL     1      -0.267  -3.831  -0.570  0.00  0.00    -0.000 C 
ENDROOT
BRANCH   8  17
ATOM     17  C   UNL     1      -1.938   0.709  -0.323  0.00  0.00    +0.009 C 
BRANCH  17  18
ATOM     18  C   UNL     1      -2.889   1.583   0.481  0.00  0.00    -0.023 C 
BRANCH  18  20
ATOM     19  O   UNL     1      -4.659   1.254  -1.020  0.00  0.00    -0.290 OA
ATOM     20  N   UNL     1      -4.298   1.153   0.305  0.00  0.00    +0.428 N 
ATOM     21  C   UNL     1      -5.218   2.027   1.121  0.00  0.00    -0.045 C 
ATOM     22  C   UNL     1      -4.468  -0.280   0.741  0.00  0.00    -0.045 C 
ENDBRANCH  18  20
ENDBRANCH  17  18
ENDBRANCH   8  17
TORSDOF 3
