REMARK  Name = 4382
REMARK  5 active torsions:
REMARK  status: ('A' for Active; 'I' for Inactive)
REMARK    1  A    between atoms: C_1  and  C_11
REMARK    2  A    between atoms: C_4  and  O_7
REMARK    3  A    between atoms: C_6  and  O_9
REMARK    4  A    between atoms: C_11  and  C_12
REMARK    5  A    between atoms: C_12  and  N_13
REMARK                            x       y       z     vdW  Elec       q    Type
REMARK                         _______ _______ _______ _____ _____    ______ ____
ROOT
ATOM      1  C   UNL     1       0.219  -0.204   0.534  0.00  0.00    -0.021 C 
ATOM      2  C   UNL     1      -0.554   0.951   0.409  0.00  0.00    +0.035 C 
ATOM      3  C   UNL     1      -0.344  -1.452   0.267  0.00  0.00    -0.001 C 
ATOM      4  C   UNL     1      -1.890   0.857   0.018  0.00  0.00    +0.167 C 
ATOM      5  C   UNL     1      -1.679  -1.546  -0.124  0.00  0.00    +0.039 C 
ATOM      6  C   UNL     1      -2.452  -0.391  -0.249  0.00  0.00    +0.167 C 
ENDROOT
BRANCH   4   7
ATOM      7  O   UNL     1      -2.634   1.991  -0.101  0.00  0.00    -0.503 OA
ATOM      8  H   UNL     1      -2.249   2.826   0.080  0.00  0.00    +0.292 HD
ENDBRANCH   4   7
BRANCH   6   9
ATOM      9  O   UNL     1      -3.755  -0.495  -0.633  0.00  0.00    -0.503 OA
ATOM     10  H   UNL     1      -4.281   0.275  -0.719  0.00  0.00    +0.292 HD
ENDBRANCH   6   9
BRANCH   1  11
ATOM     11  C   UNL     1       1.647  -0.104   0.953  0.00  0.00    +0.003 C 
BRANCH  11  12
ATOM     12  C   UNL     1       2.590   0.051  -0.250  0.00  0.00    -0.077 C 
BRANCH  12  13
ATOM     13  N   UNL     1       3.986   0.121   0.166  0.00  0.00    +0.383 N 
ATOM     14  C   UNL     1       4.867   0.221  -0.989  0.00  0.00    -0.106 C 
ATOM     15  H   UNL     1       4.221  -0.720   0.693  0.00  0.00    -0.085 HD
ATOM     16  H   UNL     1       4.112   0.951   0.746  0.00  0.00    -0.085 HD
ENDBRANCH  12  13
ENDBRANCH  11  12
ENDBRANCH   1  11
TORSDOF 5
