REMARK  Name = 72139
REMARK  1 active torsions:
REMARK  status: ('A' for Active; 'I' for Inactive)
REMARK    1  A    between atoms: C_8  and  O_11
REMARK                            x       y       z     vdW  Elec       q    Type
REMARK                         _______ _______ _______ _____ _____    ______ ____
ROOT
ATOM      1  S   UNL     1       1.927   1.425   0.000  0.00  0.00    -0.003 S 
ATOM      2  O   UNL     1       1.369  -1.201   0.000  0.00  0.00    -0.416 OA
ATOM      3  O   UNL     1       3.591  -0.612  -0.001  0.00  0.00    -0.237 OA
ATOM      4  C   UNL     1       0.173  -0.484   0.000  0.00  0.00    +0.158 A 
ATOM      5  C   UNL     1       0.252   0.904   0.000  0.00  0.00    +0.070 A 
ATOM      6  C   UNL     1      -1.051  -1.137   0.000  0.00  0.00    +0.075 C 
ATOM      7  C   UNL     1      -0.895   1.680   0.000  0.00  0.00    +0.013 C 
ATOM      8  C   UNL     1      -2.213  -0.364   0.000  0.00  0.00    +0.137 C 
ATOM      9  C   UNL     1      -2.135   1.037   0.000  0.00  0.00    +0.037 C 
ATOM     10  C   UNL     1       2.414  -0.277   0.000  0.00  0.00    +0.379 A 
ENDROOT
BRANCH   8  11
ATOM     11  O   UNL     1      -3.431  -0.972   0.000  0.00  0.00    -0.505 OA
ATOM     12  H   UNL     1      -3.488  -1.908   0.000  0.00  0.00    +0.292 HD
ENDBRANCH   8  11
TORSDOF 1
