REMARK  Name = 11018
REMARK  7 active torsions:
REMARK  status: ('A' for Active; 'I' for Inactive)
REMARK    1  A    between atoms: C_1  and  C_2
REMARK    2  A    between atoms: C_1  and  C_8
REMARK    3  A    between atoms: C_1  and  O_14
REMARK    4  A    between atoms: C_1  and  C_17
REMARK    5  A    between atoms: C_17  and  O_18
REMARK    6  A    between atoms: O_18  and  C_19
REMARK    7  A    between atoms: C_19  and  C_21
REMARK                            x       y       z     vdW  Elec       q    Type
REMARK                         _______ _______ _______ _____ _____    ______ ____
ROOT
ATOM      1  C   UNL     1      -1.327  -0.276   0.508  0.00  0.00    +0.216 C 
ENDROOT
BRANCH   1   2
ATOM      2  C   UNL     1      -2.801  -0.525   0.176  0.00  0.00    +0.016 C 
ATOM      3  C   UNL     1      -3.119  -1.048  -1.055  0.00  0.00    -0.001 C 
ATOM      4  C   UNL     1      -3.750  -0.216   1.123  0.00  0.00    -0.001 C 
ATOM      5  C   UNL     1      -4.462  -1.276  -1.357  0.00  0.00    -0.000 C 
ATOM      6  C   UNL     1      -5.093  -0.444   0.821  0.00  0.00    -0.000 C 
ATOM      7  C   UNL     1      -5.448  -0.973  -0.419  0.00  0.00    -0.000 C 
ENDBRANCH   1   2
BRANCH   1   8
ATOM      8  C   UNL     1      -0.905   1.135   0.091  0.00  0.00    +0.016 C 
ATOM      9  C   UNL     1      -1.039   2.158   1.001  0.00  0.00    -0.001 C 
ATOM     10  C   UNL     1      -0.408   1.326  -1.177  0.00  0.00    -0.001 C 
ATOM     11  C   UNL     1      -0.654   3.444   0.621  0.00  0.00    -0.000 C 
ATOM     12  C   UNL     1      -0.022   2.611  -1.557  0.00  0.00    -0.000 C 
ATOM     13  C   UNL     1      -0.145   3.670  -0.658  0.00  0.00    -0.000 C 
ENDBRANCH   1   8
BRANCH   1  14
ATOM     14  O   UNL     1      -1.097  -0.454   1.920  0.00  0.00    -0.370 OA
ATOM     15  H   UNL     1      -1.365  -1.348   2.182  0.00  0.00    +0.212 HD
ENDBRANCH   1  14
BRANCH   1  17
ATOM     16  O   UNL     1      -0.728  -2.345  -0.653  0.00  0.00    -0.247 OA
ATOM     17  C   UNL     1      -0.380  -1.356  -0.020  0.00  0.00    +0.349 C 
BRANCH  17  18
ATOM     18  O   UNL     1       0.928  -1.051   0.280  0.00  0.00    -0.449 OA
BRANCH  18  19
ATOM     19  C   UNL     1       1.903  -1.492  -0.652  0.00  0.00    +0.188 C 
BRANCH  19  21
ATOM     20  N   UNL     1       3.780  -0.409   0.751  0.00  0.00    +0.391 N 
ATOM     21  C   UNL     1       3.075  -0.525  -0.628  0.00  0.00    -0.010 C 
ATOM     22  C   UNL     1       5.272  -0.137   0.415  0.00  0.00    -0.073 C 
ATOM     23  C   UNL     1       4.202  -0.892  -1.580  0.00  0.00    -0.019 C 
ATOM     24  C   UNL     1       5.330  -0.007  -1.097  0.00  0.00    -0.024 C 
ATOM     25  C   UNL     1       3.195   0.755   1.540  0.00  0.00    -0.096 C 
ATOM     26  C   UNL     1       3.692  -1.671   1.603  0.00  0.00    -0.096 C 
ENDBRANCH  19  21
ENDBRANCH  18  19
ENDBRANCH  17  18
ENDBRANCH   1  17
TORSDOF 7
