REMARK  Name = 56841872
REMARK  5 active torsions:
REMARK  status: ('A' for Active; 'I' for Inactive)
REMARK    1  A    between atoms: C_7  and  O_22
REMARK    2  A    between atoms: C_7  and  C_27
REMARK    3  A    between atoms: C_10  and  O_24
REMARK    4  A    between atoms: C_27  and  C_28
REMARK    5  A    between atoms: C_28  and  O_30
REMARK                            x       y       z     vdW  Elec       q    Type
REMARK                         _______ _______ _______ _____ _____    ______ ____
ROOT
ATOM      1  F   UNL     1       1.472   0.058  -1.298  0.00  0.00    -0.237 F 
ATOM      2  O   UNL     1       6.340   0.191  -1.618  0.00  0.00    -0.287 OA
ATOM      3  C   UNL     1      -1.678  -0.239   0.229  0.00  0.00    +0.032 C 
ATOM      4  C   UNL     1      -0.792   1.022   0.109  0.00  0.00    +0.005 C 
ATOM      5  C   UNL     1       0.599   0.855   0.740  0.00  0.00    +0.033 C 
ATOM      6  C   UNL     1       1.348  -0.324   0.029  0.00  0.00    +0.164 C 
ATOM      7  C   UNL     1      -2.984   0.302  -0.417  0.00  0.00    +0.141 C 
ATOM      8  C   UNL     1      -0.957  -1.377  -0.521  0.00  0.00    +0.035 C 
ATOM      9  C   UNL     1      -1.698   2.140   0.618  0.00  0.00    +0.003 C 
ATOM     10  C   UNL     1       0.485  -1.621  -0.019  0.00  0.00    +0.141 C 
ATOM     11  C   UNL     1       2.825  -0.494   0.562  0.00  0.00    +0.064 C 
ATOM     12  C   UNL     1      -3.104   1.745   0.126  0.00  0.00    +0.034 C 
ATOM     13  C   UNL     1       1.397   2.167   0.631  0.00  0.00    +0.007 C 
ATOM     14  C   UNL     1      -1.963  -0.649   1.702  0.00  0.00    +0.003 C 
ATOM     15  C   UNL     1       2.825   2.018   1.144  0.00  0.00    +0.023 C 
ATOM     16  C   UNL     1       3.514   0.872   0.450  0.00  0.00    -0.035 C 
ATOM     17  C   UNL     1       2.915  -0.954   2.035  0.00  0.00    +0.011 C 
ATOM     18  C   UNL     1       3.560  -1.548  -0.255  0.00  0.00    -0.017 C 
ATOM     19  C   UNL     1       4.638   1.085  -0.252  0.00  0.00    +0.034 C 
ATOM     20  C   UNL     1       4.678  -1.341  -0.957  0.00  0.00    +0.038 C 
ATOM     21  C   UNL     1       5.304  -0.007  -0.991  0.00  0.00    +0.195 C 
ENDROOT
BRANCH   7  22
ATOM     22  O   UNL     1      -2.877   0.337  -1.837  0.00  0.00    -0.380 OA
ATOM     23  H   UNL     1      -2.103   0.863  -2.090  0.00  0.00    +0.211 HD
ENDBRANCH   7  22
BRANCH  10  24
ATOM     24  O   UNL     1       0.454  -2.277   1.238  0.00  0.00    -0.382 OA
ATOM     25  H   UNL     1       1.361  -2.427   1.547  0.00  0.00    +0.210 HD
ENDBRANCH  10  24
BRANCH   7  27
ATOM     26  O   UNL     1      -4.115  -1.748  -0.007  0.00  0.00    -0.291 OA
ATOM     27  C   UNL     1      -4.203  -0.529  -0.155  0.00  0.00    +0.201 C 
BRANCH  27  28
ATOM     28  C   UNL     1      -5.539   0.199  -0.090  0.00  0.00    +0.170 C 
ATOM     29  C   UNL     1      -6.690  -0.769   0.117  0.00  0.00    +0.040 C 
BRANCH  28  30
ATOM     30  O   UNL     1      -5.753   0.887  -1.312  0.00  0.00    -0.377 OA
ATOM     31  H   UNL     1      -5.027   1.511  -1.463  0.00  0.00    +0.211 HD
ENDBRANCH  28  30
ENDBRANCH  27  28
ENDBRANCH   7  27
TORSDOF 5
