REMARK  Name = 6921791
REMARK  2 active torsions:
REMARK  status: ('A' for Active; 'I' for Inactive)
REMARK    1  A    between atoms: N_5  and  C_23
REMARK    2  A    between atoms: C_17  and  C_22
REMARK                            x       y       z     vdW  Elec       q    Type
REMARK                         _______ _______ _______ _____ _____    ______ ____
ROOT
ATOM      1  O   UNL     1       2.827  -2.349  -0.185  0.00  0.00    -0.286 OA
ATOM      2  N   UNL     1      -5.827   0.227   0.169  0.00  0.00    +0.386 N 
ATOM      3  N   UNL     1      -3.070  -0.297  -0.102  0.00  0.00    -0.248 N 
ATOM      4  N   UNL     1      -0.922   0.555   0.062  0.00  0.00    -0.322 NA
ATOM      5  N   UNL     1       1.337   1.412   0.229  0.00  0.00    -0.260 N 
ATOM      6  N   UNL     1      -1.320  -1.804  -0.236  0.00  0.00    -0.170 NA
ATOM      7  C   UNL     1      -5.293  -1.116   0.541  0.00  0.00    -0.059 C 
ATOM      8  C   UNL     1      -4.842   1.325   0.402  0.00  0.00    -0.059 C 
ATOM      9  C   UNL     1      -4.029  -1.396  -0.262  0.00  0.00    +0.079 C 
ATOM     10  C   UNL     1      -3.589   1.042  -0.413  0.00  0.00    +0.079 C 
ATOM     11  C   UNL     1      -1.712  -0.527  -0.092  0.00  0.00    +0.149 C 
ATOM     12  C   UNL     1       0.418   0.342   0.073  0.00  0.00    +0.204 C 
ATOM     13  C   UNL     1       0.921  -0.956  -0.070  0.00  0.00    +0.104 C 
ATOM     14  C   UNL     1       0.012  -1.990  -0.221  0.00  0.00    +0.119 C 
ATOM     15  C   UNL     1       2.695   1.162   0.237  0.00  0.00    +0.077 C 
ATOM     16  C   UNL     1       2.379  -1.217  -0.061  0.00  0.00    +0.209 C 
ATOM     17  C   UNL     1       3.265  -0.039   0.107  0.00  0.00    +0.134 C 
ATOM     18  H   UNL     1      -6.660   0.412   0.727  0.00  0.00    -0.084 HD
ATOM     19  H   UNL     1      -6.037   0.208  -0.829  0.00  0.00    -0.084 HD
ENDROOT
BRANCH  17  22
ATOM     20  O   UNL     1       5.234  -1.315   0.008  0.00  0.00    -0.240 OA
ATOM     21  O   UNL     1       5.386   0.951   0.287  0.00  0.00    -0.240 OA
ATOM     22  C   UNL     1       4.772  -0.144   0.137  0.00  0.00    +0.392 C 
ENDBRANCH  17  22
BRANCH   5  23
ATOM     23  C   UNL     1       0.762   2.743   0.374  0.00  0.00    +0.098 C 
ATOM     24  C   UNL     1       0.596   3.392  -0.986  0.00  0.00    +0.024 C 
ENDBRANCH   5  23
TORSDOF 2
