REMARK  Name = 6337
REMARK  0 active torsions:
REMARK  status: ('A' for Active; 'I' for Inactive)
REMARK                            x       y       z     vdW  Elec       q    Type
REMARK                         _______ _______ _______ _____ _____    ______ ____
ROOT
ATOM      1 CL   UNL     1       1.417   0.265   0.000  0.00  0.00    -0.114 Cl
ATOM      2  C   UNL     1      -0.126  -0.617   0.000  0.00  0.00    +0.095 C 
ATOM      3  C   UNL     1      -1.290   0.351   0.000  0.00  0.00    +0.019 C 
ENDROOT
TORSDOF 0
