REMARK  Name = 68876
REMARK  10 active torsions:
REMARK  status: ('A' for Active; 'I' for Inactive)
REMARK    1  A    between atoms: C_4  and  C_21
REMARK    2  A    between atoms: C_12  and  O_14
REMARK    3  A    between atoms: O_14  and  C_15
REMARK    4  A    between atoms: C_15  and  C_17
REMARK    5  A    between atoms: C_17  and  O_18
REMARK    6  A    between atoms: O_18  and  C_19
REMARK    7  A    between atoms: C_21  and  C_22
REMARK    8  A    between atoms: C_22  and  N_23
REMARK    9  A    between atoms: N_23  and  C_25
REMARK   10  A    between atoms: N_23  and  C_27
REMARK                            x       y       z     vdW  Elec       q    Type
REMARK                         _______ _______ _______ _____ _____    ______ ____
ROOT
ATOM      1 CL   UNL     1       2.345   2.347  -0.854  0.00  0.00    -0.076 Cl
ATOM      2  O   UNL     1      -0.492   1.774  -0.498  0.00  0.00    -0.420 OA
ATOM      3  O   UNL     1      -2.555   2.433  -1.177  0.00  0.00    -0.245 OA
ATOM      4  C   UNL     1      -2.485   0.667   0.421  0.00  0.00    +0.048 A 
ATOM      5  C   UNL     1      -1.720  -0.168   1.156  0.00  0.00    -0.017 A 
ATOM      6  C   UNL     1      -0.249  -0.031   1.115  0.00  0.00    +0.032 A 
ATOM      7  C   UNL     1       0.314   0.936   0.288  0.00  0.00    +0.162 A 
ATOM      8  C   UNL     1      -1.874   1.692  -0.475  0.00  0.00    +0.341 A 
ATOM      9  C   UNL     1      -2.279  -1.268   2.025  0.00  0.00    +0.031 C 
ATOM     10  C   UNL     1       0.633  -0.816   1.875  0.00  0.00    +0.006 C 
ATOM     11  C   UNL     1       1.694   1.132   0.191  0.00  0.00    +0.126 C 
ATOM     12  C   UNL     1       2.549   0.341   0.948  0.00  0.00    +0.153 C 
ATOM     13  C   UNL     1       2.019  -0.633   1.790  0.00  0.00    +0.038 C 
ENDROOT
BRANCH  12  14
ATOM     14  O   UNL     1       3.902   0.489   0.888  0.00  0.00    -0.463 OA
BRANCH  14  15
ATOM     15  C   UNL     1       4.660  -0.641   0.463  0.00  0.00    +0.314 C 
BRANCH  15  17
ATOM     16  O   UNL     1       6.210   1.016  -0.390  0.00  0.00    -0.246 OA
ATOM     17  C   UNL     1       5.914  -0.159  -0.217  0.00  0.00    +0.362 C 
BRANCH  17  18
ATOM     18  O   UNL     1       6.654  -1.240  -0.603  0.00  0.00    -0.446 OA
BRANCH  18  19
ATOM     19  C   UNL     1       7.885  -0.938  -1.268  0.00  0.00    +0.209 C 
ATOM     20  C   UNL     1       8.581  -2.232  -1.628  0.00  0.00    +0.051 C 
ENDBRANCH  18  19
ENDBRANCH  17  18
ENDBRANCH  15  17
ENDBRANCH  14  15
ENDBRANCH  12  14
BRANCH   4  21
ATOM     21  C   UNL     1      -3.992   0.677   0.417  0.00  0.00    +0.010 C 
BRANCH  21  22
ATOM     22  C   UNL     1      -4.532  -0.261  -0.650  0.00  0.00    -0.072 C 
BRANCH  22  23
ATOM     23  N   UNL     1      -5.990  -0.237  -0.632  0.00  0.00    +0.387 N 
ATOM     24  H   UNL     1      -6.291   0.723  -0.463  0.00  0.00    -0.080 HD
BRANCH  23  25
ATOM     25  C   UNL     1      -6.528  -0.672  -1.923  0.00  0.00    -0.077 C 
ATOM     26  C   UNL     1      -6.139  -2.110  -2.222  0.00  0.00    -0.025 C 
ENDBRANCH  23  25
BRANCH  23  27
ATOM     27  C   UNL     1      -6.506  -1.083   0.445  0.00  0.00    -0.077 C 
ATOM     28  C   UNL     1      -8.022  -1.017   0.517  0.00  0.00    -0.025 C 
ENDBRANCH  23  27
ENDBRANCH  22  23
ENDBRANCH  21  22
ENDBRANCH   4  21
TORSDOF 10
