REMARK  Name = 24892842
REMARK  9 active torsions:
REMARK  status: ('A' for Active; 'I' for Inactive)
REMARK    1  A    between atoms: C_1  and  C_7
REMARK    2  A    between atoms: C_1  and  O_13
REMARK    3  A    between atoms: C_2  and  C_16
REMARK    4  A    between atoms: C_16  and  O_17
REMARK    5  A    between atoms: O_17  and  C_18
REMARK    6  A    between atoms: C_18  and  C_20
REMARK    7  A    between atoms: C_20  and  N_21
REMARK    8  A    between atoms: N_21  and  C_23
REMARK    9  A    between atoms: N_21  and  C_25
REMARK                            x       y       z     vdW  Elec       q    Type
REMARK                         _______ _______ _______ _____ _____    ______ ____
ROOT
ATOM      1  C   UNL     1       2.271  -0.799  -0.413  0.00  0.00    +0.098 C 
ATOM      2  C   UNL     1       0.994  -1.228   0.345  0.00  0.00    +0.124 C 
ATOM      3  C   UNL     1       3.488  -1.565   0.143  0.00  0.00    +0.027 C 
ATOM      4  C   UNL     1       0.788  -2.747   0.309  0.00  0.00    +0.013 C 
ATOM      5  C   UNL     1       3.282  -3.082   0.125  0.00  0.00    +0.002 C 
ATOM      6  C   UNL     1       2.005  -3.487   0.853  0.00  0.00    +0.001 C 
ENDROOT
BRANCH   1   7
ATOM      7  C   UNL     1       2.525   0.703  -0.310  0.00  0.00    +0.025 C 
ATOM      8  C   UNL     1       2.706   1.124   1.155  0.00  0.00    +0.002 C 
ATOM      9  C   UNL     1       3.746   1.105  -1.149  0.00  0.00    +0.002 C 
ATOM     10  C   UNL     1       3.014   2.614   1.279  0.00  0.00    +0.000 C 
ATOM     11  C   UNL     1       4.053   2.595  -1.020  0.00  0.00    +0.000 C 
ATOM     12  C   UNL     1       4.223   3.011   0.437  0.00  0.00    +0.000 C 
ENDBRANCH   1   7
BRANCH   1  13
ATOM     13  O   UNL     1       2.160  -1.139  -1.799  0.00  0.00    -0.386 OA
ATOM     14  H   UNL     1       1.402  -0.675  -2.186  0.00  0.00    +0.210 HD
ENDBRANCH   1  13
BRANCH   2  16
ATOM     15  O   UNL     1      -0.629  -0.698  -1.357  0.00  0.00    -0.250 OA
ATOM     16  C   UNL     1      -0.235  -0.564  -0.206  0.00  0.00    +0.319 C 
BRANCH  16  17
ATOM     17  O   UNL     1      -0.820   0.193   0.766  0.00  0.00    -0.454 OA
BRANCH  17  18
ATOM     18  C   UNL     1      -2.009   0.886   0.373  0.00  0.00    +0.148 C 
ATOM     19  C   UNL     1      -2.061   2.192   1.156  0.00  0.00    +0.045 C 
BRANCH  18  20
ATOM     20  C   UNL     1      -3.214  -0.020   0.636  0.00  0.00    -0.033 C 
BRANCH  20  21
ATOM     21  N   UNL     1      -4.468   0.606   0.238  0.00  0.00    +0.389 N 
ATOM     22  H   UNL     1      -4.449   1.578   0.547  0.00  0.00    -0.080 HD
BRANCH  21  23
ATOM     23  C   UNL     1      -5.605  -0.063   0.875  0.00  0.00    -0.077 C 
ATOM     24  C   UNL     1      -5.708  -1.512   0.431  0.00  0.00    -0.025 C 
ENDBRANCH  21  23
BRANCH  21  25
ATOM     25  C   UNL     1      -4.618   0.583  -1.218  0.00  0.00    -0.077 C 
ATOM     26  C   UNL     1      -5.890   1.293  -1.651  0.00  0.00    -0.025 C 
ENDBRANCH  21  25
ENDBRANCH  20  21
ENDBRANCH  18  20
ENDBRANCH  17  18
ENDBRANCH  16  17
ENDBRANCH   2  16
TORSDOF 9
