REMARK  Name = 54718859
REMARK  7 active torsions:
REMARK  status: ('A' for Active; 'I' for Inactive)
REMARK    1  A    between atoms: C_6  and  C_23
REMARK    2  A    between atoms: C_8  and  C_15
REMARK    3  A    between atoms: C_9  and  O_21
REMARK    4  A    between atoms: N_14  and  C_17
REMARK    5  A    between atoms: C_17  and  C_18
REMARK    6  A    between atoms: C_18  and  O_19
REMARK    7  A    between atoms: C_23  and  C_25
REMARK                            x       y       z     vdW  Elec       q    Type
REMARK                         _______ _______ _______ _____ _____    ______ ____
ROOT
ATOM      1  O   UNL     1      -2.663   2.957  -0.063  0.00  0.00    -0.267 OA
ATOM      2  N   UNL     1      -0.715   1.823  -0.608  0.00  0.00    -0.292 N 
ATOM      3  N   UNL     1      -0.106  -1.825  -0.458  0.00  0.00    -0.240 NA
ATOM      4  C   UNL     1      -0.030   0.579  -0.717  0.00  0.00    +0.083 A 
ATOM      5  C   UNL     1      -0.688  -0.600  -0.381  0.00  0.00    +0.131 A 
ATOM      6  C   UNL     1       1.912  -0.772  -1.238  0.00  0.00    +0.003 C 
ATOM      7  C   UNL     1       1.297   0.473  -1.152  0.00  0.00    +0.017 C 
ATOM      8  C   UNL     1      -2.731   0.614   0.186  0.00  0.00    +0.144 A 
ATOM      9  C   UNL     1      -2.080  -0.559   0.082  0.00  0.00    +0.162 A 
ATOM     10  C   UNL     1      -2.038   1.900  -0.171  0.00  0.00    +0.268 A 
ATOM     11  C   UNL     1       1.174  -1.882  -0.883  0.00  0.00    +0.095 C 
ATOM     12  C   UNL     1      -0.009   3.052  -0.964  0.00  0.00    +0.134 C 
ENDROOT
BRANCH   8  15
ATOM     13  O   UNL     1      -4.431   1.290   1.659  0.00  0.00    -0.270 OA
ATOM     14  N   UNL     1      -4.983  -0.058  -0.162  0.00  0.00    -0.298 N 
ATOM     15  C   UNL     1      -4.131   0.661   0.651  0.00  0.00    +0.254 C 
ATOM     16  H   UNL     1      -4.607  -0.520  -0.946  0.00  0.00    +0.150 HD
BRANCH  14  17
ATOM     17  C   UNL     1      -6.403  -0.164   0.086  0.00  0.00    +0.122 C 
BRANCH  17  18
ATOM     18  C   UNL     1      -6.728  -1.357   0.967  0.00  0.00    +0.158 C 
BRANCH  18  19
ATOM     19  O   UNL     1      -6.324  -2.552   0.311  0.00  0.00    -0.380 OA
ATOM     20  H   UNL     1      -6.531  -3.315   0.873  0.00  0.00    +0.211 HD
ENDBRANCH  18  19
ENDBRANCH  17  18
ENDBRANCH  14  17
ENDBRANCH   8  15
BRANCH   9  21
ATOM     21  O   UNL     1      -2.599  -1.802   0.378  0.00  0.00    -0.504 OA
ATOM     22  H   UNL     1      -2.069  -2.568   0.275  0.00  0.00    +0.292 HD
ENDBRANCH   9  21
BRANCH   6  23
ATOM     23  C   UNL     1       3.321  -0.902  -1.699  0.00  0.00    +0.054 C 
BRANCH  23  25
ATOM     24  F   UNL     1       7.157   0.426   2.225  0.00  0.00    -0.204 F 
ATOM     25  C   UNL     1       4.352  -0.545  -0.644  0.00  0.00    -0.018 C 
ATOM     26  C   UNL     1       5.010  -1.555   0.058  0.00  0.00    -0.002 C 
ATOM     27  C   UNL     1       4.641   0.793  -0.377  0.00  0.00    -0.002 C 
ATOM     28  C   UNL     1       5.958  -1.227   1.027  0.00  0.00    +0.029 C 
ATOM     29  C   UNL     1       5.589   1.121   0.592  0.00  0.00    +0.029 C 
ATOM     30  C   UNL     1       6.247   0.111   1.294  0.00  0.00    +0.140 C 
ENDBRANCH  23  25
ENDBRANCH   6  23
TORSDOF 7
