REMARK  Name = 4766
REMARK  4 active torsions:
REMARK  status: ('A' for Active; 'I' for Inactive)
REMARK    1  A    between atoms: C_5  and  C_12
REMARK    2  A    between atoms: C_5  and  C_20
REMARK    3  A    between atoms: C_17  and  O_18
REMARK    4  A    between atoms: C_25  and  O_26
REMARK                            x       y       z     vdW  Elec       q    Type
REMARK                         _______ _______ _______ _____ _____    ______ ____
ROOT
ATOM      1  S   UNL     1      -0.221   2.220  -1.769  0.00  0.00    +0.013 S 
ATOM      2  O   UNL     1      -0.071   0.592  -1.631  0.00  0.00    -0.231 OA
ATOM      3  O   UNL     1      -1.591   2.547  -2.100  0.00  0.00    -0.067 OA
ATOM      4  O   UNL     1       0.917   2.743  -2.493  0.00  0.00    -0.067 OA
ATOM      5  C   UNL     1       0.012   0.091  -0.253  0.00  0.00    +0.176 C 
ATOM      6  C   UNL     1       0.142   1.351   0.608  0.00  0.00    +0.030 C 
ATOM      7  C   UNL     1       0.014   2.551  -0.089  0.00  0.00    +0.109 C 
ATOM      8  C   UNL     1       0.381   1.417   1.977  0.00  0.00    -0.000 C 
ATOM      9  C   UNL     1       0.107   3.802   0.484  0.00  0.00    +0.019 C 
ATOM     10  C   UNL     1       0.476   2.669   2.598  0.00  0.00    -0.000 C 
ATOM     11  C   UNL     1       0.339   3.853   1.856  0.00  0.00    +0.001 C 
ENDROOT
BRANCH   5  12
ATOM     12  C   UNL     1      -1.295  -0.700  -0.095  0.00  0.00    +0.012 C 
ATOM     13  C   UNL     1      -1.589  -1.746  -0.972  0.00  0.00    +0.002 C 
ATOM     14  C   UNL     1      -2.191  -0.374   0.924  0.00  0.00    +0.002 C 
ATOM     15  C   UNL     1      -2.777  -2.463  -0.829  0.00  0.00    +0.036 C 
ATOM     16  C   UNL     1      -3.378  -1.092   1.067  0.00  0.00    +0.036 C 
ATOM     17  C   UNL     1      -3.671  -2.136   0.191  0.00  0.00    +0.134 C 
BRANCH  17  18
ATOM     18  O   UNL     1      -4.829  -2.838   0.330  0.00  0.00    -0.506 OA
ATOM     19  H   UNL     1      -5.026  -3.540  -0.259  0.00  0.00    +0.292 HD
ENDBRANCH  17  18
ENDBRANCH   5  12
BRANCH   5  20
ATOM     20  C   UNL     1       1.275  -0.775  -0.123  0.00  0.00    +0.012 C 
ATOM     21  C   UNL     1       1.263  -1.912   0.686  0.00  0.00    +0.002 C 
ATOM     22  C   UNL     1       2.436  -0.426  -0.815  0.00  0.00    +0.002 C 
ATOM     23  C   UNL     1       2.410  -2.698   0.804  0.00  0.00    +0.036 C 
ATOM     24  C   UNL     1       3.583  -1.212  -0.697  0.00  0.00    +0.036 C 
ATOM     25  C   UNL     1       3.570  -2.347   0.113  0.00  0.00    +0.134 C 
BRANCH  25  26
ATOM     26  O   UNL     1       4.687  -3.115   0.228  0.00  0.00    -0.506 OA
ATOM     27  H   UNL     1       4.678  -3.878   0.771  0.00  0.00    +0.292 HD
ENDBRANCH  25  26
ENDBRANCH   5  20
TORSDOF 4
