REMARK  Name = 60172
REMARK  7 active torsions:
REMARK  status: ('A' for Active; 'I' for Inactive)
REMARK    1  A    between atoms: N_1  and  C_13
REMARK    2  A    between atoms: C_13  and  C_14
REMARK    3  A    between atoms: C_14  and  O_15
REMARK    4  A    between atoms: O_15  and  C_16
REMARK    5  A    between atoms: C_16  and  P_17
REMARK    6  A    between atoms: P_17  and  O_19
REMARK    7  A    between atoms: P_17  and  O_21
REMARK                            x       y       z     vdW  Elec       q    Type
REMARK                         _______ _______ _______ _____ _____    ______ ____
ROOT
ATOM      1  N   UNL     1       1.035   1.643   0.248  0.00  0.00    -0.269 N 
ATOM      2  N   UNL     1       2.680   1.126  -1.137  0.00  0.00    -0.242 NA
ATOM      3  N   UNL     1       0.762  -0.467   1.414  0.00  0.00    -0.228 NA
ATOM      4  N   UNL     1       2.342  -2.131   0.582  0.00  0.00    -0.229 NA
ATOM      5  C   UNL     1       1.331   0.347   0.512  0.00  0.00    +0.151 C 
ATOM      6  C   UNL     1       2.361   0.040  -0.362  0.00  0.00    +0.140 C 
ATOM      7  C   UNL     1       1.859   2.076  -0.742  0.00  0.00    +0.221 C 
ATOM      8  C   UNL     1       2.870  -1.254  -0.305  0.00  0.00    +0.143 C 
ATOM      9  C   UNL     1       1.336  -1.689   1.375  0.00  0.00    +0.253 C 
ATOM     10  N   UNL     1       3.917  -1.651  -1.155  0.00  0.00    -0.342 N 
ATOM     11  H   UNL     1       4.268  -2.570  -1.106  0.00  0.00    +0.144 HD
ATOM     12  H   UNL     1       4.298  -1.012  -1.799  0.00  0.00    +0.144 HD
ENDROOT
BRANCH   1  13
ATOM     13  C   UNL     1       0.008   2.446   0.908  0.00  0.00    +0.126 C 
BRANCH  13  14
ATOM     14  C   UNL     1      -1.341   2.356   0.209  0.00  0.00    +0.164 C 
BRANCH  14  15
ATOM     15  O   UNL     1      -1.804   1.012   0.233  0.00  0.00    -0.340 OA
BRANCH  15  16
ATOM     16  C   UNL     1      -3.064   0.882  -0.410  0.00  0.00    +0.258 C 
BRANCH  16  17
ATOM     17  P   UNL     1      -3.483  -0.841  -0.250  0.00  0.00    +0.367 P 
ATOM     18  O   UNL     1      -3.566  -1.340   1.162  0.00  0.00    -0.256 OA
BRANCH  17  19
ATOM     19  O   UNL     1      -2.393  -1.587  -1.181  0.00  0.00    -0.322 OA
ATOM     20  H   UNL     1      -2.546  -2.544  -1.155  0.00  0.00    +0.220 HD
ENDBRANCH  17  19
BRANCH  17  21
ATOM     21  O   UNL     1      -4.850  -0.969  -1.103  0.00  0.00    -0.322 OA
ATOM     22  H   UNL     1      -5.163  -1.887  -1.075  0.00  0.00    +0.220 HD
ENDBRANCH  17  21
ENDBRANCH  16  17
ENDBRANCH  15  16
ENDBRANCH  14  15
ENDBRANCH  13  14
ENDBRANCH   1  13
TORSDOF 7
