8590
  -OEChem-10061700313D

 46 47  0     1  0  0  0  0  0999 V2000
    0.5722   -0.9650    1.8260 O   0  0  0  0  0  0  0  0  0  0  0  0
    4.4160    0.5375    0.0471 N   0  0  0  0  0  0  0  0  0  0  0  0
   -0.1988   -0.1050   -0.0930 N   0  0  0  0  0  0  0  0  0  0  0  0
   -0.6872   -1.5418    1.6187 N   0  0  0  0  0  0  0  0  0  0  0  0
   -2.3694   -1.3026   -0.1495 C   0  0  1  0  0  0  0  0  0  0  0  0
    3.1465   -0.1884    0.0351 C   0  0  0  0  0  0  0  0  0  0  0  0
    2.0553    0.6007    0.7614 C   0  0  0  0  0  0  0  0  0  0  0  0
   -2.3133   -1.9610   -1.5664 C   0  0  0  0  0  0  0  0  0  0  0  0
   -1.0772   -0.9856    0.4680 C   0  0  0  0  0  0  0  0  0  0  0  0
   -3.2148   -0.0195   -0.1102 C   0  0  0  0  0  0  0  0  0  0  0  0
    5.4633   -0.2534   -0.5979 C   0  0  0  0  0  0  0  0  0  0  0  0
    4.2706    1.8322   -0.6173 C   0  0  0  0  0  0  0  0  0  0  0  0
    0.7478   -0.1521    0.7734 C   0  0  0  0  0  0  0  0  0  0  0  0
   -1.4536   -3.2202   -1.5743 C   0  0  0  0  0  0  0  0  0  0  0  0
    5.6282   -1.6030    0.0801 C   0  0  0  0  0  0  0  0  0  0  0  0
    5.5644    2.6267   -0.5605 C   0  0  0  0  0  0  0  0  0  0  0  0
   -3.8570    0.3024    1.0596 C   0  0  0  0  0  0  0  0  0  0  0  0
   -3.2893    0.7474   -1.2463 C   0  0  0  0  0  0  0  0  0  0  0  0
   -4.6240    1.4669    1.0955 C   0  0  0  0  0  0  0  0  0  0  0  0
   -4.0562    1.9120   -1.2102 C   0  0  0  0  0  0  0  0  0  0  0  0
   -4.7235    2.2716   -0.0393 C   0  0  0  0  0  0  0  0  0  0  0  0
   -2.8915   -2.0382    0.4821 H   0  0  0  0  0  0  0  0  0  0  0  0
    2.8270   -0.4171   -0.9909 H   0  0  0  0  0  0  0  0  0  0  0  0
    3.2303   -1.1435    0.5651 H   0  0  0  0  0  0  0  0  0  0  0  0
    1.8296    1.5520    0.2701 H   0  0  0  0  0  0  0  0  0  0  0  0
    2.3575    0.8236    1.7921 H   0  0  0  0  0  0  0  0  0  0  0  0
   -3.3277   -2.2022   -1.9062 H   0  0  0  0  0  0  0  0  0  0  0  0
   -1.8654   -1.2886   -2.3055 H   0  0  0  0  0  0  0  0  0  0  0  0
    5.2671   -0.4005   -1.6675 H   0  0  0  0  0  0  0  0  0  0  0  0
    6.4340    0.2445   -0.5052 H   0  0  0  0  0  0  0  0  0  0  0  0
    3.9426    1.7273   -1.6590 H   0  0  0  0  0  0  0  0  0  0  0  0
    3.5421    2.4632   -0.1016 H   0  0  0  0  0  0  0  0  0  0  0  0
   -1.8156   -3.9464   -0.8396 H   0  0  0  0  0  0  0  0  0  0  0  0
   -0.4053   -2.9960   -1.3541 H   0  0  0  0  0  0  0  0  0  0  0  0
   -1.4908   -3.6921   -2.5615 H   0  0  0  0  0  0  0  0  0  0  0  0
    5.6785   -1.5092    1.1704 H   0  0  0  0  0  0  0  0  0  0  0  0
    4.8316   -2.3055   -0.1836 H   0  0  0  0  0  0  0  0  0  0  0  0
    6.5667   -2.0641   -0.2488 H   0  0  0  0  0  0  0  0  0  0  0  0
    5.3707    3.6654   -0.8519 H   0  0  0  0  0  0  0  0  0  0  0  0
    6.3201    2.2460   -1.2544 H   0  0  0  0  0  0  0  0  0  0  0  0
    5.9860    2.6457    0.4505 H   0  0  0  0  0  0  0  0  0  0  0  0
   -3.7846   -0.3192    1.9465 H   0  0  0  0  0  0  0  0  0  0  0  0
   -2.7713    0.5226   -2.1692 H   0  0  0  0  0  0  0  0  0  0  0  0
   -5.1434    1.7473    2.0072 H   0  0  0  0  0  0  0  0  0  0  0  0
   -4.1298    2.5423   -2.0918 H   0  0  0  0  0  0  0  0  0  0  0  0
   -5.3195    3.1791   -0.0109 H   0  0  0  0  0  0  0  0  0  0  0  0
  1  4  1  0  0  0  0
  1 13  1  0  0  0  0
  2  6  1  0  0  0  0
  2 11  1  0  0  0  0
  2 12  1  0  0  0  0
  3  9  1  0  0  0  0
  3 13  2  0  0  0  0
  4  9  2  0  0  0  0
  5  8  1  0  0  0  0
  5  9  1  0  0  0  0
  5 10  1  0  0  0  0
  5 22  1  0  0  0  0
  6  7  1  0  0  0  0
  6 23  1  0  0  0  0
  6 24  1  0  0  0  0
  7 13  1  0  0  0  0
  7 25  1  0  0  0  0
  7 26  1  0  0  0  0
  8 14  1  0  0  0  0
  8 27  1  0  0  0  0
  8 28  1  0  0  0  0
 10 17  2  0  0  0  0
 10 18  1  0  0  0  0
 11 15  1  0  0  0  0
 11 29  1  0  0  0  0
 11 30  1  0  0  0  0
 12 16  1  0  0  0  0
 12 31  1  0  0  0  0
 12 32  1  0  0  0  0
 14 33  1  0  0  0  0
 14 34  1  0  0  0  0
 14 35  1  0  0  0  0
 15 36  1  0  0  0  0
 15 37  1  0  0  0  0
 15 38  1  0  0  0  0
 16 39  1  0  0  0  0
 16 40  1  0  0  0  0
 16 41  1  0  0  0  0
 17 19  1  0  0  0  0
 17 42  1  0  0  0  0
 18 20  2  0  0  0  0
 18 43  1  0  0  0  0
 19 21  2  0  0  0  0
 19 44  1  0  0  0  0
 20 21  1  0  0  0  0
 20 45  1  0  0  0  0
 21 46  1  0  0  0  0
M  END
> <DATABASE_ID>
DB13819

> <DATABASE_NAME>
drugbank

> <ORIGINAL_SOURCE>
PUBCHEM

> <ORIGINAL_SOURCE_URL>
https://pubchem.ncbi.nlm.nih.gov/rest/pug/compound/inchikey/OLTAWOVKGWWERU-UHFFFAOYSA-N/SDF?record_type=3d

> <SMILES>
CCC(C1=NOC(CCN(CC)CC)=N1)C1=CC=CC=C1

> <INCHI_IDENTIFIER>
InChI=1S/C17H25N3O/c1-4-15(14-10-8-7-9-11-14)17-18-16(21-19-17)12-13-20(5-2)6-3/h7-11,15H,4-6,12-13H2,1-3H3

> <INCHI_KEY>
OLTAWOVKGWWERU-UHFFFAOYSA-N

> <FORMULA>
C17H25N3O

> <MOLECULAR_WEIGHT>
287.407

> <EXACT_MASS>
287.199762437

> <JCHEM_ACCEPTOR_COUNT>
3

> <JCHEM_ATOM_COUNT>
46

> <JCHEM_AVERAGE_POLARIZABILITY>
34.229911943895175

> <JCHEM_BIOAVAILABILITY>
1

> <JCHEM_DONOR_COUNT>
0

> <JCHEM_FORMAL_CHARGE>
0

> <JCHEM_GHOSE_FILTER>
1

> <JCHEM_IUPAC>
diethyl({2-[3-(1-phenylpropyl)-1,2,4-oxadiazol-5-yl]ethyl})amine

> <ALOGPS_LOGP>
3.79

> <JCHEM_LOGP>
4.057369736000001

> <ALOGPS_LOGS>
-3.51

> <JCHEM_MDDR_LIKE_RULE>
0

> <JCHEM_NUMBER_OF_RINGS>
2

> <JCHEM_PHYSIOLOGICAL_CHARGE>
1

> <JCHEM_PKA_STRONGEST_BASIC>
8.96939585220881

> <JCHEM_POLAR_SURFACE_AREA>
42.160000000000004

> <JCHEM_REFRACTIVITY>
87.2622

> <JCHEM_ROTATABLE_BOND_COUNT>
8

> <JCHEM_RULE_OF_FIVE>
1

> <ALOGPS_SOLUBILITY>
8.82e-02 g/l

> <JCHEM_TRADITIONAL_IUPAC>
toness

> <JCHEM_VEBER_RULE>
0

> <DRUGBANK_ID>
DB13819

> <DRUG_GROUPS>
experimental

> <GENERIC_NAME>
Proxazole

$$$$
