REMARK  Name = 43814
REMARK  3 active torsions:
REMARK  status: ('A' for Active; 'I' for Inactive)
REMARK    1  A    between atoms: C_3  and  C_8
REMARK    2  A    between atoms: C_5  and  C_7
REMARK    3  A    between atoms: C_8  and  O_9
REMARK                            x       y       z     vdW  Elec       q    Type
REMARK                         _______ _______ _______ _____ _____    ______ ____
ROOT
ATOM      1  O   UNL     1       0.011  -0.446  -0.369  0.00  0.00    -0.327 OA
ATOM      2  O   UNL     1       0.548   1.803   0.043  0.00  0.00    -0.327 OA
ATOM      3  C   UNL     1      -1.073   0.198   0.305  0.00  0.00    +0.176 C 
ATOM      4  C   UNL     1      -0.870   1.655  -0.033  0.00  0.00    +0.177 C 
ATOM      5  C   UNL     1       1.057   0.535  -0.393  0.00  0.00    +0.246 C 
ENDROOT
BRANCH   5   7
ATOM      6  I   UNL     1       3.013  -1.756  -0.111  0.00  0.00    -0.069 I 
ATOM      7  C   UNL     1       2.189   0.107   0.520  0.00  0.00    +0.124 C 
ENDBRANCH   5   7
BRANCH   3   8
ATOM      8  C   UNL     1      -2.400  -0.363  -0.161  0.00  0.00    +0.169 C 
BRANCH   8   9
ATOM      9  O   UNL     1      -2.475  -1.734   0.200  0.00  0.00    -0.379 OA
ATOM     10  H   UNL     1      -3.323  -2.100  -0.096  0.00  0.00    +0.211 HD
ENDBRANCH   8   9
ENDBRANCH   3   8
TORSDOF 3
