REMARK  Name = 6381821
REMARK  4 active torsions:
REMARK  status: ('A' for Active; 'I' for Inactive)
REMARK    1  A    between atoms: N_2  and  C_19
REMARK    2  A    between atoms: N_3  and  C_10
REMARK    3  A    between atoms: N_3  and  N_13
REMARK    4  A    between atoms: C_5  and  O_22
REMARK                            x       y       z     vdW  Elec       q    Type
REMARK                         _______ _______ _______ _____ _____    ______ ____
ROOT
ATOM      1  O   UNL     1       1.701  -1.682   0.106  0.00  0.00    -0.289 OA
ATOM      2  N   UNL     1      -2.867  -0.162   0.017  0.00  0.00    -0.310 N 
ATOM      3  C   UNL     1      -3.467   1.122  -0.343  0.00  0.00    +0.124 C 
ATOM      4  C   UNL     1      -2.295   2.114  -0.234  0.00  0.00    +0.153 C 
ATOM      5  C   UNL     1      -1.487  -0.128  -0.013  0.00  0.00    +0.031 C 
ATOM      6  C   UNL     1      -1.066   1.246  -0.217  0.00  0.00    +0.017 C 
ATOM      7  C   UNL     1      -0.602  -1.126   0.098  0.00  0.00    +0.111 C 
ATOM      8  C   UNL     1       0.201   1.636  -0.378  0.00  0.00    +0.020 C 
ATOM      9  C   UNL     1       1.255   0.601  -0.300  0.00  0.00    +0.122 C 
ATOM     10  C   UNL     1       0.842  -0.822  -0.015  0.00  0.00    +0.195 C 
ENDROOT
BRANCH   2  11
ATOM     11  C   UNL     1      -3.701  -1.342   0.081  0.00  0.00    +0.073 C 
ATOM     12  C   UNL     1      -3.397  -2.103   1.364  0.00  0.00    +0.021 C 
ATOM     13  C   UNL     1      -3.454  -2.207  -1.149  0.00  0.00    +0.021 C 
ENDBRANCH   2  11
BRANCH   4  14
ATOM     14  O   UNL     1      -2.392   2.841   0.987  0.00  0.00    -0.378 OA
ATOM     15  H   UNL     1      -3.186   3.398   0.970  0.00  0.00    +0.211 HD
ENDBRANCH   4  14
BRANCH   9  16
ATOM     16  N   UNL     1       2.515   0.836  -0.457  0.00  0.00    -0.144 NA
BRANCH  16  18
ATOM     17  O   UNL     1       5.105   0.927   0.468  0.00  0.00    -0.251 OA
ATOM     18  N   UNL     1       3.287  -0.267  -0.341  0.00  0.00    -0.200 N 
ATOM     19  N   UNL     1       5.240  -1.349   0.193  0.00  0.00    -0.312 N 
ATOM     20  C   UNL     1       4.581  -0.135   0.133  0.00  0.00    +0.315 C 
ATOM     21  H   UNL     1       2.935  -1.152  -0.591  0.00  0.00    +0.176 HD
ATOM     22  H   UNL     1       6.169  -1.390   0.514  0.00  0.00    +0.147 HD
ATOM     23  H   UNL     1       4.779  -2.173  -0.086  0.00  0.00    +0.147 HD
ENDBRANCH  16  18
ENDBRANCH   9  16
TORSDOF 4
