REMARK  Name = 6257
REMARK  4 active torsions:
REMARK  status: ('A' for Active; 'I' for Inactive)
REMARK    1  A    between atoms: O_1  and  C_2
REMARK    2  A    between atoms: O_1  and  C_10
REMARK    3  A    between atoms: C_3  and  O_8
REMARK    4  A    between atoms: C_10  and  C_14
REMARK                            x       y       z     vdW  Elec       q    Type
REMARK                         _______ _______ _______ _____ _____    ______ ____
ROOT
ATOM      1  O   UNL     1       0.068  -0.520  -0.456  0.00  0.00    -0.468 OA
ENDROOT
BRANCH   1   2
ATOM      2  C   UNL     1      -1.290  -0.476  -0.259  0.00  0.00    +0.172 C 
ATOM      3  C   UNL     1      -1.931   0.744  -0.085  0.00  0.00    +0.172 C 
ATOM      4  C   UNL     1      -2.008  -1.666  -0.237  0.00  0.00    +0.040 C 
ATOM      5  C   UNL     1      -3.311   0.776   0.115  0.00  0.00    +0.040 C 
ATOM      6  C   UNL     1      -3.388  -1.634  -0.037  0.00  0.00    +0.003 C 
ATOM      7  C   UNL     1      -4.039  -0.413   0.139  0.00  0.00    +0.003 C 
BRANCH   3   8
ATOM      8  O   UNL     1      -1.229   1.912  -0.104  0.00  0.00    -0.468 OA
ATOM      9  C   UNL     1      -1.970   3.116   0.083  0.00  0.00    +0.253 C 
ENDBRANCH   3   8
ENDBRANCH   1   2
BRANCH   1  10
ATOM     10  C   UNL     1       0.748  -1.674   0.008  0.00  0.00    +0.251 C 
BRANCH  10  14
ATOM     11  O   UNL     1       2.821  -0.685  -0.741  0.00  0.00    -0.433 OA
ATOM     12  O   UNL     1       4.334   1.015  -1.008  0.00  0.00    -0.226 OA
ATOM     13  N   UNL     1       3.258   0.632   1.017  0.00  0.00    -0.267 N 
ATOM     14  C   UNL     1       2.162  -1.283   0.393  0.00  0.00    +0.233 C 
ATOM     15  C   UNL     1       2.220  -0.229   1.478  0.00  0.00    +0.140 C 
ATOM     16  C   UNL     1       3.555   0.388  -0.304  0.00  0.00    +0.402 C 
ATOM     17  H   UNL     1       3.704   1.312   1.572  0.00  0.00    +0.153 HD
ENDBRANCH  10  14
ENDBRANCH   1  10
TORSDOF 4
