REMARK  Name = 65784
REMARK  3 active torsions:
REMARK  status: ('A' for Active; 'I' for Inactive)
REMARK    1  A    between atoms: C_3  and  C_12
REMARK    2  A    between atoms: C_5  and  O_9
REMARK    3  A    between atoms: C_12  and  O_13
REMARK                            x       y       z     vdW  Elec       q    Type
REMARK                         _______ _______ _______ _____ _____    ______ ____
ROOT
ATOM      1  O   UNL     1       2.616   0.194   0.580  0.00  0.00    -0.275 OA
ATOM      2  N   UNL     1       0.383   0.585   0.113  0.00  0.00    -0.269 N 
ATOM      3  C   UNL     1      -0.125  -0.652   0.690  0.00  0.00    +0.177 C 
ATOM      4  C   UNL     1      -1.619  -0.411   0.857  0.00  0.00    +0.062 C 
ATOM      5  C   UNL     1      -1.954   0.563  -0.273  0.00  0.00    +0.132 C 
ATOM      6  C   UNL     1      -0.705   1.429  -0.376  0.00  0.00    +0.123 C 
ATOM      7  C   UNL     1       1.724   0.933   0.161  0.00  0.00    +0.227 C 
ATOM      8  C   UNL     1       2.057   2.311  -0.355  0.00  0.00    +0.095 C 
ENDROOT
BRANCH   5   9
ATOM      9  O   UNL     1      -3.097   1.327   0.055  0.00  0.00    -0.383 OA
ATOM     10  H   UNL     1      -3.870   0.744   0.112  0.00  0.00    +0.210 HD
ENDBRANCH   5   9
BRANCH   3  12
ATOM     11  O   UNL     1       0.221  -1.604  -1.505  0.00  0.00    -0.248 OA
ATOM     12  C   UNL     1       0.160  -1.747  -0.293  0.00  0.00    +0.332 C 
BRANCH  12  13
ATOM     13  O   UNL     1       0.339  -2.929   0.346  0.00  0.00    -0.479 OA
ATOM     14  H   UNL     1       0.278  -2.970   1.280  0.00  0.00    +0.295 HD
ENDBRANCH  12  13
ENDBRANCH   3  12
TORSDOF 3
