REMARK  Name = 5603
REMARK  5 active torsions:
REMARK  status: ('A' for Active; 'I' for Inactive)
REMARK    1  A    between atoms: C_1  and  N_3
REMARK    2  A    between atoms: C_1  and  C_7
REMARK    3  A    between atoms: C_7  and  C_8
REMARK    4  A    between atoms: C_8  and  C_9
REMARK    5  A    between atoms: C_9  and  C_10
REMARK                            x       y       z     vdW  Elec       q    Type
REMARK                         _______ _______ _______ _____ _____    ______ ____
ROOT
ATOM      1  C   UNL     1       2.236   0.024   0.321  0.00  0.00    -0.066 C 
ATOM      2  C   UNL     1       3.390  -0.909  -0.043  0.00  0.00    -0.024 C 
ENDROOT
BRANCH   1   3
ATOM      3  N   UNL     1       2.458   1.338  -0.285  0.00  0.00    +0.382 N 
ATOM      4  H   UNL     1       1.687   1.960  -0.041  0.00  0.00    -0.089 HD
ATOM      5  H   UNL     1       2.509   1.241  -1.299  0.00  0.00    -0.089 HD
ATOM      6  H   UNL     1       3.333   1.729   0.064  0.00  0.00    -0.089 HD
ENDBRANCH   1   3
BRANCH   1   7
ATOM      7  C   UNL     1       0.894  -0.572  -0.137  0.00  0.00    -0.022 C 
BRANCH   7   8
ATOM      8  C   UNL     1      -0.313   0.290   0.257  0.00  0.00    -0.002 C 
BRANCH   8   9
ATOM      9  C   UNL     1      -1.626  -0.380  -0.154  0.00  0.00    -0.000 C 
BRANCH   9  10
ATOM     10  C   UNL     1      -2.865   0.450   0.192  0.00  0.00    -0.000 C 
ATOM     11  C   UNL     1      -4.175  -0.242  -0.150  0.00  0.00    -0.000 C 
ENDBRANCH   9  10
ENDBRANCH   8   9
ENDBRANCH   7   8
ENDBRANCH   1   7
TORSDOF 5
