REMARK  Name = 204163
REMARK  4 active torsions:
REMARK  status: ('A' for Active; 'I' for Inactive)
REMARK    1  A    between atoms: C_2  and  C_10
REMARK    2  A    between atoms: C_2  and  O_16
REMARK    3  A    between atoms: O_16  and  C_18
REMARK    4  A    between atoms: C_18  and  C_19
REMARK                            x       y       z     vdW  Elec       q    Type
REMARK                         _______ _______ _______ _____ _____    ______ ____
ROOT
ATOM      1  N   UNL     1      -3.244   0.597   0.042  0.00  0.00    +0.386 N 
ATOM      2  C   UNL     1      -0.300   0.432   0.452  0.00  0.00    +0.150 C 
ATOM      3  C   UNL     1      -0.946   1.169  -0.770  0.00  0.00    +0.020 C 
ATOM      4  C   UNL     1      -1.342   0.398   1.602  0.00  0.00    +0.022 C 
ATOM      5  C   UNL     1      -2.335   0.579  -1.113  0.00  0.00    -0.074 C 
ATOM      6  C   UNL     1      -2.689  -0.176   1.159  0.00  0.00    -0.074 C 
ATOM      7  C   UNL     1      -1.067   2.694  -0.568  0.00  0.00    +0.002 C 
ATOM      8  C   UNL     1      -4.561   0.083  -0.333  0.00  0.00    -0.101 C 
ATOM      9  H   UNL     1      -3.348   1.565   0.347  0.00  0.00    -0.080 HD
ENDROOT
BRANCH   2  10
ATOM     10  C   UNL     1       0.273  -0.967   0.172  0.00  0.00    +0.013 C 
ATOM     11  C   UNL     1       0.946  -1.653   1.179  0.00  0.00    -0.001 C 
ATOM     12  C   UNL     1       0.116  -1.540  -1.087  0.00  0.00    -0.001 C 
ATOM     13  C   UNL     1       1.467  -2.922   0.926  0.00  0.00    -0.000 C 
ATOM     14  C   UNL     1       0.636  -2.809  -1.341  0.00  0.00    -0.000 C 
ATOM     15  C   UNL     1       1.312  -3.500  -0.334  0.00  0.00    -0.000 C 
ENDBRANCH   2  10
BRANCH   2  16
ATOM     16  O   UNL     1       0.840   1.188   0.889  0.00  0.00    -0.452 OA
BRANCH  16  18
ATOM     17  O   UNL     1       1.886   0.791  -1.128  0.00  0.00    -0.250 OA
ATOM     18  C   UNL     1       1.866   1.286  -0.010  0.00  0.00    +0.317 C 
BRANCH  18  19
ATOM     19  C   UNL     1       2.978   2.107   0.599  0.00  0.00    +0.110 C 
ATOM     20  C   UNL     1       4.166   2.244  -0.337  0.00  0.00    +0.012 C 
ENDBRANCH  18  19
ENDBRANCH  16  18
ENDBRANCH   2  16
TORSDOF 4
