REMARK  Name = 12598
REMARK  7 active torsions:
REMARK  status: ('A' for Active; 'I' for Inactive)
REMARK    1  A    between atoms: N_2  and  C_20
REMARK    2  A    between atoms: C_9  and  C_16
REMARK    3  A    between atoms: C_16  and  C_17
REMARK    4  A    between atoms: C_17  and  C_18
REMARK    5  A    between atoms: C_20  and  C_21
REMARK    6  A    between atoms: C_21  and  C_22
REMARK    7  A    between atoms: C_22  and  N_23
REMARK                            x       y       z     vdW  Elec       q    Type
REMARK                         _______ _______ _______ _____ _____    ______ ____
ROOT
ATOM      1  S   UNL     1      -0.181  -3.188  -1.166  0.00  0.00    -0.084 S 
ATOM      2  N   UNL     1      -0.108  -0.591   0.542  0.00  0.00    -0.286 N 
ATOM      3  C   UNL     1      -1.357  -0.899  -0.056  0.00  0.00    +0.058 C 
ATOM      4  C   UNL     1       0.924  -1.527   0.802  0.00  0.00    +0.058 C 
ATOM      5  C   UNL     1      -1.522  -2.062  -0.835  0.00  0.00    +0.043 C 
ATOM      6  C   UNL     1       0.985  -2.752   0.109  0.00  0.00    +0.043 C 
ATOM      7  C   UNL     1      -2.495  -0.083   0.126  0.00  0.00    +0.018 C 
ATOM      8  C   UNL     1       1.913  -1.296   1.784  0.00  0.00    +0.015 C 
ATOM      9  C   UNL     1      -3.728  -0.393  -0.453  0.00  0.00    +0.036 C 
ATOM     10  C   UNL     1      -2.764  -2.366  -1.419  0.00  0.00    +0.008 C 
ATOM     11  C   UNL     1       2.008  -3.680   0.376  0.00  0.00    +0.008 C 
ATOM     12  C   UNL     1      -3.862  -1.534  -1.230  0.00  0.00    +0.003 C 
ATOM     13  C   UNL     1       2.924  -2.224   2.049  0.00  0.00    +0.001 C 
ATOM     14  C   UNL     1       2.973  -3.416   1.341  0.00  0.00    +0.001 C 
ENDROOT
BRANCH   9  16
ATOM     15  O   UNL     1      -5.984   0.207  -0.740  0.00  0.00    -0.291 OA
ATOM     16  C   UNL     1      -4.874   0.475  -0.235  0.00  0.00    +0.173 C 
BRANCH  16  17
ATOM     17  C   UNL     1      -4.725   1.742   0.627  0.00  0.00    +0.069 C 
BRANCH  17  18
ATOM     18  C   UNL     1      -6.025   2.533   0.776  0.00  0.00    +0.008 C 
ATOM     19  C   UNL     1      -5.822   3.789   1.607  0.00  0.00    +0.000 C 
ENDBRANCH  17  18
ENDBRANCH  16  17
ENDBRANCH   9  16
BRANCH   2  20
ATOM     20  C   UNL     1       0.104   0.792   0.988  0.00  0.00    +0.093 C 
BRANCH  20  21
ATOM     21  C   UNL     1       0.143   1.746  -0.206  0.00  0.00    -0.001 C 
BRANCH  21  22
ATOM     22  C   UNL     1       1.216   1.417  -1.249  0.00  0.00    -0.076 C 
BRANCH  22  23
ATOM     23  N   UNL     1       2.557   1.406  -0.668  0.00  0.00    +0.384 N 
ATOM     24  N   UNL     1       5.311   2.276  -0.527  0.00  0.00    +0.383 N 
ATOM     25  C   UNL     1       3.549   0.960  -1.655  0.00  0.00    -0.101 C 
ATOM     26  C   UNL     1       2.912   2.733  -0.150  0.00  0.00    -0.101 C 
ATOM     27  C   UNL     1       4.956   0.950  -1.048  0.00  0.00    -0.101 C 
ATOM     28  C   UNL     1       4.319   2.722   0.458  0.00  0.00    -0.101 C 
ATOM     29  C   UNL     1       6.652   2.263   0.054  0.00  0.00    -0.101 C 
ATOM     30  H   UNL     1       2.558   0.746   0.109  0.00  0.00    -0.080 HD
ATOM     31  H   UNL     1       5.311   2.936  -1.305  0.00  0.00    -0.080 HD
ENDBRANCH  22  23
ENDBRANCH  21  22
ENDBRANCH  20  21
ENDBRANCH   2  20
TORSDOF 7
