REMARK  Name = 3778
REMARK  2 active torsions:
REMARK  status: ('A' for Active; 'I' for Inactive)
REMARK    1  A    between atoms: N_3  and  C_9
REMARK    2  A    between atoms: C_4  and  C_15
REMARK                            x       y       z     vdW  Elec       q    Type
REMARK                         _______ _______ _______ _____ _____    ______ ____
ROOT
ATOM      1  O   UNL     1       0.746   1.937   0.271  0.00  0.00    -0.266 OA
ATOM      2  N   UNL     1       0.301  -1.494   0.090  0.00  0.00    -0.266 N 
ATOM      3  N   UNL     1      -0.260  -0.215   0.218  0.00  0.00    -0.215 N 
ATOM      4  C   UNL     1       2.037  -0.038  -0.079  0.00  0.00    +0.048 A 
ATOM      5  C   UNL     1       1.666  -1.327  -0.138  0.00  0.00    +0.055 A 
ATOM      6  C   UNL     1       0.778   0.720   0.190  0.00  0.00    +0.276 A 
ATOM      7  C   UNL     1       2.551  -2.507  -0.367  0.00  0.00    +0.051 C 
ATOM      8  C   UNL     1      -0.187  -2.557   0.964  0.00  0.00    +0.152 C 
ENDROOT
BRANCH   3   9
ATOM      9  C   UNL     1      -1.643   0.050   0.061  0.00  0.00    +0.084 C 
ATOM     10  C   UNL     1      -2.176   1.278   0.465  0.00  0.00    +0.019 C 
ATOM     11  C   UNL     1      -2.485  -0.915  -0.501  0.00  0.00    +0.019 C 
ATOM     12  C   UNL     1      -3.537   1.539   0.309  0.00  0.00    +0.002 C 
ATOM     13  C   UNL     1      -3.847  -0.654  -0.658  0.00  0.00    +0.002 C 
ATOM     14  C   UNL     1      -4.373   0.573  -0.253  0.00  0.00    +0.000 C 
ENDBRANCH   3   9
BRANCH   4  15
ATOM     15  C   UNL     1       3.349   0.634  -0.222  0.00  0.00    +0.028 C 
ATOM     16  C   UNL     1       3.342   1.600  -1.411  0.00  0.00    +0.005 C 
ATOM     17  C   UNL     1       3.740   1.376   1.061  0.00  0.00    +0.005 C 
ENDBRANCH   4  15
TORSDOF 2
