219095
  -OEChem-10061700243D

 51 54  0     0  0  0  0  0  0999 V2000
   -5.9294   -3.3388    1.7414 Cl  0  0  0  0  0  0  0  0  0  0  0  0
   -1.8677   -0.1457   -1.0489 O   0  0  0  0  0  0  0  0  0  0  0  0
    0.9477   -1.2309   -1.6500 O   0  0  0  0  0  0  0  0  0  0  0  0
    4.0303   -1.2350   -0.3887 O   0  0  0  0  0  0  0  0  0  0  0  0
    3.3356   -1.7751    1.7383 O   0  0  0  0  0  0  0  0  0  0  0  0
    0.4073    3.6352    0.4856 N   0  0  0  0  0  0  0  0  0  0  0  0
    3.1933    1.3038    1.1242 N   0  0  0  0  0  0  0  0  0  0  0  0
    0.5775    1.4355    0.1574 C   0  0  0  0  0  0  0  0  0  0  0  0
   -0.7233    1.8622   -0.2589 C   0  0  0  0  0  0  0  0  0  0  0  0
    1.2567    2.5637    0.6160 C   0  0  0  0  0  0  0  0  0  0  0  0
   -0.7993    3.2387   -0.0420 C   0  0  0  0  0  0  0  0  0  0  0  0
    1.2403    0.1985    0.1876 C   0  0  0  0  0  0  0  0  0  0  0  0
   -1.8457    1.2019   -0.8016 C   0  0  0  0  0  0  0  0  0  0  0  0
    2.5382    0.2073    0.6806 C   0  0  0  0  0  0  0  0  0  0  0  0
    0.6420   -1.0918   -0.2685 C   0  0  0  0  0  0  0  0  0  0  0  0
    2.5580    2.4981    1.0969 C   0  0  0  0  0  0  0  0  0  0  0  0
   -1.9419    3.9898   -0.3405 C   0  0  0  0  0  0  0  0  0  0  0  0
   -2.9954    1.9398   -1.1047 C   0  0  0  0  0  0  0  0  0  0  0  0
   -3.0407    3.3131   -0.8769 C   0  0  0  0  0  0  0  0  0  0  0  0
    3.3187   -1.0205    0.7588 C   0  0  0  0  0  0  0  0  0  0  0  0
    5.2675   -1.9434   -0.2571 C   0  0  0  0  0  0  0  0  0  0  0  0
   -2.8236   -0.8954   -0.3932 C   0  0  0  0  0  0  0  0  0  0  0  0
    6.1809   -1.1840    0.6929 C   0  0  0  0  0  0  0  0  0  0  0  0
    5.8954   -2.1140   -1.6319 C   0  0  0  0  0  0  0  0  0  0  0  0
    0.4178   -2.4373   -2.1822 C   0  0  0  0  0  0  0  0  0  0  0  0
   -3.0402   -0.6855    0.9588 C   0  0  0  0  0  0  0  0  0  0  0  0
   -3.5453   -1.8429   -1.1007 C   0  0  0  0  0  0  0  0  0  0  0  0
   -4.0050   -1.4440    1.6217 C   0  0  0  0  0  0  0  0  0  0  0  0
   -4.5101   -2.6015   -0.4379 C   0  0  0  0  0  0  0  0  0  0  0  0
   -4.7399   -2.4021    0.9234 C   0  0  0  0  0  0  0  0  0  0  0  0
    0.6369    4.5854    0.7422 H   0  0  0  0  0  0  0  0  0  0  0  0
    1.1055   -1.9331    0.2618 H   0  0  0  0  0  0  0  0  0  0  0  0
   -0.3950   -1.2123   -0.0053 H   0  0  0  0  0  0  0  0  0  0  0  0
    3.1053    3.3591    1.4577 H   0  0  0  0  0  0  0  0  0  0  0  0
   -1.9777    5.0596   -0.1639 H   0  0  0  0  0  0  0  0  0  0  0  0
   -3.8686    1.4553   -1.5356 H   0  0  0  0  0  0  0  0  0  0  0  0
   -3.9423    3.8687   -1.1220 H   0  0  0  0  0  0  0  0  0  0  0  0
    5.0588   -2.9418    0.1469 H   0  0  0  0  0  0  0  0  0  0  0  0
    7.1731   -1.6455    0.7328 H   0  0  0  0  0  0  0  0  0  0  0  0
    5.7919   -1.1606    1.7152 H   0  0  0  0  0  0  0  0  0  0  0  0
    6.2968   -0.1420    0.3739 H   0  0  0  0  0  0  0  0  0  0  0  0
    6.8351   -2.6717   -1.5760 H   0  0  0  0  0  0  0  0  0  0  0  0
    5.2105   -2.6476   -2.2996 H   0  0  0  0  0  0  0  0  0  0  0  0
    6.0908   -1.1406   -2.0953 H   0  0  0  0  0  0  0  0  0  0  0  0
    0.6832   -2.4903   -3.2414 H   0  0  0  0  0  0  0  0  0  0  0  0
   -0.6711   -2.4565   -2.0962 H   0  0  0  0  0  0  0  0  0  0  0  0
    0.8506   -3.3032   -1.6718 H   0  0  0  0  0  0  0  0  0  0  0  0
   -2.4682    0.0394    1.5302 H   0  0  0  0  0  0  0  0  0  0  0  0
   -3.3682   -1.9993   -2.1607 H   0  0  0  0  0  0  0  0  0  0  0  0
   -4.1704   -1.2809    2.6836 H   0  0  0  0  0  0  0  0  0  0  0  0
   -5.0751   -3.3445   -0.9950 H   0  0  0  0  0  0  0  0  0  0  0  0
  1 30  1  0  0  0  0
  2 13  1  0  0  0  0
  2 22  1  0  0  0  0
  3 15  1  0  0  0  0
  3 25  1  0  0  0  0
  4 20  1  0  0  0  0
  4 21  1  0  0  0  0
  5 20  2  0  0  0  0
  6 10  1  0  0  0  0
  6 11  1  0  0  0  0
  6 31  1  0  0  0  0
  7 14  2  0  0  0  0
  7 16  1  0  0  0  0
  8  9  1  0  0  0  0
  8 10  1  0  0  0  0
  8 12  2  0  0  0  0
  9 11  2  0  0  0  0
  9 13  1  0  0  0  0
 10 16  2  0  0  0  0
 11 17  1  0  0  0  0
 12 14  1  0  0  0  0
 12 15  1  0  0  0  0
 13 18  2  0  0  0  0
 14 20  1  0  0  0  0
 15 32  1  0  0  0  0
 15 33  1  0  0  0  0
 16 34  1  0  0  0  0
 17 19  2  0  0  0  0
 17 35  1  0  0  0  0
 18 19  1  0  0  0  0
 18 36  1  0  0  0  0
 19 37  1  0  0  0  0
 21 23  1  0  0  0  0
 21 24  1  0  0  0  0
 21 38  1  0  0  0  0
 22 26  2  0  0  0  0
 22 27  1  0  0  0  0
 23 39  1  0  0  0  0
 23 40  1  0  0  0  0
 23 41  1  0  0  0  0
 24 42  1  0  0  0  0
 24 43  1  0  0  0  0
 24 44  1  0  0  0  0
 25 45  1  0  0  0  0
 25 46  1  0  0  0  0
 25 47  1  0  0  0  0
 26 28  1  0  0  0  0
 26 48  1  0  0  0  0
 27 29  2  0  0  0  0
 27 49  1  0  0  0  0
 28 30  2  0  0  0  0
 28 50  1  0  0  0  0
 29 30  1  0  0  0  0
 29 51  1  0  0  0  0
M  END
> <DATABASE_ID>
DB13534

> <DATABASE_NAME>
drugbank

> <ORIGINAL_SOURCE>
PUBCHEM

> <ORIGINAL_SOURCE_URL>
https://pubchem.ncbi.nlm.nih.gov/rest/pug/compound/inchikey/SLYDYLLJUXFULK-UHFFFAOYSA-N/SDF?record_type=3d

> <SMILES>
COCC1=C(N=CC2=C1C1=C(N2)C=CC=C1OC1=CC=C(Cl)C=C1)C(=O)OC(C)C

> <INCHI_IDENTIFIER>
InChI=1S/C23H21ClN2O4/c1-13(2)29-23(27)22-16(12-28-3)20-18(11-25-22)26-17-5-4-6-19(21(17)20)30-15-9-7-14(24)8-10-15/h4-11,13,26H,12H2,1-3H3

> <INCHI_KEY>
SLYDYLLJUXFULK-UHFFFAOYSA-N

> <FORMULA>
C23H21ClN2O4

> <MOLECULAR_WEIGHT>
424.88

> <EXACT_MASS>
424.1189849

> <JCHEM_ACCEPTOR_COUNT>
3

> <JCHEM_ATOM_COUNT>
51

> <JCHEM_AVERAGE_POLARIZABILITY>
44.076596074992956

> <JCHEM_BIOAVAILABILITY>
1

> <JCHEM_DONOR_COUNT>
1

> <JCHEM_FORMAL_CHARGE>
0

> <JCHEM_GHOSE_FILTER>
1

> <JCHEM_IUPAC>
propan-2-yl 5-(4-chlorophenoxy)-4-(methoxymethyl)-9H-pyrido[3,4-b]indole-3-carboxylate

> <ALOGPS_LOGP>
5.15

> <JCHEM_LOGP>
4.816032127

> <ALOGPS_LOGS>
-5.43

> <JCHEM_MDDR_LIKE_RULE>
1

> <JCHEM_NUMBER_OF_RINGS>
4

> <JCHEM_PHYSIOLOGICAL_CHARGE>
0

> <JCHEM_PKA_STRONGEST_ACIDIC>
11.577843263212927

> <JCHEM_PKA_STRONGEST_BASIC>
2.428403690213776

> <JCHEM_POLAR_SURFACE_AREA>
73.44

> <JCHEM_REFRACTIVITY>
114.74870000000001

> <JCHEM_ROTATABLE_BOND_COUNT>
7

> <JCHEM_RULE_OF_FIVE>
1

> <ALOGPS_SOLUBILITY>
1.56e-03 g/l

> <JCHEM_TRADITIONAL_IUPAC>
gedocarnil

> <JCHEM_VEBER_RULE>
0

> <DRUGBANK_ID>
DB13534

> <DRUG_GROUPS>
experimental

> <GENERIC_NAME>
Gedocarnil

$$$$
