68778
  -OEChem-10061700233D

 49 51  0     0  0  0  0  0  0999 V2000
   -2.4533    1.0862    0.0436 N   0  0  0  0  0  0  0  0  0  0  0  0
    0.4727    0.3255    0.0255 C   0  0  0  0  0  0  0  0  0  0  0  0
   -0.3462    0.7869    1.2811 C   0  0  0  0  0  0  0  0  0  0  0  0
   -0.2997    0.9549   -1.1864 C   0  0  0  0  0  0  0  0  0  0  0  0
   -1.8362    0.4363    1.2019 C   0  0  0  0  0  0  0  0  0  0  0  0
   -1.8079    0.6609   -1.2002 C   0  0  0  0  0  0  0  0  0  0  0  0
   -3.8888    0.8110    0.0009 C   0  0  0  0  0  0  0  0  0  0  0  0
    0.5757   -1.2217   -0.0026 C   0  0  0  0  0  0  0  0  0  0  0  0
    1.9179    0.8953    0.0157 C   0  0  0  0  0  0  0  0  0  0  0  0
   -4.5280    1.3505    1.2848 C   0  0  0  0  0  0  0  0  0  0  0  0
   -4.4851    1.5183   -1.2207 C   0  0  0  0  0  0  0  0  0  0  0  0
   -4.1139   -0.7020   -0.1043 C   0  0  0  0  0  0  0  0  0  0  0  0
    0.6384   -1.9360    1.1925 C   0  0  0  0  0  0  0  0  0  0  0  0
    2.5475    1.1711   -1.1965 C   0  0  0  0  0  0  0  0  0  0  0  0
    0.6049   -1.8943   -1.2230 C   0  0  0  0  0  0  0  0  0  0  0  0
    2.5805    1.1299    1.2190 C   0  0  0  0  0  0  0  0  0  0  0  0
    0.7308   -3.3275    1.1674 C   0  0  0  0  0  0  0  0  0  0  0  0
    3.8451    1.6830   -1.2055 C   0  0  0  0  0  0  0  0  0  0  0  0
    0.6972   -3.2860   -1.2480 C   0  0  0  0  0  0  0  0  0  0  0  0
    3.8780    1.6418    1.2099 C   0  0  0  0  0  0  0  0  0  0  0  0
    0.7602   -4.0025   -0.0528 C   0  0  0  0  0  0  0  0  0  0  0  0
    4.5101    1.9184   -0.0024 C   0  0  0  0  0  0  0  0  0  0  0  0
   -0.2659    1.8826    1.3627 H   0  0  0  0  0  0  0  0  0  0  0  0
    0.0469    0.4236    2.2343 H   0  0  0  0  0  0  0  0  0  0  0  0
    0.0876    0.6437   -2.1610 H   0  0  0  0  0  0  0  0  0  0  0  0
   -0.1787    2.0490   -1.1582 H   0  0  0  0  0  0  0  0  0  0  0  0
   -2.2615    0.7985    2.1425 H   0  0  0  0  0  0  0  0  0  0  0  0
   -1.9261   -0.6528    1.1973 H   0  0  0  0  0  0  0  0  0  0  0  0
   -1.9240   -0.4052   -1.4111 H   0  0  0  0  0  0  0  0  0  0  0  0
   -2.1916    1.2121   -2.0644 H   0  0  0  0  0  0  0  0  0  0  0  0
   -4.3246    0.7341    2.1669 H   0  0  0  0  0  0  0  0  0  0  0  0
   -5.6208    1.3705    1.1869 H   0  0  0  0  0  0  0  0  0  0  0  0
   -4.2121    2.3793    1.4951 H   0  0  0  0  0  0  0  0  0  0  0  0
   -4.2540    1.0209   -2.1690 H   0  0  0  0  0  0  0  0  0  0  0  0
   -4.1648    2.5653   -1.2831 H   0  0  0  0  0  0  0  0  0  0  0  0
   -5.5805    1.5292   -1.1565 H   0  0  0  0  0  0  0  0  0  0  0  0
   -3.7115   -1.1661   -1.0082 H   0  0  0  0  0  0  0  0  0  0  0  0
   -5.1960   -0.8884   -0.1567 H   0  0  0  0  0  0  0  0  0  0  0  0
   -3.7805   -1.2727    0.7668 H   0  0  0  0  0  0  0  0  0  0  0  0
    0.6555   -1.4653    2.1676 H   0  0  0  0  0  0  0  0  0  0  0  0
    2.0911    0.9777   -2.1598 H   0  0  0  0  0  0  0  0  0  0  0  0
    0.5774   -1.3776   -2.1752 H   0  0  0  0  0  0  0  0  0  0  0  0
    2.1316    0.9127    2.1818 H   0  0  0  0  0  0  0  0  0  0  0  0
    0.7883   -3.8857    2.0973 H   0  0  0  0  0  0  0  0  0  0  0  0
    4.3409    1.8914   -2.1491 H   0  0  0  0  0  0  0  0  0  0  0  0
    0.7249   -3.8119   -2.1978 H   0  0  0  0  0  0  0  0  0  0  0  0
    4.3982    1.8212    2.1464 H   0  0  0  0  0  0  0  0  0  0  0  0
    0.8351   -5.0858   -0.0725 H   0  0  0  0  0  0  0  0  0  0  0  0
    5.5213    2.3145   -0.0094 H   0  0  0  0  0  0  0  0  0  0  0  0
  1  5  1  0  0  0  0
  1  6  1  0  0  0  0
  1  7  1  0  0  0  0
  2  3  1  0  0  0  0
  2  4  1  0  0  0  0
  2  8  1  0  0  0  0
  2  9  1  0  0  0  0
  3  5  1  0  0  0  0
  3 23  1  0  0  0  0
  3 24  1  0  0  0  0
  4  6  1  0  0  0  0
  4 25  1  0  0  0  0
  4 26  1  0  0  0  0
  5 27  1  0  0  0  0
  5 28  1  0  0  0  0
  6 29  1  0  0  0  0
  6 30  1  0  0  0  0
  7 10  1  0  0  0  0
  7 11  1  0  0  0  0
  7 12  1  0  0  0  0
  8 13  2  0  0  0  0
  8 15  1  0  0  0  0
  9 14  2  0  0  0  0
  9 16  1  0  0  0  0
 10 31  1  0  0  0  0
 10 32  1  0  0  0  0
 10 33  1  0  0  0  0
 11 34  1  0  0  0  0
 11 35  1  0  0  0  0
 11 36  1  0  0  0  0
 12 37  1  0  0  0  0
 12 38  1  0  0  0  0
 12 39  1  0  0  0  0
 13 17  1  0  0  0  0
 13 40  1  0  0  0  0
 14 18  1  0  0  0  0
 14 41  1  0  0  0  0
 15 19  2  0  0  0  0
 15 42  1  0  0  0  0
 16 20  2  0  0  0  0
 16 43  1  0  0  0  0
 17 21  2  0  0  0  0
 17 44  1  0  0  0  0
 18 22  2  0  0  0  0
 18 45  1  0  0  0  0
 19 21  1  0  0  0  0
 19 46  1  0  0  0  0
 20 22  1  0  0  0  0
 20 47  1  0  0  0  0
 21 48  1  0  0  0  0
 22 49  1  0  0  0  0
M  END
> <DATABASE_ID>
DB13502

> <DATABASE_NAME>
drugbank

> <ORIGINAL_SOURCE>
PUBCHEM

> <ORIGINAL_SOURCE_URL>
https://pubchem.ncbi.nlm.nih.gov/rest/pug/compound/inchikey/QIHLUZAFSSMXHQ-UHFFFAOYSA-N/SDF?record_type=3d

> <SMILES>
CC(C)(C)N1CCC(CC1)(C1=CC=CC=C1)C1=CC=CC=C1

> <INCHI_IDENTIFIER>
InChI=1S/C21H27N/c1-20(2,3)22-16-14-21(15-17-22,18-10-6-4-7-11-18)19-12-8-5-9-13-19/h4-13H,14-17H2,1-3H3

> <INCHI_KEY>
QIHLUZAFSSMXHQ-UHFFFAOYSA-N

> <FORMULA>
C21H27N

> <MOLECULAR_WEIGHT>
293.454

> <EXACT_MASS>
293.214349873

> <JCHEM_ACCEPTOR_COUNT>
1

> <JCHEM_ATOM_COUNT>
49

> <JCHEM_AVERAGE_POLARIZABILITY>
35.53496202389351

> <JCHEM_BIOAVAILABILITY>
1

> <JCHEM_DONOR_COUNT>
0

> <JCHEM_FORMAL_CHARGE>
0

> <JCHEM_GHOSE_FILTER>
1

> <JCHEM_IUPAC>
1-tert-butyl-4,4-diphenylpiperidine

> <ALOGPS_LOGP>
5.34

> <JCHEM_LOGP>
4.949169406666667

> <ALOGPS_LOGS>
-5.36

> <JCHEM_MDDR_LIKE_RULE>
0

> <JCHEM_NUMBER_OF_RINGS>
3

> <JCHEM_PHYSIOLOGICAL_CHARGE>
1

> <JCHEM_PKA_STRONGEST_BASIC>
9.985156670260551

> <JCHEM_POLAR_SURFACE_AREA>
3.24

> <JCHEM_REFRACTIVITY>
105.64380000000003

> <JCHEM_ROTATABLE_BOND_COUNT>
3

> <JCHEM_RULE_OF_FIVE>
1

> <ALOGPS_SOLUBILITY>
1.29e-03 g/l

> <JCHEM_TRADITIONAL_IUPAC>
budipine

> <JCHEM_VEBER_RULE>
1

> <DRUGBANK_ID>
DB13502

> <DRUG_GROUPS>
experimental

> <GENERIC_NAME>
Budipine

$$$$
