REMARK  Name = 40391
REMARK  3 active torsions:
REMARK  status: ('A' for Active; 'I' for Inactive)
REMARK    1  A    between atoms: N_3  and  C_20
REMARK    2  A    between atoms: C_7  and  C_14
REMARK    3  A    between atoms: C_20  and  C_21
REMARK                            x       y       z     vdW  Elec       q    Type
REMARK                         _______ _______ _______ _____ _____    ______ ____
ROOT
ATOM      1 CL   UNL     1      -0.591   4.499   0.826  0.00  0.00    -0.082 Cl
ATOM      2  O   UNL     1       2.212  -3.062   0.122  0.00  0.00    -0.272 OA
ATOM      3  N   UNL     1       1.962  -0.791  -0.335  0.00  0.00    -0.245 N 
ATOM      4  N   UNL     1      -0.528  -1.750   1.115  0.00  0.00    -0.261 NA
ATOM      5  C   UNL     1       1.298   0.460  -0.085  0.00  0.00    +0.056 C 
ATOM      6  C   UNL     1      -0.026   0.548   0.394  0.00  0.00    +0.032 C 
ATOM      7  C   UNL     1      -0.903  -0.650   0.555  0.00  0.00    +0.078 C 
ATOM      8  C   UNL     1       1.718  -1.964   0.389  0.00  0.00    +0.255 C 
ATOM      9  C   UNL     1       0.833  -1.827   1.603  0.00  0.00    +0.210 C 
ATOM     10  C   UNL     1       1.981   1.667  -0.336  0.00  0.00    +0.016 C 
ATOM     11  C   UNL     1      -0.599   1.800   0.681  0.00  0.00    +0.014 C 
ATOM     12  C   UNL     1       1.398   2.907  -0.067  0.00  0.00    +0.013 C 
ATOM     13  C   UNL     1       0.113   2.974   0.452  0.00  0.00    +0.058 C 
ENDROOT
BRANCH   7  14
ATOM     14  C   UNL     1      -2.297  -0.599   0.027  0.00  0.00    +0.017 C 
ATOM     15  C   UNL     1      -2.583   0.191  -1.080  0.00  0.00    +0.001 C 
ATOM     16  C   UNL     1      -3.295  -1.341   0.648  0.00  0.00    +0.001 C 
ATOM     17  C   UNL     1      -3.887   0.238  -1.574  0.00  0.00    +0.000 C 
ATOM     18  C   UNL     1      -4.598  -1.293   0.154  0.00  0.00    +0.000 C 
ATOM     19  C   UNL     1      -4.894  -0.503  -0.958  0.00  0.00    +0.000 C 
ENDBRANCH   7  14
BRANCH   3  20
ATOM     20  C   UNL     1       2.999  -0.825  -1.366  0.00  0.00    +0.176 C 
BRANCH  20  21
ATOM     21  C   UNL     1       4.307  -0.481  -0.809  0.00  0.00    -0.055 C 
ATOM     22  C   UNL     1       5.382  -0.200  -0.356  0.00  0.00    -0.012 C 
ENDBRANCH  20  21
ENDBRANCH   3  20
TORSDOF 3
