4684
  -OEChem-10051723013D

 13 13  0     0  0  0  0  0  0999 V2000
   -3.0707    0.0000    0.0005 Cl  0  0  0  0  0  0  0  0  0  0  0  0
    2.8008    0.0000    0.0011 O   0  0  0  0  0  0  0  0  0  0  0  0
    1.4398    0.0001   -0.0006 C   0  0  0  0  0  0  0  0  0  0  0  0
    0.7424    1.2080   -0.0005 C   0  0  0  0  0  0  0  0  0  0  0  0
    0.7425   -1.2080   -0.0004 C   0  0  0  0  0  0  0  0  0  0  0  0
   -0.6525    1.2079    0.0000 C   0  0  0  0  0  0  0  0  0  0  0  0
   -0.6525   -1.2080   -0.0001 C   0  0  0  0  0  0  0  0  0  0  0  0
   -1.3499   -0.0001    0.0001 C   0  0  0  0  0  0  0  0  0  0  0  0
    1.2802    2.1522   -0.0003 H   0  0  0  0  0  0  0  0  0  0  0  0
    1.2741   -2.1558   -0.0002 H   0  0  0  0  0  0  0  0  0  0  0  0
   -1.1827    2.1568    0.0002 H   0  0  0  0  0  0  0  0  0  0  0  0
   -1.1827   -2.1568    0.0001 H   0  0  0  0  0  0  0  0  0  0  0  0
    3.1158   -0.9202    0.0013 H   0  0  0  0  0  0  0  0  0  0  0  0
  1  8  1  0  0  0  0
  2  3  1  0  0  0  0
  2 13  1  0  0  0  0
  3  4  2  0  0  0  0
  3  5  1  0  0  0  0
  4  6  1  0  0  0  0
  4  9  1  0  0  0  0
  5  7  2  0  0  0  0
  5 10  1  0  0  0  0
  6  8  2  0  0  0  0
  6 11  1  0  0  0  0
  7  8  1  0  0  0  0
  7 12  1  0  0  0  0
M  END
> <DATABASE_ID>
DB13154

> <DATABASE_NAME>
drugbank

> <ORIGINAL_SOURCE>
PUBCHEM

> <ORIGINAL_SOURCE_URL>
https://pubchem.ncbi.nlm.nih.gov/rest/pug/compound/inchikey/WXNZTHHGJRFXKQ-UHFFFAOYSA-N/SDF?record_type=3d

> <SMILES>
OC1=CC=C(Cl)C=C1

> <INCHI_IDENTIFIER>
InChI=1S/C6H5ClO/c7-5-1-3-6(8)4-2-5/h1-4,8H

> <INCHI_KEY>
WXNZTHHGJRFXKQ-UHFFFAOYSA-N

> <FORMULA>
C6H5ClO

> <MOLECULAR_WEIGHT>
128.556

> <EXACT_MASS>
128.002892489

> <JCHEM_ACCEPTOR_COUNT>
1

> <JCHEM_AVERAGE_POLARIZABILITY>
12.024294368266357

> <JCHEM_BIOAVAILABILITY>
1

> <JCHEM_DONOR_COUNT>
1

> <JCHEM_FORMAL_CHARGE>
0

> <JCHEM_GHOSE_FILTER>
0

> <JCHEM_IUPAC>
4-chlorophenol

> <ALOGPS_LOGP>
2.37

> <JCHEM_LOGP>
2.2737251706666664

> <ALOGPS_LOGS>
-0.96

> <JCHEM_MDDR_LIKE_RULE>
0

> <JCHEM_NUMBER_OF_RINGS>
1

> <JCHEM_PHYSIOLOGICAL_CHARGE>
0

> <JCHEM_PKA_STRONGEST_ACIDIC>
8.963636620612126

> <JCHEM_PKA_STRONGEST_BASIC>
-6.261855903181934

> <JCHEM_POLAR_SURFACE_AREA>
20.23

> <JCHEM_REFRACTIVITY>
32.8437

> <JCHEM_ROTATABLE_BOND_COUNT>
0

> <JCHEM_RULE_OF_FIVE>
1

> <ALOGPS_SOLUBILITY>
1.40e+01 g/l

> <JCHEM_TRADITIONAL_IUPAC>
chlorophenol

> <JCHEM_VEBER_RULE>
1

> <DRUGBANK_ID>
DB13154

> <DRUG_GROUPS>
approved

> <GENERIC_NAME>
Parachlorophenol

> <SYNONYMS>
4-Chlorophenol; 4-chlorphenol; p-Chlorophenol

> <PRODUCTS>
Camphorated Para Chlorophenol Liq; Cresophene Liq

$$$$
