REMARK  Name = 65979
REMARK  1 active torsions:
REMARK  status: ('A' for Active; 'I' for Inactive)
REMARK    1  A    between atoms: C_6  and  N_10
REMARK                            x       y       z     vdW  Elec       q    Type
REMARK                         _______ _______ _______ _____ _____    ______ ____
ROOT
ATOM      1  C   UNL     1      -1.811  -1.895   0.110  0.00  0.00    +0.028 C 
ATOM      2  C   UNL     1      -1.482  -0.435   0.111  0.00  0.00    -0.013 C 
ATOM      3  C   UNL     1      -3.206  -1.884  -0.531  0.00  0.00    +0.009 C 
ATOM      4  C   UNL     1      -3.848  -0.536  -0.173  0.00  0.00    +0.026 C 
ATOM      5  C   UNL     1      -2.638   0.336  -0.049  0.00  0.00    -0.025 C 
ATOM      6  C   UNL     1      -0.244   0.160   0.289  0.00  0.00    +0.046 C 
ATOM      7  C   UNL     1      -2.581   1.720  -0.036  0.00  0.00    -0.004 C 
ATOM      8  C   UNL     1      -0.176   1.555   0.291  0.00  0.00    +0.014 C 
ATOM      9  C   UNL     1      -1.336   2.329   0.130  0.00  0.00    +0.001 C 
ENDROOT
BRANCH   6  10
ATOM     10  N   UNL     1       0.920  -0.607   0.467  0.00  0.00    -0.286 N 
ATOM     11  N   UNL     1       3.155  -1.200   0.397  0.00  0.00    -0.284 N 
ATOM     12  N   UNL     1       2.578   0.817  -0.470  0.00  0.00    -0.214 NA
ATOM     13  C   UNL     1       2.182  -0.288   0.116  0.00  0.00    +0.189 C 
ATOM     14  C   UNL     1       4.433  -0.718  -0.030  0.00  0.00    +0.085 C 
ATOM     15  C   UNL     1       4.055   0.646  -0.622  0.00  0.00    +0.117 C 
ATOM     16  H   UNL     1       0.800  -1.483   0.901  0.00  0.00    +0.155 HD
ATOM     17  H   UNL     1       3.000  -2.069   0.833  0.00  0.00    +0.155 HD
ENDBRANCH   6  10
TORSDOF 1
