REMARK  Name = 6604889
REMARK  6 active torsions:
REMARK  status: ('A' for Active; 'I' for Inactive)
REMARK    1  A    between atoms: N_1  and  S_6
REMARK    2  A    between atoms: C_2  and  C_17
REMARK    3  A    between atoms: S_6  and  C_9
REMARK    4  A    between atoms: C_12  and  O_15
REMARK    5  A    between atoms: C_17  and  C_18
REMARK    6  A    between atoms: C_18  and  N_19
REMARK                            x       y       z     vdW  Elec       q    Type
REMARK                         _______ _______ _______ _____ _____    ______ ____
ROOT
ATOM      1  N   UNL     1       1.565   1.915   0.262  0.00  0.00    -0.157 NA
ATOM      2  C   UNL     1       0.221   1.706  -0.364  0.00  0.00    +0.078 C 
ATOM      3  C   UNL     1       0.363   2.328  -1.751  0.00  0.00    +0.019 C 
ATOM      4  C   UNL     1       1.788   1.969  -2.123  0.00  0.00    +0.021 C 
ATOM      5  C   UNL     1       2.550   2.199  -0.826  0.00  0.00    +0.096 C 
ENDROOT
BRANCH   1   6
ATOM      6  S   UNL     1       2.045   0.844   1.495  0.00  0.00    +0.063 S 
ATOM      7  O   UNL     1       0.913   0.565   2.359  0.00  0.00    -0.153 OA
ATOM      8  O   UNL     1       3.307   1.290   2.054  0.00  0.00    -0.153 OA
BRANCH   6   9
ATOM      9  C   UNL     1       2.362  -0.612   0.546  0.00  0.00    +0.125 C 
ATOM     10  C   UNL     1       1.337  -1.516   0.328  0.00  0.00    +0.057 C 
ATOM     11  C   UNL     1       3.633  -0.823   0.036  0.00  0.00    +0.020 C 
ATOM     12  C   UNL     1       1.588  -2.665  -0.422  0.00  0.00    +0.135 C 
ATOM     13  C   UNL     1       3.884  -1.972  -0.713  0.00  0.00    +0.004 C 
ATOM     14  C   UNL     1       2.862  -2.893  -0.942  0.00  0.00    +0.037 C 
BRANCH  12  15
ATOM     15  O   UNL     1       0.591  -3.564  -0.646  0.00  0.00    -0.505 OA
ATOM     16  H   UNL     1      -0.265  -3.411  -0.297  0.00  0.00    +0.292 HD
ENDBRANCH  12  15
ENDBRANCH   6   9
ENDBRANCH   1   6
BRANCH   2  17
ATOM     17  C   UNL     1      -0.865   2.373   0.461  0.00  0.00    -0.005 C 
BRANCH  17  18
ATOM     18  C   UNL     1      -2.234   2.226  -0.198  0.00  0.00    -0.076 C 
BRANCH  18  19
ATOM     19  N   UNL     1      -2.587   0.812  -0.325  0.00  0.00    +0.387 N 
ATOM     20  C   UNL     1      -4.229  -1.597   0.122  0.00  0.00    -0.004 C 
ATOM     21  C   UNL     1      -2.603   0.165   0.994  0.00  0.00    -0.077 C 
ATOM     22  C   UNL     1      -3.879   0.663  -1.008  0.00  0.00    -0.077 C 
ATOM     23  C   UNL     1      -2.919  -1.328   0.873  0.00  0.00    -0.023 C 
ATOM     24  C   UNL     1      -4.238  -0.813  -1.196  0.00  0.00    -0.023 C 
ATOM     25  C   UNL     1      -5.453  -1.274   0.983  0.00  0.00    -0.000 C 
ATOM     26  H   UNL     1      -1.878   0.347  -0.892  0.00  0.00    -0.080 HD
ENDBRANCH  18  19
ENDBRANCH  17  18
ENDBRANCH   2  17
TORSDOF 6
