REMARK  Name = 9571044
REMARK  7 active torsions:
REMARK  status: ('A' for Active; 'I' for Inactive)
REMARK    1  A    between atoms: N_2  and  N_13
REMARK    2  A    between atoms: C_3  and  C_6
REMARK    3  A    between atoms: C_8  and  N_12
REMARK    4  A    between atoms: N_13  and  C_14
REMARK    5  A    between atoms: C_15  and  C_16
REMARK    6  A    between atoms: C_15  and  C_18
REMARK    7  A    between atoms: C_20  and  N_24
REMARK                            x       y       z     vdW  Elec       q    Type
REMARK                         _______ _______ _______ _____ _____    ______ ____
ROOT
ATOM      1  O   UNL     1      -2.338  -1.952   0.033  0.00  0.00    -0.268 OA
ATOM      2  N   UNL     1      -1.465   0.169   0.058  0.00  0.00    -0.211 N 
ATOM      3  C   UNL     1      -2.521  -0.733   0.048  0.00  0.00    +0.269 C 
ATOM      4  H   UNL     1      -1.633   1.139   0.070  0.00  0.00    +0.175 HD
ENDROOT
BRANCH   3   6
ATOM      5  S   UNL     1      -5.193  -1.188   0.007  0.00  0.00    -0.059 S 
ATOM      6  C   UNL     1      -3.866  -0.140   0.027  0.00  0.00    +0.086 C 
ATOM      7  C   UNL     1      -4.182   1.173   0.017  0.00  0.00    +0.013 C 
ATOM      8  C   UNL     1      -6.266   0.145  -0.016  0.00  0.00    +0.173 C 
ATOM      9  C   UNL     1      -5.596   1.349  -0.009  0.00  0.00    +0.031 C 
BRANCH   8  12
ATOM     10  O   UNL     1      -8.444   0.892  -0.051  0.00  0.00    -0.126 OA
ATOM     11  O   UNL     1      -8.077  -1.276  -0.042  0.00  0.00    -0.126 OA
ATOM     12  N   UNL     1      -7.649  -0.088  -0.037  0.00  0.00    +0.064 N 
ENDBRANCH   8  12
ENDBRANCH   3   6
BRANCH   2  13
ATOM     13  N   UNL     1      -0.198  -0.314   0.052  0.00  0.00    -0.147 NA
BRANCH  13  14
ATOM     14  C   UNL     1       0.712   0.605   0.025  0.00  0.00    +0.100 C 
ATOM     15  C   UNL     1       2.152   0.269   0.014  0.00  0.00    +0.001 C 
BRANCH  15  16
ATOM     16  C   UNL     1       3.042   1.271  -0.013  0.00  0.00    +0.092 C 
BRANCH  16  18
ATOM     17  O   UNL     1       4.999  -0.163  -0.019  0.00  0.00    -0.437 OA
ATOM     18  C   UNL     1       4.462   1.074  -0.010  0.00  0.00    +0.129 C 
ATOM     19  C   UNL     1       5.418   2.045   0.000  0.00  0.00    +0.038 C 
ATOM     20  C   UNL     1       6.346   0.016  -0.014  0.00  0.00    +0.289 C 
ATOM     21  C   UNL     1       6.655   1.357  -0.002  0.00  0.00    +0.066 C 
BRANCH  20  24
ATOM     22  O   UNL     1       8.372  -1.078  -0.016  0.00  0.00    -0.123 OA
ATOM     23  O   UNL     1       6.529  -2.279  -0.030  0.00  0.00    -0.123 OA
ATOM     24  N   UNL     1       7.109  -1.153  -0.021  0.00  0.00    +0.093 N 
ENDBRANCH  20  24
ENDBRANCH  16  18
ENDBRANCH  15  16
ENDBRANCH  13  14
ENDBRANCH   2  13
TORSDOF 7
