REMARK  Name = 11610599
REMARK  7 active torsions:
REMARK  status: ('A' for Active; 'I' for Inactive)
REMARK    1  A    between atoms: N_1  and  C_11
REMARK    2  A    between atoms: C_12  and  O_15
REMARK    3  A    between atoms: C_13  and  O_17
REMARK    4  A    between atoms: C_14  and  C_19
REMARK    5  A    between atoms: C_19  and  O_20
REMARK    6  A    between atoms: O_20  and  N_23
REMARK    7  A    between atoms: N_24  and  C_26
REMARK                            x       y       z     vdW  Elec       q    Type
REMARK                         _______ _______ _______ _____ _____    ______ ____
ROOT
ATOM      1  N   UNL     1       0.551  -0.600   0.169  0.00  0.00    -0.247 N 
ATOM      2  N   UNL     1      -0.884   1.035  -0.328  0.00  0.00    -0.242 NA
ATOM      3  N   UNL     1      -1.006  -2.440   0.473  0.00  0.00    -0.228 NA
ATOM      4  N   UNL     1      -3.311  -1.721   0.118  0.00  0.00    -0.228 NA
ATOM      5  C   UNL     1      -0.694  -1.164   0.200  0.00  0.00    +0.152 C 
ATOM      6  C   UNL     1      -1.568  -0.135  -0.111  0.00  0.00    +0.140 C 
ATOM      7  C   UNL     1      -2.923  -0.450  -0.147  0.00  0.00    +0.146 C 
ATOM      8  C   UNL     1       0.383   0.722  -0.152  0.00  0.00    +0.223 C 
ATOM      9  C   UNL     1      -2.343  -2.623   0.407  0.00  0.00    +0.253 C 
ATOM     10  N   UNL     1      -3.880   0.532  -0.456  0.00  0.00    -0.319 N 
ATOM     11  H   UNL     1      -3.570   1.447  -0.645  0.00  0.00    +0.148 HD
ENDROOT
BRANCH   1  13
ATOM     12  O   UNL     1       2.741  -0.344   1.046  0.00  0.00    -0.331 OA
ATOM     13  C   UNL     1       1.824  -1.268   0.428  0.00  0.00    +0.225 C 
ATOM     14  C   UNL     1       2.520  -1.782  -0.824  0.00  0.00    +0.187 C 
ATOM     15  C   UNL     1       3.967  -1.810  -0.374  0.00  0.00    +0.172 C 
ATOM     16  C   UNL     1       4.062  -0.561   0.497  0.00  0.00    +0.193 C 
BRANCH  14  17
ATOM     17  O   UNL     1       2.036  -3.051  -1.212  0.00  0.00    -0.378 OA
ATOM     18  H   UNL     1       1.110  -2.974  -1.489  0.00  0.00    +0.211 HD
ENDBRANCH  14  17
BRANCH  15  19
ATOM     19  O   UNL     1       4.189  -2.959   0.444  0.00  0.00    -0.379 OA
ATOM     20  H   UNL     1       4.131  -3.760  -0.101  0.00  0.00    +0.211 HD
ENDBRANCH  15  19
BRANCH  16  21
ATOM     21  C   UNL     1       4.466   0.679  -0.286  0.00  0.00    +0.275 C 
BRANCH  21  22
ATOM     22  O   UNL     1       4.515   1.781   0.603  0.00  0.00    -0.333 OA
BRANCH  22  25
ATOM     23  O   UNL     1       5.097   2.886  -1.230  0.00  0.00    -0.090 OA
ATOM     24  O   UNL     1       4.950   4.011   0.690  0.00  0.00    -0.090 OA
ATOM     25  N   UNL     1       4.886   3.006  -0.022  0.00  0.00    +0.218 N 
ENDBRANCH  22  25
ENDBRANCH  21  22
ENDBRANCH  16  21
ENDBRANCH   1  13
BRANCH  10  26
ATOM     26  C   UNL     1      -5.301   0.261  -0.508  0.00  0.00    +0.070 C 
ATOM     27  C   UNL     1      -6.035   1.371  -1.249  0.00  0.00    +0.020 C 
ATOM     28  C   UNL     1      -5.914   0.325   0.886  0.00  0.00    +0.020 C 
ATOM     29  C   UNL     1      -6.207   2.485  -0.218  0.00  0.00    +0.002 C 
ATOM     30  C   UNL     1      -6.123   1.814   1.153  0.00  0.00    +0.002 C 
ENDBRANCH  10  26
TORSDOF 7
