REMARK  Name = 5281087
REMARK  3 active torsions:
REMARK  status: ('A' for Active; 'I' for Inactive)
REMARK    1  A    between atoms: C_1  and  C_8
REMARK    2  A    between atoms: C_2  and  C_10
REMARK    3  A    between atoms: C_13  and  O_16
REMARK                            x       y       z     vdW  Elec       q    Type
REMARK                         _______ _______ _______ _____ _____    ______ ____
ROOT
ATOM      1  C   UNL     1      -0.570   0.340  -0.058  0.00  0.00    +0.034 C 
ATOM      2  C   UNL     1       0.276  -0.668   0.103  0.00  0.00    +0.003 C 
ENDROOT
BRANCH   1   8
ATOM      3  N   UNL     1      -2.969   0.948   0.409  0.00  0.00    -0.292 N 
ATOM      4  N   UNL     1      -2.300  -1.172  -0.502  0.00  0.00    -0.256 NA
ATOM      5  C   UNL     1      -4.394   0.633   0.362  0.00  0.00    +0.094 C 
ATOM      6  C   UNL     1      -4.643  -0.408  -0.717  0.00  0.00    +0.048 C 
ATOM      7  C   UNL     1      -3.706  -1.586  -0.506  0.00  0.00    +0.129 C 
ATOM      8  C   UNL     1      -2.026   0.020  -0.047  0.00  0.00    +0.127 C 
ATOM      9  C   UNL     1      -2.612   2.217   1.029  0.00  0.00    +0.114 C 
ENDBRANCH   1   8
BRANCH   2  10
ATOM     10  C   UNL     1       1.741  -0.512   0.126  0.00  0.00    +0.003 C 
ATOM     11  C   UNL     1       2.311   0.623  -0.428  0.00  0.00    +0.037 C 
ATOM     12  C   UNL     1       2.519  -1.504   0.700  0.00  0.00    +0.000 C 
ATOM     13  C   UNL     1       3.698   0.769  -0.408  0.00  0.00    +0.134 C 
ATOM     14  C   UNL     1       3.906  -1.357   0.720  0.00  0.00    +0.003 C 
ATOM     15  C   UNL     1       4.496  -0.221   0.166  0.00  0.00    +0.037 C 
BRANCH  13  16
ATOM     16  O   UNL     1       4.273   1.878  -0.949  0.00  0.00    -0.506 OA
ATOM     17  H   UNL     1       3.738   2.543  -1.335  0.00  0.00    +0.292 HD
ENDBRANCH  13  16
ENDBRANCH   2  10
TORSDOF 3
