REMARK  Name = 30949
REMARK  10 active torsions:
REMARK  status: ('A' for Active; 'I' for Inactive)
REMARK    1  A    between atoms: N_2  and  C_14
REMARK    2  A    between atoms: C_6  and  C_8
REMARK    3  A    between atoms: C_14  and  C_15
REMARK    4  A    between atoms: C_15  and  N_16
REMARK    5  A    between atoms: N_16  and  C_18
REMARK    6  A    between atoms: N_16  and  C_22
REMARK    7  A    between atoms: C_18  and  C_19
REMARK    8  A    between atoms: C_19  and  C_20
REMARK    9  A    between atoms: C_22  and  C_23
REMARK   10  A    between atoms: C_23  and  C_24
REMARK                            x       y       z     vdW  Elec       q    Type
REMARK                         _______ _______ _______ _____ _____    ______ ____
ROOT
ATOM      1  O   UNL     1       1.878  -2.946   0.841  0.00  0.00    -0.296 OA
ATOM      2  N   UNL     1      -0.329  -2.533   0.291  0.00  0.00    -0.278 N 
ATOM      3  N   UNL     1       1.477  -0.992  -0.177  0.00  0.00    -0.296 NA
ATOM      4  N   UNL     1       3.118  -2.307   0.724  0.00  0.00    -0.005 NA
ATOM      5  C   UNL     1       0.967  -2.105   0.286  0.00  0.00    +0.376 C 
ATOM      6  C   UNL     1       2.800  -1.161   0.114  0.00  0.00    +0.128 C 
ATOM      7  H   UNL     1      -0.522  -3.412   0.690  0.00  0.00    +0.152 HD
ENDROOT
BRANCH   6   8
ATOM      8  C   UNL     1       3.777  -0.166  -0.217  0.00  0.00    +0.077 C 
ATOM      9  C   UNL     1       5.120  -0.374   0.097  0.00  0.00    +0.011 C 
ATOM     10  C   UNL     1       3.386   1.012  -0.854  0.00  0.00    +0.011 C 
ATOM     11  C   UNL     1       6.071   0.594  -0.225  0.00  0.00    +0.001 C 
ATOM     12  C   UNL     1       4.337   1.980  -1.176  0.00  0.00    +0.001 C 
ATOM     13  C   UNL     1       5.679   1.772  -0.861  0.00  0.00    +0.000 C 
ENDBRANCH   6   8
BRANCH   2  14
ATOM     14  C   UNL     1      -1.435  -1.780  -0.252  0.00  0.00    +0.069 C 
BRANCH  14  15
ATOM     15  C   UNL     1      -1.889  -0.737   0.762  0.00  0.00    -0.056 C 
BRANCH  15  16
ATOM     16  N   UNL     1      -2.993   0.056   0.217  0.00  0.00    +0.388 N 
ATOM     17  H   UNL     1      -2.803   0.243  -0.768  0.00  0.00    -0.080 HD
BRANCH  16  18
ATOM     18  C   UNL     1      -4.250  -0.689   0.314  0.00  0.00    -0.077 C 
BRANCH  18  19
ATOM     19  C   UNL     1      -5.257  -0.165  -0.708  0.00  0.00    -0.023 C 
BRANCH  19  20
ATOM     20  C   UNL     1      -6.571  -0.945  -0.638  0.00  0.00    -0.002 C 
ATOM     21  C   UNL     1      -7.592  -0.406  -1.627  0.00  0.00    -0.000 C 
ENDBRANCH  19  20
ENDBRANCH  18  19
ENDBRANCH  16  18
BRANCH  16  22
ATOM     22  C   UNL     1      -3.099   1.334   0.911  0.00  0.00    -0.077 C 
BRANCH  22  23
ATOM     23  C   UNL     1      -2.023   2.298   0.414  0.00  0.00    -0.023 C 
BRANCH  23  24
ATOM     24  C   UNL     1      -2.130   3.653   1.114  0.00  0.00    -0.002 C 
ATOM     25  C   UNL     1      -1.041   4.608   0.651  0.00  0.00    -0.000 C 
ENDBRANCH  23  24
ENDBRANCH  22  23
ENDBRANCH  16  22
ENDBRANCH  15  16
ENDBRANCH  14  15
ENDBRANCH   2  14
TORSDOF 10
