REMARK  Name = 5362460
REMARK  6 active torsions:
REMARK  status: ('A' for Active; 'I' for Inactive)
REMARK    1  A    between atoms: C_12  and  O_21
REMARK    2  A    between atoms: C_18  and  O_30
REMARK    3  A    between atoms: O_21  and  C_23
REMARK    4  A    between atoms: C_23  and  C_25
REMARK    5  A    between atoms: O_30  and  C_32
REMARK    6  A    between atoms: C_32  and  C_34
REMARK                            x       y       z     vdW  Elec       q    Type
REMARK                         _______ _______ _______ _____ _____    ______ ____
ROOT
ATOM      1  O   UNL     1       0.609   0.311   1.337  0.00  0.00    -0.472 OA
ATOM      2  N   UNL     1       5.774   0.022   0.465  0.00  0.00    +0.387 N 
ATOM      3  C   UNL     1       2.920  -0.308   0.883  0.00  0.00    +0.062 C 
ATOM      4  C   UNL     1       3.747  -1.272   0.018  0.00  0.00    +0.011 C 
ATOM      5  C   UNL     1       4.887  -0.427  -0.636  0.00  0.00    -0.049 C 
ATOM      6  C   UNL     1       1.558  -0.809   1.417  0.00  0.00    +0.214 C 
ATOM      7  C   UNL     1       3.816   0.280   1.991  0.00  0.00    -0.015 C 
ATOM      8  C   UNL     1       2.402   0.783   0.006  0.00  0.00    +0.014 C 
ATOM      9  C   UNL     1       4.340   0.721  -1.553  0.00  0.00    +0.006 C 
ATOM     10  C   UNL     1       5.114   0.894   1.442  0.00  0.00    -0.077 C 
ATOM     11  C   UNL     1       3.046   1.332  -1.088  0.00  0.00    -0.025 C 
ATOM     12  C   UNL     1       1.003  -2.060   0.686  0.00  0.00    +0.231 C 
ATOM     13  C   UNL     1       2.880  -2.024  -0.959  0.00  0.00    -0.029 C 
ATOM     14  C   UNL     1       1.115   1.123   0.358  0.00  0.00    +0.169 C 
ATOM     15  C   UNL     1       1.619  -2.363  -0.654  0.00  0.00    +0.016 C 
ATOM     16  C   UNL     1       7.031   0.598   0.000  0.00  0.00    -0.101 C 
ATOM     17  C   UNL     1       2.386   2.357  -1.768  0.00  0.00    -0.001 C 
ATOM     18  C   UNL     1       0.446   2.137  -0.292  0.00  0.00    +0.182 C 
ATOM     19  C   UNL     1       1.102   2.769  -1.357  0.00  0.00    +0.040 C 
ATOM     20  H   UNL     1       6.006  -0.839   0.960  0.00  0.00    -0.080 HD
ENDROOT
BRANCH  12  21
ATOM     21  O   UNL     1      -0.415  -1.966   0.570  0.00  0.00    -0.441 OA
BRANCH  21  23
ATOM     22  O   UNL     1      -0.518  -4.136  -0.191  0.00  0.00    -0.245 OA
ATOM     23  C   UNL     1      -1.050  -3.080   0.118  0.00  0.00    +0.343 C 
BRANCH  23  25
ATOM     24  N   UNL     1      -4.596  -3.353  -1.022  0.00  0.00    -0.242 NA
ATOM     25  C   UNL     1      -2.515  -2.853   0.041  0.00  0.00    +0.095 C 
ATOM     26  C   UNL     1      -3.119  -1.979   0.913  0.00  0.00    +0.010 C 
ATOM     27  C   UNL     1      -3.260  -3.514  -0.898  0.00  0.00    +0.105 C 
ATOM     28  C   UNL     1      -4.492  -1.786   0.817  0.00  0.00    +0.021 C 
ATOM     29  C   UNL     1      -5.179  -2.490  -0.159  0.00  0.00    +0.099 C 
ENDBRANCH  23  25
ENDBRANCH  21  23
ENDBRANCH  12  21
BRANCH  18  30
ATOM     30  O   UNL     1      -0.814   2.494   0.056  0.00  0.00    -0.418 OA
BRANCH  30  32
ATOM     31  O   UNL     1      -1.643   0.904  -1.433  0.00  0.00    -0.244 OA
ATOM     32  C   UNL     1      -1.822   1.778  -0.599  0.00  0.00    +0.347 C 
BRANCH  32  34
ATOM     33  N   UNL     1      -4.490   3.664   1.212  0.00  0.00    -0.242 NA
ATOM     34  C   UNL     1      -3.171   2.225  -0.166  0.00  0.00    +0.095 C 
ATOM     35  C   UNL     1      -4.291   1.646  -0.712  0.00  0.00    +0.010 C 
ATOM     36  C   UNL     1      -3.293   3.212   0.775  0.00  0.00    +0.105 C 
ATOM     37  C   UNL     1      -5.540   2.085  -0.287  0.00  0.00    +0.021 C 
ATOM     38  C   UNL     1      -5.585   3.087   0.669  0.00  0.00    +0.099 C 
ENDBRANCH  32  34
ENDBRANCH  30  32
ENDBRANCH  18  30
TORSDOF 6
