REMARK  Name = 4832
REMARK  7 active torsions:
REMARK  status: ('A' for Active; 'I' for Inactive)
REMARK    1  A    between atoms: C_1  and  C_2
REMARK    2  A    between atoms: C_1  and  C_8
REMARK    3  A    between atoms: C_1  and  O_14
REMARK    4  A    between atoms: C_1  and  C_17
REMARK    5  A    between atoms: C_17  and  O_18
REMARK    6  A    between atoms: O_18  and  C_22
REMARK    7  A    between atoms: N_19  and  C_26
REMARK                            x       y       z     vdW  Elec       q    Type
REMARK                         _______ _______ _______ _____ _____    ______ ____
ROOT
ATOM      1  C   UNL     1      -1.257  -0.144   0.335  0.00  0.00    +0.216 C 
ENDROOT
BRANCH   1   2
ATOM      2  C   UNL     1      -2.675  -0.709   0.217  0.00  0.00    +0.016 C 
ATOM      3  C   UNL     1      -3.355  -0.539  -0.967  0.00  0.00    -0.001 C 
ATOM      4  C   UNL     1      -3.214  -1.363   1.300  0.00  0.00    -0.001 C 
ATOM      5  C   UNL     1      -4.647  -1.053  -1.074  0.00  0.00    -0.000 C 
ATOM      6  C   UNL     1      -4.507  -1.878   1.193  0.00  0.00    -0.000 C 
ATOM      7  C   UNL     1      -5.223  -1.723   0.006  0.00  0.00    -0.000 C 
ENDBRANCH   1   2
BRANCH   1   8
ATOM      8  C   UNL     1      -1.254   1.372   0.124  0.00  0.00    +0.016 C 
ATOM      9  C   UNL     1      -1.417   2.189   1.219  0.00  0.00    -0.001 C 
ATOM     10  C   UNL     1      -1.089   1.859  -1.152  0.00  0.00    -0.001 C 
ATOM     11  C   UNL     1      -1.415   3.571   1.027  0.00  0.00    -0.000 C 
ATOM     12  C   UNL     1      -1.087   3.241  -1.344  0.00  0.00    -0.000 C 
ATOM     13  C   UNL     1      -1.250   4.097  -0.255  0.00  0.00    -0.000 C 
ENDBRANCH   1   8
BRANCH   1  14
ATOM     14  O   UNL     1      -0.702  -0.455   1.629  0.00  0.00    -0.370 OA
ATOM     15  H   UNL     1      -0.705  -1.416   1.760  0.00  0.00    +0.212 HD
ENDBRANCH   1  14
BRANCH   1  17
ATOM     16  O   UNL     1      -0.472  -1.809  -1.278  0.00  0.00    -0.247 OA
ATOM     17  C   UNL     1      -0.226  -0.864  -0.539  0.00  0.00    +0.349 C 
BRANCH  17  18
ATOM     18  O   UNL     1       1.009  -0.280  -0.409  0.00  0.00    -0.452 OA
BRANCH  18  22
ATOM     19  N   UNL     1       4.036  -0.326   0.327  0.00  0.00    +0.391 N 
ATOM     20  C   UNL     1       3.339  -0.045  -1.016  0.00  0.00    -0.029 C 
ATOM     21  C   UNL     1       4.196  -1.829   0.566  0.00  0.00    -0.073 C 
ATOM     22  C   UNL     1       2.048  -0.840  -1.205  0.00  0.00    +0.149 C 
ATOM     23  C   UNL     1       2.868  -2.565   0.449  0.00  0.00    -0.019 C 
ATOM     24  C   UNL     1       2.216  -2.325  -0.905  0.00  0.00    +0.039 C 
ATOM     25  C   UNL     1       3.313   0.344   1.496  0.00  0.00    -0.096 C 
BRANCH  19  26
ATOM     26  C   UNL     1       5.442   0.294   0.261  0.00  0.00    -0.073 C 
ATOM     27  C   UNL     1       5.320   1.778  -0.003  0.00  0.00    -0.024 C 
ENDBRANCH  19  26
ENDBRANCH  18  22
ENDBRANCH  17  18
ENDBRANCH   1  17
TORSDOF 7
