REMARK  Name = 44571
REMARK  2 active torsions:
REMARK  status: ('A' for Active; 'I' for Inactive)
REMARK    1  A    between atoms: C_3  and  C_12
REMARK    2  A    between atoms: C_9  and  O_19
REMARK                            x       y       z     vdW  Elec       q    Type
REMARK                         _______ _______ _______ _____ _____    ______ ____
ROOT
ATOM      1 BR   UNL     1       1.215  -3.397   0.000  0.00  0.00    -0.046 Br
ATOM      2  O   UNL     1      -0.481  -0.643  -0.001  0.00  0.00    -0.457 OA
ATOM      3  C   UNL     1      -0.964   0.621  -0.001  0.00  0.00    +0.122 C 
ATOM      4  C   UNL     1       0.043   1.546  -0.001  0.00  0.00    +0.036 C 
ATOM      5  C   UNL     1       1.254   0.804  -0.001  0.00  0.00    +0.041 C 
ATOM      6  C   UNL     1       0.877  -0.535  -0.001  0.00  0.00    +0.151 C 
ATOM      7  C   UNL     1       2.625   1.116  -0.001  0.00  0.00    +0.040 C 
ATOM      8  C   UNL     1       1.776  -1.600  -0.001  0.00  0.00    +0.072 C 
ATOM      9  C   UNL     1       3.553   0.066  -0.001  0.00  0.00    +0.139 C 
ATOM     10  C   UNL     1       3.134  -1.267  -0.001  0.00  0.00    +0.047 C 
ENDROOT
BRANCH   3  12
ATOM     11  N   UNL     1      -5.186  -0.355   0.001  0.00  0.00    +0.384 N 
ATOM     12  C   UNL     1      -2.471   0.747   0.000  0.00  0.00    +0.053 C 
ATOM     13  C   UNL     1      -3.116   0.144   1.260  0.00  0.00    -0.016 C 
ATOM     14  C   UNL     1      -3.118   0.146  -1.260  0.00  0.00    -0.016 C 
ATOM     15  C   UNL     1      -4.639   0.261   1.210  0.00  0.00    -0.081 C 
ATOM     16  C   UNL     1      -4.641   0.264  -1.208  0.00  0.00    -0.081 C 
ATOM     17  H   UNL     1      -6.200  -0.245   0.002  0.00  0.00    -0.085 HD
ATOM     18  H   UNL     1      -4.928  -1.342   0.000  0.00  0.00    -0.085 HD
ENDBRANCH   3  12
BRANCH   9  19
ATOM     19  O   UNL     1       4.886   0.352   0.001  0.00  0.00    -0.471 OA
ATOM     20  C   UNL     1       5.252   1.730   0.003  0.00  0.00    +0.252 C 
ENDBRANCH   9  19
TORSDOF 2
