REMARK  Name = 19161
REMARK  9 active torsions:
REMARK  status: ('A' for Active; 'I' for Inactive)
REMARK    1  A    between atoms: N_2  and  C_4
REMARK    2  A    between atoms: N_2  and  N_10
REMARK    3  A    between atoms: C_3  and  C_18
REMARK    4  A    between atoms: N_10  and  C_12
REMARK    5  A    between atoms: C_18  and  C_20
REMARK    6  A    between atoms: C_18  and  C_23
REMARK    7  A    between atoms: C_20  and  O_21
REMARK    8  A    between atoms: C_23  and  C_24
REMARK    9  A    between atoms: C_24  and  C_25
REMARK                            x       y       z     vdW  Elec       q    Type
REMARK                         _______ _______ _______ _____ _____    ______ ____
ROOT
ATOM      1  O   UNL     1      -1.587   1.054  -1.294  0.00  0.00    -0.272 OA
ATOM      2  N   UNL     1       0.124   0.682   0.252  0.00  0.00    -0.188 N 
ATOM      3  C   UNL     1      -1.011   0.317  -0.490  0.00  0.00    +0.255 C 
ENDROOT
BRANCH   2   4
ATOM      4  C   UNL     1       0.746   1.966   0.074  0.00  0.00    +0.073 C 
ATOM      5  C   UNL     1       0.670   2.565  -1.160  0.00  0.00    +0.017 C 
ATOM      6  C   UNL     1       1.387   2.537   1.147  0.00  0.00    +0.017 C 
ATOM      7  C   UNL     1       1.273   3.811  -1.333  0.00  0.00    +0.001 C 
ATOM      8  C   UNL     1       1.990   3.783   0.975  0.00  0.00    +0.001 C 
ATOM      9  C   UNL     1       1.933   4.420  -0.265  0.00  0.00    +0.000 C 
ENDBRANCH   2   4
BRANCH   2  10
ATOM     10  N   UNL     1       0.624  -0.237   1.161  0.00  0.00    -0.256 N 
ATOM     11  H   UNL     1       0.237  -0.285   2.065  0.00  0.00    +0.171 HD
BRANCH  10  12
ATOM     12  C   UNL     1       1.676  -1.100   0.811  0.00  0.00    +0.062 C 
ATOM     13  C   UNL     1       2.250  -1.935   1.773  0.00  0.00    +0.016 C 
ATOM     14  C   UNL     1       2.155  -1.128  -0.502  0.00  0.00    +0.016 C 
ATOM     15  C   UNL     1       3.295  -2.792   1.425  0.00  0.00    +0.001 C 
ATOM     16  C   UNL     1       3.200  -1.984  -0.849  0.00  0.00    +0.001 C 
ATOM     17  C   UNL     1       3.770  -2.816   0.114  0.00  0.00    +0.000 C 
ENDBRANCH  10  12
ENDBRANCH   2  10
BRANCH   3  18
ATOM     18  C   UNL     1      -1.594  -1.089  -0.215  0.00  0.00    +0.177 C 
BRANCH  18  20
ATOM     19  O   UNL     1      -0.680  -1.854  -2.334  0.00  0.00    -0.250 OA
ATOM     20  C   UNL     1      -1.028  -2.111  -1.188  0.00  0.00    +0.322 C 
BRANCH  20  21
ATOM     21  O   UNL     1      -0.937  -3.353  -0.649  0.00  0.00    -0.480 OA
ATOM     22  H   UNL     1      -1.216  -3.503   0.232  0.00  0.00    +0.295 HD
ENDBRANCH  20  21
ENDBRANCH  18  20
BRANCH  18  23
ATOM     23  C   UNL     1      -3.132  -1.064  -0.337  0.00  0.00    +0.020 C 
BRANCH  23  24
ATOM     24  C   UNL     1      -3.802  -0.143   0.689  0.00  0.00    +0.001 C 
BRANCH  24  25
ATOM     25  C   UNL     1      -5.326  -0.206   0.578  0.00  0.00    +0.000 C 
ATOM     26  C   UNL     1      -5.997   0.677   1.617  0.00  0.00    +0.000 C 
ENDBRANCH  24  25
ENDBRANCH  23  24
ENDBRANCH  18  23
ENDBRANCH   3  18
TORSDOF 9
