REMARK  Name = 25429
REMARK  2 active torsions:
REMARK  status: ('A' for Active; 'I' for Inactive)
REMARK    1  A    between atoms: N_4  and  C_7
REMARK    2  A    between atoms: C_12  and  O_16
REMARK                            x       y       z     vdW  Elec       q    Type
REMARK                         _______ _______ _______ _____ _____    ______ ____
ROOT
ATOM      1  N   UNL     1      -0.052   0.662   0.001  0.00  0.00    -0.302 N 
ATOM      2  N   UNL     1      -0.522  -1.511   0.000  0.00  0.00    -0.302 N 
ATOM      3  C   UNL     1      -1.422   0.583   0.001  0.00  0.00    +0.060 C 
ATOM      4  C   UNL     1      -1.690  -0.783   0.000  0.00  0.00    +0.060 C 
ATOM      5  C   UNL     1       0.439  -0.614   0.001  0.00  0.00    +0.229 C 
ATOM      6  C   UNL     1      -2.418   1.559   0.000  0.00  0.00    +0.016 C 
ATOM      7  C   UNL     1      -3.025  -1.219  -0.001  0.00  0.00    +0.016 C 
ATOM      8  C   UNL     1      -3.742   1.108   0.000  0.00  0.00    +0.001 C 
ATOM      9  C   UNL     1      -4.042  -0.256  -0.001  0.00  0.00    +0.001 C 
ATOM     10  H   UNL     1       0.481   1.489   0.001  0.00  0.00    +0.150 HD
ATOM     11  H   UNL     1      -0.426  -2.491   0.000  0.00  0.00    +0.150 HD
ENDROOT
BRANCH   5  13
ATOM     12  O   UNL     1       2.679   1.341   0.000  0.00  0.00    -0.226 OA
ATOM     13  N   UNL     1       1.792  -0.835   0.001  0.00  0.00    -0.240 N 
ATOM     14  C   UNL     1       2.806   0.123   0.000  0.00  0.00    +0.404 C 
ATOM     15  H   UNL     1       2.080  -1.777   0.001  0.00  0.00    +0.156 HD
BRANCH  14  16
ATOM     16  O   UNL     1       4.024  -0.505   0.000  0.00  0.00    -0.431 OA
ATOM     17  C   UNL     1       5.174   0.348  -0.001  0.00  0.00    +0.257 C 
ENDBRANCH  14  16
ENDBRANCH   5  13
TORSDOF 2
