REMARK  Name = 35455
REMARK  4 active torsions:
REMARK  status: ('A' for Active; 'I' for Inactive)
REMARK    1  A    between atoms: N_3  and  C_8
REMARK    2  A    between atoms: N_4  and  C_14
REMARK    3  A    between atoms: C_5  and  C_20
REMARK    4  A    between atoms: C_20  and  C_21
REMARK                            x       y       z     vdW  Elec       q    Type
REMARK                         _______ _______ _______ _____ _____    ______ ____
ROOT
ATOM      1  O   UNL     1      -0.182   3.195  -0.017  0.00  0.00    -0.272 OA
ATOM      2  O   UNL     1       2.045  -0.382  -2.139  0.00  0.00    -0.272 OA
ATOM      3  N   UNL     1      -0.645   0.872  -0.262  0.00  0.00    -0.179 N 
ATOM      4  N   UNL     1       0.079  -0.217  -0.805  0.00  0.00    -0.179 N 
ATOM      5  C   UNL     1       1.269   1.731  -1.271  0.00  0.00    +0.161 C 
ATOM      6  C   UNL     1       0.081   2.064  -0.400  0.00  0.00    +0.254 C 
ATOM      7  C   UNL     1       1.199   0.242  -1.516  0.00  0.00    +0.254 C 
ENDROOT
BRANCH   3   8
ATOM      8  C   UNL     1      -2.050   0.854  -0.004  0.00  0.00    +0.073 C 
ATOM      9  C   UNL     1      -2.643   1.895   0.714  0.00  0.00    +0.017 C 
ATOM     10  C   UNL     1      -2.835  -0.203  -0.471  0.00  0.00    +0.017 C 
ATOM     11  C   UNL     1      -4.015   1.878   0.965  0.00  0.00    +0.001 C 
ATOM     12  C   UNL     1      -4.207  -0.219  -0.219  0.00  0.00    +0.001 C 
ATOM     13  C   UNL     1      -4.797   0.821   0.498  0.00  0.00    +0.000 C 
ENDBRANCH   3   8
BRANCH   4  14
ATOM     14  C   UNL     1      -0.032  -1.565  -0.347  0.00  0.00    +0.073 C 
ATOM     15  C   UNL     1       0.583  -2.600  -1.056  0.00  0.00    +0.017 C 
ATOM     16  C   UNL     1      -0.755  -1.854   0.812  0.00  0.00    +0.017 C 
ATOM     17  C   UNL     1       0.475  -3.916  -0.608  0.00  0.00    +0.001 C 
ATOM     18  C   UNL     1      -0.864  -3.171   1.260  0.00  0.00    +0.001 C 
ATOM     19  C   UNL     1      -0.248  -4.202   0.550  0.00  0.00    +0.000 C 
ENDBRANCH   4  14
BRANCH   5  20
ATOM     20  C   UNL     1       2.571   2.124  -0.595  0.00  0.00    +0.044 C 
BRANCH  20  21
ATOM     21  C   UNL     1       2.693   1.494   0.763  0.00  0.00    -0.034 C 
ATOM     22  C   UNL     1       3.681   0.701   1.218  0.00  0.00    -0.048 C 
ATOM     23  C   UNL     1       3.744   0.100   2.594  0.00  0.00    +0.026 C 
ATOM     24  C   UNL     1       4.852   0.358   0.336  0.00  0.00    +0.026 C 
ENDBRANCH  20  21
ENDBRANCH   5  20
TORSDOF 4
