REMARK  Name = 31796
REMARK  7 active torsions:
REMARK  status: ('A' for Active; 'I' for Inactive)
REMARK    1  A    between atoms: C_2  and  C_4
REMARK    2  A    between atoms: C_2  and  O_15
REMARK    3  A    between atoms: C_4  and  C_9
REMARK    4  A    between atoms: O_15  and  C_16
REMARK    5  A    between atoms: C_16  and  C_18
REMARK    6  A    between atoms: C_18  and  C_19
REMARK    7  A    between atoms: C_19  and  N_21
REMARK                            x       y       z     vdW  Elec       q    Type
REMARK                         _______ _______ _______ _____ _____    ______ ____
ROOT
ATOM      1  O   UNL     1      -2.239   1.623   1.582  0.00  0.00    -0.250 OA
ATOM      2  C   UNL     1      -1.784   0.950   0.667  0.00  0.00    +0.320 C 
ENDROOT
BRANCH   2   4
ATOM      3  O   UNL     1      -4.804   1.464  -1.303  0.00  0.00    -0.354 OA
ATOM      4  C   UNL     1      -2.589  -0.059  -0.127  0.00  0.00    +0.113 C 
ATOM      5  C   UNL     1      -4.043  -0.090   0.411  0.00  0.00    +0.047 C 
ATOM      6  C   UNL     1      -2.630   0.431  -1.598  0.00  0.00    +0.047 C 
ATOM      7  C   UNL     1      -4.823   1.184   0.093  0.00  0.00    +0.143 C 
ATOM      8  C   UNL     1      -3.480   1.685  -1.779  0.00  0.00    +0.143 C 
BRANCH   4   9
ATOM      9  C   UNL     1      -1.915  -1.428   0.060  0.00  0.00    -0.013 C 
ATOM     10  C   UNL     1      -1.793  -1.971   1.336  0.00  0.00    -0.004 C 
ATOM     11  C   UNL     1      -1.430  -2.119  -1.048  0.00  0.00    -0.004 C 
ATOM     12  C   UNL     1      -1.181  -3.214   1.506  0.00  0.00    -0.000 C 
ATOM     13  C   UNL     1      -0.819  -3.361  -0.878  0.00  0.00    -0.000 C 
ATOM     14  C   UNL     1      -0.694  -3.908   0.399  0.00  0.00    -0.000 C 
ENDBRANCH   4   9
ENDBRANCH   2   4
BRANCH   2  15
ATOM     15  O   UNL     1      -0.503   0.981   0.200  0.00  0.00    -0.452 OA
BRANCH  15  16
ATOM     16  C   UNL     1       0.372   1.897   0.864  0.00  0.00    +0.167 C 
ATOM     17  C   UNL     1      -0.199   3.303   0.734  0.00  0.00    +0.047 C 
BRANCH  16  18
ATOM     18  C   UNL     1       1.767   1.805   0.238  0.00  0.00    +0.021 C 
BRANCH  18  19
ATOM     19  C   UNL     1       2.340   0.388   0.321  0.00  0.00    -0.073 C 
BRANCH  19  21
ATOM     20  O   UNL     1       6.458  -0.189  -0.247  0.00  0.00    -0.358 OA
ATOM     21  N   UNL     1       3.661   0.338  -0.301  0.00  0.00    +0.390 N 
ATOM     22  C   UNL     1       4.599   1.232   0.393  0.00  0.00    -0.045 C 
ATOM     23  C   UNL     1       4.185  -1.035  -0.305  0.00  0.00    -0.045 C 
ATOM     24  C   UNL     1       5.973   1.154  -0.267  0.00  0.00    +0.119 C 
ATOM     25  C   UNL     1       5.569  -1.060  -0.948  0.00  0.00    +0.119 C 
ATOM     26  H   UNL     1       3.564   0.653  -1.266  0.00  0.00    -0.079 HD
ENDBRANCH  19  21
ENDBRANCH  18  19
ENDBRANCH  16  18
ENDBRANCH  15  16
ENDBRANCH   2  15
TORSDOF 7
