REMARK  Name = 23497
REMARK  7 active torsions:
REMARK  status: ('A' for Active; 'I' for Inactive)
REMARK    1  A    between atoms: C_1  and  C_2
REMARK    2  A    between atoms: C_1  and  C_12
REMARK    3  A    between atoms: C_5  and  O_8
REMARK    4  A    between atoms: C_7  and  O_10
REMARK    5  A    between atoms: C_12  and  N_13
REMARK    6  A    between atoms: C_12  and  C_18
REMARK    7  A    between atoms: C_18  and  O_19
REMARK                            x       y       z     vdW  Elec       q    Type
REMARK                         _______ _______ _______ _____ _____    ______ ____
ROOT
ATOM      1  C   UNL     1      -0.876   0.268   0.802  0.00  0.00    +0.015 C 
ENDROOT
BRANCH   1   2
ATOM      2  C   UNL     1       0.603   0.237   0.495  0.00  0.00    -0.021 C 
ATOM      3  C   UNL     1       1.202  -0.967   0.164  0.00  0.00    +0.035 C 
ATOM      4  C   UNL     1       1.331   1.415   0.550  0.00  0.00    -0.001 C 
ATOM      5  C   UNL     1       2.568  -0.995  -0.119  0.00  0.00    +0.167 C 
ATOM      6  C   UNL     1       2.696   1.387   0.268  0.00  0.00    +0.039 C 
ATOM      7  C   UNL     1       3.315   0.182  -0.067  0.00  0.00    +0.167 C 
BRANCH   5   8
ATOM      8  O   UNL     1       3.160  -2.177  -0.446  0.00  0.00    -0.503 OA
ATOM      9  H   UNL     1       2.651  -2.963  -0.478  0.00  0.00    +0.292 HD
ENDBRANCH   5   8
BRANCH   7  10
ATOM     10  O   UNL     1       4.649   0.168  -0.342  0.00  0.00    -0.503 OA
ATOM     11  H   UNL     1       5.072  -0.637  -0.567  0.00  0.00    +0.292 HD
ENDBRANCH   7  10
ENDBRANCH   1   2
BRANCH   1  12
ATOM     12  C   UNL     1      -1.744   0.515  -0.439  0.00  0.00    +0.040 C 
BRANCH  12  13
ATOM     13  N   UNL     1      -1.746   1.944  -0.760  0.00  0.00    +0.389 N 
ATOM     14  H   UNL     1      -0.791   2.253  -0.939  0.00  0.00    -0.088 HD
ATOM     15  H   UNL     1      -2.131   2.468   0.026  0.00  0.00    -0.088 HD
ATOM     16  H   UNL     1      -2.317   2.106  -1.589  0.00  0.00    -0.088 HD
ENDBRANCH  12  13
BRANCH  12  18
ATOM     17  O   UNL     1      -4.140   0.889  -0.187  0.00  0.00    -0.252 OA
ATOM     18  C   UNL     1      -3.188   0.119  -0.183  0.00  0.00    +0.297 C 
BRANCH  18  19
ATOM     19  O   UNL     1      -3.258  -1.231   0.019  0.00  0.00    -0.446 OA
ATOM     20  C   UNL     1      -4.571  -1.755   0.243  0.00  0.00    +0.256 C 
ENDBRANCH  18  19
ENDBRANCH  12  18
ENDBRANCH   1  12
TORSDOF 7
