REMARK  Name = 65955
REMARK  0 active torsions:
REMARK  status: ('A' for Active; 'I' for Inactive)
REMARK                            x       y       z     vdW  Elec       q    Type
REMARK                         _______ _______ _______ _____ _____    ______ ____
ROOT
ATOM      1  O   UNL     1       2.122   1.691   0.234  0.00  0.00    -0.275 OA
ATOM      2  O   UNL     1      -3.085   0.442   0.385  0.00  0.00    -0.273 OA
ATOM      3  N   UNL     1       0.282   0.370  -0.391  0.00  0.00    -0.256 N 
ATOM      4  N   UNL     1      -1.368  -1.093  -0.035  0.00  0.00    -0.289 N 
ATOM      5  C   UNL     1      -0.027  -1.021  -0.502  0.00  0.00    +0.152 C 
ATOM      6  C   UNL     1       1.046  -1.674   0.342  0.00  0.00    +0.050 C 
ATOM      7  C   UNL     1       2.245  -0.740   0.135  0.00  0.00    +0.089 C 
ATOM      8  C   UNL     1      -0.874   1.224  -0.262  0.00  0.00    +0.180 C 
ATOM      9  C   UNL     1       1.586   0.618   0.008  0.00  0.00    +0.227 C 
ATOM     10  C   UNL     1      -1.927   0.182   0.086  0.00  0.00    +0.244 C 
ATOM     11  H   UNL     1      -1.841  -1.930   0.175  0.00  0.00    +0.151 HD
ENDROOT
TORSDOF 0
