REMARK  Name = 5357
REMARK  7 active torsions:
REMARK  status: ('A' for Active; 'I' for Inactive)
REMARK    1  A    between atoms: N_2  and  C_18
REMARK    2  A    between atoms: C_3  and  C_5
REMARK    3  A    between atoms: C_7  and  S_11
REMARK    4  A    between atoms: C_8  and  O_16
REMARK    5  A    between atoms: S_11  and  C_14
REMARK    6  A    between atoms: C_18  and  C_20
REMARK    7  A    between atoms: N_19  and  C_25
REMARK                            x       y       z     vdW  Elec       q    Type
REMARK                         _______ _______ _______ _____ _____    ______ ____
ROOT
ATOM      1  O   UNL     1       1.060   1.980  -1.081  0.00  0.00    -0.270 OA
ATOM      2  N   UNL     1       0.970  -0.316  -0.760  0.00  0.00    -0.303 N 
ATOM      3  C   UNL     1       0.435   0.969  -0.771  0.00  0.00    +0.249 C 
ATOM      4  H   UNL     1       0.388  -1.066  -0.496  0.00  0.00    +0.150 HD
ENDROOT
BRANCH   3   5
ATOM      5  C   UNL     1      -0.985   1.095  -0.351  0.00  0.00    +0.089 C 
ATOM      6  C   UNL     1      -1.829   0.028  -0.588  0.00  0.00    +0.026 C 
ATOM      7  C   UNL     1      -3.166   0.127  -0.201  0.00  0.00    +0.106 C 
ATOM      8  C   UNL     1      -1.421   2.256   0.255  0.00  0.00    +0.143 C 
ATOM      9  C   UNL     1      -3.630   1.290   0.413  0.00  0.00    +0.021 C 
ATOM     10  C   UNL     1      -2.758   2.354   0.641  0.00  0.00    +0.038 C 
BRANCH   7  11
ATOM     11  S   UNL     1      -4.258  -1.205  -0.487  0.00  0.00    +0.009 S 
ATOM     12  O   UNL     1      -5.610  -0.669  -0.555  0.00  0.00    -0.169 OA
ATOM     13  O   UNL     1      -3.743  -2.010  -1.586  0.00  0.00    -0.169 OA
BRANCH  11  14
ATOM     14  C   UNL     1      -4.137  -2.198   0.984  0.00  0.00    +0.156 C 
ATOM     15  C   UNL     1      -5.032  -3.414   0.907  0.00  0.00    +0.028 C 
ENDBRANCH  11  14
ENDBRANCH   7  11
BRANCH   8  16
ATOM     16  O   UNL     1      -0.584   3.306   0.487  0.00  0.00    -0.471 OA
ATOM     17  C   UNL     1       0.107   3.321   1.734  0.00  0.00    +0.252 C 
ENDBRANCH   8  16
ENDBRANCH   3   5
BRANCH   2  18
ATOM     18  C   UNL     1       2.329  -0.596  -1.115  0.00  0.00    +0.069 C 
BRANCH  18  20
ATOM     19  N   UNL     1       4.630  -0.913  -0.184  0.00  0.00    +0.389 N 
ATOM     20  C   UNL     1       3.241  -0.528   0.104  0.00  0.00    -0.038 C 
ATOM     21  C   UNL     1       2.829  -1.537   1.178  0.00  0.00    -0.021 C 
ATOM     22  C   UNL     1       4.130  -1.968   1.846  0.00  0.00    -0.025 C 
ATOM     23  C   UNL     1       5.222  -1.196   1.126  0.00  0.00    -0.077 C 
ATOM     24  H   UNL     1       4.658  -1.719  -0.808  0.00  0.00    -0.080 HD
BRANCH  19  25
ATOM     25  C   UNL     1       5.377   0.114  -0.898  0.00  0.00    -0.077 C 
ATOM     26  C   UNL     1       6.823  -0.290  -1.099  0.00  0.00    -0.025 C 
ENDBRANCH  19  25
ENDBRANCH  18  20
ENDBRANCH   2  18
TORSDOF 7
