11703306
  -OEChem-11111920273D

 35 36  0     1  0  0  0  0  0999 V2000
    4.7133    2.3616   -0.8268 F   0  0  0  0  0  0  0  0  0  0  0  0
    6.3755    1.2795    0.0770 F   0  0  0  0  0  0  0  0  0  0  0  0
    5.7267    0.7900   -1.9466 F   0  0  0  0  0  0  0  0  0  0  0  0
   -3.7241    2.6430    0.9438 F   0  0  0  0  0  0  0  0  0  0  0  0
   -4.9268    2.0699   -0.7677 F   0  0  0  0  0  0  0  0  0  0  0  0
   -5.3541    1.2248    1.1899 F   0  0  0  0  0  0  0  0  0  0  0  0
    1.1154   -2.3939   -0.1016 O   0  0  0  0  0  0  0  0  0  0  0  0
    3.5224   -1.7007    0.4844 N   0  0  0  0  0  0  0  0  0  0  0  0
    4.6473   -1.0993    0.0337 N   0  0  0  0  0  0  0  0  0  0  0  0
    0.1738   -0.3410    0.5583 N   0  0  0  0  0  0  0  0  0  0  0  0
   -6.3338   -1.0384   -1.1947 N   0  0  0  0  0  0  0  0  0  0  0  0
    2.4956   -0.7467    0.9066 C   0  0  2  0  0  0  0  0  0  0  0  0
    2.9310    0.5232    0.1893 C   0  0  0  0  0  0  0  0  0  0  0  0
    2.4580   -0.5883    2.4235 C   0  0  0  0  0  0  0  0  0  0  0  0
    4.3338    0.1402   -0.1678 C   0  0  0  0  0  0  0  0  0  0  0  0
    1.1900   -1.2732    0.3919 C   0  0  0  0  0  0  0  0  0  0  0  0
    5.2903    1.1442   -0.7173 C   0  0  0  0  0  0  0  0  0  0  0  0
   -1.1874   -0.4770    0.1962 C   0  0  0  0  0  0  0  0  0  0  0  0
   -2.0621    0.5687    0.4409 C   0  0  0  0  0  0  0  0  0  0  0  0
   -1.6162   -1.6536   -0.3956 C   0  0  0  0  0  0  0  0  0  0  0  0
   -3.4037    0.4339    0.0833 C   0  0  0  0  0  0  0  0  0  0  0  0
   -3.8514   -0.7447   -0.5136 C   0  0  0  0  0  0  0  0  0  0  0  0
   -2.9577   -1.7883   -0.7531 C   0  0  0  0  0  0  0  0  0  0  0  0
   -4.3332    1.5730    0.3558 C   0  0  0  0  0  0  0  0  0  0  0  0
   -5.2228   -0.9070   -0.8899 C   0  0  0  0  0  0  0  0  0  0  0  0
    2.9381    1.4088    0.8313 H   0  0  0  0  0  0  0  0  0  0  0  0
    2.3840    0.7323   -0.7358 H   0  0  0  0  0  0  0  0  0  0  0  0
    3.4447   -0.3262    2.8232 H   0  0  0  0  0  0  0  0  0  0  0  0
    1.7636    0.1999    2.7348 H   0  0  0  0  0  0  0  0  0  0  0  0
    2.1369   -1.5159    2.9120 H   0  0  0  0  0  0  0  0  0  0  0  0
    3.7345   -2.4046    1.1881 H   0  0  0  0  0  0  0  0  0  0  0  0
    0.4127    0.5524    0.9828 H   0  0  0  0  0  0  0  0  0  0  0  0
   -1.7008    1.4818    0.9067 H   0  0  0  0  0  0  0  0  0  0  0  0
   -0.9868   -2.5039   -0.6124 H   0  0  0  0  0  0  0  0  0  0  0  0
   -3.2917   -2.7133   -1.2176 H   0  0  0  0  0  0  0  0  0  0  0  0
  1 17  1  0  0  0  0
  2 17  1  0  0  0  0
  3 17  1  0  0  0  0
  4 24  1  0  0  0  0
  5 24  1  0  0  0  0
  6 24  1  0  0  0  0
  7 16  2  0  0  0  0
  8  9  1  0  0  0  0
  8 12  1  0  0  0  0
  8 31  1  0  0  0  0
  9 15  2  0  0  0  0
 10 16  1  0  0  0  0
 10 18  1  0  0  0  0
 10 32  1  0  0  0  0
 11 25  3  0  0  0  0
 12 13  1  0  0  0  0
 12 14  1  0  0  0  0
 12 16  1  0  0  0  0
 13 15  1  0  0  0  0
 13 26  1  0  0  0  0
 13 27  1  0  0  0  0
 14 28  1  0  0  0  0
 14 29  1  0  0  0  0
 14 30  1  0  0  0  0
 15 17  1  0  0  0  0
 18 19  2  0  0  0  0
 18 20  1  0  0  0  0
 19 21  1  0  0  0  0
 19 33  1  0  0  0  0
 20 23  2  0  0  0  0
 20 34  1  0  0  0  0
 21 22  2  0  0  0  0
 21 24  1  0  0  0  0
 22 23  1  0  0  0  0
 22 25  1  0  0  0  0
 23 35  1  0  0  0  0
M  END
> <DATABASE_ID>
DB13936

> <DATABASE_NAME>
drugbank

> <ORIGINAL_SOURCE>
PUBCHEM

> <ORIGINAL_SOURCE_URL>
https://pubchem.ncbi.nlm.nih.gov/rest/pug/compound/inchikey/RYBKPGYFXRNMMU-LBPRGKRZSA-N/SDF?record_type=3d

> <SMILES>
[H]N(C(=O)[C@]1(C)CC(=NN1[H])C(F)(F)F)C1=CC(=C(C=C1)C#N)C(F)(F)F

> <INCHI_IDENTIFIER>
InChI=1S/C14H10F6N4O/c1-12(5-10(23-24-12)14(18,19)20)11(25)22-8-3-2-7(6-21)9(4-8)13(15,16)17/h2-4,24H,5H2,1H3,(H,22,25)/t12-/m0/s1

> <INCHI_KEY>
RYBKPGYFXRNMMU-LBPRGKRZSA-N

> <FORMULA>
C14H10F6N4O

> <MOLECULAR_WEIGHT>
364.251

> <EXACT_MASS>
364.075879936

> <JCHEM_ACCEPTOR_COUNT>
4

> <JCHEM_ATOM_COUNT>
35

> <JCHEM_AVERAGE_POLARIZABILITY>
28.495194180282926

> <JCHEM_BIOAVAILABILITY>
1

> <JCHEM_DONOR_COUNT>
2

> <JCHEM_FORMAL_CHARGE>
0

> <JCHEM_GHOSE_FILTER>
1

> <JCHEM_IUPAC>
(5S)-N-[4-cyano-3-(trifluoromethyl)phenyl]-5-methyl-3-(trifluoromethyl)-4,5-dihydro-1H-pyrazole-5-carboxamide

> <ALOGPS_LOGP>
3.48

> <JCHEM_LOGP>
3.4077641413333333

> <ALOGPS_LOGS>
-4.44

> <JCHEM_MDDR_LIKE_RULE>
0

> <JCHEM_NUMBER_OF_RINGS>
2

> <JCHEM_PHYSIOLOGICAL_CHARGE>
0

> <JCHEM_PKA>
18.811568786638322

> <JCHEM_PKA_STRONGEST_ACIDIC>
12.760101087752023

> <JCHEM_PKA_STRONGEST_BASIC>
-1.5823225373118692

> <JCHEM_POLAR_SURFACE_AREA>
77.28

> <JCHEM_REFRACTIVITY>
86.7298

> <JCHEM_ROTATABLE_BOND_COUNT>
4

> <JCHEM_RULE_OF_FIVE>
1

> <ALOGPS_SOLUBILITY>
1.32e-02 g/l

> <JCHEM_TRADITIONAL_IUPAC>
chlorphenesin carbamate

> <JCHEM_VEBER_RULE>
0

> <DRUGBANK_ID>
DB13936

> <DRUG_GROUPS>
experimental

> <GENERIC_NAME>
JNJ-28330835

$$$$
