REMARK  Name = 4684
REMARK  1 active torsions:
REMARK  status: ('A' for Active; 'I' for Inactive)
REMARK    1  A    between atoms: C_2  and  O_8
REMARK                            x       y       z     vdW  Elec       q    Type
REMARK                         _______ _______ _______ _____ _____    ______ ____
ROOT
ATOM      1 CL   UNL     1      -3.071   0.000   0.001  0.00  0.00    -0.082 Cl
ATOM      2  C   UNL     1       1.440   0.000  -0.001  0.00  0.00    +0.134 C 
ATOM      3  C   UNL     1       0.742   1.208  -0.001  0.00  0.00    +0.037 C 
ATOM      4  C   UNL     1       0.743  -1.208   0.000  0.00  0.00    +0.037 C 
ATOM      5  C   UNL     1      -0.652   1.208   0.000  0.00  0.00    +0.014 C 
ATOM      6  C   UNL     1      -0.652  -1.208   0.000  0.00  0.00    +0.014 C 
ATOM      7  C   UNL     1      -1.350   0.000   0.000  0.00  0.00    +0.058 C 
ENDROOT
BRANCH   2   8
ATOM      8  O   UNL     1       2.801   0.000   0.001  0.00  0.00    -0.506 OA
ATOM      9  H   UNL     1       3.269   0.811   0.001  0.00  0.00    +0.292 HD
ENDBRANCH   2   8
TORSDOF 1
