REMARK  Name = 57398987
REMARK  5 active torsions:
REMARK  status: ('A' for Active; 'I' for Inactive)
REMARK    1  A    between atoms: C_2  and  C_19
REMARK    2  A    between atoms: C_4  and  N_12
REMARK    3  A    between atoms: C_9  and  N_18
REMARK    4  A    between atoms: C_19  and  C_22
REMARK    5  A    between atoms: C_22  and  O_23
REMARK                            x       y       z     vdW  Elec       q    Type
REMARK                         _______ _______ _______ _____ _____    ______ ____
ROOT
ATOM      1  N   UNL     1       1.072   1.297   0.241  0.00  0.00    -0.334 N 
ATOM      2  C   UNL     1       1.976   0.275   0.742  0.00  0.00    +0.070 C 
ATOM      3  C   UNL     1       1.555  -1.091   0.196  0.00  0.00    +0.003 C 
ATOM      4  C   UNL     1       0.114  -1.419   0.626  0.00  0.00    -0.032 C 
ATOM      5  C   UNL     1      -0.820  -0.258   0.322  0.00  0.00    -0.027 C 
ATOM      6  C   UNL     1      -0.294   1.044   0.160  0.00  0.00    +0.039 C 
ATOM      7  C   UNL     1      -2.213  -0.443   0.269  0.00  0.00    +0.019 C 
ATOM      8  C   UNL     1      -1.170   2.103  -0.130  0.00  0.00    +0.016 C 
ATOM      9  C   UNL     1      -3.068   0.626  -0.002  0.00  0.00    +0.143 C 
ATOM     10  C   UNL     1      -2.546   1.897  -0.210  0.00  0.00    +0.025 C 
ATOM     11  H   UNL     1       1.427   2.171  -0.042  0.00  0.00    +0.147 HD
ENDROOT
BRANCH   4  12
ATOM     12  N   UNL     1      -0.269  -2.671  -0.037  0.00  0.00    +0.388 N 
ATOM     13  C   UNL     1      -0.331  -2.480  -1.484  0.00  0.00    -0.100 C 
ATOM     14  C   UNL     1       0.673  -3.733   0.303  0.00  0.00    -0.100 C 
ATOM     15  H   UNL     1      -1.195  -2.945   0.291  0.00  0.00    -0.079 HD
ENDBRANCH   4  12
BRANCH   9  18
ATOM     16  O   UNL     1      -5.222   1.391  -0.307  0.00  0.00    -0.126 OA
ATOM     17  O   UNL     1      -4.921  -0.740   0.128  0.00  0.00    -0.126 OA
ATOM     18  N   UNL     1      -4.471   0.416  -0.063  0.00  0.00    +0.058 N 
ENDBRANCH   9  18
BRANCH   2  19
ATOM     19  C   UNL     1       3.402   0.614   0.319  0.00  0.00    +0.043 C 
ATOM     20  C   UNL     1       4.369  -0.441   0.894  0.00  0.00    +0.004 C 
ATOM     21  C   UNL     1       3.792   1.998   0.874  0.00  0.00    +0.004 C 
BRANCH  19  22
ATOM     22  C   UNL     1       3.522   0.651  -1.222  0.00  0.00    +0.139 C 
BRANCH  22  23
ATOM     23  O   UNL     1       4.851   0.963  -1.618  0.00  0.00    -0.382 OA
ATOM     24  H   UNL     1       4.904   0.981  -2.587  0.00  0.00    +0.210 HD
ENDBRANCH  22  23
ENDBRANCH  19  22
ENDBRANCH   2  19
TORSDOF 5
