REMARK  Name = 5315892
REMARK  3 active torsions:
REMARK  status: ('A' for Active; 'I' for Inactive)
REMARK    1  A    between atoms: C_1  and  C_7
REMARK    2  A    between atoms: C_8  and  C_9
REMARK    3  A    between atoms: C_9  and  O_10
REMARK                            x       y       z     vdW  Elec       q    Type
REMARK                         _______ _______ _______ _____ _____    ______ ____
ROOT
ATOM      1  C   UNL     1      -0.423  -0.300  -0.043  0.00  0.00    -0.000 C 
ATOM      2  C   UNL     1      -0.783   1.046   0.030  0.00  0.00    -0.000 C 
ATOM      3  C   UNL     1      -1.411  -1.284  -0.095  0.00  0.00    -0.000 C 
ATOM      4  C   UNL     1      -2.130   1.408   0.050  0.00  0.00    -0.000 C 
ATOM      5  C   UNL     1      -2.758  -0.921  -0.075  0.00  0.00    -0.000 C 
ATOM      6  C   UNL     1      -3.117   0.425  -0.002  0.00  0.00    -0.000 C 
ENDROOT
BRANCH   1   7
ATOM      7  C   UNL     1       0.981  -0.677  -0.064  0.00  0.00    -0.002 C 
ATOM      8  C   UNL     1       2.014   0.090   0.352  0.00  0.00    +0.005 C 
BRANCH   8   9
ATOM      9  C   UNL     1       3.443  -0.348   0.325  0.00  0.00    +0.163 C 
BRANCH   9  10
ATOM     10  O   UNL     1       4.184   0.561  -0.477  0.00  0.00    -0.377 OA
ATOM     11  H   UNL     1       5.114   0.286  -0.502  0.00  0.00    +0.211 HD
ENDBRANCH   9  10
ENDBRANCH   8   9
ENDBRANCH   1   7
TORSDOF 3
