REMARK  Name = 223253
REMARK  9 active torsions:
REMARK  status: ('A' for Active; 'I' for Inactive)
REMARK    1  A    between atoms: C_6  and  O_21
REMARK    2  A    between atoms: C_6  and  C_26
REMARK    3  A    between atoms: C_9  and  O_23
REMARK    4  A    between atoms: C_26  and  C_27
REMARK    5  A    between atoms: C_27  and  O_28
REMARK    6  A    between atoms: O_28  and  C_30
REMARK    7  A    between atoms: C_30  and  C_31
REMARK    8  A    between atoms: C_31  and  C_32
REMARK    9  A    between atoms: C_32  and  C_33
REMARK                            x       y       z     vdW  Elec       q    Type
REMARK                         _______ _______ _______ _____ _____    ______ ____
ROOT
ATOM      1  O   UNL     1      -8.423   2.413  -1.271  0.00  0.00    -0.291 OA
ATOM      2  C   UNL     1      -0.864  -1.055   0.218  0.00  0.00    +0.031 C 
ATOM      3  C   UNL     1      -2.147  -1.757  -0.277  0.00  0.00    +0.003 C 
ATOM      4  C   UNL     1      -3.434  -1.200   0.351  0.00  0.00    +0.003 C 
ATOM      5  C   UNL     1      -3.551   0.319  -0.003  0.00  0.00    +0.030 C 
ATOM      6  C   UNL     1       0.197  -1.894  -0.546  0.00  0.00    +0.143 C 
ATOM      7  C   UNL     1      -0.966   0.431  -0.181  0.00  0.00    +0.032 C 
ATOM      8  C   UNL     1      -4.902   0.968   0.507  0.00  0.00    +0.018 C 
ATOM      9  C   UNL     1      -2.251   1.112   0.341  0.00  0.00    +0.111 C 
ATOM     10  C   UNL     1      -1.827  -3.240  -0.108  0.00  0.00    +0.003 C 
ATOM     11  C   UNL     1      -0.326  -3.346  -0.452  0.00  0.00    +0.034 C 
ATOM     12  C   UNL     1      -4.659  -1.966  -0.172  0.00  0.00    +0.004 C 
ATOM     13  C   UNL     1      -0.637  -1.199   1.748  0.00  0.00    +0.003 C 
ATOM     14  C   UNL     1      -6.081   0.088   0.070  0.00  0.00    -0.042 C 
ATOM     15  C   UNL     1      -5.960  -1.387   0.363  0.00  0.00    +0.022 C 
ATOM     16  C   UNL     1      -5.028   2.382  -0.131  0.00  0.00    +0.012 C 
ATOM     17  C   UNL     1      -4.981   1.103   2.045  0.00  0.00    +0.004 C 
ATOM     18  C   UNL     1      -6.432   2.960  -0.057  0.00  0.00    +0.069 C 
ATOM     19  C   UNL     1      -7.197   0.558  -0.511  0.00  0.00    +0.029 C 
ATOM     20  C   UNL     1      -7.418   2.012  -0.687  0.00  0.00    +0.173 C 
ENDROOT
BRANCH   6  21
ATOM     21  O   UNL     1       0.271  -1.508  -1.915  0.00  0.00    -0.380 OA
ATOM     22  H   UNL     1      -0.606  -1.593  -2.322  0.00  0.00    +0.211 HD
ENDBRANCH   6  21
BRANCH   9  23
ATOM     23  O   UNL     1      -2.133   1.333   1.739  0.00  0.00    -0.384 OA
ATOM     24  H   UNL     1      -2.939   1.760   2.068  0.00  0.00    +0.210 HD
ENDBRANCH   9  23
BRANCH   6  26
ATOM     25  O   UNL     1       2.028  -2.442   0.878  0.00  0.00    -0.290 OA
ATOM     26  C   UNL     1       1.593  -1.726  -0.023  0.00  0.00    +0.218 C 
BRANCH  26  27
ATOM     27  C   UNL     1       2.423  -0.634  -0.664  0.00  0.00    +0.274 C 
BRANCH  27  28
ATOM     28  O   UNL     1       3.713  -0.589  -0.094  0.00  0.00    -0.440 OA
BRANCH  28  30
ATOM     29  O   UNL     1       4.288   1.163  -1.481  0.00  0.00    -0.250 OA
ATOM     30  C   UNL     1       4.566   0.367  -0.595  0.00  0.00    +0.317 C 
BRANCH  30  31
ATOM     31  C   UNL     1       5.897   0.282   0.116  0.00  0.00    +0.110 C 
BRANCH  31  32
ATOM     32  C   UNL     1       6.896   1.305  -0.417  0.00  0.00    +0.012 C 
BRANCH  32  33
ATOM     33  C   UNL     1       8.218   1.233   0.326  0.00  0.00    +0.001 C 
ATOM     34  C   UNL     1       9.266   2.200  -0.214  0.00  0.00    +0.000 C 
ATOM     35  C   UNL     1       8.916  -0.116   0.182  0.00  0.00    +0.000 C 
ATOM     36  C   UNL     1      10.583   1.663   0.337  0.00  0.00    +0.000 C 
ATOM     37  C   UNL     1      10.361   0.169   0.581  0.00  0.00    +0.000 C 
ENDBRANCH  32  33
ENDBRANCH  31  32
ENDBRANCH  30  31
ENDBRANCH  28  30
ENDBRANCH  27  28
ENDBRANCH  26  27
ENDBRANCH   6  26
TORSDOF 9
