REMARK  Name = 6213
REMARK  0 active torsions:
REMARK  status: ('A' for Active; 'I' for Inactive)
REMARK                            x       y       z     vdW  Elec       q    Type
REMARK                         _______ _______ _______ _____ _____    ______ ____
ROOT
ATOM      1  S   UNL     1       0.000  -0.157   0.000  0.00  0.00    -0.006 S 
ATOM      2  O   UNL     1       0.000  -0.872  -1.261  0.00  0.00    -0.173 OA
ATOM      3  O   UNL     1       0.000  -0.869   1.263  0.00  0.00    -0.173 OA
ATOM      4  C   UNL     1      -1.390   0.949  -0.001  0.00  0.00    +0.176 C 
ATOM      5  C   UNL     1       1.390   0.948  -0.001  0.00  0.00    +0.176 C 
ENDROOT
TORSDOF 0
