REMARK  Name = 7180
REMARK  5 active torsions:
REMARK  status: ('A' for Active; 'I' for Inactive)
REMARK    1  A    between atoms: C_2  and  C_3
REMARK    2  A    between atoms: C_2  and  O_11
REMARK    3  A    between atoms: C_8  and  O_9
REMARK    4  A    between atoms: O_11  and  C_12
REMARK    5  A    between atoms: C_12  and  C_13
REMARK                            x       y       z     vdW  Elec       q    Type
REMARK                         _______ _______ _______ _____ _____    ______ ____
ROOT
ATOM      1  O   UNL     1      -0.752   2.620   0.000  0.00  0.00    -0.245 OA
ATOM      2  C   UNL     1      -0.721   1.388   0.000  0.00  0.00    +0.342 C 
ENDROOT
BRANCH   2   3
ATOM      3  C   UNL     1      -1.915   0.557   0.000  0.00  0.00    +0.076 C 
ATOM      4  C   UNL     1      -3.178   1.149  -0.001  0.00  0.00    +0.010 C 
ATOM      5  C   UNL     1      -1.796  -0.833   0.000  0.00  0.00    +0.010 C 
ATOM      6  C   UNL     1      -4.322   0.352   0.000  0.00  0.00    +0.037 C 
ATOM      7  C   UNL     1      -2.941  -1.631   0.000  0.00  0.00    +0.037 C 
ATOM      8  C   UNL     1      -4.204  -1.038   0.000  0.00  0.00    +0.134 C 
BRANCH   8   9
ATOM      9  O   UNL     1      -5.321  -1.816   0.000  0.00  0.00    -0.506 OA
ATOM     10  H   UNL     1      -6.169  -1.418   0.000  0.00  0.00    +0.292 HD
ENDBRANCH   8   9
ENDBRANCH   2   3
BRANCH   2  11
ATOM     11  O   UNL     1       0.447   0.666   0.000  0.00  0.00    -0.440 OA
BRANCH  11  12
ATOM     12  C   UNL     1       1.662   1.423   0.000  0.00  0.00    +0.235 C 
BRANCH  12  13
ATOM     13  C   UNL     1       2.791   0.440   0.000  0.00  0.00    +0.021 C 
ATOM     14  C   UNL     1       3.314  -0.014   1.208  0.00  0.00    -0.001 C 
ATOM     15  C   UNL     1       3.313  -0.014  -1.208  0.00  0.00    -0.001 C 
ATOM     16  C   UNL     1       4.366  -0.930   1.208  0.00  0.00    -0.000 C 
ATOM     17  C   UNL     1       4.365  -0.930  -1.208  0.00  0.00    -0.000 C 
ATOM     18  C   UNL     1       4.892  -1.388   0.000  0.00  0.00    -0.000 C 
ENDBRANCH  12  13
ENDBRANCH  11  12
ENDBRANCH   2  11
TORSDOF 5
