REMARK  Name = 168213
REMARK  0 active torsions:
REMARK  status: ('A' for Active; 'I' for Inactive)
REMARK                            x       y       z     vdW  Elec       q    Type
REMARK                         _______ _______ _______ _____ _____    ______ ____
ROOT
ATOM      1  N   UNL     1      -1.385   0.691  -0.388  0.00  0.00    +0.388 N 
ATOM      2  N   UNL     1       1.385   0.692   0.387  0.00  0.00    +0.388 N 
ATOM      3  C   UNL     1      -0.329  -0.962   1.187  0.00  0.00    -0.040 C 
ATOM      4  C   UNL     1       0.330  -0.965  -1.185  0.00  0.00    -0.040 C 
ATOM      5  C   UNL     1      -1.564  -0.067   0.865  0.00  0.00    -0.060 C 
ATOM      6  C   UNL     1       1.564  -0.069  -0.865  0.00  0.00    -0.060 C 
ATOM      7  C   UNL     1       0.000  -1.872   0.002  0.00  0.00    -0.008 C 
ATOM      8  C   UNL     1      -0.931  -0.127  -1.518  0.00  0.00    -0.079 C 
ATOM      9  C   UNL     1       0.931  -0.124   1.519  0.00  0.00    -0.079 C 
ATOM     10  C   UNL     1      -2.875  -0.883   0.876  0.00  0.00    -0.021 C 
ATOM     11  C   UNL     1       2.875  -0.885  -0.873  0.00  0.00    -0.021 C 
ATOM     12  C   UNL     1      -2.547   1.524  -0.712  0.00  0.00    -0.077 C 
ATOM     13  C   UNL     1       2.547   1.525   0.709  0.00  0.00    -0.077 C 
ATOM     14  C   UNL     1      -4.082  -0.001   0.571  0.00  0.00    -0.004 C 
ATOM     15  C   UNL     1       4.082  -0.003  -0.571  0.00  0.00    -0.004 C 
ATOM     16  C   UNL     1      -3.872   0.762  -0.731  0.00  0.00    -0.023 C 
ATOM     17  C   UNL     1       3.872   0.764   0.730  0.00  0.00    -0.023 C 
ATOM     18  H   UNL     1      -0.614   1.335  -0.208  0.00  0.00    -0.080 HD
ATOM     19  H   UNL     1       0.614   1.335   0.205  0.00  0.00    -0.080 HD
ENDROOT
TORSDOF 0
