REMARK  Name = 1117
REMARK  0 active torsions:
REMARK  status: ('A' for Active; 'I' for Inactive)
REMARK                            x       y       z     vdW  Elec       q    Type
REMARK                         _______ _______ _______ _____ _____    ______ ____
ROOT
ATOM      1  S   UNL     1       0.000   0.000   0.000  0.00  0.00    +0.267 S 
ATOM      2  O   UNL     1       1.296  -0.611  -0.349  0.00  0.00    -0.113 OA
ATOM      3  O   UNL     1       0.103   0.651   1.319  0.00  0.00    -0.020 OA
ATOM      4  O   UNL     1      -0.360   1.004  -1.017  0.00  0.00    -0.113 OA
ATOM      5  O   UNL     1      -1.039  -1.045   0.048  0.00  0.00    -0.020 OA
ENDROOT
TORSDOF 0
