REMARK  Name = 5799
REMARK  0 active torsions:
REMARK  status: ('A' for Active; 'I' for Inactive)
REMARK                            x       y       z     vdW  Elec       q    Type
REMARK                         _______ _______ _______ _____ _____    ______ ____
ROOT
ATOM      1  N   UNL     1       2.793   0.951  -0.036  0.00  0.00    -0.229 N 
ATOM      2  N   UNL     1      -1.769   2.074   0.071  0.00  0.00    -0.229 N 
ATOM      3  N   UNL     1      -0.462  -2.438  -0.070  0.00  0.00    -0.229 N 
ATOM      4  N   UNL     1       0.519   1.540   0.017  0.00  0.00    -0.246 NA
ATOM      5  N   UNL     1       1.186  -0.763  -0.055  0.00  0.00    -0.246 NA
ATOM      6  N   UNL     1      -1.143  -0.190  -0.001  0.00  0.00    -0.246 NA
ATOM      7  C   UNL     1       3.809   0.129  -0.706  0.00  0.00    +0.125 C 
ATOM      8  C   UNL     1       3.789   0.239   0.775  0.00  0.00    +0.125 C 
ATOM      9  C   UNL     1      -3.058   1.789   0.716  0.00  0.00    +0.125 C 
ATOM     10  C   UNL     1      -2.974   1.942  -0.759  0.00  0.00    +0.125 C 
ATOM     11  C   UNL     1      -1.713  -2.892  -0.692  0.00  0.00    +0.125 C 
ATOM     12  C   UNL     1      -1.536  -2.966   0.781  0.00  0.00    +0.125 C 
ATOM     13  C   UNL     1       1.431   0.556  -0.025  0.00  0.00    +0.225 C 
ATOM     14  C   UNL     1      -0.747   1.092   0.026  0.00  0.00    +0.225 C 
ATOM     15  C   UNL     1      -0.123  -1.062  -0.041  0.00  0.00    +0.225 C 
ENDROOT
TORSDOF 0
