REMARK  Name = 10424768
REMARK  9 active torsions:
REMARK  status: ('A' for Active; 'I' for Inactive)
REMARK    1  A    between atoms: C_1  and  C_3
REMARK    2  A    between atoms: C_1  and  C_14
REMARK    3  A    between atoms: C_7  and  O_12
REMARK    4  A    between atoms: C_14  and  N_15
REMARK    5  A    between atoms: C_14  and  C_22
REMARK    6  A    between atoms: N_15  and  C_18
REMARK    7  A    between atoms: C_18  and  C_19
REMARK    8  A    between atoms: C_22  and  O_23
REMARK    9  A    between atoms: O_23  and  C_24
REMARK                            x       y       z     vdW  Elec       q    Type
REMARK                         _______ _______ _______ _____ _____    ______ ____
ROOT
ATOM      1  C   UNL     1      -0.366   0.548   1.357  0.00  0.00    +0.016 C 
ENDROOT
BRANCH   1   3
ATOM      2  N   UNL     1       4.061   0.926  -0.822  0.00  0.00    -0.241 NA
ATOM      3  C   UNL     1       0.966   0.002   0.948  0.00  0.00    -0.022 C 
ATOM      4  C   UNL     1       1.899   0.770   0.231  0.00  0.00    +0.017 C 
ATOM      5  C   UNL     1       1.261  -1.311   1.306  0.00  0.00    -0.001 C 
ATOM      6  C   UNL     1       3.145   0.218  -0.135  0.00  0.00    +0.115 C 
ATOM      7  C   UNL     1       3.413  -1.097   0.235  0.00  0.00    +0.151 C 
ATOM      8  C   UNL     1       2.486  -1.860   0.948  0.00  0.00    +0.038 C 
ATOM      9  C   UNL     1       1.629   2.094  -0.142  0.00  0.00    +0.003 C 
ATOM     10  C   UNL     1       2.571   2.825  -0.850  0.00  0.00    +0.021 C 
ATOM     11  C   UNL     1       3.761   2.201  -1.163  0.00  0.00    +0.099 C 
BRANCH   7  12
ATOM     12  O   UNL     1       4.607  -1.673  -0.098  0.00  0.00    -0.504 OA
ATOM     13  H   UNL     1       5.247  -1.183  -0.576  0.00  0.00    +0.292 HD
ENDBRANCH   7  12
ENDBRANCH   1   3
BRANCH   1  14
ATOM     14  C   UNL     1      -1.473   0.317   0.311  0.00  0.00    +0.046 C 
BRANCH  14  15
ATOM     15  N   UNL     1      -2.576   1.254   0.531  0.00  0.00    +0.400 N 
ATOM     16  H   UNL     1      -2.225   2.209   0.452  0.00  0.00    -0.082 HD
ATOM     17  H   UNL     1      -2.960   1.096   1.463  0.00  0.00    -0.082 HD
BRANCH  15  18
ATOM     18  C   UNL     1      -3.628   1.049  -0.451  0.00  0.00    -0.001 C 
BRANCH  18  19
ATOM     19  C   UNL     1      -4.735   1.986  -0.235  0.00  0.00    -0.102 C 
ATOM     20  C   UNL     1      -5.645   2.751  -0.063  0.00  0.00    -0.016 C 
ENDBRANCH  18  19
ENDBRANCH  15  18
ENDBRANCH  14  15
BRANCH  14  22
ATOM     21  O   UNL     1      -2.548  -1.550   1.452  0.00  0.00    -0.252 OA
ATOM     22  C   UNL     1      -2.052  -1.082   0.434  0.00  0.00    +0.297 C 
BRANCH  22  23
ATOM     23  O   UNL     1      -1.959  -1.719  -0.771  0.00  0.00    -0.450 OA
BRANCH  23  24
ATOM     24  C   UNL     1      -2.498  -3.044  -0.814  0.00  0.00    +0.208 C 
ATOM     25  C   UNL     1      -2.318  -3.605  -2.208  0.00  0.00    +0.051 C 
ENDBRANCH  23  24
ENDBRANCH  22  23
ENDBRANCH  14  22
ENDBRANCH   1  14
TORSDOF 9
