REMARK  Name = 5464097
REMARK  10 active torsions:
REMARK  status: ('A' for Active; 'I' for Inactive)
REMARK    1  A    between atoms: CA_1  and  C_13
REMARK    2  A    between atoms: CA_1  and  N_18
REMARK    3  A    between atoms: CA_8  and  C_15
REMARK    4  A    between atoms: C_15  and  O_16
REMARK    5  A    between atoms: N_18  and  CA_21
REMARK    6  A    between atoms: CA_21  and  C_23
REMARK    7  A    between atoms: CA_21  and  C_26
REMARK    8  A    between atoms: C_23  and  O_24
REMARK    9  A    between atoms: C_26  and  C_27
REMARK   10  A    between atoms: C_27  and  C_28
REMARK                            x       y       z     vdW  Elec       q    Type
REMARK                         _______ _______ _______ _____ _____    ______ ____
ROOT
ATOM      1  CA  UNL     1       0.817  -1.492  -1.480  0.00  0.00    +0.018 C 
ATOM      2  CB  UNL     1       1.424  -2.172  -2.690  0.00  0.00    -0.014 C 
ENDROOT
BRANCH   1  13
ATOM      3  O   UNL     1       0.904   0.848  -1.865  0.00  0.00    -0.277 OA
ATOM      4  N   UNL     1       2.547  -0.048  -0.496  0.00  0.00    -0.275 N 
ATOM      5  C   UNL     1       4.463   0.774   0.586  0.00  0.00    +0.020 C 
ATOM      6  C   UNL     1       3.458   1.093  -0.524  0.00  0.00    +0.076 C 
ATOM      7  C   UNL     1       4.635  -0.731   0.437  0.00  0.00    +0.033 C 
ATOM      8  CA  UNL     1       3.187  -1.182   0.188  0.00  0.00    +0.174 C 
ATOM      9  C   UNL     1       5.684   1.666   0.462  0.00  0.00    +0.002 C 
ATOM     10  C   UNL     1       2.909   2.496  -0.289  0.00  0.00    +0.020 C 
ATOM     11  C   UNL     1       5.238   3.129   0.606  0.00  0.00    +0.000 C 
ATOM     12  C   UNL     1       4.071   3.503  -0.322  0.00  0.00    +0.002 C 
ATOM     13  C   UNL     1       1.419  -0.120  -1.303  0.00  0.00    +0.206 C 
BRANCH   8  15
ATOM     14  OXT UNL     1       1.890  -0.569   2.135  0.00  0.00    -0.248 OA
ATOM     15  C   UNL     1       2.474  -1.424   1.485  0.00  0.00    +0.332 C 
BRANCH  15  16
ATOM     16  O   UNL     1       2.566  -2.727   1.846  0.00  0.00    -0.479 OA
ATOM     17  H   UNL     1       3.029  -3.332   1.302  0.00  0.00    +0.295 HD
ENDBRANCH  15  16
ENDBRANCH   8  15
ENDBRANCH   1  13
BRANCH   1  18
ATOM     18  N   UNL     1      -0.614  -1.305  -1.647  0.00  0.00    +0.399 N 
ATOM     19  H1  UNL     1      -1.009  -2.136  -2.088  0.00  0.00    -0.083 HD
ATOM     20  H2  UNL     1      -0.767  -0.483  -2.231  0.00  0.00    -0.083 HD
BRANCH  18  21
ATOM     21  CA  UNL     1      -1.270  -1.089  -0.363  0.00  0.00    +0.041 C 
BRANCH  21  23
ATOM     22  OXT UNL     1      -1.685  -3.488  -0.349  0.00  0.00    -0.253 OA
ATOM     23  C   UNL     1      -1.462  -2.456   0.271  0.00  0.00    +0.293 C 
BRANCH  23  24
ATOM     24  O   UNL     1      -1.333  -2.425   1.622  0.00  0.00    -0.482 OA
ATOM     25  H   UNL     1      -1.163  -1.613   2.058  0.00  0.00    +0.295 HD
ENDBRANCH  23  24
ENDBRANCH  21  23
BRANCH  21  26
ATOM     26  C   UNL     1      -2.617  -0.392  -0.594  0.00  0.00    -0.006 C 
BRANCH  26  27
ATOM     27  C   UNL     1      -3.404  -0.085   0.690  0.00  0.00    +0.025 C 
BRANCH  27  28
ATOM     28  C   UNL     1      -4.693   0.669   0.470  0.00  0.00    -0.022 C 
ATOM     29  C   UNL     1      -4.695   2.064   0.481  0.00  0.00    -0.004 C 
ATOM     30  C   UNL     1      -5.881  -0.029   0.255  0.00  0.00    -0.004 C 
ATOM     31  C   UNL     1      -5.886   2.761   0.277  0.00  0.00    -0.000 C 
ATOM     32  C   UNL     1      -7.072   0.668   0.051  0.00  0.00    -0.000 C 
ATOM     33  C   UNL     1      -7.074   2.063   0.062  0.00  0.00    -0.000 C 
ENDBRANCH  27  28
ENDBRANCH  26  27
ENDBRANCH  21  26
ENDBRANCH  18  21
ENDBRANCH   1  18
TORSDOF 10
