REMARK  Name = 403
REMARK  2 active torsions:
REMARK  status: ('A' for Active; 'I' for Inactive)
REMARK    1  A    between atoms: C_1  and  N_7
REMARK    2  A    between atoms: C_4  and  O_10
REMARK                            x       y       z     vdW  Elec       q    Type
REMARK                         _______ _______ _______ _____ _____    ______ ____
ROOT
ATOM      1  C   UNL     1       1.389   0.000   0.000  0.00  0.00    +0.042 C 
ATOM      2  C   UNL     1       0.692  -1.208   0.000  0.00  0.00    +0.017 C 
ATOM      3  C   UNL     1       0.691   1.208   0.000  0.00  0.00    +0.017 C 
ATOM      4  C   UNL     1      -1.401   0.000   0.000  0.00  0.00    +0.134 C 
ATOM      5  C   UNL     1      -0.703  -1.208   0.000  0.00  0.00    +0.038 C 
ATOM      6  C   UNL     1      -0.704   1.208   0.000  0.00  0.00    +0.038 C 
ENDROOT
BRANCH   1   7
ATOM      7  N   UNL     1       2.799   0.000   0.000  0.00  0.00    -0.357 N 
ATOM      8  H   UNL     1       3.291  -0.853   0.000  0.00  0.00    +0.142 HD
ATOM      9  H   UNL     1       3.292   0.852   0.000  0.00  0.00    +0.142 HD
ENDBRANCH   1   7
BRANCH   4  10
ATOM     10  O   UNL     1      -2.762   0.000   0.000  0.00  0.00    -0.506 OA
ATOM     11  H   UNL     1      -3.230  -0.812   0.000  0.00  0.00    +0.292 HD
ENDBRANCH   4  10
TORSDOF 2
