REMARK  Name = 31388
REMARK  2 active torsions:
REMARK  status: ('A' for Active; 'I' for Inactive)
REMARK    1  A    between atoms: C_1  and  S_8
REMARK    2  A    between atoms: S_8  and  N_12
REMARK                            x       y       z     vdW  Elec       q    Type
REMARK                         _______ _______ _______ _____ _____    ______ ____
ROOT
ATOM      1  C   UNL     1       0.033   0.114  -0.207  0.00  0.00    +0.123 C 
ATOM      2  C   UNL     1      -2.724  -0.109   0.158  0.00  0.00    -0.022 C 
ATOM      3  C   UNL     1      -0.710   1.224   0.194  0.00  0.00    +0.020 C 
ATOM      4  C   UNL     1      -0.603  -1.109  -0.425  0.00  0.00    +0.020 C 
ATOM      5  C   UNL     1      -2.088   1.113   0.376  0.00  0.00    -0.003 C 
ATOM      6  C   UNL     1      -1.982  -1.220  -0.242  0.00  0.00    -0.003 C 
ATOM      7  C   UNL     1      -4.198  -0.229   0.354  0.00  0.00    +0.031 C 
ENDROOT
BRANCH   1   8
ATOM      8  S   UNL     1       1.758   0.253  -0.438  0.00  0.00    +0.073 S 
ATOM      9  O   UNL     1       2.078   1.646  -0.724  0.00  0.00    -0.152 OA
ATOM     10  O   UNL     1       2.170  -0.783  -1.376  0.00  0.00    -0.152 OA
BRANCH   8  12
ATOM     11 CL   UNL     1       3.928  -0.767   1.209  0.00  0.00    -0.002 Cl
ATOM     12  N   UNL     1       2.337  -0.133   1.121  0.00  0.00    -0.101 NA
ATOM     13  H   UNL     1       2.312   0.719   1.682  0.00  0.00    +0.168 HD
ENDBRANCH   8  12
ENDBRANCH   1   8
TORSDOF 2
