REMARK  Name = 24341
REMARK  0 active torsions:
REMARK  status: ('A' for Active; 'I' for Inactive)
REMARK                            x       y       z     vdW  Elec       q    Type
REMARK                         _______ _______ _______ _____ _____    ______ ____
ROOT
ATOM      1 CL   UNL     1      -0.837   0.000   0.000  0.00  0.00    +0.058 Cl
ATOM      2  O   UNL     1       0.837   0.000   0.000  0.00  0.00    -0.294 OA
ATOM      3  H   UNL     1       1.160   0.806  -0.433  0.00  0.00    +0.235 HD
ENDROOT
TORSDOF 0
