REMARK  Name = 2724
REMARK  7 active torsions:
REMARK  status: ('A' for Active; 'I' for Inactive)
REMARK    1  A    between atoms: C_1  and  O_2
REMARK    2  A    between atoms: C_1  and  C_4
REMARK    3  A    between atoms: C_1  and  C_13
REMARK    4  A    between atoms: C_4  and  O_5
REMARK    5  A    between atoms: O_5  and  C_7
REMARK    6  A    between atoms: C_13  and  O_14
REMARK    7  A    between atoms: O_14  and  C_17
REMARK                            x       y       z     vdW  Elec       q    Type
REMARK                         _______ _______ _______ _____ _____    ______ ____
ROOT
ATOM      1  C   UNL     1      -1.590  -0.621  -0.034  0.00  0.00    +0.198 C 
ENDROOT
BRANCH   1   2
ATOM      2  O   UNL     1      -1.891  -1.754  -0.853  0.00  0.00    -0.378 OA
ATOM      3  H   UNL     1      -1.167  -2.396  -0.797  0.00  0.00    +0.211 HD
ENDBRANCH   1   2
BRANCH   1   4
ATOM      4  C   UNL     1      -0.283  -0.017  -0.530  0.00  0.00    +0.238 C 
BRANCH   4   5
ATOM      5  O   UNL     1       0.756  -0.980  -0.386  0.00  0.00    -0.473 OA
BRANCH   5   7
ATOM      6 CL   UNL     1       6.178   1.094   0.492  0.00  0.00    -0.082 Cl
ATOM      7  C   UNL     1       2.020  -0.496  -0.181  0.00  0.00    +0.139 C 
ATOM      8  C   UNL     1       2.381   0.736  -0.715  0.00  0.00    +0.038 C 
ATOM      9  C   UNL     1       2.932  -1.242   0.559  0.00  0.00    +0.038 C 
ATOM     10  C   UNL     1       3.670   1.229  -0.506  0.00  0.00    +0.015 C 
ATOM     11  C   UNL     1       4.220  -0.749   0.768  0.00  0.00    +0.015 C 
ATOM     12  C   UNL     1       4.589   0.486   0.235  0.00  0.00    +0.058 C 
ENDBRANCH   5   7
ENDBRANCH   4   5
ENDBRANCH   1   4
BRANCH   1  13
ATOM     13  C   UNL     1      -2.739   0.376  -0.136  0.00  0.00    +0.243 C 
BRANCH  13  14
ATOM     14  O   UNL     1      -3.942  -0.225   0.330  0.00  0.00    -0.432 OA
BRANCH  14  17
ATOM     15  O   UNL     1      -5.090   1.723  -0.103  0.00  0.00    -0.227 OA
ATOM     16  N   UNL     1      -6.152  -0.121   0.766  0.00  0.00    -0.295 N 
ATOM     17  C   UNL     1      -5.060   0.563   0.294  0.00  0.00    +0.399 C 
ATOM     18  H   UNL     1      -6.056  -1.053   1.070  0.00  0.00    +0.148 HD
ATOM     19  H   UNL     1      -7.032   0.319   0.801  0.00  0.00    +0.148 HD
ENDBRANCH  14  17
ENDBRANCH  13  14
ENDBRANCH   1  13
TORSDOF 7
