REMARK  Name = 483499
REMARK  5 active torsions:
REMARK  status: ('A' for Active; 'I' for Inactive)
REMARK    1  A    between atoms: N_3  and  C_23
REMARK    2  A    between atoms: C_5  and  C_14
REMARK    3  A    between atoms: C_7  and  C_10
REMARK    4  A    between atoms: C_14  and  C_15
REMARK    5  A    between atoms: C_23  and  C_24
REMARK                            x       y       z     vdW  Elec       q    Type
REMARK                         _______ _______ _______ _____ _____    ______ ____
ROOT
ATOM      1  O   UNL     1       3.256   1.486  -1.978  0.00  0.00    -0.246 OA
ATOM      2  O   UNL     1       3.203  -2.734  -0.219  0.00  0.00    -0.267 OA
ATOM      3  N   UNL     1       1.490   0.916  -0.556  0.00  0.00    -0.279 N 
ATOM      4  N   UNL     1       3.218  -0.604  -1.066  0.00  0.00    -0.275 N 
ATOM      5  C   UNL     1       0.910  -0.049   0.269  0.00  0.00    +0.103 A 
ATOM      6  C   UNL     1       2.688   0.670  -1.249  0.00  0.00    +0.331 A 
ATOM      7  C   UNL     1       1.441  -1.275   0.451  0.00  0.00    +0.053 A 
ATOM      8  C   UNL     1       2.691  -1.619  -0.294  0.00  0.00    +0.258 A 
ATOM      9  H   UNL     1       4.059  -0.802  -1.538  0.00  0.00    +0.173 HD
ENDROOT
BRANCH   7  10
ATOM     10  C   UNL     1       0.932  -2.361   1.361  0.00  0.00    +0.029 C 
ATOM     11  C   UNL     1       0.554  -3.591   0.547  0.00  0.00    +0.005 C 
ATOM     12  C   UNL     1       1.973  -2.702   2.421  0.00  0.00    +0.005 C 
ENDBRANCH   7  10
BRANCH   5  14
ATOM     13  O   UNL     1      -0.322   0.782   2.082  0.00  0.00    -0.285 OA
ATOM     14  C   UNL     1      -0.350   0.269   0.970  0.00  0.00    +0.211 C 
BRANCH  14  15
ATOM     15  C   UNL     1      -1.635  -0.021   0.295  0.00  0.00    +0.040 C 
ATOM     16  C   UNL     1      -1.618  -0.579  -0.969  0.00  0.00    -0.001 C 
ATOM     17  C   UNL     1      -2.817   0.275   0.947  0.00  0.00    -0.001 C 
ATOM     18  C   UNL     1      -2.829  -0.852  -1.605  0.00  0.00    -0.022 C 
ATOM     19  C   UNL     1      -4.028   0.002   0.311  0.00  0.00    -0.022 C 
ATOM     20  C   UNL     1      -4.034  -0.561  -0.966  0.00  0.00    -0.009 C 
ATOM     21  C   UNL     1      -2.836  -1.455  -2.969  0.00  0.00    +0.031 C 
ATOM     22  C   UNL     1      -5.317   0.313   0.995  0.00  0.00    +0.031 C 
ENDBRANCH  14  15
ENDBRANCH   5  14
BRANCH   3  23
ATOM     23  C   UNL     1       0.859   2.223  -0.724  0.00  0.00    +0.111 C 
BRANCH  23  24
ATOM     24  C   UNL     1       1.353   3.215   0.308  0.00  0.00    +0.023 C 
ATOM     25  C   UNL     1       0.410   3.655   1.368  0.00  0.00    +0.002 C 
ATOM     26  C   UNL     1       0.809   4.597   0.271  0.00  0.00    +0.002 C 
ENDBRANCH  23  24
ENDBRANCH   3  23
TORSDOF 5
