REMARK  Name = 49831257
REMARK  4 active torsions:
REMARK  status: ('A' for Active; 'I' for Inactive)
REMARK    1  A    between atoms: C_1  and  C_23
REMARK    2  A    between atoms: C_4  and  C_14
REMARK    3  A    between atoms: C_12  and  C_20
REMARK    4  A    between atoms: C_23  and  N_27
REMARK                            x       y       z     vdW  Elec       q    Type
REMARK                         _______ _______ _______ _____ _____    ______ ____
ROOT
ATOM      1  C   UNL     1      -2.665  -1.825  -0.411  0.00  0.00    -0.043 C 
ATOM      2  C   UNL     1      -2.194  -2.359   0.788  0.00  0.00    -0.006 C 
ATOM      3  C   UNL     1      -1.770  -1.511  -1.434  0.00  0.00    -0.006 C 
ATOM      4  C   UNL     1       0.067  -2.264  -0.058  0.00  0.00    +0.016 C 
ATOM      5  C   UNL     1      -0.828  -2.578   0.965  0.00  0.00    +0.001 C 
ATOM      6  C   UNL     1      -0.404  -1.730  -1.258  0.00  0.00    +0.001 C 
ENDROOT
BRANCH   4  14
ATOM      7  O   UNL     1       6.098   1.841  -0.143  0.00  0.00    -0.274 OA
ATOM      8  N   UNL     1       3.751   1.718  -0.342  0.00  0.00    -0.217 N 
ATOM      9  N   UNL     1       2.447  -1.444   0.043  0.00  0.00    -0.152 N 
ATOM     10  N   UNL     1       2.232  -0.120  -0.186  0.00  0.00    -0.092 NA
ATOM     11  N   UNL     1       4.467  -0.505   0.079  0.00  0.00    -0.319 NA
ATOM     12  C   UNL     1       5.004   2.357  -0.327  0.00  0.00    +0.234 C 
ATOM     13  C   UNL     1       3.465   0.382  -0.156  0.00  0.00    +0.167 C 
ATOM     14  C   UNL     1       1.510  -2.494   0.129  0.00  0.00    +0.077 C 
ATOM     15  C   UNL     1       3.825  -1.645   0.205  0.00  0.00    +0.219 C 
ATOM     16  C   UNL     1       1.965  -3.741   0.378  0.00  0.00    +0.017 C 
ATOM     17  C   UNL     1       4.279  -2.966   0.467  0.00  0.00    +0.051 C 
ATOM     18  C   UNL     1       3.389  -3.970   0.551  0.00  0.00    +0.005 C 
ATOM     19  H   UNL     1       2.975   2.302  -0.507  0.00  0.00    +0.167 HD
BRANCH  12  20
ATOM     20  C   UNL     1       4.947   3.833  -0.568  0.00  0.00    +0.077 C 
ATOM     21  C   UNL     1       5.569   4.760   0.435  0.00  0.00    +0.010 C 
ATOM     22  C   UNL     1       4.075   4.684   0.309  0.00  0.00    +0.010 C 
ENDBRANCH  12  20
ENDBRANCH   4  14
BRANCH   1  23
ATOM     23  C   UNL     1      -4.140  -1.590  -0.603  0.00  0.00    -0.050 C 
BRANCH  23  27
ATOM     24  S   UNL     1      -6.183   2.303   0.426  0.00  0.00    -0.014 S 
ATOM     25  O   UNL     1      -6.089   3.741   0.275  0.00  0.00    -0.173 OA
ATOM     26  O   UNL     1      -7.282   1.697   1.152  0.00  0.00    -0.173 OA
ATOM     27  N   UNL     1      -4.486  -0.171  -0.477  0.00  0.00    +0.392 N 
ATOM     28  C   UNL     1      -4.493   0.218   0.944  0.00  0.00    -0.051 C 
ATOM     29  C   UNL     1      -5.785   0.085  -1.122  0.00  0.00    -0.051 C 
ATOM     30  C   UNL     1      -6.110   1.573  -1.192  0.00  0.00    +0.128 C 
ATOM     31  C   UNL     1      -4.658   1.722   1.129  0.00  0.00    +0.128 C 
ATOM     32  H   UNL     1      -3.786   0.399  -0.951  0.00  0.00    -0.079 HD
ENDBRANCH  23  27
ENDBRANCH   1  23
TORSDOF 4
