REMARK  Name = 153005
REMARK  5 active torsions:
REMARK  status: ('A' for Active; 'I' for Inactive)
REMARK    1  A    between atoms: C_1  and  C_12
REMARK    2  A    between atoms: C_4  and  O_7
REMARK    3  A    between atoms: O_7  and  S_8
REMARK    4  A    between atoms: C_12  and  C_13
REMARK    5  A    between atoms: C_13  and  N_14
REMARK                            x       y       z     vdW  Elec       q    Type
REMARK                         _______ _______ _______ _____ _____    ______ ____
ROOT
ATOM      1  C   UNL     1      -1.920  -0.429  -0.331  0.00  0.00    -0.024 C 
ATOM      2  C   UNL     1      -1.221   0.260  -1.322  0.00  0.00    -0.001 C 
ATOM      3  C   UNL     1      -1.227  -1.200   0.603  0.00  0.00    -0.001 C 
ATOM      4  C   UNL     1       0.863  -0.593  -0.447  0.00  0.00    +0.176 C 
ATOM      5  C   UNL     1       0.170   0.178  -1.381  0.00  0.00    +0.040 C 
ATOM      6  C   UNL     1       0.164  -1.282   0.544  0.00  0.00    +0.040 C 
ENDROOT
BRANCH   4   7
ATOM      7  O   UNL     1       2.220  -0.673  -0.505  0.00  0.00    -0.322 OA
BRANCH   7   8
ATOM      8  S   UNL     1       3.120   0.423   0.328  0.00  0.00    +0.282 S 
ATOM      9  O   UNL     1       4.655   0.080  -0.108  0.00  0.00    -0.105 OA
ATOM     10  O   UNL     1       2.806   1.755  -0.155  0.00  0.00    -0.105 OA
ATOM     11  O   UNL     1       2.992   0.115   1.740  0.00  0.00    -0.012 OA
ENDBRANCH   7   8
ENDBRANCH   4   7
BRANCH   1  12
ATOM     12  C   UNL     1      -3.407  -0.341  -0.268  0.00  0.00    +0.002 C 
BRANCH  12  13
ATOM     13  C   UNL     1      -3.880   0.824   0.614  0.00  0.00    -0.081 C 
BRANCH  13  14
ATOM     14  N   UNL     1      -5.336   0.883   0.689  0.00  0.00    +0.381 N 
ATOM     15  H   UNL     1      -5.614   1.666   1.281  0.00  0.00    -0.089 HD
ATOM     16  H   UNL     1      -5.692   0.013   1.085  0.00  0.00    -0.089 HD
ATOM     17  H   UNL     1      -5.719   1.012  -0.248  0.00  0.00    -0.089 HD
ENDBRANCH  13  14
ENDBRANCH  12  13
ENDBRANCH   1  12
TORSDOF 5
