REMARK  Name = 2997
REMARK  1 active torsions:
REMARK  status: ('A' for Active; 'I' for Inactive)
REMARK    1  A    between atoms: C_6  and  C_15
REMARK                            x       y       z     vdW  Elec       q    Type
REMARK                         _______ _______ _______ _____ _____    ______ ____
ROOT
ATOM      1 CL   UNL     1      -0.849  -4.300   0.804  0.00  0.00    -0.082 Cl
ATOM      2  O   UNL     1      -2.432   3.496  -0.605  0.00  0.00    -0.273 OA
ATOM      3  N   UNL     1      -2.429   1.210  -0.729  0.00  0.00    -0.282 N 
ATOM      4  N   UNL     1       0.082   1.942   0.780  0.00  0.00    -0.261 NA
ATOM      5  C   UNL     1      -0.727  -0.328   0.241  0.00  0.00    +0.032 C 
ATOM      6  C   UNL     1       0.315   0.732   0.402  0.00  0.00    +0.078 C 
ATOM      7  C   UNL     1      -1.963  -0.074  -0.376  0.00  0.00    +0.052 C 
ATOM      8  C   UNL     1      -0.401  -1.640   0.623  0.00  0.00    +0.014 C 
ATOM      9  C   UNL     1      -1.271   2.323   1.121  0.00  0.00    +0.210 C 
ATOM     10  C   UNL     1      -2.801  -1.153  -0.696  0.00  0.00    +0.016 C 
ATOM     11  C   UNL     1      -2.068   2.409  -0.154  0.00  0.00    +0.251 C 
ATOM     12  C   UNL     1      -1.267  -2.696   0.342  0.00  0.00    +0.058 C 
ATOM     13  C   UNL     1      -2.459  -2.455  -0.333  0.00  0.00    +0.013 C 
ATOM     14  H   UNL     1      -3.082   1.253  -1.465  0.00  0.00    +0.155 HD
ENDROOT
BRANCH   6  15
ATOM     15  C   UNL     1       1.730   0.398   0.071  0.00  0.00    +0.017 C 
ATOM     16  C   UNL     1       2.001  -0.551  -0.906  0.00  0.00    +0.001 C 
ATOM     17  C   UNL     1       2.761   1.042   0.743  0.00  0.00    +0.001 C 
ATOM     18  C   UNL     1       3.325  -0.863  -1.216  0.00  0.00    +0.000 C 
ATOM     19  C   UNL     1       4.085   0.731   0.433  0.00  0.00    +0.000 C 
ATOM     20  C   UNL     1       4.367  -0.222  -0.546  0.00  0.00    +0.000 C 
ENDBRANCH   6  15
TORSDOF 1
