REMARK  Name = 60151477
REMARK  6 active torsions:
REMARK  status: ('A' for Active; 'I' for Inactive)
REMARK    1  A    between atoms: C_1  and  O_19
REMARK    2  A    between atoms: C_6  and  N_8
REMARK    3  A    between atoms: C_9  and  C_11
REMARK    4  A    between atoms: C_11  and  N_13
REMARK    5  A    between atoms: O_19  and  C_25
REMARK    6  A    between atoms: N_20  and  C_27
REMARK                            x       y       z     vdW  Elec       q    Type
REMARK                         _______ _______ _______ _____ _____    ______ ____
ROOT
ATOM      1  C   UNL     1       1.175   1.056  -0.127  0.00  0.00    +0.138 C 
ATOM      2  C   UNL     1       0.590   2.014   0.700  0.00  0.00    +0.038 C 
ATOM      3  C   UNL     1       0.372   0.188  -0.866  0.00  0.00    +0.038 C 
ATOM      4  C   UNL     1      -0.799   2.104   0.789  0.00  0.00    +0.018 C 
ATOM      5  C   UNL     1      -1.018   0.277  -0.777  0.00  0.00    +0.018 C 
ATOM      6  C   UNL     1      -1.603   1.235   0.051  0.00  0.00    +0.050 C 
ENDROOT
BRANCH   6   8
ATOM      7  O   UNL     1      -3.745  -0.365  -1.313  0.00  0.00    -0.277 OA
ATOM      8  N   UNL     1      -2.992   1.326   0.140  0.00  0.00    -0.286 N 
ATOM      9  C   UNL     1      -3.959   0.547  -0.520  0.00  0.00    +0.205 C 
ATOM     10  H   UNL     1      -3.339   2.023   0.742  0.00  0.00    +0.155 HD
BRANCH   9  11
ATOM     11  C   UNL     1      -5.362   0.984  -0.134  0.00  0.00    +0.010 C 
BRANCH  11  13
ATOM     12  O   UNL     1      -8.441  -1.723   0.762  0.00  0.00    -0.358 OA
ATOM     13  N   UNL     1      -6.264  -0.163  -0.202  0.00  0.00    +0.396 N 
ATOM     14  C   UNL     1      -7.657   0.278  -0.365  0.00  0.00    -0.044 C 
ATOM     15  C   UNL     1      -6.138  -1.000   0.999  0.00  0.00    -0.044 C 
ATOM     16  C   UNL     1      -8.581  -0.935  -0.421  0.00  0.00    +0.119 C 
ATOM     17  C   UNL     1      -7.097  -2.183   0.909  0.00  0.00    +0.119 C 
ATOM     18  H   UNL     1      -6.001  -0.720  -1.016  0.00  0.00    -0.079 HD
ENDBRANCH  11  13
ENDBRANCH   9  11
ENDBRANCH   6   8
BRANCH   1  19
ATOM     19  O   UNL     1       2.540   0.968  -0.214  0.00  0.00    -0.479 OA
BRANCH  19  25
ATOM     20  N   UNL     1       6.030   0.216  -0.219  0.00  0.00    +0.388 N 
ATOM     21  C   UNL     1       5.140  -0.045  -1.356  0.00  0.00    -0.074 C 
ATOM     22  C   UNL     1       5.308   0.769   0.933  0.00  0.00    -0.074 C 
ATOM     23  C   UNL     1       3.894  -0.870  -1.012  0.00  0.00    +0.021 C 
ATOM     24  C   UNL     1       4.066  -0.028   1.348  0.00  0.00    +0.021 C 
ATOM     25  C   UNL     1       3.129  -0.273   0.168  0.00  0.00    +0.162 C 
ATOM     26  H   UNL     1       6.699   0.925  -0.520  0.00  0.00    -0.080 HD
BRANCH  20  27
ATOM     27  C   UNL     1       6.780  -0.992   0.156  0.00  0.00    -0.058 C 
ATOM     28  C   UNL     1       7.903  -0.616   1.146  0.00  0.00    -0.021 C 
ATOM     29  C   UNL     1       7.890  -1.256  -0.883  0.00  0.00    -0.021 C 
ATOM     30  C   UNL     1       8.838  -1.512   0.307  0.00  0.00    -0.004 C 
ENDBRANCH  20  27
ENDBRANCH  19  25
ENDBRANCH   1  19
TORSDOF 6
