11524127
  -OEChem-05201910283D

 48 52  0     1  0  0  0  0  0999 V2000
   -5.4989    2.8520    0.8883 Cl  0  0  0  0  0  0  0  0  0  0  0  0
    4.3637   -0.3751    1.1890 F   0  0  0  0  0  0  0  0  0  0  0  0
   -2.1950   -2.9683   -1.9393 O   0  0  0  0  0  0  0  0  0  0  0  0
   -0.6855    1.2551    1.1932 O   0  0  0  0  0  0  0  0  0  0  0  0
   -0.9473   -1.9694   -0.2455 N   0  0  0  0  0  0  0  0  0  0  0  0
    0.8655    1.0246   -1.5385 N   0  0  0  0  0  0  0  0  0  0  0  0
    1.1912   -1.6327    0.9745 C   0  0  0  0  0  0  0  0  0  0  0  0
    2.0169   -1.8054    2.2262 C   0  0  0  0  0  0  0  0  0  0  0  0
    2.2563   -2.7043    1.0484 C   0  0  0  0  0  0  0  0  0  0  0  0
   -0.2694   -2.0546    1.0723 C   0  0  0  0  0  0  0  0  0  0  0  0
    1.4392   -0.4262    0.0275 C   0  0  0  0  0  0  0  0  0  0  0  0
    0.4163   -0.0380   -0.8049 C   0  0  0  0  0  0  0  0  0  0  0  0
   -0.9428   -0.6481   -0.9389 C   0  0  2  0  0  0  0  0  0  0  0  0
    2.5648    0.4012   -0.2071 C   0  0  0  0  0  0  0  0  0  0  0  0
    2.1693    1.3154   -1.1940 C   0  0  0  0  0  0  0  0  0  0  0  0
   -2.0840    0.2415   -0.4680 C   0  0  0  0  0  0  0  0  0  0  0  0
   -1.6306   -3.0362   -0.8439 C   0  0  0  0  0  0  0  0  0  0  0  0
    3.8832    0.4884    0.2870 C   0  0  0  0  0  0  0  0  0  0  0  0
    3.0196    2.3108   -1.6907 C   0  0  0  0  0  0  0  0  0  0  0  0
   -1.8942    1.1466    0.5740 C   0  0  0  0  0  0  0  0  0  0  0  0
   -3.3255    0.1400   -1.0918 C   0  0  0  0  0  0  0  0  0  0  0  0
   -1.6605   -4.3389   -0.0850 C   0  0  0  0  0  0  0  0  0  0  0  0
    4.7431    1.4795   -0.2021 C   0  0  0  0  0  0  0  0  0  0  0  0
    4.3150    2.3780   -1.1745 C   0  0  0  0  0  0  0  0  0  0  0  0
   -2.9511    1.9541    0.9942 C   0  0  0  0  0  0  0  0  0  0  0  0
   -4.3824    0.9477   -0.6716 C   0  0  0  0  0  0  0  0  0  0  0  0
   -4.1952    1.8547    0.3714 C   0  0  0  0  0  0  0  0  0  0  0  0
   -0.5818    2.2075    2.2497 C   0  0  0  0  0  0  0  0  0  0  0  0
    1.5431   -2.2478    3.0972 H   0  0  0  0  0  0  0  0  0  0  0  0
    2.7442   -1.0557    2.4948 H   0  0  0  0  0  0  0  0  0  0  0  0
    3.1759   -2.5753    0.4907 H   0  0  0  0  0  0  0  0  0  0  0  0
    1.9450   -3.7391    1.1333 H   0  0  0  0  0  0  0  0  0  0  0  0
   -0.3463   -3.0561    1.4997 H   0  0  0  0  0  0  0  0  0  0  0  0
   -0.8048   -1.3871    1.7569 H   0  0  0  0  0  0  0  0  0  0  0  0
   -1.0913   -0.8333   -2.0120 H   0  0  0  0  0  0  0  0  0  0  0  0
    0.3283    1.5207   -2.2364 H   0  0  0  0  0  0  0  0  0  0  0  0
    2.6881    3.0066   -2.4543 H   0  0  0  0  0  0  0  0  0  0  0  0
   -3.4875   -0.5572   -1.9086 H   0  0  0  0  0  0  0  0  0  0  0  0
   -0.6456   -4.7222    0.0493 H   0  0  0  0  0  0  0  0  0  0  0  0
   -2.2298   -5.0787   -0.6562 H   0  0  0  0  0  0  0  0  0  0  0  0
   -2.1547   -4.2040    0.8806 H   0  0  0  0  0  0  0  0  0  0  0  0
    5.7594    1.5409    0.1776 H   0  0  0  0  0  0  0  0  0  0  0  0
    4.9989    3.1385   -1.5423 H   0  0  0  0  0  0  0  0  0  0  0  0
   -2.8647    2.6767    1.7990 H   0  0  0  0  0  0  0  0  0  0  0  0
   -5.3460    0.8604   -1.1670 H   0  0  0  0  0  0  0  0  0  0  0  0
   -1.2380    1.9532    3.0890 H   0  0  0  0  0  0  0  0  0  0  0  0
   -0.7384    3.2298    1.8890 H   0  0  0  0  0  0  0  0  0  0  0  0
    0.4458    2.1583    2.6251 H   0  0  0  0  0  0  0  0  0  0  0  0
  1 27  1  0  0  0  0
  2 18  1  0  0  0  0
  3 17  2  0  0  0  0
  4 20  1  0  0  0  0
  4 28  1  0  0  0  0
  5 10  1  0  0  0  0
  5 13  1  0  0  0  0
  5 17  1  0  0  0  0
  6 12  1  0  0  0  0
  6 15  1  0  0  0  0
  6 36  1  0  0  0  0
  7  8  1  0  0  0  0
  7  9  1  0  0  0  0
  7 10  1  0  0  0  0
  7 11  1  0  0  0  0
  8  9  1  0  0  0  0
  8 29  1  0  0  0  0
  8 30  1  0  0  0  0
  9 31  1  0  0  0  0
  9 32  1  0  0  0  0
 10 33  1  0  0  0  0
 10 34  1  0  0  0  0
 11 12  2  0  0  0  0
 11 14  1  0  0  0  0
 12 13  1  0  0  0  0
 13 16  1  0  0  0  0
 13 35  1  0  0  0  0
 14 15  2  0  0  0  0
 14 18  1  0  0  0  0
 15 19  1  0  0  0  0
 16 20  2  0  0  0  0
 16 21  1  0  0  0  0
 17 22  1  0  0  0  0
 18 23  2  0  0  0  0
 19 24  2  0  0  0  0
 19 37  1  0  0  0  0
 20 25  1  0  0  0  0
 21 26  2  0  0  0  0
 21 38  1  0  0  0  0
 22 39  1  0  0  0  0
 22 40  1  0  0  0  0
 22 41  1  0  0  0  0
 23 24  1  0  0  0  0
 23 42  1  0  0  0  0
 24 43  1  0  0  0  0
 25 27  2  0  0  0  0
 25 44  1  0  0  0  0
 26 27  1  0  0  0  0
 26 45  1  0  0  0  0
 28 46  1  0  0  0  0
 28 47  1  0  0  0  0
 28 48  1  0  0  0  0
M  END
> <DATABASE_ID>
DB14802

> <DATABASE_NAME>
drugbank

> <ORIGINAL_SOURCE>
PUBCHEM

> <ORIGINAL_SOURCE_URL>
https://pubchem.ncbi.nlm.nih.gov/rest/pug/compound/inchikey/ZBQMTQGDBFZUBG-NRFANRHFSA-N/SDF?record_type=3d

> <SMILES>
COC1=C(C=CC(Cl)=C1)[C@@H]1N(CC2(CC2)C2=C1NC1=C2C(F)=CC=C1)C(C)=O

> <INCHI_IDENTIFIER>
InChI=1S/C22H20ClFN2O2/c1-12(27)26-11-22(8-9-22)19-18-15(24)4-3-5-16(18)25-20(19)21(26)14-7-6-13(23)10-17(14)28-2/h3-7,10,21,25H,8-9,11H2,1-2H3/t21-/m0/s1

> <INCHI_KEY>
ZBQMTQGDBFZUBG-NRFANRHFSA-N

> <FORMULA>
C22H20ClFN2O2

> <MOLECULAR_WEIGHT>
398.86

> <EXACT_MASS>
398.1197338

> <JCHEM_ACCEPTOR_COUNT>
2

> <JCHEM_ATOM_COUNT>
48

> <JCHEM_AVERAGE_POLARIZABILITY>
41.27811616091988

> <JCHEM_BIOAVAILABILITY>
1

> <JCHEM_DONOR_COUNT>
1

> <JCHEM_FORMAL_CHARGE>
0

> <JCHEM_GHOSE_FILTER>
1

> <JCHEM_IUPAC>
1-[(1'S)-1'-(4-chloro-2-methoxyphenyl)-5'-fluoro-1',2',3',9'-tetrahydrospiro[cyclopropane-1,4'-pyrido[3,4-b]indol]-2'-yl]ethan-1-one

> <ALOGPS_LOGP>
4.24

> <JCHEM_LOGP>
3.8527518516666666

> <ALOGPS_LOGS>
-4.99

> <JCHEM_MDDR_LIKE_RULE>
0

> <JCHEM_NUMBER_OF_RINGS>
5

> <JCHEM_PHYSIOLOGICAL_CHARGE>
0

> <JCHEM_PKA_STRONGEST_ACIDIC>
14.85388568948351

> <JCHEM_PKA_STRONGEST_BASIC>
-1.3049166459952788

> <JCHEM_POLAR_SURFACE_AREA>
45.33

> <JCHEM_REFRACTIVITY>
105.98020000000001

> <JCHEM_ROTATABLE_BOND_COUNT>
2

> <JCHEM_RULE_OF_FIVE>
1

> <ALOGPS_SOLUBILITY>
4.11e-03 g/l

> <JCHEM_TRADITIONAL_IUPAC>
(2R)-14-fluoro-2-methyl-6,9,10,19-tetraazapentacyclo[14.2.1.0^{2,6}.0^{8,18}.0^{12,17}]nonadeca-1(18),8,12(17),13,15-pentaen-11-one

> <JCHEM_VEBER_RULE>
0

> <DRUGBANK_ID>
DB14802

> <DRUG_GROUPS>
investigational

> <GENERIC_NAME>
ONO-2952

$$$$
