REMARK  Name = 16095349
REMARK  1 active torsions:
REMARK  status: ('A' for Active; 'I' for Inactive)
REMARK    1  A    between atoms: C_1  and  C_12
REMARK                            x       y       z     vdW  Elec       q    Type
REMARK                         _______ _______ _______ _____ _____    ______ ____
ROOT
ATOM      1  C   UNL     1       0.653  -0.482   0.022  0.00  0.00    -0.025 C 
ATOM      2  C   UNL     1      -0.156   0.653  -0.037  0.00  0.00    -0.004 C 
ATOM      3  C   UNL     1       0.075  -1.746   0.099  0.00  0.00    -0.004 C 
ATOM      4  C   UNL     1      -1.555   0.538  -0.019  0.00  0.00    -0.000 C 
ATOM      5  C   UNL     1      -1.314  -1.879   0.117  0.00  0.00    -0.000 C 
ATOM      6  C   UNL     1      -2.143  -0.747   0.059  0.00  0.00    -0.000 C 
ATOM      7  C   UNL     1      -2.384   1.670  -0.077  0.00  0.00    -0.000 C 
ATOM      8  C   UNL     1      -3.543  -0.862   0.077  0.00  0.00    -0.000 C 
ATOM      9  C   UNL     1      -3.773   1.538  -0.059  0.00  0.00    -0.000 C 
ATOM     10  C   UNL     1      -4.351   0.274   0.019  0.00  0.00    -0.000 C 
ENDROOT
BRANCH   1  12
ATOM     11  N   UNL     1       4.037   0.645   0.969  0.00  0.00    +0.384 N 
ATOM     12  C   UNL     1       2.136  -0.342   0.002  0.00  0.00    -0.003 C 
ATOM     13  C   UNL     1       2.801   0.493  -1.024  0.00  0.00    -0.019 C 
ATOM     14  C   UNL     1       2.879  -1.008  -1.127  0.00  0.00    +0.000 C 
ATOM     15  C   UNL     1       2.785  -0.044   1.315  0.00  0.00    -0.078 C 
ATOM     16  C   UNL     1       3.854   1.300  -0.335  0.00  0.00    -0.081 C 
ATOM     17  H   UNL     1       4.799  -0.031   0.913  0.00  0.00    -0.085 HD
ATOM     18  H   UNL     1       4.268   1.337   1.682  0.00  0.00    -0.085 HD
ENDBRANCH   1  12
TORSDOF 1
