REMARK  Name = 7573
REMARK  4 active torsions:
REMARK  status: ('A' for Active; 'I' for Inactive)
REMARK    1  A    between atoms: C_1  and  N_7
REMARK    2  A    between atoms: C_2  and  N_12
REMARK    3  A    between atoms: N_7  and  C_9
REMARK    4  A    between atoms: N_12  and  C_14
REMARK                            x       y       z     vdW  Elec       q    Type
REMARK                         _______ _______ _______ _____ _____    ______ ____
ROOT
ATOM      1  C   UNL     1       2.488   0.563   0.105  0.00  0.00    +0.045 C 
ATOM      2  C   UNL     1      -0.297   1.020   0.012  0.00  0.00    +0.048 C 
ATOM      3  C   UNL     1       1.922   1.743   0.636  0.00  0.00    +0.016 C 
ATOM      4  C   UNL     1       1.611  -0.380  -0.474  0.00  0.00    +0.016 C 
ATOM      5  C   UNL     1       0.546   1.968   0.590  0.00  0.00    +0.016 C 
ATOM      6  C   UNL     1       0.235  -0.155  -0.520  0.00  0.00    +0.016 C 
ENDROOT
BRANCH   1   7
ATOM      7  N   UNL     1       3.845   0.341   0.149  0.00  0.00    -0.334 N 
ATOM      8  H   UNL     1       4.420   1.026   0.561  0.00  0.00    +0.147 HD
BRANCH   7   9
ATOM      9  C   UNL     1       4.474  -0.866  -0.386  0.00  0.00    +0.069 C 
ATOM     10  C   UNL     1       4.315  -2.025   0.594  0.00  0.00    +0.021 C 
ATOM     11  C   UNL     1       5.946  -0.588  -0.671  0.00  0.00    +0.021 C 
ENDBRANCH   7   9
ENDBRANCH   1   7
BRANCH   2  12
ATOM     12  N   UNL     1      -1.688   1.248  -0.034  0.00  0.00    -0.313 N 
ATOM     13  H   UNL     1      -1.931   2.201  -0.089  0.00  0.00    +0.152 HD
BRANCH  12  14
ATOM     14  C   UNL     1      -2.799   0.381  -0.017  0.00  0.00    +0.048 C 
ATOM     15  C   UNL     1      -3.979   0.743  -0.669  0.00  0.00    +0.015 C 
ATOM     16  C   UNL     1      -2.721  -0.842   0.652  0.00  0.00    +0.015 C 
ATOM     17  C   UNL     1      -5.078  -0.115  -0.652  0.00  0.00    +0.001 C 
ATOM     18  C   UNL     1      -3.821  -1.700   0.669  0.00  0.00    +0.001 C 
ATOM     19  C   UNL     1      -4.999  -1.337   0.017  0.00  0.00    +0.000 C 
ENDBRANCH  12  14
ENDBRANCH   2  12
TORSDOF 4
