REMARK  Name = 11065133
REMARK  4 active torsions:
REMARK  status: ('A' for Active; 'I' for Inactive)
REMARK    1  A    between atoms: C_3  and  O_17
REMARK    2  A    between atoms: C_4  and  N_9
REMARK    3  A    between atoms: C_6  and  C_19
REMARK    4  A    between atoms: C_19  and  O_20
REMARK                            x       y       z     vdW  Elec       q    Type
REMARK                         _______ _______ _______ _____ _____    ______ ____
ROOT
ATOM      1  F   UNL     1       1.054   0.296   1.832  0.00  0.00    -0.230 F 
ATOM      2  O   UNL     1       1.503  -0.255  -1.087  0.00  0.00    -0.332 OA
ATOM      3  C   UNL     1       2.979   0.626   0.561  0.00  0.00    +0.177 C 
ATOM      4  C   UNL     1       0.852   0.851  -0.448  0.00  0.00    +0.235 C 
ATOM      5  C   UNL     1       1.577   1.094   0.862  0.00  0.00    +0.237 C 
ATOM      6  C   UNL     1       2.762  -0.510  -0.434  0.00  0.00    +0.176 C 
ENDROOT
BRANCH   4   9
ATOM      7  O   UNL     1      -1.257   2.765  -0.563  0.00  0.00    -0.252 OA
ATOM      8  O   UNL     1      -4.453  -0.452   0.199  0.00  0.00    -0.270 OA
ATOM      9  N   UNL     1      -0.541   0.560  -0.286  0.00  0.00    -0.217 N 
ATOM     10  N   UNL     1      -2.841   1.151  -0.182  0.00  0.00    -0.236 N 
ATOM     11  C   UNL     1      -0.925  -0.757  -0.051  0.00  0.00    +0.071 C 
ATOM     12  C   UNL     1      -1.520   1.578  -0.359  0.00  0.00    +0.315 C 
ATOM     13  C   UNL     1      -2.190  -1.163   0.118  0.00  0.00    +0.047 C 
ATOM     14  C   UNL     1      -3.273  -0.146   0.053  0.00  0.00    +0.250 C 
ATOM     15  C   UNL     1      -2.575  -2.586   0.369  0.00  0.00    +0.037 C 
ATOM     16  H   UNL     1      -3.537   1.844  -0.229  0.00  0.00    +0.159 HD
ENDBRANCH   4   9
BRANCH   3  17
ATOM     17  O   UNL     1       3.719   1.680  -0.046  0.00  0.00    -0.379 OA
ATOM     18  H   UNL     1       3.850   2.395   0.596  0.00  0.00    +0.211 HD
ENDBRANCH   3  17
BRANCH   6  19
ATOM     19  C   UNL     1       2.671  -1.877   0.231  0.00  0.00    +0.169 C 
BRANCH  19  20
ATOM     20  O   UNL     1       2.459  -2.856  -0.771  0.00  0.00    -0.379 OA
ATOM     21  H   UNL     1       2.399  -3.732  -0.359  0.00  0.00    +0.211 HD
ENDBRANCH  19  20
ENDBRANCH   6  19
TORSDOF 4
