REMARK  Name = 58266779
REMARK  4 active torsions:
REMARK  status: ('A' for Active; 'I' for Inactive)
REMARK    1  A    between atoms: C_4  and  O_17
REMARK    2  A    between atoms: C_8  and  C_16
REMARK    3  A    between atoms: O_17  and  C_19
REMARK    4  A    between atoms: N_18  and  C_25
REMARK                            x       y       z     vdW  Elec       q    Type
REMARK                         _______ _______ _______ _____ _____    ______ ____
ROOT
ATOM      1  N   UNL     1       3.852   0.319  -0.524  0.00  0.00    -0.337 N 
ATOM      2  N   UNL     1       1.507   3.161  -0.327  0.00  0.00    -0.229 NA
ATOM      3  N   UNL     1       4.316  -2.023  -0.228  0.00  0.00    -0.227 NA
ATOM      4  C   UNL     1       0.499   1.065   0.385  0.00  0.00    +0.167 C 
ATOM      5  C   UNL     1       1.715   0.414   0.127  0.00  0.00    +0.056 A 
ATOM      6  C   UNL     1       2.787   1.172  -0.352  0.00  0.00    +0.080 A 
ATOM      7  C   UNL     1       2.169  -0.934   0.238  0.00  0.00    +0.038 A 
ATOM      8  C   UNL     1       0.468   2.431   0.137  0.00  0.00    +0.183 C 
ATOM      9  C   UNL     1       3.498  -0.955  -0.173  0.00  0.00    +0.141 A 
ATOM     10  C   UNL     1       2.682   2.538  -0.577  0.00  0.00    +0.117 C 
ATOM     11  C   UNL     1       1.603  -2.155   0.645  0.00  0.00    +0.005 C 
ATOM     12  C   UNL     1       2.406  -3.293   0.608  0.00  0.00    +0.021 C 
ATOM     13  C   UNL     1       3.719  -3.168   0.174  0.00  0.00    +0.101 C 
ATOM     14  H   UNL     1       4.741   0.587  -0.852  0.00  0.00    +0.167 HD
ENDROOT
BRANCH   8  16
ATOM     15  N   UNL     1      -1.675   3.827   0.544  0.00  0.00    -0.189 NA
ATOM     16  C   UNL     1      -0.715   3.201   0.362  0.00  0.00    +0.123 C 
ENDBRANCH   8  16
BRANCH   4  17
ATOM     17  O   UNL     1      -0.597   0.391   0.856  0.00  0.00    -0.477 OA
BRANCH  17  19
ATOM     18  N   UNL     1      -4.260  -0.905  -0.828  0.00  0.00    +0.387 N 
ATOM     19  C   UNL     1      -1.764   0.421   0.044  0.00  0.00    +0.162 C 
ATOM     20  C   UNL     1      -2.995   0.357   0.944  0.00  0.00    +0.021 C 
ATOM     21  C   UNL     1      -1.751  -0.752  -0.933  0.00  0.00    +0.021 C 
ATOM     22  C   UNL     1      -4.277   0.217   0.120  0.00  0.00    -0.074 C 
ATOM     23  C   UNL     1      -3.074  -0.856  -1.693  0.00  0.00    -0.074 C 
ATOM     24  H   UNL     1      -5.077  -0.805  -1.429  0.00  0.00    -0.080 HD
BRANCH  18  25
ATOM     25  C   UNL     1      -4.402  -2.196  -0.158  0.00  0.00    -0.077 C 
ATOM     26  C   UNL     1      -5.712  -2.277   0.607  0.00  0.00    -0.025 C 
ENDBRANCH  18  25
ENDBRANCH  17  19
ENDBRANCH   4  17
TORSDOF 4
