REMARK  Name = 629281
REMARK  7 active torsions:
REMARK  status: ('A' for Active; 'I' for Inactive)
REMARK    1  A    between atoms: C_6  and  C_16
REMARK    2  A    between atoms: C_8  and  O_22
REMARK    3  A    between atoms: O_22  and  C_24
REMARK    4  A    between atoms: C_24  and  C_25
REMARK    5  A    between atoms: C_25  and  C_26
REMARK    6  A    between atoms: C_26  and  C_28
REMARK    7  A    between atoms: C_28  and  O_29
REMARK                            x       y       z     vdW  Elec       q    Type
REMARK                         _______ _______ _______ _____ _____    ______ ____
ROOT
ATOM      1 BR   UNL     1      -5.037   1.286   3.084  0.00  0.00    -0.049 Br
ATOM      2  O   UNL     1       0.888   2.167  -2.584  0.00  0.00    -0.269 OA
ATOM      3  N   UNL     1      -1.060   2.382  -1.411  0.00  0.00    -0.279 N 
ATOM      4  N   UNL     1       0.138  -0.220  -0.476  0.00  0.00    -0.224 NA
ATOM      5  C   UNL     1      -1.962   0.818   0.301  0.00  0.00    +0.031 C 
ATOM      6  C   UNL     1      -1.097  -0.324  -0.122  0.00  0.00    +0.082 C 
ATOM      7  C   UNL     1      -1.971   2.038  -0.392  0.00  0.00    +0.052 C 
ATOM      8  C   UNL     1       0.787   1.078  -0.437  0.00  0.00    +0.352 C 
ATOM      9  C   UNL     1       0.218   1.891  -1.587  0.00  0.00    +0.292 C 
ATOM     10  C   UNL     1      -2.869   0.610   1.353  0.00  0.00    +0.009 C 
ATOM     11  C   UNL     1      -2.959   2.988  -0.090  0.00  0.00    +0.015 C 
ATOM     12  C   UNL     1      -3.814   1.583   1.675  0.00  0.00    +0.035 C 
ATOM     13  C   UNL     1      -3.870   2.764   0.943  0.00  0.00    +0.008 C 
ATOM     14  H   UNL     1      -1.368   3.046  -2.070  0.00  0.00    +0.155 HD
ENDROOT
BRANCH   6  16
ATOM     15 CL   UNL     1      -2.389  -1.231  -2.777  0.00  0.00    -0.082 Cl
ATOM     16  C   UNL     1      -1.693  -1.690  -0.179  0.00  0.00    +0.028 C 
ATOM     17  C   UNL     1      -2.294  -2.177  -1.335  0.00  0.00    +0.059 C 
ATOM     18  C   UNL     1      -1.630  -2.474   0.969  0.00  0.00    +0.002 C 
ATOM     19  C   UNL     1      -2.837  -3.462  -1.344  0.00  0.00    +0.011 C 
ATOM     20  C   UNL     1      -2.174  -3.759   0.960  0.00  0.00    +0.000 C 
ATOM     21  C   UNL     1      -2.777  -4.253  -0.196  0.00  0.00    +0.001 C 
ENDBRANCH   6  16
BRANCH   8  22
ATOM     22  O   UNL     1       2.202   1.043  -0.608  0.00  0.00    -0.421 OA
BRANCH  22  24
ATOM     23  O   UNL     1       2.407  -0.230   1.304  0.00  0.00    -0.250 OA
ATOM     24  C   UNL     1       2.898   0.347   0.344  0.00  0.00    +0.319 C 
BRANCH  24  25
ATOM     25  C   UNL     1       4.375   0.410   0.018  0.00  0.00    +0.121 C 
BRANCH  25  26
ATOM     26  C   UNL     1       5.234  -0.409   0.974  0.00  0.00    +0.121 C 
BRANCH  26  28
ATOM     27  O   UNL     1       7.118   0.271  -0.377  0.00  0.00    -0.250 OA
ATOM     28  C   UNL     1       6.689  -0.362   0.579  0.00  0.00    +0.314 C 
BRANCH  28  29
ATOM     29  O   UNL     1       7.480  -1.082   1.412  0.00  0.00    -0.480 OA
ATOM     30  H   UNL     1       7.101  -1.550   2.130  0.00  0.00    +0.295 HD
ENDBRANCH  28  29
ENDBRANCH  26  28
ENDBRANCH  25  26
ENDBRANCH  24  25
ENDBRANCH  22  24
ENDBRANCH   8  22
TORSDOF 7
