REMARK  Name = 12562545
REMARK  1 active torsions:
REMARK  status: ('A' for Active; 'I' for Inactive)
REMARK    1  A    between atoms: C_10  and  C_18
REMARK                            x       y       z     vdW  Elec       q    Type
REMARK                         _______ _______ _______ _____ _____    ______ ____
ROOT
ATOM      1 BR   UNL     1       1.288  -4.567  -0.773  0.00  0.00    -0.049 Br
ATOM      2  N   UNL     1      -2.158   0.396   0.073  0.00  0.00    -0.279 N 
ATOM      3  N   UNL     1       0.279   1.800  -1.114  0.00  0.00    -0.261 NA
ATOM      4  N   UNL     1      -3.036   2.392  -0.245  0.00  0.00    -0.131 NA
ATOM      5  N   UNL     1      -3.816   1.719   0.664  0.00  0.00    -0.133 NA
ATOM      6  C   UNL     1      -1.305  -0.723  -0.054  0.00  0.00    +0.068 C 
ATOM      7  C   UNL     1       0.031  -0.594  -0.482  0.00  0.00    +0.035 C 
ATOM      8  C   UNL     1      -2.063   1.585  -0.614  0.00  0.00    +0.172 A 
ATOM      9  C   UNL     1      -1.059   1.817  -1.674  0.00  0.00    +0.191 C 
ATOM     10  C   UNL     1       0.750   0.720  -0.589  0.00  0.00    +0.095 C 
ATOM     11  C   UNL     1      -3.298   0.523   0.823  0.00  0.00    +0.147 A 
ATOM     12  C   UNL     1      -1.827  -1.997   0.221  0.00  0.00    +0.018 C 
ATOM     13  C   UNL     1       0.788  -1.756  -0.711  0.00  0.00    +0.010 C 
ATOM     14  C   UNL     1      -1.052  -3.138   0.013  0.00  0.00    +0.008 C 
ATOM     15  C   UNL     1       0.248  -3.019  -0.468  0.00  0.00    +0.035 C 
ATOM     16  C   UNL     1      -3.806  -0.442   1.821  0.00  0.00    +0.074 C 
ENDROOT
BRANCH  10  18
ATOM     17  N   UNL     1       2.363   0.018   1.040  0.00  0.00    -0.242 NA
ATOM     18  C   UNL     1       2.126   0.818  -0.016  0.00  0.00    +0.099 C 
ATOM     19  C   UNL     1       3.039   1.685  -0.575  0.00  0.00    +0.021 C 
ATOM     20  C   UNL     1       4.305   1.737  -0.003  0.00  0.00    +0.003 C 
ATOM     21  C   UNL     1       3.604   0.096   1.570  0.00  0.00    +0.099 C 
ATOM     22  C   UNL     1       4.601   0.931   1.091  0.00  0.00    +0.021 C 
ENDBRANCH  10  18
TORSDOF 1
