REMARK  Name = 55331
REMARK  12 active torsions:
REMARK  status: ('A' for Active; 'I' for Inactive)
REMARK    1  A    between atoms: CA_3  and  C_18
REMARK    2  A    between atoms: C_8  and  CA_21
REMARK    3  A    between atoms: C_11  and  O_13
REMARK    4  A    between atoms: C_12  and  O_15
REMARK    5  A    between atoms: C_18  and  O_19
REMARK    6  A    between atoms: CA_21  and  N_23
REMARK    7  A    between atoms: N_23  and  CA_26
REMARK    8  A    between atoms: CA_26  and  C_28
REMARK    9  A    between atoms: CA_26  and  C_31
REMARK   10  A    between atoms: C_28  and  O_29
REMARK   11  A    between atoms: C_31  and  C_32
REMARK   12  A    between atoms: C_32  and  C_33
REMARK                            x       y       z     vdW  Elec       q    Type
REMARK                         _______ _______ _______ _____ _____    ______ ____
ROOT
ATOM      1  O   UNL     1       0.382   4.261  -0.350  0.00  0.00    -0.277 OA
ATOM      2  N   UNL     1       1.213   2.083  -0.361  0.00  0.00    -0.269 N 
ATOM      3  CA  UNL     1       2.595   2.524  -0.562  0.00  0.00    +0.179 C 
ATOM      4  C   UNL     1       3.587   1.770   0.319  0.00  0.00    +0.057 C 
ATOM      5  C   UNL     1       0.946   0.635  -0.373  0.00  0.00    +0.120 C 
ATOM      6  C   UNL     1       3.367   0.282   0.314  0.00  0.00    -0.019 C 
ATOM      7  C   UNL     1       2.107  -0.248   0.000  0.00  0.00    -0.003 C 
ATOM      8  C   UNL     1       0.191   3.042  -0.359  0.00  0.00    +0.206 C 
ATOM      9  C   UNL     1       4.413  -0.579   0.675  0.00  0.00    +0.036 C 
ATOM     10  C   UNL     1       1.922  -1.639   0.025  0.00  0.00    +0.037 C 
ATOM     11  C   UNL     1       4.217  -1.959   0.698  0.00  0.00    +0.172 C 
ATOM     12  C   UNL     1       2.972  -2.489   0.371  0.00  0.00    +0.172 C 
ENDROOT
BRANCH  11  13
ATOM     13  O   UNL     1       5.249  -2.777   1.044  0.00  0.00    -0.468 OA
ATOM     14  C   UNL     1       5.389  -3.094   2.428  0.00  0.00    +0.253 C 
ENDBRANCH  11  13
BRANCH  12  15
ATOM     15  O   UNL     1       2.765  -3.836   0.389  0.00  0.00    -0.468 OA
ATOM     16  C   UNL     1       3.017  -4.547  -0.821  0.00  0.00    +0.253 C 
ENDBRANCH  12  15
BRANCH   3  18
ATOM     17  OXT UNL     1       2.122   1.921  -2.858  0.00  0.00    -0.248 OA
ATOM     18  C   UNL     1       2.893   2.379  -2.027  0.00  0.00    +0.332 C 
BRANCH  18  19
ATOM     19  O   UNL     1       4.141   2.824  -2.308  0.00  0.00    -0.479 OA
ATOM     20  H   UNL     1       4.683   3.164  -1.623  0.00  0.00    +0.295 HD
ENDBRANCH  18  19
ENDBRANCH   3  18
BRANCH   8  21
ATOM     21  CA  UNL     1      -1.224   2.515  -0.362  0.00  0.00    +0.018 C 
ATOM     22  CB  UNL     1      -2.143   3.506  -1.045  0.00  0.00    -0.014 C 
BRANCH  21  23
ATOM     23  N   UNL     1      -1.602   2.322   1.027  0.00  0.00    +0.399 N 
ATOM     24  H1  UNL     1      -1.550   3.216   1.514  0.00  0.00    -0.083 HD
ATOM     25  H2  UNL     1      -0.962   1.647   1.446  0.00  0.00    -0.083 HD
BRANCH  23  26
ATOM     26  CA  UNL     1      -2.959   1.800   1.134  0.00  0.00    +0.041 C 
BRANCH  26  28
ATOM     27  OXT UNL     1      -2.416   1.299   3.454  0.00  0.00    -0.253 OA
ATOM     28  C   UNL     1      -3.248   1.618   2.614  0.00  0.00    +0.293 C 
BRANCH  28  29
ATOM     29  O   UNL     1      -4.544   1.875   2.926  0.00  0.00    -0.482 OA
ATOM     30  H   UNL     1      -5.149   2.117   2.253  0.00  0.00    +0.295 HD
ENDBRANCH  28  29
ENDBRANCH  26  28
BRANCH  26  31
ATOM     31  C   UNL     1      -3.047   0.463   0.385  0.00  0.00    -0.006 C 
BRANCH  31  32
ATOM     32  C   UNL     1      -4.440  -0.186   0.403  0.00  0.00    +0.025 C 
BRANCH  32  33
ATOM     33  C   UNL     1      -4.547  -1.461  -0.398  0.00  0.00    -0.022 C 
ATOM     34  C   UNL     1      -4.905  -1.396  -1.735  0.00  0.00    -0.004 C 
ATOM     35  C   UNL     1      -4.285  -2.675   0.219  0.00  0.00    -0.004 C 
ATOM     36  C   UNL     1      -5.003  -2.575  -2.475  0.00  0.00    -0.000 C 
ATOM     37  C   UNL     1      -4.383  -3.853  -0.521  0.00  0.00    -0.000 C 
ATOM     38  C   UNL     1      -4.742  -3.803  -1.868  0.00  0.00    -0.000 C 
ENDBRANCH  32  33
ENDBRANCH  31  32
ENDBRANCH  26  31
ENDBRANCH  23  26
ENDBRANCH  21  23
ENDBRANCH   8  21
TORSDOF 12
