REMARK  Name = 14231
REMARK  8 active torsions:
REMARK  status: ('A' for Active; 'I' for Inactive)
REMARK    1  A    between atoms: C_1  and  C_2
REMARK    2  A    between atoms: C_1  and  C_7
REMARK    3  A    between atoms: C_2  and  C_3
REMARK    4  A    between atoms: C_3  and  C_4
REMARK    5  A    between atoms: C_4  and  C_5
REMARK    6  A    between atoms: C_7  and  O_8
REMARK    7  A    between atoms: C_7  and  C_10
REMARK    8  A    between atoms: C_10  and  O_11
REMARK                            x       y       z     vdW  Elec       q    Type
REMARK                         _______ _______ _______ _____ _____    ______ ____
ROOT
ATOM      1  C   UNL     1      -1.003  -0.619   0.139  0.00  0.00    +0.032 C 
ENDROOT
BRANCH   1   2
ATOM      2  C   UNL     1       0.233   0.204  -0.246  0.00  0.00    +0.003 C 
BRANCH   2   3
ATOM      3  C   UNL     1       1.523  -0.535   0.117  0.00  0.00    +0.000 C 
BRANCH   3   4
ATOM      4  C   UNL     1       2.792   0.255  -0.217  0.00  0.00    +0.000 C 
BRANCH   4   5
ATOM      5  C   UNL     1       4.079  -0.452   0.213  0.00  0.00    +0.000 C 
ATOM      6  C   UNL     1       5.303   0.404  -0.075  0.00  0.00    +0.000 C 
ENDBRANCH   4   5
ENDBRANCH   3   4
ENDBRANCH   2   3
ENDBRANCH   1   2
BRANCH   1   7
ATOM      7  C   UNL     1      -2.307   0.087  -0.251  0.00  0.00    +0.140 C 
BRANCH   7   8
ATOM      8  O   UNL     1      -2.343   1.368   0.377  0.00  0.00    -0.382 OA
ATOM      9  H   UNL     1      -1.558   1.876   0.119  0.00  0.00    +0.210 HD
ENDBRANCH   7   8
BRANCH   7  10
ATOM     10  C   UNL     1      -3.548  -0.703   0.163  0.00  0.00    +0.166 C 
BRANCH  10  11
ATOM     11  O   UNL     1      -4.729  -0.009  -0.221  0.00  0.00    -0.379 OA
ATOM     12  H   UNL     1      -5.507  -0.522   0.048  0.00  0.00    +0.211 HD
ENDBRANCH  10  11
ENDBRANCH   7  10
ENDBRANCH   1   7
TORSDOF 8
