REMARK  Name = 107689
REMARK  3 active torsions:
REMARK  status: ('A' for Active; 'I' for Inactive)
REMARK    1  A    between atoms: C_1  and  O_3
REMARK    2  A    between atoms: C_1  and  C_6
REMARK    3  A    between atoms: C_6  and  O_7
REMARK                            x       y       z     vdW  Elec       q    Type
REMARK                         _______ _______ _______ _____ _____    ______ ____
ROOT
ATOM      1  C   UNL     1      -0.708  -0.112   0.400  0.00  0.00    +0.209 C 
ATOM      2  C   UNL     1      -1.367  -1.163  -0.476  0.00  0.00    +0.044 C 
ENDROOT
BRANCH   1   3
ATOM      3  O   UNL     1      -1.387   1.118   0.197  0.00  0.00    -0.374 OA
ATOM      4  H   UNL     1      -2.323   1.013   0.430  0.00  0.00    +0.211 HD
ENDBRANCH   1   3
BRANCH   1   6
ATOM      5  O   UNL     1       1.226   1.115  -0.412  0.00  0.00    -0.248 OA
ATOM      6  C   UNL     1       0.748   0.078   0.029  0.00  0.00    +0.341 C 
BRANCH   6   7
ATOM      7  O   UNL     1       1.488  -1.037   0.262  0.00  0.00    -0.479 OA
ATOM      8  H   UNL     1       1.078  -1.808   0.601  0.00  0.00    +0.295 HD
ENDBRANCH   6   7
ENDBRANCH   1   6
TORSDOF 3
