REMARK  Name = 464205
REMARK  7 active torsions:
REMARK  status: ('A' for Active; 'I' for Inactive)
REMARK    1  A    between atoms: N_1  and  C_13
REMARK    2  A    between atoms: C_13  and  C_14
REMARK    3  A    between atoms: C_14  and  O_16
REMARK    4  A    between atoms: O_16  and  C_17
REMARK    5  A    between atoms: C_17  and  P_18
REMARK    6  A    between atoms: P_18  and  O_20
REMARK    7  A    between atoms: P_18  and  O_22
REMARK                            x       y       z     vdW  Elec       q    Type
REMARK                         _______ _______ _______ _____ _____    ______ ____
ROOT
ATOM      1  N   UNL     1       1.022  -1.586   0.104  0.00  0.00    -0.269 N 
ATOM      2  N   UNL     1       2.744  -1.140  -1.208  0.00  0.00    -0.242 NA
ATOM      3  N   UNL     1       0.927   0.450   1.418  0.00  0.00    -0.228 NA
ATOM      4  N   UNL     1       2.683   2.003   0.740  0.00  0.00    -0.229 NA
ATOM      5  C   UNL     1       1.436  -0.350   0.469  0.00  0.00    +0.151 C 
ATOM      6  C   UNL     1       2.513  -0.085  -0.362  0.00  0.00    +0.140 C 
ATOM      7  C   UNL     1       1.824  -2.029  -0.899  0.00  0.00    +0.221 C 
ATOM      8  C   UNL     1       3.144   1.145  -0.201  0.00  0.00    +0.143 C 
ATOM      9  C   UNL     1       1.619   1.609   1.480  0.00  0.00    +0.253 C 
ATOM     10  N   UNL     1       4.244   1.497  -1.002  0.00  0.00    -0.342 N 
ATOM     11  H   UNL     1       4.683   2.370  -0.879  0.00  0.00    +0.144 HD
ATOM     12  H   UNL     1       4.576   0.871  -1.685  0.00  0.00    +0.144 HD
ENDROOT
BRANCH   1  13
ATOM     13  C   UNL     1      -0.097  -2.329   0.684  0.00  0.00    +0.123 C 
BRANCH  13  14
ATOM     14  C   UNL     1      -1.422  -2.057  -0.034  0.00  0.00    +0.136 C 
ATOM     15  C   UNL     1      -2.558  -2.839   0.611  0.00  0.00    +0.034 C 
BRANCH  14  16
ATOM     16  O   UNL     1      -1.750  -0.677   0.061  0.00  0.00    -0.343 OA
BRANCH  16  17
ATOM     17  C   UNL     1      -2.969  -0.383  -0.608  0.00  0.00    +0.258 C 
BRANCH  17  18
ATOM     18  P   UNL     1      -3.187   1.372  -0.407  0.00  0.00    +0.367 P 
ATOM     19  O   UNL     1      -2.075   2.213  -0.959  0.00  0.00    -0.256 OA
BRANCH  18  20
ATOM     20  O   UNL     1      -3.459   1.544   1.177  0.00  0.00    -0.322 OA
ATOM     21  H   UNL     1      -3.592   2.482   1.383  0.00  0.00    +0.220 HD
ENDBRANCH  18  20
BRANCH  18  22
ATOM     22  O   UNL     1      -4.639   1.641  -1.065  0.00  0.00    -0.322 OA
ATOM     23  H   UNL     1      -4.852   2.585  -1.003  0.00  0.00    +0.220 HD
ENDBRANCH  18  22
ENDBRANCH  17  18
ENDBRANCH  16  17
ENDBRANCH  14  16
ENDBRANCH  13  14
ENDBRANCH   1  13
TORSDOF 7
