REMARK  Name = 102697
REMARK  3 active torsions:
REMARK  status: ('A' for Active; 'I' for Inactive)
REMARK    1  A    between atoms: C_6  and  C_15
REMARK    2  A    between atoms: C_8  and  O_21
REMARK    3  A    between atoms: O_21  and  C_23
REMARK                            x       y       z     vdW  Elec       q    Type
REMARK                         _______ _______ _______ _____ _____    ______ ____
ROOT
ATOM      1 CL   UNL     1      -3.999   2.226  -2.074  0.00  0.00    -0.082 Cl
ATOM      2  O   UNL     1       2.823   1.373   2.167  0.00  0.00    -0.269 OA
ATOM      3  N   UNL     1       0.788   2.098   1.428  0.00  0.00    -0.279 N 
ATOM      4  N   UNL     1       1.141  -0.633   0.205  0.00  0.00    -0.224 NA
ATOM      5  C   UNL     1      -0.770   0.898  -0.097  0.00  0.00    +0.032 C 
ATOM      6  C   UNL     1      -0.129  -0.435   0.111  0.00  0.00    +0.081 C 
ATOM      7  C   UNL     1      -0.360   2.038   0.612  0.00  0.00    +0.052 C 
ATOM      8  C   UNL     1       2.053   0.488   0.063  0.00  0.00    +0.352 C 
ATOM      9  C   UNL     1       1.925   1.324   1.325  0.00  0.00    +0.292 C 
ATOM     10  C   UNL     1      -1.889   0.971  -0.943  0.00  0.00    +0.014 C 
ATOM     11  C   UNL     1      -1.139   3.203   0.541  0.00  0.00    +0.016 C 
ATOM     12  C   UNL     1      -2.625   2.151  -1.041  0.00  0.00    +0.058 C 
ATOM     13  C   UNL     1      -2.261   3.261  -0.286  0.00  0.00    +0.013 C 
ATOM     14  H   UNL     1       0.777   2.765   2.152  0.00  0.00    +0.155 HD
ENDROOT
BRANCH   6  15
ATOM     15  C   UNL     1      -1.003  -1.634   0.259  0.00  0.00    +0.017 C 
ATOM     16  C   UNL     1      -2.269  -1.496   0.815  0.00  0.00    +0.001 C 
ATOM     17  C   UNL     1      -0.542  -2.875  -0.162  0.00  0.00    +0.001 C 
ATOM     18  C   UNL     1      -3.086  -2.619   0.953  0.00  0.00    +0.000 C 
ATOM     19  C   UNL     1      -1.359  -3.997  -0.024  0.00  0.00    +0.000 C 
ATOM     20  C   UNL     1      -2.631  -3.869   0.533  0.00  0.00    +0.000 C 
ENDBRANCH   6  15
BRANCH   8  21
ATOM     21  O   UNL     1       3.427   0.127  -0.064  0.00  0.00    -0.421 OA
BRANCH  21  23
ATOM     22  O   UNL     1       2.959  -1.027  -2.010  0.00  0.00    -0.250 OA
ATOM     23  C   UNL     1       3.740  -0.636  -1.153  0.00  0.00    +0.319 C 
ATOM     24  C   UNL     1       5.208  -0.937  -1.156  0.00  0.00    +0.121 C 
ENDBRANCH  21  23
ENDBRANCH   8  21
TORSDOF 3
