REMARK  Name = 23724908
REMARK  5 active torsions:
REMARK  status: ('A' for Active; 'I' for Inactive)
REMARK    1  A    between atoms: C_8  and  C_30
REMARK    2  A    between atoms: C_13  and  O_27
REMARK    3  A    between atoms: C_30  and  C_31
REMARK    4  A    between atoms: C_31  and  O_32
REMARK    5  A    between atoms: O_32  and  C_34
REMARK                            x       y       z     vdW  Elec       q    Type
REMARK                         _______ _______ _______ _____ _____    ______ ____
ROOT
ATOM      1  F   UNL     1      -4.826   2.439  -0.745  0.00  0.00    -0.233 F 
ATOM      2  O   UNL     1       2.226   0.930   1.135  0.00  0.00    -0.330 OA
ATOM      3  O   UNL     1       2.357   3.090   0.219  0.00  0.00    -0.334 OA
ATOM      4  O   UNL     1      -6.685  -0.932   2.291  0.00  0.00    -0.287 OA
ATOM      5  C   UNL     1       0.902   0.004  -0.743  0.00  0.00    +0.034 C 
ATOM      6  C   UNL     1      -0.176   1.084  -0.502  0.00  0.00    +0.005 C 
ATOM      7  C   UNL     1      -1.583   0.651  -0.937  0.00  0.00    +0.006 C 
ATOM      8  C   UNL     1       2.160   0.785  -0.281  0.00  0.00    +0.174 C 
ATOM      9  C   UNL     1      -1.995  -0.615  -0.105  0.00  0.00    +0.034 C 
ATOM     10  C   UNL     1       1.950   2.203  -0.819  0.00  0.00    +0.149 C 
ATOM     11  C   UNL     1       0.440   2.348  -1.107  0.00  0.00    +0.033 C 
ATOM     12  C   UNL     1       0.523  -1.222   0.109  0.00  0.00    +0.032 C 
ATOM     13  C   UNL     1      -0.908  -1.736  -0.170  0.00  0.00    +0.111 C 
ATOM     14  C   UNL     1      -3.480  -1.067  -0.404  0.00  0.00    +0.039 C 
ATOM     15  C   UNL     1      -2.586   1.797  -0.733  0.00  0.00    +0.040 C 
ATOM     16  C   UNL     1       1.057  -0.387  -2.238  0.00  0.00    +0.003 C 
ATOM     17  C   UNL     1      -4.018   1.373  -1.023  0.00  0.00    +0.180 C 
ATOM     18  C   UNL     1       2.542   2.300   1.395  0.00  0.00    +0.188 C 
ATOM     19  C   UNL     1      -4.381   0.159  -0.205  0.00  0.00    -0.006 C 
ATOM     20  C   UNL     1      -3.698  -1.597  -1.839  0.00  0.00    +0.009 C 
ATOM     21  C   UNL     1      -3.876  -2.201   0.530  0.00  0.00    -0.020 C 
ATOM     22  C   UNL     1       1.619   2.819   2.492  0.00  0.00    +0.061 C 
ATOM     23  C   UNL     1       4.000   2.409   1.833  0.00  0.00    +0.061 C 
ATOM     24  C   UNL     1      -5.405   0.193   0.662  0.00  0.00    +0.036 C 
ATOM     25  C   UNL     1      -4.893  -2.169   1.397  0.00  0.00    +0.038 C 
ATOM     26  C   UNL     1      -5.739  -0.968   1.512  0.00  0.00    +0.195 C 
ENDROOT
BRANCH  13  27
ATOM     27  O   UNL     1      -0.935  -2.407  -1.422  0.00  0.00    -0.384 OA
ATOM     28  H   UNL     1      -1.834  -2.729  -1.597  0.00  0.00    +0.210 HD
ENDBRANCH  13  27
BRANCH   8  30
ATOM     29  O   UNL     1       3.994   0.440  -1.765  0.00  0.00    -0.290 OA
ATOM     30  C   UNL     1       3.457   0.154  -0.696  0.00  0.00    +0.221 C 
BRANCH  30  31
ATOM     31  C   UNL     1       4.055  -0.846   0.271  0.00  0.00    +0.275 C 
BRANCH  31  32
ATOM     32  O   UNL     1       5.274  -1.354  -0.229  0.00  0.00    -0.440 OA
BRANCH  32  34
ATOM     33  O   UNL     1       5.522  -2.680   1.647  0.00  0.00    -0.250 OA
ATOM     34  C   UNL     1       5.916  -2.273   0.562  0.00  0.00    +0.318 C 
ATOM     35  C   UNL     1       7.187  -2.723  -0.091  0.00  0.00    +0.121 C 
ENDBRANCH  32  34
ENDBRANCH  31  32
ENDBRANCH  30  31
ENDBRANCH   8  30
TORSDOF 5
