REMARK  Name = 74426
REMARK  2 active torsions:
REMARK  status: ('A' for Active; 'I' for Inactive)
REMARK    1  A    between atoms: C_1  and  O_7
REMARK    2  A    between atoms: O_7  and  S_8
REMARK                            x       y       z     vdW  Elec       q    Type
REMARK                         _______ _______ _______ _____ _____    ______ ____
ROOT
ATOM      1  C   UNL     1      -0.417  -0.005  -0.503  0.00  0.00    +0.176 C 
ATOM      2  C   UNL     1      -1.078   1.206  -0.297  0.00  0.00    +0.040 C 
ATOM      3  C   UNL     1      -1.081  -1.210  -0.278  0.00  0.00    +0.040 C 
ATOM      4  C   UNL     1      -2.405   1.211   0.134  0.00  0.00    +0.003 C 
ATOM      5  C   UNL     1      -2.408  -1.205   0.153  0.00  0.00    +0.003 C 
ATOM      6  C   UNL     1      -3.070   0.005   0.359  0.00  0.00    +0.000 C 
ENDROOT
BRANCH   1   7
ATOM      7  O   UNL     1       0.878  -0.010  -0.923  0.00  0.00    -0.322 OA
BRANCH   7   8
ATOM      8  S   UNL     1       2.080  -0.003   0.200  0.00  0.00    +0.282 S 
ATOM      9  O   UNL     1       3.443   0.131  -0.689  0.00  0.00    -0.105 OA
ATOM     10  O   UNL     1       1.958   1.191   1.014  0.00  0.00    -0.012 OA
ATOM     11  O   UNL     1       2.101  -1.311   0.830  0.00  0.00    -0.105 OA
ENDBRANCH   7   8
ENDBRANCH   1   7
TORSDOF 2
