REMARK  Name = 44404226
REMARK  3 active torsions:
REMARK  status: ('A' for Active; 'I' for Inactive)
REMARK    1  A    between atoms: C_3  and  C_11
REMARK    2  A    between atoms: C_6  and  C_17
REMARK    3  A    between atoms: C_22  and  C_24
REMARK                            x       y       z     vdW  Elec       q    Type
REMARK                         _______ _______ _______ _____ _____    ______ ____
ROOT
ATOM      1  F   UNL     1       1.337   2.968  -0.767  0.00  0.00    -0.183 F 
ATOM      2  N   UNL     1      -0.922   2.833  -0.390  0.00  0.00    -0.217 NA
ATOM      3  C   UNL     1      -1.872   0.769   0.435  0.00  0.00    -0.005 C 
ATOM      4  C   UNL     1      -0.611   0.183   0.444  0.00  0.00    +0.001 C 
ATOM      5  C   UNL     1      -1.974   2.085   0.014  0.00  0.00    +0.097 C 
ATOM      6  C   UNL     1       0.494   0.921   0.035  0.00  0.00    +0.046 C 
ATOM      7  C   UNL     1       0.287   2.230  -0.368  0.00  0.00    +0.222 C 
ENDROOT
BRANCH   3  11
ATOM      8  N   UNL     1      -4.529  -1.844   0.896  0.00  0.00    +0.387 N 
ATOM      9  C   UNL     1      -3.105  -1.537   0.641  0.00  0.00    -0.058 C 
ATOM     10  C   UNL     1      -5.080  -0.947  -0.133  0.00  0.00    -0.062 C 
ATOM     11  C   UNL     1      -3.096  -0.007   0.873  0.00  0.00    +0.002 C 
ATOM     12  C   UNL     1      -4.445   0.401   0.231  0.00  0.00    -0.019 C 
ATOM     13  C   UNL     1      -3.022  -1.919  -0.842  0.00  0.00    -0.023 C 
ATOM     14  C   UNL     1      -4.401  -1.520  -1.376  0.00  0.00    -0.023 C 
ATOM     15  H   UNL     1      -4.823  -1.587   1.839  0.00  0.00    -0.084 HD
ATOM     16  H   UNL     1      -4.804  -2.825   0.849  0.00  0.00    -0.084 HD
ENDBRANCH   3  11
BRANCH   6  17
ATOM     17  C   UNL     1       1.815   0.335   0.037  0.00  0.00    +0.004 C 
ATOM     18  C   UNL     1       2.077  -0.794  -0.740  0.00  0.00    +0.001 C 
ATOM     19  C   UNL     1       2.827   0.897   0.814  0.00  0.00    +0.001 C 
ATOM     20  C   UNL     1       3.352  -1.361  -0.738  0.00  0.00    +0.010 C 
ATOM     21  C   UNL     1       4.102   0.331   0.815  0.00  0.00    +0.010 C 
ATOM     22  C   UNL     1       4.364  -0.798   0.039  0.00  0.00    +0.068 C 
BRANCH  22  24
ATOM     23  N   UNL     1       6.731  -1.849   0.041  0.00  0.00    -0.191 NA
ATOM     24  C   UNL     1       5.670  -1.378   0.040  0.00  0.00    +0.100 C 
ENDBRANCH  22  24
ENDBRANCH   6  17
TORSDOF 3
