REMARK  Name = 447315
REMARK  7 active torsions:
REMARK  status: ('A' for Active; 'I' for Inactive)
REMARK    1  A    between atoms: C_1  and  O_2
REMARK    2  A    between atoms: C_1  and  C_5
REMARK    3  A    between atoms: C_1  and  C_8
REMARK    4  A    between atoms: C_5  and  O_6
REMARK    5  A    between atoms: C_8  and  O_9
REMARK    6  A    between atoms: C_8  and  C_12
REMARK    7  A    between atoms: C_12  and  O_13
REMARK                            x       y       z     vdW  Elec       q    Type
REMARK                         _______ _______ _______ _____ _____    ______ ____
ROOT
ATOM      1  C   UNL     1      -0.528  -0.984  -0.053  0.00  0.00    +0.248 C 
ENDROOT
BRANCH   1   2
ATOM      2  O   UNL     1      -0.221  -1.419   1.260  0.00  0.00    -0.372 OA
ATOM      3  H   UNL     1       0.506  -2.061   1.227  0.00  0.00    +0.211 HD
ENDBRANCH   1   2
BRANCH   1   5
ATOM      4  O   UNL     1      -2.190   0.450   0.971  0.00  0.00    -0.247 OA
ATOM      5  C   UNL     1      -1.665   0.026  -0.052  0.00  0.00    +0.344 C 
BRANCH   5   6
ATOM      6  O   UNL     1      -2.067   0.393  -1.293  0.00  0.00    -0.478 OA
ATOM      7  H   UNL     1      -1.635   0.043  -2.048  0.00  0.00    +0.295 HD
ENDBRANCH   5   6
ENDBRANCH   1   5
BRANCH   1   8
ATOM      8  C   UNL     1       0.739  -0.429  -0.706  0.00  0.00    +0.248 C 
BRANCH   8   9
ATOM      9  O   UNL     1       1.726  -1.453  -0.706  0.00  0.00    -0.372 OA
ATOM     10  H   UNL     1       1.379  -2.237  -1.160  0.00  0.00    +0.211 HD
ENDBRANCH   8   9
BRANCH   8  12
ATOM     11  O   UNL     1       2.418   0.805   0.553  0.00  0.00    -0.247 OA
ATOM     12  C   UNL     1       1.320   0.777   0.012  0.00  0.00    +0.344 C 
BRANCH  12  13
ATOM     13  O   UNL     1       0.469   1.834   0.014  0.00  0.00    -0.478 OA
ATOM     14  H   UNL     1      -0.362   1.767  -0.414  0.00  0.00    +0.295 HD
ENDBRANCH  12  13
ENDBRANCH   8  12
ENDBRANCH   1   8
TORSDOF 7
