REMARK  Name = 60063
REMARK  5 active torsions:
REMARK  status: ('A' for Active; 'I' for Inactive)
REMARK    1  A    between atoms: N_4  and  C_23
REMARK    2  A    between atoms: C_6  and  N_14
REMARK    3  A    between atoms: C_10  and  C_27
REMARK    4  A    between atoms: C_15  and  N_19
REMARK    5  A    between atoms: C_27  and  O_28
REMARK                            x       y       z     vdW  Elec       q    Type
REMARK                         _______ _______ _______ _____ _____    ______ ____
ROOT
ATOM      1 CL   UNL     1       1.453   2.099   0.445  0.00  0.00    -0.080 Cl
ATOM      2  F   UNL     1       2.252  -2.800  -0.179  0.00  0.00    -0.203 F 
ATOM      3  O   UNL     1      -2.776  -2.652  -0.298  0.00  0.00    -0.286 OA
ATOM      4  N   UNL     1      -1.609   1.216   0.245  0.00  0.00    -0.287 N 
ATOM      5  C   UNL     1      -0.601   0.215   0.140  0.00  0.00    +0.067 C 
ATOM      6  C   UNL     1       1.729  -0.502   0.110  0.00  0.00    +0.087 C 
ATOM      7  C   UNL     1      -2.939   0.856   0.161  0.00  0.00    +0.075 C 
ATOM      8  C   UNL     1       0.770   0.509   0.217  0.00  0.00    +0.087 C 
ATOM      9  C   UNL     1      -0.977  -1.133  -0.048  0.00  0.00    +0.056 C 
ATOM     10  C   UNL     1      -3.402  -0.388  -0.016  0.00  0.00    +0.129 C 
ATOM     11  C   UNL     1       1.337  -1.825  -0.075  0.00  0.00    +0.154 C 
ATOM     12  C   UNL     1      -2.417  -1.492  -0.135  0.00  0.00    +0.204 C 
ATOM     13  C   UNL     1      -0.015  -2.145  -0.154  0.00  0.00    +0.035 C 
ENDROOT
BRANCH   6  14
ATOM     14  N   UNL     1       3.082  -0.246   0.182  0.00  0.00    -0.307 N 
ATOM     15  C   UNL     1       5.221   0.578  -0.344  0.00  0.00    -0.044 C 
ATOM     16  C   UNL     1       3.923   0.058  -0.975  0.00  0.00    +0.069 C 
ATOM     17  C   UNL     1       5.306  -0.224   0.950  0.00  0.00    +0.001 C 
ATOM     18  C   UNL     1       3.853  -0.252   1.424  0.00  0.00    +0.089 C 
BRANCH  15  19
ATOM     19  N   UNL     1       6.387   0.411  -1.194  0.00  0.00    +0.383 N 
ATOM     20  H   UNL     1       6.273   0.968  -2.040  0.00  0.00    -0.089 HD
ATOM     21  H   UNL     1       6.486  -0.573  -1.445  0.00  0.00    -0.089 HD
ATOM     22  H   UNL     1       7.220   0.719  -0.693  0.00  0.00    -0.089 HD
ENDBRANCH  15  19
ENDBRANCH   6  14
BRANCH   4  23
ATOM     23  C   UNL     1      -1.389   2.669   0.442  0.00  0.00    +0.077 C 
ATOM     24  C   UNL     1      -1.113   3.561  -0.721  0.00  0.00    +0.022 C 
ATOM     25  C   UNL     1      -2.418   3.660   0.015  0.00  0.00    +0.022 C 
ENDBRANCH   4  23
BRANCH  10  27
ATOM     26  O   UNL     1      -5.645   0.234  -0.500  0.00  0.00    -0.245 OA
ATOM     27  C   UNL     1      -4.851  -0.590  -0.081  0.00  0.00    +0.342 C 
BRANCH  27  28
ATOM     28  O   UNL     1      -5.160  -1.816   0.390  0.00  0.00    -0.477 OA
ATOM     29  H   UNL     1      -4.480  -2.386   0.693  0.00  0.00    +0.295 HD
ENDBRANCH  27  28
ENDBRANCH  10  27
TORSDOF 5
