961
  -OEChem-07121815103D

  2  1  0     0  0  0  0  0  0999 V2000
    0.0000    0.0000    0.0000 O   0  5  0  0  0  0  0  0  0  0  0  0
    0.4500   -0.1525   -0.8454 H   0  0  0  0  0  0  0  0  0  0  0  0
  1  2  1  0  0  0  0
M  CHG  1   1  -1
M  END
> <DATABASE_ID>
DB14522

> <DATABASE_NAME>
drugbank

> <ORIGINAL_SOURCE>
PUBCHEM

> <ORIGINAL_SOURCE_URL>
https://pubchem.ncbi.nlm.nih.gov/rest/pug/compound/inchikey/XLYOFNOQVPJJNP-UHFFFAOYSA-M/SDF?record_type=3d

> <SMILES>
[O-][H]

> <INCHI_IDENTIFIER>
InChI=1S/H2O/h1H2/p-1

> <INCHI_KEY>
XLYOFNOQVPJJNP-UHFFFAOYSA-M

> <FORMULA>
HO

> <MOLECULAR_WEIGHT>
17.0073

> <EXACT_MASS>
17.002739654

> <JCHEM_ACCEPTOR_COUNT>
1

> <JCHEM_ATOM_COUNT>
2

> <JCHEM_AVERAGE_POLARIZABILITY>
1.1909242651253518

> <JCHEM_BIOAVAILABILITY>
1

> <JCHEM_DONOR_COUNT>
1

> <JCHEM_FORMAL_CHARGE>
-1

> <JCHEM_GHOSE_FILTER>
0

> <JCHEM_IUPAC>
hydroxide

> <JCHEM_LOGP>
-0.6519999999999999

> <JCHEM_MDDR_LIKE_RULE>
0

> <JCHEM_NUMBER_OF_RINGS>
0

> <JCHEM_PHYSIOLOGICAL_CHARGE>
0

> <JCHEM_PKA_STRONGEST_ACIDIC>
15.7

> <JCHEM_PKA_STRONGEST_BASIC>
-1.7999999999999998

> <JCHEM_POLAR_SURFACE_AREA>
0.0

> <JCHEM_REFRACTIVITY>
13.914900000000001

> <JCHEM_ROTATABLE_BOND_COUNT>
0

> <JCHEM_RULE_OF_FIVE>
1

> <JCHEM_TRADITIONAL_IUPAC>
hydroxide

> <JCHEM_VEBER_RULE>
1

> <DRUGBANK_ID>
DB14522

> <DRUG_GROUPS>
experimental

> <GENERIC_NAME>
Hydroxide ion

> <SYNONYMS>
Hydroxide; Oxidanide

$$$$
