REMARK  Name = 43860
REMARK  8 active torsions:
REMARK  status: ('A' for Active; 'I' for Inactive)
REMARK    1  A    between atoms: C_2  and  N_6
REMARK    2  A    between atoms: C_3  and  O_22
REMARK    3  A    between atoms: C_4  and  O_24
REMARK    4  A    between atoms: C_5  and  C_26
REMARK    5  A    between atoms: C_26  and  O_27
REMARK    6  A    between atoms: O_27  and  P_28
REMARK    7  A    between atoms: P_28  and  O_30
REMARK    8  A    between atoms: P_28  and  O_32
REMARK                            x       y       z     vdW  Elec       q    Type
REMARK                         _______ _______ _______ _____ _____    ______ ____
ROOT
ATOM      1  O   UNL     1       1.616  -1.190   1.084  0.00  0.00    -0.333 OA
ATOM      2  C   UNL     1       0.620  -2.031   0.469  0.00  0.00    +0.224 C 
ATOM      3  C   UNL     1       1.214  -2.491  -0.854  0.00  0.00    +0.187 C 
ATOM      4  C   UNL     1       2.683  -2.612  -0.500  0.00  0.00    +0.171 C 
ATOM      5  C   UNL     1       2.889  -1.428   0.440  0.00  0.00    +0.176 C 
ENDROOT
BRANCH   2   6
ATOM      6  N   UNL     1      -0.633  -1.292   0.335  0.00  0.00    -0.265 N 
ATOM      7  N   UNL     1       0.205   0.997  -0.041  0.00  0.00    -0.230 NA
ATOM      8  N   UNL     1      -4.002   1.617  -0.183  0.00  0.00    -0.192 N 
ATOM      9  N   UNL     1      -4.801   0.476   0.001  0.00  0.00    -0.162 NA
ATOM     10  N   UNL     1      -1.696   2.564  -0.321  0.00  0.00    -0.228 NA
ATOM     11  N   UNL     1      -4.946  -1.878   0.395  0.00  0.00    -0.342 N 
ATOM     12  C   UNL     1      -0.747   0.060   0.108  0.00  0.00    +0.133 C 
ATOM     13  C   UNL     1      -1.902  -1.861   0.419  0.00  0.00    +0.124 C 
ATOM     14  C   UNL     1      -2.090   0.306   0.054  0.00  0.00    +0.065 C 
ATOM     15  C   UNL     1      -2.824  -0.856   0.242  0.00  0.00    +0.036 C 
ATOM     16  C   UNL     1      -2.603   1.566  -0.162  0.00  0.00    +0.150 C 
ATOM     17  C   UNL     1      -4.264  -0.709   0.205  0.00  0.00    +0.141 C 
ATOM     18  C   UNL     1      -0.373   2.217  -0.251  0.00  0.00    +0.253 C 
ATOM     19  C   UNL     1      -4.660   2.886  -0.401  0.00  0.00    +0.142 C 
ATOM     20  H   UNL     1      -5.930  -1.880   0.386  0.00  0.00    +0.144 HD
ATOM     21  H   UNL     1      -4.453  -2.717   0.541  0.00  0.00    +0.144 HD
ENDBRANCH   2   6
BRANCH   3  22
ATOM     22  O   UNL     1       0.647  -3.710  -1.290  0.00  0.00    -0.378 OA
ATOM     23  H   UNL     1      -0.290  -3.574  -1.501  0.00  0.00    +0.211 HD
ENDBRANCH   3  22
BRANCH   4  24
ATOM     24  O   UNL     1       2.899  -3.821   0.228  0.00  0.00    -0.379 OA
ATOM     25  H   UNL     1       2.770  -4.580  -0.362  0.00  0.00    +0.211 HD
ENDBRANCH   4  24
BRANCH   5  26
ATOM     26  C   UNL     1       3.303  -0.157  -0.288  0.00  0.00    +0.186 C 
BRANCH  26  27
ATOM     27  O   UNL     1       3.459   0.881   0.664  0.00  0.00    -0.271 OA
BRANCH  27  28
ATOM     28  P   UNL     1       3.900   2.348   0.141  0.00  0.00    +0.473 P 
ATOM     29  O   UNL     1       4.041   3.387   1.215  0.00  0.00    -0.227 OA
BRANCH  28  30
ATOM     30  O   UNL     1       2.816   2.687  -1.010  0.00  0.00    -0.303 OA
ATOM     31  H   UNL     1       2.794   1.964  -1.657  0.00  0.00    +0.222 HD
ENDBRANCH  28  30
BRANCH  28  32
ATOM     32  O   UNL     1       5.249   2.044  -0.696  0.00  0.00    -0.303 OA
ATOM     33  H   UNL     1       5.068   1.365  -1.365  0.00  0.00    +0.222 HD
ENDBRANCH  28  32
ENDBRANCH  27  28
ENDBRANCH  26  27
ENDBRANCH   5  26
TORSDOF 8
