REMARK  Name = 71421
REMARK  8 active torsions:
REMARK  status: ('A' for Active; 'I' for Inactive)
REMARK    1  A    between atoms: C_1  and  C_2
REMARK    2  A    between atoms: C_1  and  C_19
REMARK    3  A    between atoms: C_2  and  N_4
REMARK    4  A    between atoms: C_5  and  C_11
REMARK    5  A    between atoms: C_5  and  O_17
REMARK    6  A    between atoms: C_19  and  C_20
REMARK    7  A    between atoms: C_19  and  C_26
REMARK    8  A    between atoms: C_19  and  C_34
REMARK                            x       y       z     vdW  Elec       q    Type
REMARK                         _______ _______ _______ _____ _____    ______ ____
ROOT
ATOM      1  C   UNL     1       1.290  -0.150  -0.239  0.00  0.00    -0.000 C 
ENDROOT
BRANCH   1   2
ATOM      2  C   UNL     1       0.377   0.837   0.494  0.00  0.00    -0.026 C 
BRANCH   2   4
ATOM      3  O   UNL     1      -1.083   0.982  -1.315  0.00  0.00    -0.290 OA
ATOM      4  N   UNL     1      -1.042   0.676   0.022  0.00  0.00    +0.430 N 
ATOM      5  C   UNL     1      -3.918  -0.013   0.592  0.00  0.00    +0.103 C 
ATOM      6  C   UNL     1      -1.486  -0.752   0.249  0.00  0.00    -0.025 C 
ATOM      7  C   UNL     1      -1.938   1.612   0.801  0.00  0.00    -0.025 C 
ATOM      8  C   UNL     1      -2.947  -0.964  -0.144  0.00  0.00    +0.014 C 
ATOM      9  C   UNL     1      -3.414   1.442   0.442  0.00  0.00    +0.014 C 
BRANCH   5  11
ATOM     10 CL   UNL     1      -9.679  -0.420  -1.176  0.00  0.00    -0.082 Cl
ATOM     11  C   UNL     1      -5.378  -0.115   0.143  0.00  0.00    +0.002 C 
ATOM     12  C   UNL     1      -5.725  -0.963  -0.908  0.00  0.00    -0.001 C 
ATOM     13  C   UNL     1      -6.359   0.638   0.787  0.00  0.00    -0.001 C 
ATOM     14  C   UNL     1      -7.056  -1.057  -1.317  0.00  0.00    +0.011 C 
ATOM     15  C   UNL     1      -7.689   0.544   0.378  0.00  0.00    +0.011 C 
ATOM     16  C   UNL     1      -8.037  -0.303  -0.673  0.00  0.00    +0.058 C 
ENDBRANCH   5  11
BRANCH   5  17
ATOM     17  O   UNL     1      -3.921  -0.379   1.980  0.00  0.00    -0.383 OA
ATOM     18  H   UNL     1      -3.017  -0.335   2.328  0.00  0.00    +0.211 HD
ENDBRANCH   5  17
ENDBRANCH   2   4
ENDBRANCH   1   2
BRANCH   1  19
ATOM     19  C   UNL     1       2.824  -0.032   0.116  0.00  0.00    +0.105 C 
BRANCH  19  20
ATOM     20  C   UNL     1       3.699  -1.032  -0.688  0.00  0.00    -0.011 C 
ATOM     21  C   UNL     1       5.040  -1.047  -0.438  0.00  0.00    -0.004 C 
ATOM     22  C   UNL     1       3.073  -1.836  -1.597  0.00  0.00    -0.004 C 
ATOM     23  C   UNL     1       5.826  -1.945  -1.161  0.00  0.00    -0.000 C 
ATOM     24  C   UNL     1       3.858  -2.734  -2.319  0.00  0.00    -0.000 C 
ATOM     25  C   UNL     1       5.235  -2.788  -2.101  0.00  0.00    -0.000 C 
ENDBRANCH  19  20
BRANCH  19  26
ATOM     26  C   UNL     1       3.395   1.387  -0.239  0.00  0.00    -0.011 C 
ATOM     27  C   UNL     1       2.852   2.022  -1.309  0.00  0.00    -0.004 C 
ATOM     28  C   UNL     1       4.388   1.869   0.550  0.00  0.00    -0.004 C 
ATOM     29  C   UNL     1       3.360   3.282  -1.625  0.00  0.00    -0.000 C 
ATOM     30  C   UNL     1       4.896   3.129   0.234  0.00  0.00    -0.000 C 
ATOM     31  C   UNL     1       4.382   3.836  -0.854  0.00  0.00    -0.000 C 
ENDBRANCH  19  26
BRANCH  19  34
ATOM     32  O   UNL     1       2.678   0.683   2.434  0.00  0.00    -0.274 OA
ATOM     33  N   UNL     1       3.117  -1.556   2.201  0.00  0.00    -0.276 N 
ATOM     34  C   UNL     1       2.895  -0.274   1.675  0.00  0.00    +0.232 C 
ATOM     35  C   UNL     1       2.761  -2.786   1.496  0.00  0.00    +0.115 C 
ATOM     36  C   UNL     1       3.727  -1.792   3.508  0.00  0.00    +0.115 C 
ENDBRANCH  19  34
ENDBRANCH   1  19
TORSDOF 8
