REMARK  Name = 11234049
REMARK  5 active torsions:
REMARK  status: ('A' for Active; 'I' for Inactive)
REMARK    1  A    between atoms: C_2  and  N_10
REMARK    2  A    between atoms: C_5  and  C_18
REMARK    3  A    between atoms: C_11  and  C_14
REMARK    4  A    between atoms: C_14  and  O_15
REMARK    5  A    between atoms: C_22  and  C_27
REMARK                            x       y       z     vdW  Elec       q    Type
REMARK                         _______ _______ _______ _____ _____    ______ ____
ROOT
ATOM      1  F   UNL     1       0.188   2.100   0.908  0.00  0.00    -0.204 F 
ATOM      2  C   UNL     1       2.940   0.041  -0.288  0.00  0.00    +0.059 C 
ATOM      3  C   UNL     1       2.237   1.090   0.314  0.00  0.00    +0.045 C 
ATOM      4  C   UNL     1       2.234  -1.013  -0.876  0.00  0.00    +0.015 C 
ATOM      5  C   UNL     1       0.144   0.030  -0.262  0.00  0.00    +0.029 C 
ATOM      6  C   UNL     1       0.843   1.085   0.327  0.00  0.00    +0.141 C 
ATOM      7  C   UNL     1       0.840  -1.019  -0.862  0.00  0.00    +0.004 C 
ENDROOT
BRANCH   2  10
ATOM      8  O   UNL     1       6.519   0.645   0.003  0.00  0.00    -0.434 OA
ATOM      9  O   UNL     1       4.937   2.058   0.805  0.00  0.00    -0.226 OA
ATOM     10  N   UNL     1       4.364   0.047  -0.302  0.00  0.00    -0.221 N 
ATOM     11  C   UNL     1       6.545  -0.701  -0.491  0.00  0.00    +0.220 C 
ATOM     12  C   UNL     1       5.141  -0.942  -1.000  0.00  0.00    +0.148 C 
ATOM     13  C   UNL     1       5.212   1.013   0.234  0.00  0.00    +0.409 C 
BRANCH  11  14
ATOM     14  C   UNL     1       6.940  -1.635   0.645  0.00  0.00    +0.183 C 
BRANCH  14  15
ATOM     15  O   UNL     1       8.268  -1.335   1.038  0.00  0.00    -0.378 OA
ATOM     16  H   UNL     1       8.531  -1.924   1.762  0.00  0.00    +0.211 HD
ENDBRANCH  14  15
ENDBRANCH  11  14
ENDBRANCH   2  10
BRANCH   5  18
ATOM     17  N   UNL     1      -3.353  -0.612   0.860  0.00  0.00    -0.234 NA
ATOM     18  C   UNL     1      -1.304   0.020  -0.251  0.00  0.00    +0.021 C 
ATOM     19  C   UNL     1      -2.029   0.602  -1.282  0.00  0.00    +0.004 C 
ATOM     20  C   UNL     1      -2.003  -0.569   0.788  0.00  0.00    +0.100 C 
ATOM     21  C   UNL     1      -3.419   0.577  -1.244  0.00  0.00    +0.029 C 
ATOM     22  C   UNL     1      -4.027  -0.037  -0.161  0.00  0.00    +0.146 C 
BRANCH  22  27
ATOM     23  N   UNL     1      -6.108  -0.668   0.944  0.00  0.00    -0.105 NA
ATOM     24  N   UNL     1      -7.368  -0.447   0.545  0.00  0.00    -0.113 N 
ATOM     25  N   UNL     1      -6.271   0.442  -1.023  0.00  0.00    -0.085 NA
ATOM     26  N   UNL     1      -7.512   0.208  -0.616  0.00  0.00    -0.018 NA
ATOM     27  C   UNL     1      -5.458  -0.093  -0.070  0.00  0.00    +0.092 C 
ATOM     28  C   UNL     1      -8.501  -0.888   1.316  0.00  0.00    +0.163 C 
ENDBRANCH  22  27
ENDBRANCH   5  18
TORSDOF 5
