REMARK  Name = 24807
REMARK  1 active torsions:
REMARK  status: ('A' for Active; 'I' for Inactive)
REMARK    1  A    between atoms: S_2  and  S_4
REMARK                            x       y       z     vdW  Elec       q    Type
REMARK                         _______ _______ _______ _____ _____    ______ ____
ROOT
ATOM      1 CL   UNL     1      -1.917  -0.711  -0.269  0.00  0.00    -0.030 Cl
ATOM      2  S   UNL     1      -0.793   0.711   0.650  0.00  0.00    +0.030 S 
ENDROOT
BRANCH   2   4
ATOM      3 CL   UNL     1       1.917  -0.711   0.269  0.00  0.00    -0.030 Cl
ATOM      4  S   UNL     1       0.794   0.711  -0.649  0.00  0.00    +0.030 S 
ENDBRANCH   2   4
TORSDOF 1
