REMARK  Name = 9881504
REMARK  1 active torsions:
REMARK  status: ('A' for Active; 'I' for Inactive)
REMARK    1  A    between atoms: C_4  and  O_21
REMARK                            x       y       z     vdW  Elec       q    Type
REMARK                         _______ _______ _______ _____ _____    ______ ____
ROOT
ATOM      1  O   UNL     1      -1.082  -2.902  -0.858  0.00  0.00    -0.252 OA
ATOM      2  N   UNL     1      -0.040  -0.916  -0.138  0.00  0.00    -0.223 N 
ATOM      3  N   UNL     1       1.179  -2.829  -0.832  0.00  0.00    -0.313 N 
ATOM      4  C   UNL     1       0.776   1.568  -1.423  0.00  0.00    +0.138 C 
ATOM      5  C   UNL     1      -0.538   2.105  -0.870  0.00  0.00    +0.061 C 
ATOM      6  C   UNL     1       1.586   0.928  -0.332  0.00  0.00    +0.019 C 
ATOM      7  C   UNL     1      -1.474   1.164  -0.135  0.00  0.00    -0.005 C 
ATOM      8  C   UNL     1       1.164  -0.264   0.271  0.00  0.00    +0.058 C 
ATOM      9  C   UNL     1      -1.261  -0.204   0.149  0.00  0.00    +0.056 C 
ATOM     10  C   UNL     1       2.782   1.528   0.094  0.00  0.00    -0.001 C 
ATOM     11  C   UNL     1      -2.704   1.755   0.244  0.00  0.00    -0.003 C 
ATOM     12  C   UNL     1       1.947  -0.842   1.287  0.00  0.00    +0.015 C 
ATOM     13  C   UNL     1      -2.298  -0.915   0.796  0.00  0.00    +0.015 C 
ATOM     14  C   UNL     1      -0.062  -2.259  -0.593  0.00  0.00    +0.308 C 
ATOM     15  C   UNL     1       3.550   0.948   1.103  0.00  0.00    -0.000 C 
ATOM     16  C   UNL     1      -3.708   1.029   0.877  0.00  0.00    -0.000 C 
ATOM     17  C   UNL     1       3.133  -0.237   1.700  0.00  0.00    +0.001 C 
ATOM     18  C   UNL     1      -3.504  -0.311   1.153  0.00  0.00    +0.001 C 
ATOM     19  H   UNL     1       1.240  -3.759  -1.150  0.00  0.00    +0.147 HD
ATOM     20  H   UNL     1       1.998  -2.305  -0.685  0.00  0.00    +0.147 HD
ENDROOT
BRANCH   4  21
ATOM     21  O   UNL     1       0.554   0.654  -2.493  0.00  0.00    -0.380 OA
ATOM     22  H   UNL     1       0.030   1.088  -3.185  0.00  0.00    +0.211 HD
ENDBRANCH   4  21
TORSDOF 1
