REMARK  Name = 68677842
REMARK  7 active torsions:
REMARK  status: ('A' for Active; 'I' for Inactive)
REMARK    1  A    between atoms: N_2  and  S_11
REMARK    2  A    between atoms: C_3  and  C_23
REMARK    3  A    between atoms: S_11  and  C_16
REMARK    4  A    between atoms: C_23  and  C_24
REMARK    5  A    between atoms: C_24  and  C_25
REMARK    6  A    between atoms: C_25  and  C_27
REMARK    7  A    between atoms: C_27  and  O_28
REMARK                            x       y       z     vdW  Elec       q    Type
REMARK                         _______ _______ _______ _____ _____    ______ ____
ROOT
ATOM      1 CL   UNL     1       6.505  -1.144  -1.603  0.00  0.00    -0.082 Cl
ATOM      2  N   UNL     1       1.351   0.371   0.693  0.00  0.00    -0.173 N 
ATOM      3  C   UNL     1       1.145   1.592   0.109  0.00  0.00    +0.051 C 
ATOM      4  C   UNL     1       2.546  -0.163   0.267  0.00  0.00    +0.073 C 
ATOM      5  C   UNL     1       3.115   0.755  -0.619  0.00  0.00    +0.017 C 
ATOM      6  C   UNL     1       2.219   1.857  -0.709  0.00  0.00    +0.013 C 
ATOM      7  C   UNL     1       3.161  -1.377   0.595  0.00  0.00    +0.017 C 
ATOM      8  C   UNL     1       4.357   0.448  -1.207  0.00  0.00    +0.013 C 
ATOM      9  C   UNL     1       4.394  -1.659  -0.001  0.00  0.00    +0.013 C 
ATOM     10  C   UNL     1       4.985  -0.761  -0.888  0.00  0.00    +0.058 C 
ENDROOT
BRANCH   2  11
ATOM     11  S   UNL     1       0.303  -0.361   1.767  0.00  0.00    +0.080 S 
ATOM     12  O   UNL     1      -0.563   0.628   2.456  0.00  0.00    -0.149 OA
ATOM     13  O   UNL     1       1.063  -1.289   2.633  0.00  0.00    -0.149 OA
BRANCH  11  16
ATOM     14  S   UNL     1      -4.565  -1.261  -0.839  0.00  0.00    -0.086 S 
ATOM     15  N   UNL     1      -3.736  -3.685  -1.143  0.00  0.00    -0.262 NA
ATOM     16  C   UNL     1      -0.888  -1.388   0.895  0.00  0.00    +0.122 C 
ATOM     17  C   UNL     1      -2.098  -0.830   0.474  0.00  0.00    +0.027 C 
ATOM     18  C   UNL     1      -0.595  -2.725   0.650  0.00  0.00    +0.000 C 
ATOM     19  C   UNL     1      -3.010  -1.654  -0.204  0.00  0.00    +0.042 C 
ATOM     20  C   UNL     1      -2.738  -3.001  -0.463  0.00  0.00    +0.065 C 
ATOM     21  C   UNL     1      -1.508  -3.539  -0.026  0.00  0.00    +0.073 C 
ATOM     22  C   UNL     1      -4.737  -2.872  -1.389  0.00  0.00    +0.187 C 
ENDBRANCH  11  16
ENDBRANCH   2  11
BRANCH   3  23
ATOM     23  C   UNL     1      -0.057   2.411   0.373  0.00  0.00    +0.044 C 
BRANCH  23  24
ATOM     24  C   UNL     1      -0.119   3.763  -0.377  0.00  0.00    +0.018 C 
BRANCH  24  25
ATOM     25  C   UNL     1      -1.369   4.587  -0.055  0.00  0.00    +0.110 C 
BRANCH  25  27
ATOM     26  O   UNL     1      -2.794   3.051  -1.296  0.00  0.00    -0.250 OA
ATOM     27  C   UNL     1      -2.664   3.894  -0.418  0.00  0.00    +0.314 C 
BRANCH  27  28
ATOM     28  O   UNL     1      -3.705   4.351   0.326  0.00  0.00    -0.480 OA
ATOM     29  H   UNL     1      -3.559   4.997   0.988  0.00  0.00    +0.295 HD
ENDBRANCH  27  28
ENDBRANCH  25  27
ENDBRANCH  24  25
ENDBRANCH  23  24
ENDBRANCH   3  23
TORSDOF 7
