REMARK  Name = 641785
REMARK  6 active torsions:
REMARK  status: ('A' for Active; 'I' for Inactive)
REMARK    1  A    between atoms: C_1  and  C_14
REMARK    2  A    between atoms: C_2  and  O_7
REMARK    3  A    between atoms: C_3  and  O_9
REMARK    4  A    between atoms: C_6  and  O_11
REMARK    5  A    between atoms: C_14  and  C_15
REMARK    6  A    between atoms: C_16  and  C_17
REMARK                            x       y       z     vdW  Elec       q    Type
REMARK                         _______ _______ _______ _____ _____    ______ ____
ROOT
ATOM      1  C   UNL     1       1.757   0.035  -0.386  0.00  0.00    +0.107 C 
ATOM      2  C   UNL     1       2.398  -0.871   0.438  0.00  0.00    +0.148 C 
ATOM      3  C   UNL     1       2.288   1.286  -0.643  0.00  0.00    +0.143 C 
ATOM      4  C   UNL     1       3.612  -0.514   1.026  0.00  0.00    +0.074 C 
ATOM      5  C   UNL     1       3.501   1.643  -0.055  0.00  0.00    +0.073 C 
ATOM      6  C   UNL     1       4.163   0.743   0.779  0.00  0.00    +0.140 C 
ENDROOT
BRANCH   2   7
ATOM      7  O   UNL     1       1.877  -2.105   0.693  0.00  0.00    -0.471 OA
ATOM      8  C   UNL     1       2.253  -3.161  -0.188  0.00  0.00    +0.252 C 
ENDBRANCH   2   7
BRANCH   3   9
ATOM      9  O   UNL     1       1.658   2.181  -1.456  0.00  0.00    -0.505 OA
ATOM     10  H   UNL     1       0.842   1.955  -1.858  0.00  0.00    +0.292 HD
ENDBRANCH   3   9
BRANCH   6  11
ATOM     11  O   UNL     1       5.348   1.091   1.353  0.00  0.00    -0.505 OA
ATOM     12  H   UNL     1       5.792   0.487   1.914  0.00  0.00    +0.292 HD
ENDBRANCH   6  11
BRANCH   1  14
ATOM     13  O   UNL     1       0.460  -0.871  -2.118  0.00  0.00    -0.286 OA
ATOM     14  C   UNL     1       0.467  -0.344  -1.011  0.00  0.00    +0.202 C 
BRANCH  14  15
ATOM     15  C   UNL     1      -0.782  -0.032  -0.262  0.00  0.00    +0.042 C 
ATOM     16  C   UNL     1      -1.989  -0.327  -0.795  0.00  0.00    +0.003 C 
BRANCH  16  17
ATOM     17  C   UNL     1      -3.272  -0.054  -0.166  0.00  0.00    +0.000 C 
ATOM     18  C   UNL     1      -3.343   0.158   1.211  0.00  0.00    +0.000 C 
ATOM     19  C   UNL     1      -4.431  -0.004  -0.940  0.00  0.00    +0.000 C 
ATOM     20  C   UNL     1      -4.573   0.419   1.814  0.00  0.00    +0.000 C 
ATOM     21  C   UNL     1      -5.662   0.258  -0.336  0.00  0.00    +0.000 C 
ATOM     22  C   UNL     1      -5.732   0.469   1.041  0.00  0.00    +0.000 C 
ENDBRANCH  16  17
ENDBRANCH  14  15
ENDBRANCH   1  14
TORSDOF 6
