REMARK  Name = 44814409
REMARK  5 active torsions:
REMARK  status: ('A' for Active; 'I' for Inactive)
REMARK    1  A    between atoms: N_2  and  C_22
REMARK    2  A    between atoms: C_3  and  C_7
REMARK    3  A    between atoms: C_9  and  C_14
REMARK    4  A    between atoms: C_21  and  C_26
REMARK    5  A    between atoms: C_29  and  N_33
REMARK                            x       y       z     vdW  Elec       q    Type
REMARK                         _______ _______ _______ _____ _____    ______ ____
ROOT
ATOM      1  O   UNL     1      -0.377  -4.035  -0.029  0.00  0.00    -0.267 OA
ATOM      2  N   UNL     1      -1.031  -1.777   0.042  0.00  0.00    -0.278 N 
ATOM      3  C   UNL     1      -0.115  -2.837  -0.002  0.00  0.00    +0.275 C 
ATOM      4  H   UNL     1      -0.643  -0.872   0.058  0.00  0.00    +0.155 HD
ENDROOT
BRANCH   3   7
ATOM      5  F   UNL     1       5.189  -1.199  -0.164  0.00  0.00    -0.202 F 
ATOM      6  N   UNL     1       1.558  -1.110  -0.040  0.00  0.00    -0.399 NA
ATOM      7  C   UNL     1       1.317  -2.440  -0.047  0.00  0.00    +0.167 C 
ATOM      8  C   UNL     1       2.308  -3.408  -0.093  0.00  0.00    +0.092 C 
ATOM      9  C   UNL     1       2.856  -0.735  -0.079  0.00  0.00    +0.162 C 
ATOM     10  C   UNL     1       3.631  -2.982  -0.133  0.00  0.00    +0.014 C 
ATOM     11  C   UNL     1       3.919  -1.622  -0.126  0.00  0.00    +0.166 C 
BRANCH   9  14
ATOM     12  F   UNL     1       4.325   0.529   1.948  0.00  0.00    -0.204 F 
ATOM     13  F   UNL     1       1.837   0.939  -2.085  0.00  0.00    -0.204 F 
ATOM     14  C   UNL     1       3.075   0.693  -0.069  0.00  0.00    +0.087 C 
ATOM     15  C   UNL     1       3.812   1.278   0.960  0.00  0.00    +0.145 C 
ATOM     16  C   UNL     1       2.549   1.486  -1.089  0.00  0.00    +0.145 C 
ATOM     17  C   UNL     1       4.024   2.657   0.969  0.00  0.00    +0.030 C 
ATOM     18  C   UNL     1       2.760   2.865  -1.080  0.00  0.00    +0.030 C 
ATOM     19  C   UNL     1       3.497   3.450  -0.050  0.00  0.00    +0.005 C 
ENDBRANCH   9  14
ENDBRANCH   3   7
BRANCH   2  22
ATOM     20  N   UNL     1      -4.404  -3.233   0.103  0.00  0.00    -0.241 NA
ATOM     21  C   UNL     1      -3.215  -0.703   0.078  0.00  0.00    -0.006 C 
ATOM     22  C   UNL     1      -2.424  -1.846   0.065  0.00  0.00    +0.066 C 
ATOM     23  C   UNL     1      -4.600  -0.823   0.103  0.00  0.00    +0.018 C 
ATOM     24  C   UNL     1      -3.061  -3.076   0.079  0.00  0.00    +0.113 C 
ATOM     25  C   UNL     1      -5.140  -2.099   0.115  0.00  0.00    +0.099 C 
BRANCH  21  26
ATOM     26  C   UNL     1      -2.605   0.662   0.066  0.00  0.00    +0.022 C 
ATOM     27  C   UNL     1      -2.439   2.859   1.334  0.00  0.00    -0.002 C 
ATOM     28  C   UNL     1      -2.999   1.429   1.342  0.00  0.00    +0.004 C 
ATOM     29  C   UNL     1      -2.482   2.854  -1.202  0.00  0.00    -0.065 C 
ATOM     30  C   UNL     1      -3.046   1.427  -1.195  0.00  0.00    -0.017 C 
ATOM     31  C   UNL     1      -2.879   3.612   0.070  0.00  0.00    -0.022 C 
ATOM     32  C   UNL     1      -2.875   3.613   2.590  0.00  0.00    -0.000 C 
BRANCH  29  33
ATOM     33  N   UNL     1      -2.967   3.572  -2.379  0.00  0.00    +0.382 N 
ATOM     34  H   UNL     1      -2.700   3.064  -3.222  0.00  0.00    -0.089 HD
ATOM     35  H   UNL     1      -2.556   4.506  -2.401  0.00  0.00    -0.089 HD
ATOM     36  H   UNL     1      -3.983   3.649  -2.336  0.00  0.00    -0.089 HD
ENDBRANCH  29  33
ENDBRANCH  21  26
ENDBRANCH   2  22
TORSDOF 5
