REMARK  Name = 9354
REMARK  7 active torsions:
REMARK  status: ('A' for Active; 'I' for Inactive)
REMARK    1  A    between atoms: C_1  and  S_2
REMARK    2  A    between atoms: C_1  and  C_5
REMARK    3  A    between atoms: C_1  and  C_8
REMARK    4  A    between atoms: C_5  and  O_6
REMARK    5  A    between atoms: C_8  and  S_9
REMARK    6  A    between atoms: C_8  and  C_12
REMARK    7  A    between atoms: C_12  and  O_13
REMARK                            x       y       z     vdW  Elec       q    Type
REMARK                         _______ _______ _______ _____ _____    ______ ____
ROOT
ATOM      1  C   UNL     1       0.524  -0.570   0.209  0.00  0.00    +0.163 C 
ENDROOT
BRANCH   1   2
ATOM      2  S   UNL     1       0.327  -1.754  -1.173  0.00  0.00    -0.157 S 
ATOM      3  H   UNL     1      -0.947  -2.231  -1.183  0.00  0.00    +0.103 HD
ENDBRANCH   1   2
BRANCH   1   5
ATOM      4  O   UNL     1       2.812  -0.221  -0.607  0.00  0.00    -0.249 OA
ATOM      5  C   UNL     1       1.943  -0.030   0.232  0.00  0.00    +0.325 C 
BRANCH   5   6
ATOM      6  O   UNL     1       2.143   0.715   1.351  0.00  0.00    -0.480 OA
ATOM      7  H   UNL     1       1.446   0.833   1.966  0.00  0.00    +0.295 HD
ENDBRANCH   5   6
ENDBRANCH   1   5
BRANCH   1   8
ATOM      8  C   UNL     1      -0.516   0.566   0.210  0.00  0.00    +0.163 C 
BRANCH   8   9
ATOM      9  S   UNL     1      -0.319   1.755  -1.170  0.00  0.00    -0.157 S 
ATOM     10  H   UNL     1       0.955   2.231  -1.179  0.00  0.00    +0.103 HD
ENDBRANCH   8   9
BRANCH   8  12
ATOM     11  O   UNL     1      -2.794   0.228  -0.623  0.00  0.00    -0.249 OA
ATOM     12  C   UNL     1      -1.939   0.028   0.229  0.00  0.00    +0.325 C 
BRANCH  12  13
ATOM     13  O   UNL     1      -2.180  -0.716   1.343  0.00  0.00    -0.480 OA
ATOM     14  H   UNL     1      -1.500  -0.848   1.974  0.00  0.00    +0.295 HD
ENDBRANCH  12  13
ENDBRANCH   8  12
ENDBRANCH   1   8
TORSDOF 7
