REMARK  Name = 4765
REMARK  2 active torsions:
REMARK  status: ('A' for Active; 'I' for Inactive)
REMARK    1  A    between atoms: C_1  and  S_7
REMARK    2  A    between atoms: C_6  and  O_11
REMARK                            x       y       z     vdW  Elec       q    Type
REMARK                         _______ _______ _______ _____ _____    ______ ____
ROOT
ATOM      1  C   UNL     1       0.384  -0.001   0.048  0.00  0.00    +0.113 C 
ATOM      2  C   UNL     1      -0.312   1.208   0.037  0.00  0.00    +0.022 C 
ATOM      3  C   UNL     1      -0.315  -1.208   0.027  0.00  0.00    +0.022 C 
ATOM      4  C   UNL     1      -1.707   1.209   0.005  0.00  0.00    +0.038 C 
ATOM      5  C   UNL     1      -1.709  -1.207  -0.005  0.00  0.00    +0.038 C 
ATOM      6  C   UNL     1      -2.405   0.002  -0.016  0.00  0.00    +0.134 C 
ENDROOT
BRANCH   1   7
ATOM      7  S   UNL     1       2.130  -0.002   0.089  0.00  0.00    +0.042 S 
ATOM      8  O   UNL     1       2.595   0.004  -1.478  0.00  0.00    -0.065 OA
ATOM      9  O   UNL     1       2.567   1.260   0.666  0.00  0.00    -0.065 OA
ATOM     10  O   UNL     1       2.539  -1.268   0.676  0.00  0.00    -0.065 OA
ENDBRANCH   1   7
BRANCH   6  11
ATOM     11  O   UNL     1      -3.766   0.004  -0.048  0.00  0.00    -0.506 OA
ATOM     12  H   UNL     1      -4.233   0.816  -0.056  0.00  0.00    +0.292 HD
ENDBRANCH   6  11
TORSDOF 2
