REMARK  Name = 25195495
REMARK  5 active torsions:
REMARK  status: ('A' for Active; 'I' for Inactive)
REMARK    1  A    between atoms: C_3  and  C_22
REMARK    2  A    between atoms: C_8  and  C_11
REMARK    3  A    between atoms: C_12  and  C_16
REMARK    4  A    between atoms: C_22  and  N_24
REMARK    5  A    between atoms: C_25  and  C_28
REMARK                            x       y       z     vdW  Elec       q    Type
REMARK                         _______ _______ _______ _____ _____    ______ ____
ROOT
ATOM      1  O   UNL     1       0.999  -0.340  -1.465  0.00  0.00    -0.267 OA
ATOM      2  N   UNL     1       0.716  -1.937   0.226  0.00  0.00    -0.274 N 
ATOM      3  C   UNL     1       0.463  -3.034  -0.728  0.00  0.00    +0.095 C 
ATOM      4  C   UNL     1       1.232  -4.305  -0.343  0.00  0.00    +0.022 C 
ATOM      5  C   UNL     1       1.037  -4.690   1.120  0.00  0.00    +0.004 C 
ATOM      6  C   UNL     1       1.394  -3.517   2.024  0.00  0.00    +0.022 C 
ATOM      7  C   UNL     1       0.603  -2.266   1.657  0.00  0.00    +0.094 C 
ATOM      8  C   UNL     1       0.902  -0.641  -0.277  0.00  0.00    +0.276 C 
ENDROOT
BRANCH   8  11
ATOM      9  S   UNL     1       1.751   2.469   2.037  0.00  0.00    -0.076 S 
ATOM     10  N   UNL     1      -0.088   0.728   1.517  0.00  0.00    -0.399 NA
ATOM     11  C   UNL     1       0.979   0.471   0.679  0.00  0.00    +0.176 C 
ATOM     12  C   UNL     1       2.066   1.309   0.813  0.00  0.00    +0.133 C 
ATOM     13  C   UNL     1       0.207   1.760   2.276  0.00  0.00    +0.135 C 
ATOM     14  C   UNL     1      -0.695   2.330   3.301  0.00  0.00    +0.074 C 
BRANCH  12  16
ATOM     15  F   UNL     1       6.949   1.416  -1.869  0.00  0.00    -0.204 F 
ATOM     16  C   UNL     1       3.331   1.337   0.119  0.00  0.00    -0.005 C 
ATOM     17  C   UNL     1       4.179   0.231   0.170  0.00  0.00    -0.001 C 
ATOM     18  C   UNL     1       3.705   2.470  -0.604  0.00  0.00    -0.001 C 
ATOM     19  C   UNL     1       5.401   0.258  -0.501  0.00  0.00    +0.029 C 
ATOM     20  C   UNL     1       4.927   2.497  -1.275  0.00  0.00    +0.029 C 
ATOM     21  C   UNL     1       5.775   1.390  -1.224  0.00  0.00    +0.140 C 
ENDBRANCH  12  16
ENDBRANCH   8  11
BRANCH   3  22
ATOM     22  C   UNL     1      -1.040  -3.284  -0.880  0.00  0.00    +0.109 C 
BRANCH  22  24
ATOM     23  O   UNL     1      -3.124  -1.993   0.615  0.00  0.00    -0.270 OA
ATOM     24  N   UNL     1      -1.723  -2.079  -1.234  0.00  0.00    -0.299 N 
ATOM     25  C   UNL     1      -2.728  -1.518  -0.447  0.00  0.00    +0.246 C 
ATOM     26  H   UNL     1      -1.473  -1.625  -2.070  0.00  0.00    +0.150 HD
BRANCH  25  28
ATOM     27  O   UNL     1      -4.898   2.660   0.354  0.00  0.00    -0.450 OA
ATOM     28  C   UNL     1      -3.359  -0.278  -0.967  0.00  0.00    +0.056 C 
ATOM     29  C   UNL     1      -3.876   0.695  -0.093  0.00  0.00    +0.042 C 
ATOM     30  C   UNL     1      -3.449  -0.058  -2.348  0.00  0.00    +0.005 C 
ATOM     31  C   UNL     1      -4.456   1.836  -0.638  0.00  0.00    +0.146 C 
ATOM     32  C   UNL     1      -3.978   0.845   1.315  0.00  0.00    +0.044 C 
ATOM     33  C   UNL     1      -4.039   1.103  -2.856  0.00  0.00    +0.003 C 
ATOM     34  C   UNL     1      -4.560   2.083  -2.006  0.00  0.00    +0.037 C 
ATOM     35  C   UNL     1      -4.604   2.051   1.532  0.00  0.00    +0.180 C 
ENDBRANCH  25  28
ENDBRANCH  22  24
ENDBRANCH   3  22
TORSDOF 5
