REMARK  Name = 16737780
REMARK  11 active torsions:
REMARK  status: ('A' for Active; 'I' for Inactive)
REMARK    1  A    between atoms: C_1  and  C_2
REMARK    2  A    between atoms: C_1  and  C_18
REMARK    3  A    between atoms: C_2  and  N_3
REMARK    4  A    between atoms: C_11  and  O_14
REMARK    5  A    between atoms: C_12  and  O_16
REMARK    6  A    between atoms: C_18  and  C_19
REMARK    7  A    between atoms: C_19  and  N_21
REMARK    8  A    between atoms: C_22  and  C_24
REMARK    9  A    between atoms: C_25  and  O_31
REMARK   10  A    between atoms: O_31  and  C_32
REMARK   11  A    between atoms: C_32  and  C_34
REMARK                            x       y       z     vdW  Elec       q    Type
REMARK                         _______ _______ _______ _____ _____    ______ ____
ROOT
ATOM      1  C   UNL     1       0.948  -3.761   0.758  0.00  0.00    -0.021 C 
ENDROOT
BRANCH   1   2
ATOM      2  C   UNL     1      -0.533  -4.061   1.000  0.00  0.00    -0.077 C 
BRANCH   2   3
ATOM      3  N   UNL     1      -1.400  -3.026   0.438  0.00  0.00    +0.390 N 
ATOM      4  C   UNL     1      -2.756  -3.543   0.218  0.00  0.00    -0.072 C 
ATOM      5  C   UNL     1      -1.441  -1.852   1.328  0.00  0.00    -0.050 C 
ATOM      6  C   UNL     1      -3.586  -2.516  -0.558  0.00  0.00    +0.003 C 
ATOM      7  C   UNL     1      -2.425  -0.796   0.881  0.00  0.00    -0.044 C 
ATOM      8  C   UNL     1      -3.480  -1.126   0.012  0.00  0.00    -0.027 C 
ATOM      9  C   UNL     1      -2.328   0.508   1.385  0.00  0.00    +0.033 C 
ATOM     10  C   UNL     1      -4.398  -0.139  -0.370  0.00  0.00    +0.035 C 
ATOM     11  C   UNL     1      -3.253   1.481   1.007  0.00  0.00    +0.172 C 
ATOM     12  C   UNL     1      -4.285   1.159   0.129  0.00  0.00    +0.172 C 
ATOM     13  H   UNL     1      -1.014  -2.742  -0.463  0.00  0.00    -0.079 HD
BRANCH  11  14
ATOM     14  O   UNL     1      -3.136   2.744   1.503  0.00  0.00    -0.468 OA
ATOM     15  C   UNL     1      -2.051   2.992   2.396  0.00  0.00    +0.253 C 
ENDBRANCH  11  14
BRANCH  12  16
ATOM     16  O   UNL     1      -5.192   2.102  -0.251  0.00  0.00    -0.468 OA
ATOM     17  C   UNL     1      -4.883   2.865  -1.416  0.00  0.00    +0.253 C 
ENDBRANCH  12  16
ENDBRANCH   2   3
ENDBRANCH   1   2
BRANCH   1  18
ATOM     18  C   UNL     1       1.309  -3.681  -0.730  0.00  0.00    +0.019 C 
BRANCH  18  19
ATOM     19  C   UNL     1       2.776  -3.327  -0.954  0.00  0.00    +0.090 C 
BRANCH  19  21
ATOM     20  O   UNL     1       2.646  -0.752  -2.217  0.00  0.00    -0.270 OA
ATOM     21  N   UNL     1       3.135  -2.065  -0.368  0.00  0.00    -0.301 N 
ATOM     22  C   UNL     1       3.039  -0.862  -1.058  0.00  0.00    +0.249 C 
ATOM     23  H   UNL     1       3.462  -2.052   0.560  0.00  0.00    +0.150 HD
BRANCH  22  24
ATOM     24  C   UNL     1       3.474   0.352  -0.321  0.00  0.00    +0.087 C 
ATOM     25  C   UNL     1       2.897   1.594  -0.584  0.00  0.00    +0.143 C 
ATOM     26  C   UNL     1       4.472   0.237   0.647  0.00  0.00    +0.003 C 
ATOM     27  C   UNL     1       4.893   1.365   1.351  0.00  0.00    -0.022 C 
ATOM     28  C   UNL     1       3.318   2.722   0.120  0.00  0.00    +0.037 C 
ATOM     29  C   UNL     1       4.316   2.608   1.087  0.00  0.00    -0.001 C 
ATOM     30  C   UNL     1       5.960   1.244   2.385  0.00  0.00    +0.031 C 
BRANCH  25  31
ATOM     31  O   UNL     1       1.921   1.726  -1.527  0.00  0.00    -0.472 OA
BRANCH  31  32
ATOM     32  C   UNL     1       0.658   2.220  -1.086  0.00  0.00    +0.243 C 
BRANCH  32  34
ATOM     33  F   UNL     1      -0.186   1.966  -3.249  0.00  0.00    -0.230 F 
ATOM     34  C   UNL     1      -0.427   1.623  -1.954  0.00  0.00    +0.240 C 
ENDBRANCH  32  34
ENDBRANCH  31  32
ENDBRANCH  25  31
ENDBRANCH  22  24
ENDBRANCH  19  21
ENDBRANCH  18  19
ENDBRANCH   1  18
TORSDOF 11
