REMARK  Name = 1832
REMARK  4 active torsions:
REMARK  status: ('A' for Active; 'I' for Inactive)
REMARK    1  A    between atoms: C_2  and  C_13
REMARK    2  A    between atoms: C_8  and  O_11
REMARK    3  A    between atoms: C_13  and  C_14
REMARK    4  A    between atoms: C_14  and  N_15
REMARK                            x       y       z     vdW  Elec       q    Type
REMARK                         _______ _______ _______ _____ _____    ______ ____
ROOT
ATOM      1  N   UNL     1       0.994  -2.742  -0.054  0.00  0.00    -0.312 N 
ATOM      2  C   UNL     1      -0.540  -1.212   0.430  0.00  0.00    -0.008 C 
ATOM      3  C   UNL     1       0.693  -0.544   0.187  0.00  0.00    +0.014 C 
ATOM      4  C   UNL     1       1.639  -1.527  -0.114  0.00  0.00    +0.048 C 
ATOM      5  C   UNL     1      -0.323  -2.561   0.274  0.00  0.00    +0.058 C 
ATOM      6  C   UNL     1       1.097   0.806   0.194  0.00  0.00    +0.038 C 
ATOM      7  C   UNL     1       2.973  -1.226  -0.409  0.00  0.00    +0.018 C 
ATOM      8  C   UNL     1       2.429   1.122  -0.099  0.00  0.00    +0.139 C 
ATOM      9  C   UNL     1       3.351   0.120  -0.396  0.00  0.00    +0.038 C 
ATOM     10  H   UNL     1       1.419  -3.614  -0.222  0.00  0.00    +0.152 HD
ENDROOT
BRANCH   8  11
ATOM     11  O   UNL     1       2.826   2.425  -0.093  0.00  0.00    -0.471 OA
ATOM     12  C   UNL     1       1.836   3.403   0.218  0.00  0.00    +0.252 C 
ENDBRANCH   8  11
BRANCH   2  13
ATOM     13  C   UNL     1      -1.826  -0.580   0.785  0.00  0.00    +0.005 C 
BRANCH  13  14
ATOM     14  C   UNL     1      -2.698  -0.206  -0.425  0.00  0.00    -0.073 C 
BRANCH  14  15
ATOM     15  N   UNL     1      -3.944   0.397  -0.034  0.00  0.00    +0.384 N 
ATOM     16  C   UNL     1      -4.785   0.694  -1.204  0.00  0.00    -0.101 C 
ATOM     17  C   UNL     1      -3.723   1.630   0.738  0.00  0.00    -0.101 C 
ATOM     18  H   UNL     1      -4.428  -0.279   0.557  0.00  0.00    -0.080 HD
ENDBRANCH  14  15
ENDBRANCH  13  14
ENDBRANCH   2  13
TORSDOF 4
