REMARK  Name = 1712058
REMARK  6 active torsions:
REMARK  status: ('A' for Active; 'I' for Inactive)
REMARK    1  A    between atoms: C_1  and  C_10
REMARK    2  A    between atoms: C_1  and  C_11
REMARK    3  A    between atoms: C_2  and  C_3
REMARK    4  A    between atoms: C_11  and  C_12
REMARK    5  A    between atoms: C_12  and  C_13
REMARK    6  A    between atoms: C_13  and  C_14
REMARK                            x       y       z     vdW  Elec       q    Type
REMARK                         _______ _______ _______ _____ _____    ______ ____
ROOT
ATOM      1  C   UNL     1      -0.278  -0.591   0.402  0.00  0.00    +0.020 C 
ATOM      2  C   UNL     1       0.638   0.273   0.874  0.00  0.00    -0.001 C 
ENDROOT
BRANCH   2   3
ATOM      3  C   UNL     1       2.030   0.375   0.422  0.00  0.00    -0.000 C 
ATOM      4  C   UNL     1       3.015  -0.365   1.063  0.00  0.00    -0.000 C 
ATOM      5  C   UNL     1       2.346   1.212  -0.641  0.00  0.00    -0.000 C 
ATOM      6  C   UNL     1       4.338  -0.268   0.633  0.00  0.00    -0.000 C 
ATOM      7  C   UNL     1       3.669   1.309  -1.071  0.00  0.00    -0.000 C 
ATOM      8  C   UNL     1       4.665   0.569  -0.434  0.00  0.00    -0.000 C 
ENDBRANCH   2   3
BRANCH   1  10
ATOM      9  O   UNL     1      -0.487  -2.343  -1.216  0.00  0.00    -0.283 OA
ATOM     10  C   UNL     1       0.217  -1.501  -0.671  0.00  0.00    +0.230 C 
ENDBRANCH   1  10
BRANCH   1  11
ATOM     11  C   UNL     1      -1.727  -0.712   0.804  0.00  0.00    +0.030 C 
BRANCH  11  12
ATOM     12  C   UNL     1      -2.685   0.145  -0.037  0.00  0.00    +0.005 C 
BRANCH  12  13
ATOM     13  C   UNL     1      -4.157   0.083   0.386  0.00  0.00    +0.000 C 
BRANCH  13  14
ATOM     14  C   UNL     1      -5.067   0.954  -0.481  0.00  0.00    +0.000 C 
ATOM     15  C   UNL     1      -6.517   0.860  -0.032  0.00  0.00    +0.000 C 
ENDBRANCH  13  14
ENDBRANCH  12  13
ENDBRANCH  11  12
ENDBRANCH   1  11
TORSDOF 6
