REMARK  Name = 11963742
REMARK  6 active torsions:
REMARK  status: ('A' for Active; 'I' for Inactive)
REMARK    1  A    between atoms: N_1  and  C_8
REMARK    2  A    between atoms: C_3  and  C_24
REMARK    3  A    between atoms: C_4  and  C_14
REMARK    4  A    between atoms: C_5  and  C_33
REMARK    5  A    between atoms: C_19  and  O_20
REMARK    6  A    between atoms: N_23  and  N_26
REMARK                            x       y       z     vdW  Elec       q    Type
REMARK                         _______ _______ _______ _____ _____    ______ ____
ROOT
ATOM      1  N   UNL     1       0.322   0.485   0.065  0.00  0.00    -0.228 N 
ATOM      2  N   UNL     1      -1.020   0.544   0.095  0.00  0.00    -0.160 NA
ATOM      3  C   UNL     1      -1.349  -0.732   0.039  0.00  0.00    +0.167 A 
ATOM      4  C   UNL     1       0.816  -0.785  -0.007  0.00  0.00    +0.094 A 
ATOM      5  C   UNL     1      -0.279  -1.613  -0.025  0.00  0.00    +0.110 A 
ENDROOT
BRANCH   1   8
ATOM      6 CL   UNL     1       0.974   1.756  -2.624  0.00  0.00    -0.081 Cl
ATOM      7 CL   UNL     1       3.445   5.476   0.372  0.00  0.00    -0.082 Cl
ATOM      8  C   UNL     1       1.062   1.668   0.107  0.00  0.00    +0.093 C 
ATOM      9  C   UNL     1       1.419   2.337  -1.057  0.00  0.00    +0.076 C 
ATOM     10  C   UNL     1       1.433   2.162   1.353  0.00  0.00    +0.021 C 
ATOM     11  C   UNL     1       2.158   3.517  -0.975  0.00  0.00    +0.024 C 
ATOM     12  C   UNL     1       2.172   3.341   1.434  0.00  0.00    +0.013 C 
ATOM     13  C   UNL     1       2.534   4.019   0.270  0.00  0.00    +0.059 C 
ENDBRANCH   1   8
BRANCH   4  14
ATOM     14  C   UNL     1       2.228  -1.099  -0.052  0.00  0.00    +0.019 C 
ATOM     15  C   UNL     1       2.879  -1.191  -1.279  0.00  0.00    +0.005 C 
ATOM     16  C   UNL     1       2.928  -1.308   1.134  0.00  0.00    +0.005 C 
ATOM     17  C   UNL     1       4.240  -1.494  -1.321  0.00  0.00    +0.037 C 
ATOM     18  C   UNL     1       4.289  -1.611   1.091  0.00  0.00    +0.037 C 
ATOM     19  C   UNL     1       4.945  -1.704  -0.137  0.00  0.00    +0.139 C 
BRANCH  19  20
ATOM     20  O   UNL     1       6.273  -1.999  -0.178  0.00  0.00    -0.471 OA
ATOM     21  C   UNL     1       6.933  -2.201   1.071  0.00  0.00    +0.252 C 
ENDBRANCH  19  20
ENDBRANCH   4  14
BRANCH   3  24
ATOM     22  O   UNL     1      -3.151  -2.249  -0.022  0.00  0.00    -0.267 OA
ATOM     23  N   UNL     1      -3.644   0.000   0.121  0.00  0.00    -0.242 N 
ATOM     24  C   UNL     1      -2.778  -1.079   0.051  0.00  0.00    +0.279 C 
ATOM     25  H   UNL     1      -3.298   0.920   0.178  0.00  0.00    +0.170 HD
BRANCH  23  26
ATOM     26  N   UNL     1      -5.006  -0.240   0.109  0.00  0.00    -0.206 NA
ATOM     27  C   UNL     1      -7.815   0.548   0.130  0.00  0.00    +0.003 C 
ATOM     28  C   UNL     1      -7.115   0.072  -1.139  0.00  0.00    +0.019 C 
ATOM     29  C   UNL     1      -7.120  -0.013   1.367  0.00  0.00    +0.019 C 
ATOM     30  C   UNL     1      -5.613   0.358  -1.085  0.00  0.00    +0.092 C 
ATOM     31  C   UNL     1      -5.618   0.274   1.340  0.00  0.00    +0.092 C 
ENDBRANCH  23  26
ENDBRANCH   3  24
BRANCH   5  33
ATOM     32  N   UNL     1      -0.268  -4.203  -0.152  0.00  0.00    -0.191 NA
ATOM     33  C   UNL     1      -0.273  -3.035  -0.095  0.00  0.00    +0.104 C 
ENDBRANCH   5  33
TORSDOF 6
