118572065
  -OEChem-05201910273D

 55 58  0     1  0  0  0  0  0999 V2000
    2.5229    0.6314   -2.2689 Cl  0  0  0  0  0  0  0  0  0  0  0  0
    1.7668   -2.1199    3.3001 Cl  0  0  0  0  0  0  0  0  0  0  0  0
    6.0559    2.8025    0.1252 O   0  0  0  0  0  0  0  0  0  0  0  0
    5.4937   -1.2375   -0.4982 O   0  0  0  0  0  0  0  0  0  0  0  0
   -0.1366    0.6627   -2.0524 O   0  0  0  0  0  0  0  0  0  0  0  0
   -5.1441   -1.8352   -0.3820 O   0  0  0  0  0  0  0  0  0  0  0  0
   -2.5596    2.1860   -0.7064 O   0  0  0  0  0  0  0  0  0  0  0  0
   -1.4806   -0.7159   -0.7435 N   0  0  0  0  0  0  0  0  0  0  0  0
   -4.4971    2.1259    0.5260 N   0  0  0  0  0  0  0  0  0  0  0  0
    5.3656    0.8572    0.6735 C   0  0  0  0  0  0  0  0  0  0  0  0
    4.7033   -0.0540   -0.3594 C   0  0  2  0  0  0  0  0  0  0  0  0
    4.8507    2.2989    0.7507 C   0  0  0  0  0  0  0  0  0  0  0  0
    6.6919    1.5091    0.2668 C   0  0  0  0  0  0  0  0  0  0  0  0
    3.3080   -0.3952    0.0624 C   0  0  0  0  0  0  0  0  0  0  0  0
    0.9136   -0.4553   -0.2800 C   0  0  0  0  0  0  0  0  0  0  0  0
    0.7494   -1.1023    0.9539 C   0  0  0  0  0  0  0  0  0  0  0  0
   -0.6266   -1.4388    1.4497 C   0  0  0  0  0  0  0  0  0  0  0  0
    2.1935   -0.1030   -0.7241 C   0  0  0  0  0  0  0  0  0  0  0  0
   -1.5302   -1.7631    0.2717 C   0  0  0  0  0  0  0  0  0  0  0  0
    3.1492   -1.0290    1.2934 C   0  0  0  0  0  0  0  0  0  0  0  0
   -0.2728   -0.1158   -1.1117 C   0  0  0  0  0  0  0  0  0  0  0  0
    1.8746   -1.3762    1.7410 C   0  0  0  0  0  0  0  0  0  0  0  0
   -2.6905   -0.4807   -1.5157 C   0  0  0  0  0  0  0  0  0  0  0  0
   -3.7347    0.1107   -0.6418 C   0  0  0  0  0  0  0  0  0  0  0  0
    5.2411   -1.8809   -1.7364 C   0  0  0  0  0  0  0  0  0  0  0  0
   -4.8180   -0.5185   -0.1520 C   0  0  0  0  0  0  0  0  0  0  0  0
   -3.5311    1.5587   -0.2884 C   0  0  0  0  0  0  0  0  0  0  0  0
   -5.7747    0.1599    0.6941 C   0  0  0  0  0  0  0  0  0  0  0  0
   -5.5956    1.4510    1.0106 C   0  0  0  0  0  0  0  0  0  0  0  0
   -6.5331    2.2287    1.8774 C   0  0  0  0  0  0  0  0  0  0  0  0
   -5.9552   -1.9613   -1.5355 C   0  0  0  0  0  0  0  0  0  0  0  0
    5.4604    0.3938    1.6638 H   0  0  0  0  0  0  0  0  0  0  0  0
    4.7632    0.4847   -1.3079 H   0  0  0  0  0  0  0  0  0  0  0  0
    3.9642    2.5380    0.1574 H   0  0  0  0  0  0  0  0  0  0  0  0
    4.7333    2.7000    1.7623 H   0  0  0  0  0  0  0  0  0  0  0  0
    7.4627    1.5312    1.0436 H   0  0  0  0  0  0  0  0  0  0  0  0
    7.1303    1.1704   -0.6761 H   0  0  0  0  0  0  0  0  0  0  0  0
   -0.6322   -2.3069    2.1156 H   0  0  0  0  0  0  0  0  0  0  0  0
   -1.0186   -0.5784    2.0056 H   0  0  0  0  0  0  0  0  0  0  0  0
   -1.2085   -2.6920   -0.2162 H   0  0  0  0  0  0  0  0  0  0  0  0
   -2.5492   -1.9165    0.6344 H   0  0  0  0  0  0  0  0  0  0  0  0
    4.0134   -1.2721    1.9070 H   0  0  0  0  0  0  0  0  0  0  0  0
   -2.4903    0.1724   -2.3722 H   0  0  0  0  0  0  0  0  0  0  0  0
   -2.9996   -1.4453   -1.9344 H   0  0  0  0  0  0  0  0  0  0  0  0
    5.8950   -2.7553   -1.8020 H   0  0  0  0  0  0  0  0  0  0  0  0
    5.4750   -1.2204   -2.5773 H   0  0  0  0  0  0  0  0  0  0  0  0
    4.2067   -2.2302   -1.8024 H   0  0  0  0  0  0  0  0  0  0  0  0
   -6.6297   -0.3957    1.0656 H   0  0  0  0  0  0  0  0  0  0  0  0
   -4.3927    3.1028    0.7857 H   0  0  0  0  0  0  0  0  0  0  0  0
   -6.0123    2.6028    2.7652 H   0  0  0  0  0  0  0  0  0  0  0  0
   -6.9411    3.0841    1.3289 H   0  0  0  0  0  0  0  0  0  0  0  0
   -7.3761    1.6182    2.2180 H   0  0  0  0  0  0  0  0  0  0  0  0
   -6.1525   -3.0255   -1.6963 H   0  0  0  0  0  0  0  0  0  0  0  0
   -5.4517   -1.5750   -2.4285 H   0  0  0  0  0  0  0  0  0  0  0  0
   -6.9194   -1.4583   -1.4027 H   0  0  0  0  0  0  0  0  0  0  0  0
  1 18  1  0  0  0  0
  2 22  1  0  0  0  0
  3 12  1  0  0  0  0
  3 13  1  0  0  0  0
  4 11  1  0  0  0  0
  4 25  1  0  0  0  0
  5 21  2  0  0  0  0
  6 26  1  0  0  0  0
  6 31  1  0  0  0  0
  7 27  2  0  0  0  0
  8 19  1  0  0  0  0
  8 21  1  0  0  0  0
  8 23  1  0  0  0  0
  9 27  1  0  0  0  0
  9 29  1  0  0  0  0
  9 49  1  0  0  0  0
 10 11  1  0  0  0  0
 10 12  1  0  0  0  0
 10 13  1  0  0  0  0
 10 32  1  0  0  0  0
 11 14  1  0  0  0  0
 11 33  1  0  0  0  0
 12 34  1  0  0  0  0
 12 35  1  0  0  0  0
 13 36  1  0  0  0  0
 13 37  1  0  0  0  0
 14 18  1  0  0  0  0
 14 20  2  0  0  0  0
 15 16  1  0  0  0  0
 15 18  2  0  0  0  0
 15 21  1  0  0  0  0
 16 17  1  0  0  0  0
 16 22  2  0  0  0  0
 17 19  1  0  0  0  0
 17 38  1  0  0  0  0
 17 39  1  0  0  0  0
 19 40  1  0  0  0  0
 19 41  1  0  0  0  0
 20 22  1  0  0  0  0
 20 42  1  0  0  0  0
 23 24  1  0  0  0  0
 23 43  1  0  0  0  0
 23 44  1  0  0  0  0
 24 26  2  0  0  0  0
 24 27  1  0  0  0  0
 25 45  1  0  0  0  0
 25 46  1  0  0  0  0
 25 47  1  0  0  0  0
 26 28  1  0  0  0  0
 28 29  2  0  0  0  0
 28 48  1  0  0  0  0
 29 30  1  0  0  0  0
 30 50  1  0  0  0  0
 30 51  1  0  0  0  0
 30 52  1  0  0  0  0
 31 53  1  0  0  0  0
 31 54  1  0  0  0  0
 31 55  1  0  0  0  0
M  END
> <DATABASE_ID>
DB14799

> <DATABASE_NAME>
drugbank

> <ORIGINAL_SOURCE>
PUBCHEM

> <ORIGINAL_SOURCE_URL>
https://pubchem.ncbi.nlm.nih.gov/rest/pug/compound/inchikey/RXCVUHMIWHRLDF-HXUWFJFHSA-N/SDF?record_type=3d

> <SMILES>
CO[C@H](C1COC1)C1=C(Cl)C2=C(CCN(CC3=C(OC)C=C(C)NC3=O)C2=O)C(Cl)=C1

> <INCHI_IDENTIFIER>
InChI=1S/C22H24Cl2N2O5/c1-11-6-17(29-2)15(21(27)25-11)8-26-5-4-13-16(23)7-14(19(24)18(13)22(26)28)20(30-3)12-9-31-10-12/h6-7,12,20H,4-5,8-10H2,1-3H3,(H,25,27)/t20-/m1/s1

> <INCHI_KEY>
RXCVUHMIWHRLDF-HXUWFJFHSA-N

> <FORMULA>
C22H24Cl2N2O5

> <MOLECULAR_WEIGHT>
467.34

> <EXACT_MASS>
466.1062273

> <JCHEM_ACCEPTOR_COUNT>
5

> <JCHEM_ATOM_COUNT>
55

> <JCHEM_AVERAGE_POLARIZABILITY>
46.200074634909186

> <JCHEM_BIOAVAILABILITY>
1

> <JCHEM_DONOR_COUNT>
1

> <JCHEM_FORMAL_CHARGE>
0

> <JCHEM_GHOSE_FILTER>
1

> <JCHEM_IUPAC>
5,8-dichloro-7-[(R)-methoxy(oxetan-3-yl)methyl]-2-[(4-methoxy-6-methyl-2-oxo-1,2-dihydropyridin-3-yl)methyl]-1,2,3,4-tetrahydroisoquinolin-1-one

> <ALOGPS_LOGP>
3.07

> <JCHEM_LOGP>
1.856150136333333

> <ALOGPS_LOGS>
-4.55

> <JCHEM_MDDR_LIKE_RULE>
1

> <JCHEM_NUMBER_OF_RINGS>
4

> <JCHEM_PHYSIOLOGICAL_CHARGE>
0

> <JCHEM_PKA_STRONGEST_ACIDIC>
11.136596547919543

> <JCHEM_PKA_STRONGEST_BASIC>
-1.4245395196647948

> <JCHEM_POLAR_SURFACE_AREA>
77.1

> <JCHEM_REFRACTIVITY>
121.09659999999998

> <JCHEM_ROTATABLE_BOND_COUNT>
6

> <JCHEM_RULE_OF_FIVE>
1

> <ALOGPS_SOLUBILITY>
1.32e-02 g/l

> <JCHEM_TRADITIONAL_IUPAC>
(2R)-14-fluoro-2-methyl-6,9,10,19-tetraazapentacyclo[14.2.1.0^{2,6}.0^{8,18}.0^{12,17}]nonadeca-1(18),8,12(17),13,15-pentaen-11-one

> <JCHEM_VEBER_RULE>
0

> <DRUGBANK_ID>
DB14799

> <DRUG_GROUPS>
investigational

> <GENERIC_NAME>
PF-06821497

$$$$
