REMARK  Name = 46848915
REMARK  5 active torsions:
REMARK  status: ('A' for Active; 'I' for Inactive)
REMARK    1  A    between atoms: N_2  and  C_9
REMARK    2  A    between atoms: C_4  and  C_22
REMARK    3  A    between atoms: C_7  and  O_31
REMARK    4  A    between atoms: C_10  and  N_15
REMARK    5  A    between atoms: N_20  and  C_25
REMARK                            x       y       z     vdW  Elec       q    Type
REMARK                         _______ _______ _______ _____ _____    ______ ____
ROOT
ATOM      1  O   UNL     1      -3.315  -1.401  -1.578  0.00  0.00    -0.282 OA
ATOM      2  N   UNL     1       0.447  -0.773  -0.464  0.00  0.00    -0.183 N 
ATOM      3  N   UNL     1      -0.357   0.322  -0.671  0.00  0.00    -0.169 NA
ATOM      4  C   UNL     1      -1.614   0.143  -0.951  0.00  0.00    +0.156 C 
ATOM      5  C   UNL     1      -2.198  -1.246  -1.112  0.00  0.00    +0.251 C 
ATOM      6  C   UNL     1      -0.074  -2.054  -0.435  0.00  0.00    +0.129 C 
ATOM      7  C   UNL     1      -1.339  -2.371  -0.721  0.00  0.00    +0.196 C 
ENDROOT
BRANCH   2   9
ATOM      8  F   UNL     1       1.273   1.649   0.664  0.00  0.00    -0.203 F 
ATOM      9  C   UNL     1       1.834  -0.467  -0.256  0.00  0.00    +0.101 C 
ATOM     10  C   UNL     1       4.531   0.120   0.151  0.00  0.00    +0.076 C 
ATOM     11  C   UNL     1       2.205   0.752   0.311  0.00  0.00    +0.157 C 
ATOM     12  C   UNL     1       2.812  -1.393  -0.619  0.00  0.00    +0.020 C 
ATOM     13  C   UNL     1       3.553   1.046   0.514  0.00  0.00    +0.048 C 
ATOM     14  C   UNL     1       4.160  -1.100  -0.416  0.00  0.00    +0.018 C 
BRANCH  10  15
ATOM     15  N   UNL     1       5.868   0.412   0.351  0.00  0.00    -0.189 N 
ATOM     16  N   UNL     1       6.819  -0.472   0.003  0.00  0.00    -0.172 NA
ATOM     17  C   UNL     1       6.358   1.563   0.893  0.00  0.00    +0.091 C 
ATOM     18  C   UNL     1       7.724   1.423   0.901  0.00  0.00    +0.040 C 
ATOM     19  C   UNL     1       7.950   0.152   0.341  0.00  0.00    +0.120 C 
ENDBRANCH  10  15
ENDBRANCH   2   9
BRANCH   4  22
ATOM     20  N   UNL     1      -3.595   1.622  -0.390  0.00  0.00    -0.188 N 
ATOM     21  N   UNL     1      -4.202   2.764  -0.754  0.00  0.00    -0.172 NA
ATOM     22  C   UNL     1      -2.483   1.330  -1.124  0.00  0.00    +0.098 C 
ATOM     23  C   UNL     1      -2.354   2.352  -2.032  0.00  0.00    +0.041 C 
ATOM     24  C   UNL     1      -3.439   3.206  -1.758  0.00  0.00    +0.120 C 
BRANCH  20  25
ATOM     25  C   UNL     1      -4.114   0.867   0.646  0.00  0.00    +0.074 C 
ATOM     26  C   UNL     1      -3.265   0.096   1.440  0.00  0.00    +0.017 C 
ATOM     27  C   UNL     1      -5.485   0.879   0.899  0.00  0.00    +0.017 C 
ATOM     28  C   UNL     1      -3.788  -0.664   2.487  0.00  0.00    +0.001 C 
ATOM     29  C   UNL     1      -6.008   0.119   1.945  0.00  0.00    +0.001 C 
ATOM     30  C   UNL     1      -5.160  -0.652   2.739  0.00  0.00    +0.000 C 
ENDBRANCH  20  25
ENDBRANCH   4  22
BRANCH   7  31
ATOM     31  O   UNL     1      -1.860  -3.639  -0.703  0.00  0.00    -0.467 OA
ATOM     32  C   UNL     1      -0.885  -4.587  -0.301  0.00  0.00    +0.253 C 
ENDBRANCH   7  31
TORSDOF 5
