REMARK  Name = 7594
REMARK  3 active torsions:
REMARK  status: ('A' for Active; 'I' for Inactive)
REMARK    1  A    between atoms: N_1  and  C_8
REMARK    2  A    between atoms: N_2  and  C_4
REMARK    3  A    between atoms: N_2  and  C_14
REMARK                            x       y       z     vdW  Elec       q    Type
REMARK                         _______ _______ _______ _____ _____    ______ ____
ROOT
ATOM      1  N   UNL     1       1.261   1.345   0.316  0.00  0.00    -0.325 N 
ATOM      2  N   UNL     1      -0.820   2.227   0.543  0.00  0.00    -0.369 N 
ATOM      3  C   UNL     1      -0.101   1.084   0.242  0.00  0.00    +0.200 C 
ATOM      4  H   UNL     1       1.497   2.276   0.530  0.00  0.00    +0.169 HD
ATOM      5  H   UNL     1      -0.348   3.066   0.751  0.00  0.00    +0.159 HD
ATOM      6  H   UNL     1      -1.805   2.202   0.548  0.00  0.00    +0.159 HD
ENDROOT
BRANCH   1   7
ATOM      7  C   UNL     1       2.358   0.476   0.132  0.00  0.00    +0.059 C 
ATOM      8  C   UNL     1       3.571   0.977  -0.340  0.00  0.00    +0.017 C 
ATOM      9  C   UNL     1       2.228  -0.881   0.422  0.00  0.00    +0.017 C 
ATOM     10  C   UNL     1       4.655   0.118  -0.522  0.00  0.00    +0.001 C 
ATOM     11  C   UNL     1       3.312  -1.740   0.239  0.00  0.00    +0.001 C 
ATOM     12  C   UNL     1       4.526  -1.240  -0.233  0.00  0.00    +0.000 C 
ENDBRANCH   1   7
BRANCH   3  13
ATOM     13  N   UNL     1      -0.619  -0.085  -0.050  0.00  0.00    -0.214 NA
BRANCH  13  14
ATOM     14  C   UNL     1      -2.009  -0.233  -0.087  0.00  0.00    +0.084 C 
ATOM     15  C   UNL     1      -2.702  -0.014  -1.278  0.00  0.00    +0.019 C 
ATOM     16  C   UNL     1      -2.703  -0.599   1.066  0.00  0.00    +0.019 C 
ATOM     17  C   UNL     1      -4.088  -0.162  -1.316  0.00  0.00    +0.002 C 
ATOM     18  C   UNL     1      -4.089  -0.747   1.029  0.00  0.00    +0.002 C 
ATOM     19  C   UNL     1      -4.782  -0.528  -0.162  0.00  0.00    +0.000 C 
ENDBRANCH  13  14
ENDBRANCH   3  13
TORSDOF 3
