REMARK  Name = 44472635
REMARK  7 active torsions:
REMARK  status: ('A' for Active; 'I' for Inactive)
REMARK    1  A    between atoms: C_1  and  C_21
REMARK    2  A    between atoms: C_4  and  N_8
REMARK    3  A    between atoms: C_9  and  C_14
REMARK    4  A    between atoms: C_21  and  C_24
REMARK    5  A    between atoms: C_23  and  C_29
REMARK    6  A    between atoms: C_29  and  C_30
REMARK    7  A    between atoms: C_29  and  O_36
REMARK                            x       y       z     vdW  Elec       q    Type
REMARK                         _______ _______ _______ _____ _____    ______ ____
ROOT
ATOM      1  C   UNL     1      -0.588  -2.243   0.146  0.00  0.00    -0.024 C 
ATOM      2  C   UNL     1       0.011  -2.790  -0.989  0.00  0.00    -0.003 C 
ATOM      3  C   UNL     1       0.146  -1.405   0.986  0.00  0.00    -0.003 C 
ATOM      4  C   UNL     1       2.076  -1.660  -0.444  0.00  0.00    +0.050 C 
ATOM      5  C   UNL     1       1.343  -2.499  -1.284  0.00  0.00    +0.014 C 
ATOM      6  C   UNL     1       1.477  -1.113   0.691  0.00  0.00    +0.014 C 
ENDROOT
BRANCH   4   8
ATOM      7  O   UNL     1       4.071   0.057   1.018  0.00  0.00    -0.273 OA
ATOM      8  N   UNL     1       3.427  -1.364  -0.743  0.00  0.00    -0.283 N 
ATOM      9  C   UNL     1       4.295  -0.557  -0.021  0.00  0.00    +0.245 C 
ATOM     10  H   UNL     1       3.793  -1.779  -1.558  0.00  0.00    +0.155 HD
BRANCH   9  14
ATOM     11  O   UNL     1       5.180   2.150  -1.919  0.00  0.00    -0.269 OA
ATOM     12  N   UNL     1       6.220   0.789  -0.343  0.00  0.00    -0.237 N 
ATOM     13  N   UNL     1       7.807   1.673   1.202  0.00  0.00    -0.233 NA
ATOM     14  C   UNL     1       5.645  -0.498  -0.670  0.00  0.00    +0.158 C 
ATOM     15  C   UNL     1       6.614  -1.492  -0.046  0.00  0.00    +0.037 C 
ATOM     16  C   UNL     1       7.227  -0.741   1.139  0.00  0.00    +0.064 C 
ATOM     17  C   UNL     1       7.141   0.688   0.696  0.00  0.00    +0.115 C 
ATOM     18  C   UNL     1       5.950   1.984  -0.980  0.00  0.00    +0.256 C 
ATOM     19  C   UNL     1       6.710   3.122  -0.401  0.00  0.00    +0.079 C 
ATOM     20  C   UNL     1       7.554   2.891   0.616  0.00  0.00    +0.105 C 
ENDBRANCH   9  14
ENDBRANCH   4   8
BRANCH   1  21
ATOM     21  C   UNL     1      -2.011  -2.556   0.463  0.00  0.00    +0.005 C 
BRANCH  21  24
ATOM     22  N   UNL     1      -4.373  -1.859   0.178  0.00  0.00    +0.388 N 
ATOM     23  C   UNL     1      -5.104  -0.629  -0.163  0.00  0.00    -0.030 C 
ATOM     24  C   UNL     1      -2.975  -1.564  -0.167  0.00  0.00    -0.057 C 
ATOM     25  C   UNL     1      -4.144   0.516   0.161  0.00  0.00    -0.021 C 
ATOM     26  C   UNL     1      -2.781  -0.142   0.340  0.00  0.00    -0.023 C 
ATOM     27  H   UNL     1      -4.720  -2.647  -0.368  0.00  0.00    -0.084 HD
ATOM     28  H   UNL     1      -4.485  -2.117   1.158  0.00  0.00    -0.084 HD
BRANCH  23  29
ATOM     29  C   UNL     1      -6.423  -0.529   0.590  0.00  0.00    +0.113 C 
BRANCH  29  30
ATOM     30  C   UNL     1      -7.178   0.737   0.254  0.00  0.00    +0.002 C 
ATOM     31  C   UNL     1      -6.968   1.895   1.003  0.00  0.00    -0.002 C 
ATOM     32  C   UNL     1      -8.086   0.747  -0.805  0.00  0.00    -0.002 C 
ATOM     33  C   UNL     1      -7.665   3.062   0.693  0.00  0.00    -0.000 C 
ATOM     34  C   UNL     1      -8.784   1.914  -1.115  0.00  0.00    -0.000 C 
ATOM     35  C   UNL     1      -8.573   3.072  -0.366  0.00  0.00    -0.000 C 
ENDBRANCH  29  30
BRANCH  29  36
ATOM     36  O   UNL     1      -7.242  -1.656   0.279  0.00  0.00    -0.382 OA
ATOM     37  H   UNL     1      -6.763  -2.472   0.492  0.00  0.00    +0.211 HD
ENDBRANCH  29  36
ENDBRANCH  23  29
ENDBRANCH  21  24
ENDBRANCH   1  21
TORSDOF 7
