REMARK  Name = 943
REMARK  0 active torsions:
REMARK  status: ('A' for Active; 'I' for Inactive)
REMARK                            x       y       z     vdW  Elec       q    Type
REMARK                         _______ _______ _______ _____ _____    ______ ____
ROOT
ATOM      1  O   UNL     1       1.228   0.188   0.000  0.00  0.00    -0.087 OA
ATOM      2  O   UNL     1      -0.452  -1.157   0.000  0.00  0.00    -0.087 OA
ATOM      3  O   UNL     1      -0.776   0.970   0.000  0.00  0.00    -0.087 OA
ATOM      4  N   UNL     1       0.000   0.000   0.000  0.00  0.00    +0.260 N 
ENDROOT
TORSDOF 0
