REMARK  Name = 7338
REMARK  3 active torsions:
REMARK  status: ('A' for Active; 'I' for Inactive)
REMARK    1  A    between atoms: C_1  and  C_7
REMARK    2  A    between atoms: C_2  and  O_10
REMARK    3  A    between atoms: C_5  and  O_12
REMARK                            x       y       z     vdW  Elec       q    Type
REMARK                         _______ _______ _______ _____ _____    ______ ____
ROOT
ATOM      1  C   UNL     1       0.949  -0.573   0.058  0.00  0.00    +0.003 C 
ATOM      2  C   UNL     1      -1.219   0.474   0.265  0.00  0.00    +0.172 C 
ATOM      3  C   UNL     1       0.173   0.565   0.281  0.00  0.00    +0.040 C 
ATOM      4  C   UNL     1       0.333  -1.801  -0.182  0.00  0.00    +0.003 C 
ATOM      5  C   UNL     1      -1.835  -0.754   0.026  0.00  0.00    +0.168 C 
ATOM      6  C   UNL     1      -1.059  -1.892  -0.198  0.00  0.00    +0.040 C 
ENDROOT
BRANCH   1   7
ATOM      7  C   UNL     1       2.400  -0.478   0.074  0.00  0.00    -0.004 C 
ATOM      8  C   UNL     1       3.123   0.653  -0.088  0.00  0.00    -0.026 C 
ATOM      9  C   UNL     1       4.616   0.702  -0.072  0.00  0.00    +0.031 C 
ENDBRANCH   1   7
BRANCH   2  10
ATOM     10  O   UNL     1      -1.965   1.592   0.485  0.00  0.00    -0.468 OA
ATOM     11  C   UNL     1      -2.322   2.368  -0.657  0.00  0.00    +0.253 C 
ENDBRANCH   2  10
BRANCH   5  12
ATOM     12  O   UNL     1      -3.193  -0.856   0.008  0.00  0.00    -0.503 OA
ATOM     13  H   UNL     1      -3.722  -0.096   0.157  0.00  0.00    +0.292 HD
ENDBRANCH   5  12
TORSDOF 3
