REMARK  Name = 450173
REMARK  4 active torsions:
REMARK  status: ('A' for Active; 'I' for Inactive)
REMARK    1  A    between atoms: N_3  and  C_9
REMARK    2  A    between atoms: C_9  and  C_10
REMARK    3  A    between atoms: C_10  and  C_12
REMARK    4  A    between atoms: C_10  and  O_13
REMARK                            x       y       z     vdW  Elec       q    Type
REMARK                         _______ _______ _______ _____ _____    ______ ____
ROOT
ATOM      1  O   UNL     1       2.791   1.880   0.198  0.00  0.00    -0.123 OA
ATOM      2  O   UNL     1       0.677   2.113  -0.346  0.00  0.00    -0.123 OA
ATOM      3  N   UNL     1       0.332  -0.642   0.364  0.00  0.00    -0.248 N 
ATOM      4  N   UNL     1       2.440  -0.880  -0.230  0.00  0.00    -0.207 NA
ATOM      5  N   UNL     1       1.657   1.374  -0.042  0.00  0.00    +0.091 N 
ATOM      6  C   UNL     1       1.486  -0.014   0.028  0.00  0.00    +0.284 C 
ATOM      7  C   UNL     1       0.538  -1.981   0.325  0.00  0.00    +0.089 C 
ATOM      8  C   UNL     1       1.856  -2.108  -0.047  0.00  0.00    +0.118 C 
ENDROOT
BRANCH   3   9
ATOM      9  C   UNL     1      -0.936   0.001   0.709  0.00  0.00    +0.131 C 
BRANCH   9  10
ATOM     10  C   UNL     1      -1.820   0.238  -0.516  0.00  0.00    +0.166 C 
BRANCH  10  12
ATOM     11  F   UNL     1      -3.764   0.129   0.784  0.00  0.00    -0.232 F 
ATOM     12  C   UNL     1      -3.124   0.916  -0.125  0.00  0.00    +0.224 C 
ENDBRANCH  10  12
BRANCH  10  13
ATOM     13  O   UNL     1      -2.134  -1.026  -1.101  0.00  0.00    -0.380 OA
ATOM     14  H   UNL     1      -1.314  -1.475  -1.359  0.00  0.00    +0.211 HD
ENDBRANCH  10  13
ENDBRANCH   9  10
ENDBRANCH   3   9
TORSDOF 4
