REMARK  Name = 24967599
REMARK  2 active torsions:
REMARK  status: ('A' for Active; 'I' for Inactive)
REMARK    1  A    between atoms: N_2  and  C_16
REMARK    2  A    between atoms: C_9  and  N_22
REMARK                            x       y       z     vdW  Elec       q    Type
REMARK                         _______ _______ _______ _____ _____    ______ ____
ROOT
ATOM      1  O   UNL     1      -0.118   1.564  -0.153  0.00  0.00    -0.269 OA
ATOM      2  N   UNL     1      -0.212  -0.757  -0.132  0.00  0.00    -0.227 N 
ATOM      3  N   UNL     1       1.784  -2.047  -0.052  0.00  0.00    -0.395 NA
ATOM      4  C   UNL     1       0.491  -1.960  -0.094  0.00  0.00    +0.166 C 
ATOM      5  C   UNL     1       0.454   0.478  -0.124  0.00  0.00    +0.258 C 
ATOM      6  C   UNL     1       1.929   0.398  -0.077  0.00  0.00    +0.092 C 
ATOM      7  C   UNL     1       2.532  -0.862  -0.043  0.00  0.00    +0.120 C 
ATOM      8  C   UNL     1      -0.298  -3.248  -0.104  0.00  0.00    +0.084 C 
ATOM      9  C   UNL     1       2.705   1.563  -0.066  0.00  0.00    +0.048 C 
ATOM     10  C   UNL     1       3.928  -0.943   0.001  0.00  0.00    +0.085 C 
ATOM     11  C   UNL     1       4.095   1.467  -0.021  0.00  0.00    +0.010 C 
ATOM     12  C   UNL     1       4.707   0.215   0.012  0.00  0.00    -0.017 C 
ENDROOT
BRANCH   2  16
ATOM     13  O   UNL     1      -1.559  -0.158   2.165  0.00  0.00    -0.273 OA
ATOM     14  O   UNL     1      -5.323   1.165  -0.134  0.00  0.00    -0.275 OA
ATOM     15  N   UNL     1      -3.412   0.512   0.977  0.00  0.00    -0.254 N 
ATOM     16  C   UNL     1      -1.651  -0.750  -0.177  0.00  0.00    +0.159 C 
ATOM     17  C   UNL     1      -2.153  -0.021  -1.413  0.00  0.00    +0.039 C 
ATOM     18  C   UNL     1      -3.671  -0.009  -1.409  0.00  0.00    +0.088 C 
ATOM     19  C   UNL     1      -2.162  -0.095   1.094  0.00  0.00    +0.247 C 
ATOM     20  C   UNL     1      -4.215   0.628  -0.153  0.00  0.00    +0.228 C 
ATOM     21  H   UNL     1      -3.773   0.911   1.802  0.00  0.00    +0.158 HD
ENDBRANCH   2  16
BRANCH   9  22
ATOM     22  N   UNL     1       2.150   2.861  -0.098  0.00  0.00    -0.357 N 
ATOM     23  H   UNL     1       1.172   2.978  -0.130  0.00  0.00    +0.142 HD
ATOM     24  H   UNL     1       2.739   3.649  -0.089  0.00  0.00    +0.142 HD
ENDBRANCH   9  22
TORSDOF 2
