REMARK  Name = 24875489
REMARK  12 active torsions:
REMARK  status: ('A' for Active; 'I' for Inactive)
REMARK    1  A    between atoms: C_2  and  O_3
REMARK    2  A    between atoms: C_2  and  C_14
REMARK    3  A    between atoms: O_3  and  C_4
REMARK    4  A    between atoms: C_7  and  C_11
REMARK    5  A    between atoms: C_11  and  O_12
REMARK    6  A    between atoms: C_14  and  C_15
REMARK    7  A    between atoms: C_15  and  C_16
REMARK    8  A    between atoms: C_16  and  C_17
REMARK    9  A    between atoms: C_17  and  C_18
REMARK   10  A    between atoms: C_18  and  C_19
REMARK   11  A    between atoms: C_19  and  C_22
REMARK   12  A    between atoms: N_21  and  O_24
REMARK                            x       y       z     vdW  Elec       q    Type
REMARK                         _______ _______ _______ _____ _____    ______ ____
ROOT
ATOM      1  O   UNL     1       0.531   0.191  -0.634  0.00  0.00    -0.250 OA
ATOM      2  C   UNL     1       0.391  -0.647   0.246  0.00  0.00    +0.321 C 
ENDROOT
BRANCH   2   3
ATOM      3  O   UNL     1       1.408  -1.278   0.960  0.00  0.00    -0.424 OA
BRANCH   3   4
ATOM      4  C   UNL     1       2.683  -0.835   0.600  0.00  0.00    +0.148 C 
ATOM      5  C   UNL     1       3.380  -1.474  -0.426  0.00  0.00    +0.038 C 
ATOM      6  C   UNL     1       3.261   0.244   1.269  0.00  0.00    +0.038 C 
ATOM      7  C   UNL     1       5.232   0.046  -0.114  0.00  0.00    +0.076 C 
ATOM      8  C   UNL     1       4.654  -1.033  -0.783  0.00  0.00    +0.010 C 
ATOM      9  C   UNL     1       4.535   0.685   0.912  0.00  0.00    +0.010 C 
BRANCH   7  11
ATOM     10  O   UNL     1       7.251   0.000  -1.381  0.00  0.00    -0.245 OA
ATOM     11  C   UNL     1       6.561   0.505  -0.486  0.00  0.00    +0.341 C 
BRANCH  11  12
ATOM     12  O   UNL     1       6.957   1.570   0.276  0.00  0.00    -0.441 OA
ATOM     13  C   UNL     1       8.252   2.115   0.002  0.00  0.00    +0.256 C 
ENDBRANCH  11  12
ENDBRANCH   7  11
ENDBRANCH   3   4
ENDBRANCH   2   3
BRANCH   2  14
ATOM     14  C   UNL     1      -0.935  -1.204   0.719  0.00  0.00    +0.110 C 
BRANCH  14  15
ATOM     15  C   UNL     1      -2.127  -0.651  -0.062  0.00  0.00    +0.012 C 
BRANCH  15  16
ATOM     16  C   UNL     1      -3.453  -1.276   0.380  0.00  0.00    +0.001 C 
BRANCH  16  17
ATOM     17  C   UNL     1      -4.632  -0.683  -0.395  0.00  0.00    +0.001 C 
BRANCH  17  18
ATOM     18  C   UNL     1      -5.960  -1.289   0.069  0.00  0.00    +0.010 C 
BRANCH  18  19
ATOM     19  C   UNL     1      -7.154  -0.740  -0.711  0.00  0.00    +0.087 C 
BRANCH  19  22
ATOM     20  O   UNL     1      -6.833   1.601  -1.238  0.00  0.00    -0.273 OA
ATOM     21  N   UNL     1      -8.200   1.022   0.530  0.00  0.00    -0.197 N 
ATOM     22  C   UNL     1      -7.369   0.753  -0.531  0.00  0.00    +0.244 C 
ATOM     23  H   UNL     1      -8.607   0.306   1.070  0.00  0.00    +0.182 HD
BRANCH  21  24
ATOM     24  O   UNL     1      -8.432   2.378   0.797  0.00  0.00    -0.295 OA
ATOM     25  H   UNL     1      -9.026   2.460   1.559  0.00  0.00    +0.241 HD
ENDBRANCH  21  24
ENDBRANCH  19  22
ENDBRANCH  18  19
ENDBRANCH  17  18
ENDBRANCH  16  17
ENDBRANCH  15  16
ENDBRANCH  14  15
ENDBRANCH   2  14
TORSDOF 12
