REMARK  Name = 58507717
REMARK  2 active torsions:
REMARK  status: ('A' for Active; 'I' for Inactive)
REMARK    1  A    between atoms: C_18  and  C_21
REMARK    2  A    between atoms: C_22  and  C_31
REMARK                            x       y       z     vdW  Elec       q    Type
REMARK                         _______ _______ _______ _____ _____    ______ ____
ROOT
ATOM      1  O   UNL     1      -3.371   4.745   0.126  0.00  0.00    -0.350 OA
ATOM      2  O   UNL     1      -3.319  -4.768   0.215  0.00  0.00    -0.350 OA
ATOM      3  N   UNL     1      -1.981   2.333  -0.260  0.00  0.00    -0.228 N 
ATOM      4  N   UNL     1      -1.980  -2.334  -0.212  0.00  0.00    -0.228 N 
ATOM      5  N   UNL     1      -2.019  -0.001  -0.232  0.00  0.00    -0.246 NA
ATOM      6  N   UNL     1       0.050  -1.202  -0.413  0.00  0.00    -0.260 NA
ATOM      7  N   UNL     1       0.050   1.198  -0.439  0.00  0.00    -0.260 NA
ATOM      8  C   UNL     1      -3.441   2.333  -0.121  0.00  0.00    +0.135 C 
ATOM      9  C   UNL     1      -1.298   3.500   0.316  0.00  0.00    +0.135 C 
ATOM     10  C   UNL     1      -1.246  -3.603  -0.266  0.00  0.00    +0.135 C 
ATOM     11  C   UNL     1      -3.232  -2.368   0.556  0.00  0.00    +0.135 C 
ATOM     12  C   UNL     1      -4.002   3.675  -0.576  0.00  0.00    +0.164 C 
ATOM     13  C   UNL     1      -1.973   4.780  -0.163  0.00  0.00    +0.164 C 
ATOM     14  C   UNL     1      -4.074  -3.560   0.115  0.00  0.00    +0.164 C 
ATOM     15  C   UNL     1      -2.194  -4.730  -0.662  0.00  0.00    +0.164 C 
ATOM     16  C   UNL     1      -1.285   1.121  -0.313  0.00  0.00    +0.224 C 
ATOM     17  C   UNL     1      -1.284  -1.123  -0.289  0.00  0.00    +0.224 C 
ATOM     18  C   UNL     1       0.650  -0.002  -0.482  0.00  0.00    +0.164 C 
ENDROOT
BRANCH  18  21
ATOM     19  N   UNL     1       3.997  -0.024  -2.092  0.00  0.00    -0.229 NA
ATOM     20  N   UNL     1       6.192  -0.021  -1.167  0.00  0.00    -0.343 N 
ATOM     21  C   UNL     1       2.084  -0.004  -0.615  0.00  0.00    +0.110 C 
ATOM     22  C   UNL     1       2.928   0.005   0.490  0.00  0.00    +0.087 C 
ATOM     23  C   UNL     1       2.663  -0.019  -1.873  0.00  0.00    +0.112 C 
ATOM     24  C   UNL     1       4.306   0.000   0.305  0.00  0.00    +0.038 C 
ATOM     25  C   UNL     1       4.786  -0.014  -0.995  0.00  0.00    +0.125 C 
ATOM     26  H   UNL     1       6.577  -0.031  -2.073  0.00  0.00    +0.144 HD
ATOM     27  H   UNL     1       6.785  -0.015  -0.381  0.00  0.00    +0.144 HD
BRANCH  22  31
ATOM     28  F   UNL     1       3.378   0.022   2.825  0.00  0.00    -0.166 F 
ATOM     29  F   UNL     1       1.615   1.106   2.159  0.00  0.00    -0.166 F 
ATOM     30  F   UNL     1       1.610  -1.063   2.176  0.00  0.00    -0.166 F 
ATOM     31  C   UNL     1       2.390   0.017   1.885  0.00  0.00    +0.419 C 
ENDBRANCH  22  31
ENDBRANCH  18  21
TORSDOF 2
