REMARK  Name = 27304
REMARK  7 active torsions:
REMARK  status: ('A' for Active; 'I' for Inactive)
REMARK    1  A    between atoms: C_1  and  P_2
REMARK    2  A    between atoms: C_1  and  P_8
REMARK    3  A    between atoms: C_1  and  O_14
REMARK    4  A    between atoms: P_2  and  O_4
REMARK    5  A    between atoms: P_2  and  O_6
REMARK    6  A    between atoms: P_8  and  O_10
REMARK    7  A    between atoms: P_8  and  O_12
REMARK                            x       y       z     vdW  Elec       q    Type
REMARK                         _______ _______ _______ _____ _____    ______ ____
ROOT
ATOM      1  C   UNL     1       0.006  -0.513   0.518  0.00  0.00    +0.319 C 
ENDROOT
BRANCH   1   2
ATOM      2  P   UNL     1      -1.562   0.141  -0.068  0.00  0.00    +0.375 P 
ATOM      3  O   UNL     1      -1.681   0.238  -1.560  0.00  0.00    -0.255 OA
BRANCH   2   4
ATOM      4  O   UNL     1      -2.660  -0.799   0.654  0.00  0.00    -0.322 OA
ATOM      5  H   UNL     1      -3.550  -0.516   0.393  0.00  0.00    +0.220 HD
ENDBRANCH   2   4
BRANCH   2   6
ATOM      6  O   UNL     1      -1.692   1.543   0.725  0.00  0.00    -0.322 OA
ATOM      7  H   UNL     1      -2.520   1.981   0.473  0.00  0.00    +0.220 HD
ENDBRANCH   2   6
ENDBRANCH   1   2
BRANCH   1   8
ATOM      8  P   UNL     1       1.635   0.098   0.062  0.00  0.00    +0.375 P 
ATOM      9  O   UNL     1       2.780  -0.739   0.549  0.00  0.00    -0.255 OA
BRANCH   8  10
ATOM     10  O   UNL     1       1.537   0.272  -1.542  0.00  0.00    -0.322 OA
ATOM     11  H   UNL     1       2.383   0.603  -1.883  0.00  0.00    +0.220 HD
ENDBRANCH   8  10
BRANCH   8  12
ATOM     12  O   UNL     1       1.618   1.620   0.604  0.00  0.00    -0.322 OA
ATOM     13  H   UNL     1       2.467   2.044   0.403  0.00  0.00    +0.220 HD
ENDBRANCH   8  12
ENDBRANCH   1   8
BRANCH   1  14
ATOM     14  O   UNL     1       0.020  -1.860   0.058  0.00  0.00    -0.364 OA
ATOM     15  H   UNL     1      -0.830  -2.281   0.261  0.00  0.00    +0.212 HD
ENDBRANCH   1  14
TORSDOF 7
