REMARK  Name = 9064
REMARK  6 active torsions:
REMARK  status: ('A' for Active; 'I' for Inactive)
REMARK    1  A    between atoms: C_2  and  O_21
REMARK    2  A    between atoms: C_3  and  C_11
REMARK    3  A    between atoms: C_7  and  O_23
REMARK    4  A    between atoms: C_10  and  O_25
REMARK    5  A    between atoms: C_14  and  O_17
REMARK    6  A    between atoms: C_16  and  O_19
REMARK                            x       y       z     vdW  Elec       q    Type
REMARK                         _______ _______ _______ _____ _____    ______ ____
ROOT
ATOM      1  O   UNL     1       0.406   0.685  -0.357  0.00  0.00    -0.472 OA
ATOM      2  C   UNL     1       0.077  -1.655   0.352  0.00  0.00    +0.159 C 
ATOM      3  C   UNL     1      -0.338  -0.520  -0.596  0.00  0.00    +0.215 C 
ATOM      4  C   UNL     1       1.558  -1.963   0.151  0.00  0.00    +0.066 C 
ATOM      5  C   UNL     1       2.366  -0.703   0.071  0.00  0.00    +0.048 C 
ATOM      6  C   UNL     1       1.755   0.529  -0.186  0.00  0.00    +0.141 C 
ATOM      7  C   UNL     1       3.758  -0.755   0.227  0.00  0.00    +0.136 C 
ATOM      8  C   UNL     1       2.521   1.696  -0.248  0.00  0.00    +0.073 C 
ATOM      9  C   UNL     1       4.522   0.409   0.154  0.00  0.00    +0.073 C 
ATOM     10  C   UNL     1       3.904   1.635  -0.079  0.00  0.00    +0.140 C 
ENDROOT
BRANCH   3  11
ATOM     11  C   UNL     1      -1.808  -0.172  -0.452  0.00  0.00    +0.023 C 
ATOM     12  C   UNL     1      -2.303   0.248   0.781  0.00  0.00    +0.039 C 
ATOM     13  C   UNL     1      -2.657  -0.274  -1.552  0.00  0.00    +0.003 C 
ATOM     14  C   UNL     1      -3.655   0.568   0.914  0.00  0.00    +0.167 C 
ATOM     15  C   UNL     1      -4.008   0.046  -1.419  0.00  0.00    +0.040 C 
ATOM     16  C   UNL     1      -4.507   0.467  -0.186  0.00  0.00    +0.167 C 
BRANCH  14  17
ATOM     17  O   UNL     1      -4.130   0.979   2.122  0.00  0.00    -0.503 OA
ATOM     18  H   UNL     1      -3.551   1.044   2.856  0.00  0.00    +0.292 HD
ENDBRANCH  14  17
BRANCH  16  19
ATOM     19  O   UNL     1      -5.828   0.778  -0.069  0.00  0.00    -0.503 OA
ATOM     20  H   UNL     1      -6.171   1.061   0.756  0.00  0.00    +0.292 HD
ENDBRANCH  16  19
ENDBRANCH   3  11
BRANCH   2  21
ATOM     21  O   UNL     1      -0.677  -2.827   0.064  0.00  0.00    -0.380 OA
ATOM     22  H   UNL     1      -1.622  -2.643   0.188  0.00  0.00    +0.211 HD
ENDBRANCH   2  21
BRANCH   7  23
ATOM     23  O   UNL     1       4.393  -1.941   0.454  0.00  0.00    -0.506 OA
ATOM     24  H   UNL     1       3.899  -2.735   0.507  0.00  0.00    +0.292 HD
ENDBRANCH   7  23
BRANCH  10  25
ATOM     25  O   UNL     1       4.649   2.772  -0.147  0.00  0.00    -0.505 OA
ATOM     26  H   UNL     1       4.232   3.596  -0.304  0.00  0.00    +0.292 HD
ENDBRANCH  10  25
TORSDOF 6
