REMARK  Name = 5360697
REMARK  1 active torsions:
REMARK  status: ('A' for Active; 'I' for Inactive)
REMARK    1  A    between atoms: C_17  and  O_20
REMARK                            x       y       z     vdW  Elec       q    Type
REMARK                         _______ _______ _______ _____ _____    ______ ____
ROOT
ATOM      1  N   UNL     1      -2.256  -1.788  -0.223  0.00  0.00    +0.387 N 
ATOM      2  C   UNL     1      -0.566   0.613  -0.707  0.00  0.00    +0.015 C 
ATOM      3  C   UNL     1      -1.658   0.575   0.396  0.00  0.00    -0.015 C 
ATOM      4  C   UNL     1      -1.827  -0.880   0.869  0.00  0.00    -0.053 C 
ATOM      5  C   UNL     1      -1.062  -0.285  -1.873  0.00  0.00    -0.019 C 
ATOM      6  C   UNL     1      -0.453   2.080  -1.206  0.00  0.00    +0.004 C 
ATOM      7  C   UNL     1      -1.379   1.565   1.545  0.00  0.00    -0.002 C 
ATOM      8  C   UNL     1       0.758   0.021  -0.188  0.00  0.00    -0.024 C 
ATOM      9  C   UNL     1      -0.525  -1.393   1.521  0.00  0.00    +0.005 C 
ATOM     10  C   UNL     1      -1.410  -1.713  -1.423  0.00  0.00    -0.077 C 
ATOM     11  C   UNL     1      -0.168   3.074  -0.078  0.00  0.00    +0.000 C 
ATOM     12  C   UNL     1      -1.222   2.990   1.021  0.00  0.00    -0.000 C 
ATOM     13  C   UNL     1       0.752  -0.935   0.854  0.00  0.00    -0.028 C 
ATOM     14  C   UNL     1       1.992   0.353  -0.775  0.00  0.00    +0.032 C 
ATOM     15  C   UNL     1      -3.670  -1.617  -0.559  0.00  0.00    -0.101 C 
ATOM     16  C   UNL     1       1.963  -1.484   1.310  0.00  0.00    -0.002 C 
ATOM     17  C   UNL     1       3.188  -0.204  -0.316  0.00  0.00    +0.133 C 
ATOM     18  C   UNL     1       3.174  -1.118   0.730  0.00  0.00    +0.036 C 
ATOM     19  H   UNL     1      -2.133  -2.729   0.151  0.00  0.00    -0.080 HD
ENDROOT
BRANCH  17  20
ATOM     20  O   UNL     1       4.367   0.146  -0.898  0.00  0.00    -0.506 OA
ATOM     21  H   UNL     1       4.377   0.762  -1.604  0.00  0.00    +0.292 HD
ENDBRANCH  17  20
TORSDOF 1
