89670174
  -OEChem-05201910263D

 52 58  0     1  0  0  0  0  0999 V2000
   -6.8164    3.2790    1.0662 F   0  0  0  0  0  0  0  0  0  0  0  0
   -6.9198    3.2705   -1.1000 F   0  0  0  0  0  0  0  0  0  0  0  0
   -8.4193    2.2071    0.0614 F   0  0  0  0  0  0  0  0  0  0  0  0
    0.0632   -4.2278    0.4310 O   0  0  0  0  0  0  0  0  0  0  0  0
    4.7274   -1.3077    0.1274 O   0  0  0  0  0  0  0  0  0  0  0  0
    5.6636    4.7991    1.5409 O   0  0  0  0  0  0  0  0  0  0  0  0
   -2.7911   -0.1091   -0.2038 N   0  0  0  0  0  0  0  0  0  0  0  0
   -3.7804   -2.0988   -0.1493 N   0  0  0  0  0  0  0  0  0  0  0  0
    5.2038    3.4682   -0.2732 N   0  0  0  0  0  0  0  0  0  0  0  0
    4.6512    2.1574   -2.1630 N   0  0  0  0  0  0  0  0  0  0  0  0
   -0.2175   -1.8209    0.7548 C   0  0  1  0  0  0  0  0  0  0  0  0
   -1.2874   -2.1608   -0.2705 C   0  0  1  0  0  0  0  0  0  0  0  0
   -0.9120   -3.1769    0.7860 C   0  0  1  0  0  0  0  0  0  0  0  0
    1.1984   -2.2038    0.5173 C   0  0  0  0  0  0  0  0  0  0  0  0
   -2.6296   -1.4667   -0.2077 C   0  0  0  0  0  0  0  0  0  0  0  0
    1.2924   -3.5919    0.3497 C   0  0  0  0  0  0  0  0  0  0  0  0
    2.3456   -1.4303    0.4445 C   0  0  0  0  0  0  0  0  0  0  0  0
    2.4879   -4.2393    0.1078 C   0  0  0  0  0  0  0  0  0  0  0  0
    3.5700   -2.0631    0.2041 C   0  0  0  0  0  0  0  0  0  0  0  0
   -4.1357    0.1523   -0.1389 C   0  0  0  0  0  0  0  0  0  0  0  0
   -4.7316   -1.1055   -0.1058 C   0  0  0  0  0  0  0  0  0  0  0  0
    3.6398   -3.4565    0.0371 C   0  0  0  0  0  0  0  0  0  0  0  0
   -4.8598    1.3445   -0.1072 C   0  0  0  0  0  0  0  0  0  0  0  0
   -6.1319   -1.1983   -0.0368 C   0  0  0  0  0  0  0  0  0  0  0  0
   -6.2525    1.2335   -0.0384 C   0  0  0  0  0  0  0  0  0  0  0  0
   -6.8792   -0.0143   -0.0037 C   0  0  0  0  0  0  0  0  0  0  0  0
    4.6855   -0.1590   -0.6041 C   0  0  0  0  0  0  0  0  0  0  0  0
    4.9489    1.0805   -0.0192 C   0  0  0  0  0  0  0  0  0  0  0  0
   -7.0832    2.4742   -0.0035 C   0  0  0  0  0  0  0  0  0  0  0  0
    5.3662    1.1979    1.4154 C   0  0  0  0  0  0  0  0  0  0  0  0
    4.3892   -0.2359   -1.9595 C   0  0  0  0  0  0  0  0  0  0  0  0
    4.9170    2.2099   -0.8363 C   0  0  0  0  0  0  0  0  0  0  0  0
    4.9651    2.5492    1.9857 C   0  0  0  0  0  0  0  0  0  0  0  0
    5.3447    3.7031    1.0801 C   0  0  0  0  0  0  0  0  0  0  0  0
    4.3876    0.9401   -2.6885 C   0  0  0  0  0  0  0  0  0  0  0  0
   -0.4547   -1.1247    1.5509 H   0  0  0  0  0  0  0  0  0  0  0  0
   -0.9536   -2.3627   -1.2841 H   0  0  0  0  0  0  0  0  0  0  0  0
   -1.6001   -3.3815    1.5969 H   0  0  0  0  0  0  0  0  0  0  0  0
    2.2734   -0.3572    0.5914 H   0  0  0  0  0  0  0  0  0  0  0  0
   -2.0521    0.5803   -0.2418 H   0  0  0  0  0  0  0  0  0  0  0  0
    2.5351   -5.3140   -0.0243 H   0  0  0  0  0  0  0  0  0  0  0  0
    4.5991   -3.9318   -0.1514 H   0  0  0  0  0  0  0  0  0  0  0  0
   -4.3631    2.3084   -0.1349 H   0  0  0  0  0  0  0  0  0  0  0  0
   -6.6281   -2.1632   -0.0095 H   0  0  0  0  0  0  0  0  0  0  0  0
   -7.9625   -0.0923    0.0495 H   0  0  0  0  0  0  0  0  0  0  0  0
    4.9117    0.4114    2.0279 H   0  0  0  0  0  0  0  0  0  0  0  0
    6.4552    1.0772    1.4683 H   0  0  0  0  0  0  0  0  0  0  0  0
    4.1861   -1.1813   -2.4508 H   0  0  0  0  0  0  0  0  0  0  0  0
    5.4379    2.6930    2.9634 H   0  0  0  0  0  0  0  0  0  0  0  0
    3.8781    2.5943    2.1282 H   0  0  0  0  0  0  0  0  0  0  0  0
    5.3115    4.2441   -0.9195 H   0  0  0  0  0  0  0  0  0  0  0  0
    4.1730    0.9340   -3.7521 H   0  0  0  0  0  0  0  0  0  0  0  0
  1 29  1  0  0  0  0
  2 29  1  0  0  0  0
  3 29  1  0  0  0  0
  4 13  1  0  0  0  0
  4 16  1  0  0  0  0
  5 19  1  0  0  0  0
  5 27  1  0  0  0  0
  6 34  2  0  0  0  0
  7 15  1  0  0  0  0
  7 20  1  0  0  0  0
  7 40  1  0  0  0  0
  8 15  2  0  0  0  0
  8 21  1  0  0  0  0
  9 32  1  0  0  0  0
  9 34  1  0  0  0  0
  9 51  1  0  0  0  0
 10 32  2  0  0  0  0
 10 35  1  0  0  0  0
 11 12  1  0  0  0  0
 11 13  1  0  0  0  0
 11 14  1  0  0  0  0
 11 36  1  0  0  0  0
 12 13  1  0  0  0  0
 12 15  1  0  0  0  0
 12 37  1  0  0  0  0
 13 38  1  0  0  0  0
 14 16  2  0  0  0  0
 14 17  1  0  0  0  0
 16 18  1  0  0  0  0
 17 19  2  0  0  0  0
 17 39  1  0  0  0  0
 18 22  2  0  0  0  0
 18 41  1  0  0  0  0
 19 22  1  0  0  0  0
 20 21  2  0  0  0  0
 20 23  1  0  0  0  0
 21 24  1  0  0  0  0
 22 42  1  0  0  0  0
 23 25  2  0  0  0  0
 23 43  1  0  0  0  0
 24 26  2  0  0  0  0
 24 44  1  0  0  0  0
 25 26  1  0  0  0  0
 25 29  1  0  0  0  0
 26 45  1  0  0  0  0
 27 28  2  0  0  0  0
 27 31  1  0  0  0  0
 28 30  1  0  0  0  0
 28 32  1  0  0  0  0
 30 33  1  0  0  0  0
 30 46  1  0  0  0  0
 30 47  1  0  0  0  0
 31 35  2  0  0  0  0
 31 48  1  0  0  0  0
 33 34  1  0  0  0  0
 33 49  1  0  0  0  0
 33 50  1  0  0  0  0
 35 52  1  0  0  0  0
M  END
> <DATABASE_ID>
DB14773

> <DATABASE_NAME>
drugbank

> <ORIGINAL_SOURCE>
PUBCHEM

> <ORIGINAL_SOURCE_URL>
https://pubchem.ncbi.nlm.nih.gov/rest/pug/compound/inchikey/NGFFVZQXSRKHBM-FKBYEOEOSA-N/SDF?record_type=3d

> <SMILES>
FC(F)(F)C1=CC2=C(C=C1)N=C(N2)[C@@H]1[C@H]2OC3=C(C=C(OC4=C5CCC(=O)NC5=NC=C4)C=C3)[C@@H]12

> <INCHI_IDENTIFIER>
InChI=1S/C25H17F3N4O3/c26-25(27,28)11-1-4-15-16(9-11)31-24(30-15)21-20-14-10-12(2-5-17(14)35-22(20)21)34-18-7-8-29-23-13(18)3-6-19(33)32-23/h1-2,4-5,7-10,20-22H,3,6H2,(H,30,31)(H,29,32,33)/t20-,21-,22-/m0/s1

> <INCHI_KEY>
NGFFVZQXSRKHBM-FKBYEOEOSA-N

> <FORMULA>
C25H17F3N4O3

> <MOLECULAR_WEIGHT>
478.431

> <EXACT_MASS>
478.125274912

> <JCHEM_ACCEPTOR_COUNT>
4

> <JCHEM_ATOM_COUNT>
52

> <JCHEM_AVERAGE_POLARIZABILITY>
45.64957684336778

> <JCHEM_BIOAVAILABILITY>
1

> <JCHEM_DONOR_COUNT>
2

> <JCHEM_FORMAL_CHARGE>
0

> <JCHEM_GHOSE_FILTER>
1

> <JCHEM_IUPAC>
5-{[(2R,3R,4S)-3-[6-(trifluoromethyl)-1H-1,3-benzodiazol-2-yl]-5-oxatricyclo[4.4.0.0^{2,4}]deca-1(6),7,9-trien-9-yl]oxy}-1,2,3,4-tetrahydro-1,8-naphthyridin-2-one

> <ALOGPS_LOGP>
4.24

> <JCHEM_LOGP>
4.089530291000001

> <ALOGPS_LOGS>
-4.77

> <JCHEM_MDDR_LIKE_RULE>
0

> <JCHEM_NUMBER_OF_RINGS>
7

> <JCHEM_PHYSIOLOGICAL_CHARGE>
0

> <JCHEM_PKA>
12.129520432414514

> <JCHEM_PKA_STRONGEST_ACIDIC>
11.523254454383387

> <JCHEM_PKA_STRONGEST_BASIC>
5.726240998255387

> <JCHEM_POLAR_SURFACE_AREA>
89.13000000000001

> <JCHEM_REFRACTIVITY>
119.5914

> <JCHEM_ROTATABLE_BOND_COUNT>
4

> <JCHEM_RULE_OF_FIVE>
1

> <ALOGPS_SOLUBILITY>
8.21e-03 g/l

> <JCHEM_TRADITIONAL_IUPAC>
6-[8-({4-[4-(oxetan-3-yl)piperazin-1-yl]phenyl}amino)imidazo[1,2-a]pyrazin-6-yl]pyrazin-2-amine

> <JCHEM_VEBER_RULE>
0

> <DRUGBANK_ID>
DB14773

> <DRUG_GROUPS>
investigational

> <GENERIC_NAME>
Lifirafenib

$$$$
