REMARK  Name = 44511587
REMARK  4 active torsions:
REMARK  status: ('A' for Active; 'I' for Inactive)
REMARK    1  A    between atoms: C_3  and  N_11
REMARK    2  A    between atoms: C_4  and  C_22
REMARK    3  A    between atoms: C_12  and  C_16
REMARK    4  A    between atoms: C_22  and  C_24
REMARK                            x       y       z     vdW  Elec       q    Type
REMARK                         _______ _______ _______ _____ _____    ______ ____
ROOT
ATOM      1  N   UNL     1       0.683   0.552   3.879  0.00  0.00    +0.390 N 
ATOM      2  C   UNL     1      -0.462   2.259   2.282  0.00  0.00    +0.012 C 
ATOM      3  C   UNL     1      -0.520   0.829   1.702  0.00  0.00    +0.053 C 
ATOM      4  C   UNL     1       0.352  -0.103   2.583  0.00  0.00    -0.035 C 
ATOM      5  C   UNL     1       1.006   2.640   2.549  0.00  0.00    -0.021 C 
ATOM      6  C   UNL     1      -1.175   2.212   3.643  0.00  0.00    -0.021 C 
ATOM      7  C   UNL     1       1.604   1.678   3.590  0.00  0.00    -0.077 C 
ATOM      8  C   UNL     1      -0.534   1.115   4.510  0.00  0.00    -0.077 C 
ATOM      9  H   UNL     1       1.098  -0.136   4.508  0.00  0.00    -0.080 HD
ENDROOT
BRANCH   3  11
ATOM     10  O   UNL     1      -2.183   1.229  -0.604  0.00  0.00    -0.270 OA
ATOM     11  N   UNL     1      -0.101   0.794   0.321  0.00  0.00    -0.304 N 
ATOM     12  C   UNL     1      -0.983   1.000  -0.729  0.00  0.00    +0.246 C 
ATOM     13  H   UNL     1       0.846   0.617   0.118  0.00  0.00    +0.150 HD
BRANCH  12  16
ATOM     14  F   UNL     1       2.795   1.370  -3.769  0.00  0.00    -0.204 F 
ATOM     15  F   UNL     1      -1.430   0.095  -5.486  0.00  0.00    -0.204 F 
ATOM     16  C   UNL     1      -0.400   0.905  -2.093  0.00  0.00    +0.058 C 
ATOM     17  C   UNL     1      -1.204   0.537  -3.171  0.00  0.00    +0.034 C 
ATOM     18  C   UNL     1       0.951   1.187  -2.295  0.00  0.00    +0.034 C 
ATOM     19  C   UNL     1       1.498   1.099  -3.575  0.00  0.00    +0.143 C 
ATOM     20  C   UNL     1      -0.658   0.450  -4.451  0.00  0.00    +0.143 C 
ATOM     21  C   UNL     1       0.693   0.731  -4.653  0.00  0.00    +0.059 C 
ENDBRANCH  12  16
ENDBRANCH   3  11
BRANCH   4  22
ATOM     22  C   UNL     1      -0.311  -1.468   2.791  0.00  0.00    +0.009 C 
BRANCH  22  24
ATOM     23  N   UNL     1       1.189  -4.019   0.436  0.00  0.00    -0.243 NA
ATOM     24  C   UNL     1      -0.130  -2.356   1.593  0.00  0.00    -0.005 C 
ATOM     25  C   UNL     1      -1.055  -2.357   0.555  0.00  0.00    -0.001 C 
ATOM     26  C   UNL     1       0.966  -3.197   1.486  0.00  0.00    +0.095 C 
ATOM     27  C   UNL     1      -0.860  -3.188  -0.542  0.00  0.00    +0.020 C 
ATOM     28  C   UNL     1       0.268  -3.993  -0.553  0.00  0.00    +0.099 C 
ENDBRANCH  22  24
ENDBRANCH   4  22
TORSDOF 4
