REMARK  Name = 58212050
REMARK  2 active torsions:
REMARK  status: ('A' for Active; 'I' for Inactive)
REMARK    1  A    between atoms: C_2  and  C_13
REMARK    2  A    between atoms: C_10  and  C_26
REMARK                            x       y       z     vdW  Elec       q    Type
REMARK                         _______ _______ _______ _____ _____    ______ ____
ROOT
ATOM      1  N   UNL     1      -0.506  -3.710   0.404  0.00  0.00    +0.389 N 
ATOM      2  C   UNL     1      -1.384  -1.682  -0.712  0.00  0.00    +0.023 C 
ATOM      3  C   UNL     1      -1.668  -2.820   0.298  0.00  0.00    -0.068 C 
ATOM      4  C   UNL     1      -0.005  -1.060  -0.530  0.00  0.00    -0.026 C 
ATOM      5  C   UNL     1       0.957  -1.705   0.271  0.00  0.00    -0.047 C 
ATOM      6  C   UNL     1       0.621  -2.981   1.008  0.00  0.00    -0.050 C 
ATOM      7  C   UNL     1       0.359   0.109  -1.219  0.00  0.00    -0.004 C 
ATOM      8  C   UNL     1       2.230  -1.136   0.425  0.00  0.00    -0.005 C 
ATOM      9  C   UNL     1      -0.831  -4.893   1.201  0.00  0.00    -0.100 C 
ATOM     10  C   UNL     1       2.565   0.041  -0.242  0.00  0.00    +0.019 C 
ATOM     11  C   UNL     1       1.632   0.659  -1.069  0.00  0.00    +0.001 C 
ATOM     12  H   UNL     1      -0.242  -4.021  -0.531  0.00  0.00    -0.079 HD
ENDROOT
BRANCH   2  13
ATOM     13  C   UNL     1      -2.533  -0.681  -0.676  0.00  0.00    -0.020 C 
ATOM     14  C   UNL     1      -2.786   0.048   0.486  0.00  0.00    -0.004 C 
ATOM     15  C   UNL     1      -3.329  -0.496  -1.802  0.00  0.00    -0.004 C 
ATOM     16  C   UNL     1      -3.841   0.973   0.536  0.00  0.00    -0.000 C 
ATOM     17  C   UNL     1      -4.651   1.161  -0.609  0.00  0.00    -0.000 C 
ATOM     18  C   UNL     1      -4.382   0.419  -1.770  0.00  0.00    -0.000 C 
ATOM     19  C   UNL     1      -4.110   1.715   1.698  0.00  0.00    -0.000 C 
ATOM     20  C   UNL     1      -5.707   2.086  -0.559  0.00  0.00    -0.000 C 
ATOM     21  C   UNL     1      -5.163   2.630   1.730  0.00  0.00    -0.000 C 
ATOM     22  C   UNL     1      -5.960   2.815   0.604  0.00  0.00    -0.000 C 
ENDBRANCH   2  13
BRANCH  10  26
ATOM     23  N   UNL     1       4.910  -0.178  -0.455  0.00  0.00    -0.147 NA
ATOM     24  N   UNL     1       6.183   0.286  -0.336  0.00  0.00    -0.133 NA
ATOM     25  N   UNL     1       7.711   2.011   0.277  0.00  0.00    -0.341 N 
ATOM     26  C   UNL     1       3.883   0.615  -0.081  0.00  0.00    +0.103 C 
ATOM     27  C   UNL     1       4.062   1.888   0.422  0.00  0.00    +0.024 C 
ATOM     28  C   UNL     1       5.357   2.360   0.543  0.00  0.00    +0.037 C 
ATOM     29  C   UNL     1       6.387   1.528   0.153  0.00  0.00    +0.147 C 
ATOM     30  H   UNL     1       8.469   1.443   0.008  0.00  0.00    +0.144 HD
ATOM     31  H   UNL     1       7.874   2.914   0.633  0.00  0.00    +0.144 HD
ENDBRANCH  10  26
TORSDOF 2
