REMARK  Name = 8400
REMARK  4 active torsions:
REMARK  status: ('A' for Active; 'I' for Inactive)
REMARK    1  A    between atoms: C_1  and  C_2
REMARK    2  A    between atoms: C_1  and  O_8
REMARK    3  A    between atoms: C_1  and  C_11
REMARK    4  A    between atoms: C_11  and  C_12
REMARK                            x       y       z     vdW  Elec       q    Type
REMARK                         _______ _______ _______ _____ _____    ______ ____
ROOT
ATOM      1  C   UNL     1      -0.485  -0.774   0.036  0.00  0.00    +0.194 C 
ENDROOT
BRANCH   1   2
ATOM      2  C   UNL     1      -1.942  -0.370  -0.005  0.00  0.00    +0.012 C 
ATOM      3  C   UNL     1      -2.565   0.036   1.162  0.00  0.00    -0.002 C 
ATOM      4  C   UNL     1      -2.623  -0.415  -1.210  0.00  0.00    -0.002 C 
ATOM      5  C   UNL     1      -3.909   0.409   1.124  0.00  0.00    -0.000 C 
ATOM      6  C   UNL     1      -3.967  -0.043  -1.248  0.00  0.00    -0.000 C 
ATOM      7  C   UNL     1      -4.609   0.369  -0.081  0.00  0.00    -0.000 C 
ENDBRANCH   1   2
BRANCH   1   8
ATOM      8  O   UNL     1      -0.194  -1.363   1.300  0.00  0.00    -0.373 OA
ATOM      9  H   UNL     1      -0.799  -2.105   1.458  0.00  0.00    +0.211 HD
ENDBRANCH   1   8
BRANCH   1  11
ATOM     10  O   UNL     1       0.009   1.529  -0.484  0.00  0.00    -0.288 OA
ATOM     11  C   UNL     1       0.480   0.406  -0.213  0.00  0.00    +0.204 C 
BRANCH  11  12
ATOM     12  C   UNL     1       1.920   0.217  -0.136  0.00  0.00    +0.037 C 
ATOM     13  C   UNL     1       2.479  -1.019  -0.460  0.00  0.00    +0.003 C 
ATOM     14  C   UNL     1       2.741   1.272   0.260  0.00  0.00    +0.003 C 
ATOM     15  C   UNL     1       3.861  -1.200  -0.386  0.00  0.00    +0.000 C 
ATOM     16  C   UNL     1       4.122   1.091   0.333  0.00  0.00    +0.000 C 
ATOM     17  C   UNL     1       4.682  -0.144   0.010  0.00  0.00    +0.000 C 
ENDBRANCH  11  12
ENDBRANCH   1  11
TORSDOF 4
