REMARK  Name = 118161062
REMARK  4 active torsions:
REMARK  status: ('A' for Active; 'I' for Inactive)
REMARK    1  A    between atoms: N_1  and  C_26
REMARK    2  A    between atoms: C_7  and  C_15
REMARK    3  A    between atoms: C_21  and  N_28
REMARK    4  A    between atoms: N_27  and  C_35
REMARK                            x       y       z     vdW  Elec       q    Type
REMARK                         _______ _______ _______ _____ _____    ______ ____
ROOT
ATOM      1  N   UNL     1       1.607  -2.342   0.604  0.00  0.00    -0.286 N 
ATOM      2  N   UNL     1       5.100  -1.637  -0.395  0.00  0.00    -0.260 N 
ATOM      3  N   UNL     1       2.780  -0.335   0.370  0.00  0.00    -0.384 NA
ATOM      4  N   UNL     1       4.140  -3.642  -0.219  0.00  0.00    -0.224 NA
ATOM      5  C   UNL     1       2.757  -1.652   0.302  0.00  0.00    +0.216 C 
ATOM      6  C   UNL     1       3.967  -2.347  -0.095  0.00  0.00    +0.180 C 
ATOM      7  C   UNL     1       3.953   0.354   0.064  0.00  0.00    +0.162 C 
ATOM      8  C   UNL     1       5.095  -0.260  -0.318  0.00  0.00    +0.159 C 
ATOM      9  C   UNL     1       6.065  -2.542  -0.737  0.00  0.00    +0.088 C 
ATOM     10  C   UNL     1       5.449  -3.771  -0.620  0.00  0.00    +0.117 C 
ATOM     11  H   UNL     1       1.727  -3.244   0.978  0.00  0.00    +0.155 HD
ENDROOT
BRANCH   7  15
ATOM     12  N   UNL     1       5.044   2.493  -0.150  0.00  0.00    -0.386 NA
ATOM     13  N   UNL     1       2.695   3.834   0.592  0.00  0.00    -0.257 NA
ATOM     14  N   UNL     1       6.132   4.608  -0.363  0.00  0.00    -0.335 N 
ATOM     15  C   UNL     1       3.908   1.832   0.146  0.00  0.00    +0.178 C 
ATOM     16  C   UNL     1       2.754   2.490   0.510  0.00  0.00    +0.128 C 
ATOM     17  C   UNL     1       4.985   3.837  -0.069  0.00  0.00    +0.179 C 
ATOM     18  C   UNL     1       3.831   4.496   0.295  0.00  0.00    +0.199 C 
ATOM     19  H   UNL     1       6.970   4.163  -0.626  0.00  0.00    +0.144 HD
ATOM     20  H   UNL     1       6.093   5.590  -0.305  0.00  0.00    +0.144 HD
ENDBRANCH   7  15
BRANCH   1  26
ATOM     21  C   UNL     1      -2.360  -1.049   0.118  0.00  0.00    +0.048 C 
ATOM     22  C   UNL     1      -1.365  -0.586  -0.743  0.00  0.00    +0.016 C 
ATOM     23  C   UNL     1      -2.037  -1.941   1.141  0.00  0.00    +0.016 C 
ATOM     24  C   UNL     1      -0.048  -1.016  -0.583  0.00  0.00    +0.016 C 
ATOM     25  C   UNL     1      -0.720  -2.371   1.301  0.00  0.00    +0.016 C 
ATOM     26  C   UNL     1       0.275  -1.909   0.440  0.00  0.00    +0.050 C 
BRANCH  21  28
ATOM     27  N   UNL     1      -6.369   0.337  -0.117  0.00  0.00    +0.394 N 
ATOM     28  N   UNL     1      -3.681  -0.617  -0.043  0.00  0.00    -0.312 N 
ATOM     29  C   UNL     1      -5.274   1.170  -0.630  0.00  0.00    -0.055 C 
ATOM     30  C   UNL     1      -6.079  -1.079  -0.368  0.00  0.00    -0.055 C 
ATOM     31  C   UNL     1      -3.955   0.822   0.063  0.00  0.00    +0.068 C 
ATOM     32  C   UNL     1      -4.787  -1.504   0.333  0.00  0.00    +0.068 C 
ATOM     33  H   UNL     1      -6.463   0.488   0.887  0.00  0.00    -0.079 HD
BRANCH  27  35
ATOM     34  O   UNL     1      -9.330   1.448   0.244  0.00  0.00    -0.358 OA
ATOM     35  C   UNL     1      -7.622   0.706  -0.798  0.00  0.00    +0.002 C 
ATOM     36  C   UNL     1      -8.804   0.123  -0.024  0.00  0.00    +0.124 C 
ATOM     37  C   UNL     1      -8.107   2.050  -0.252  0.00  0.00    +0.124 C 
ENDBRANCH  27  35
ENDBRANCH  21  28
ENDBRANCH   1  26
TORSDOF 4
