REMARK  Name = 24946280
REMARK  8 active torsions:
REMARK  status: ('A' for Active; 'I' for Inactive)
REMARK    1  A    between atoms: C_3  and  C_27
REMARK    2  A    between atoms: C_10  and  C_15
REMARK    3  A    between atoms: C_12  and  S_23
REMARK    4  A    between atoms: N_14  and  C_17
REMARK    5  A    between atoms: S_23  and  C_24
REMARK    6  A    between atoms: C_24  and  C_25
REMARK    7  A    between atoms: C_27  and  C_29
REMARK    8  A    between atoms: C_29  and  O_30
REMARK                            x       y       z     vdW  Elec       q    Type
REMARK                         _______ _______ _______ _____ _____    ______ ____
ROOT
ATOM      1  N   UNL     1       2.538  -0.289   0.575  0.00  0.00    -0.284 N 
ATOM      2  N   UNL     1       0.467  -1.228  -0.086  0.00  0.00    -0.384 NA
ATOM      3  C   UNL     1       4.883   0.487   0.630  0.00  0.00    +0.031 C 
ATOM      4  C   UNL     1       5.251  -0.761   1.439  0.00  0.00    +0.004 C 
ATOM      5  C   UNL     1       3.643   0.231  -0.240  0.00  0.00    +0.094 C 
ATOM      6  C   UNL     1       4.059  -1.222   2.270  0.00  0.00    +0.022 C 
ATOM      7  C   UNL     1       2.833  -1.472   1.396  0.00  0.00    +0.093 C 
ATOM      8  C   UNL     1       1.220  -0.127   0.132  0.00  0.00    +0.183 C 
ATOM      9  C   UNL     1       0.770   1.170  -0.056  0.00  0.00    +0.044 C 
ATOM     10  C   UNL     1      -1.343   0.240  -0.730  0.00  0.00    +0.157 C 
ATOM     11  C   UNL     1      -0.537   1.348  -0.495  0.00  0.00    -0.006 C 
ATOM     12  C   UNL     1      -0.798  -1.016  -0.512  0.00  0.00    +0.148 C 
ENDROOT
BRANCH  10  15
ATOM     13  O   UNL     1      -3.091  -0.025  -2.270  0.00  0.00    -0.274 OA
ATOM     14  N   UNL     1      -3.549   1.196  -0.352  0.00  0.00    -0.305 N 
ATOM     15  C   UNL     1      -2.709   0.455  -1.190  0.00  0.00    +0.233 C 
ATOM     16  H   UNL     1      -3.177   1.546   0.490  0.00  0.00    +0.149 HD
BRANCH  14  17
ATOM     17  C   UNL     1      -4.935   1.474  -0.657  0.00  0.00    +0.072 C 
ATOM     18  C   UNL     1      -5.846   0.350  -0.153  0.00  0.00    +0.020 C 
ATOM     19  C   UNL     1      -5.362   2.832  -0.090  0.00  0.00    +0.020 C 
ATOM     20  C   UNL     1      -5.972   0.338   1.370  0.00  0.00    +0.002 C 
ATOM     21  C   UNL     1      -5.488   2.816   1.434  0.00  0.00    +0.002 C 
ATOM     22  C   UNL     1      -6.409   1.696   1.910  0.00  0.00    +0.000 C 
ENDBRANCH  14  17
ENDBRANCH  10  15
BRANCH  12  23
ATOM     23  S   UNL     1      -1.759  -2.500  -0.787  0.00  0.00    -0.086 S 
BRANCH  23  24
ATOM     24  C   UNL     1      -0.562  -3.791  -0.351  0.00  0.00    +0.064 C 
BRANCH  24  25
ATOM     25  C   UNL     1      -1.183  -5.174  -0.517  0.00  0.00    +0.012 C 
ATOM     26  C   UNL     1      -0.189  -6.268  -0.158  0.00  0.00    +0.001 C 
ENDBRANCH  24  25
ENDBRANCH  23  24
ENDBRANCH  12  23
BRANCH   3  27
ATOM     27  C   UNL     1       6.062   0.940  -0.230  0.00  0.00    +0.111 C 
BRANCH  27  29
ATOM     28  O   UNL     1       5.050   3.156  -0.294  0.00  0.00    -0.250 OA
ATOM     29  C   UNL     1       5.947   2.391  -0.610  0.00  0.00    +0.314 C 
BRANCH  29  30
ATOM     30  O   UNL     1       7.009   2.749  -1.377  0.00  0.00    -0.480 OA
ATOM     31  H   UNL     1       7.669   2.117  -1.588  0.00  0.00    +0.295 HD
ENDBRANCH  29  30
ENDBRANCH  27  29
ENDBRANCH   3  27
TORSDOF 8
