REMARK  Name = 16623
REMARK  10 active torsions:
REMARK  status: ('A' for Active; 'I' for Inactive)
REMARK    1  A    between atoms: C_6  and  O_21
REMARK    2  A    between atoms: C_6  and  C_26
REMARK    3  A    between atoms: C_9  and  O_23
REMARK    4  A    between atoms: C_26  and  C_27
REMARK    5  A    between atoms: C_27  and  O_28
REMARK    6  A    between atoms: O_28  and  C_30
REMARK    7  A    between atoms: C_30  and  C_31
REMARK    8  A    between atoms: C_31  and  C_32
REMARK    9  A    between atoms: C_32  and  C_34
REMARK   10  A    between atoms: C_34  and  O_35
REMARK                            x       y       z     vdW  Elec       q    Type
REMARK                         _______ _______ _______ _____ _____    ______ ____
ROOT
ATOM      1  O   UNL     1      -7.631   2.438  -1.414  0.00  0.00    -0.291 OA
ATOM      2  C   UNL     1      -0.157  -1.130   0.254  0.00  0.00    +0.031 C 
ATOM      3  C   UNL     1      -1.425  -1.807  -0.308  0.00  0.00    +0.003 C 
ATOM      4  C   UNL     1      -2.731  -1.258   0.287  0.00  0.00    +0.003 C 
ATOM      5  C   UNL     1      -2.824   0.270  -0.026  0.00  0.00    +0.030 C 
ATOM      6  C   UNL     1       0.927  -1.954  -0.494  0.00  0.00    +0.143 C 
ATOM      7  C   UNL     1      -0.234   0.368  -0.105  0.00  0.00    +0.032 C 
ATOM      8  C   UNL     1      -4.189   0.915   0.452  0.00  0.00    +0.018 C 
ATOM      9  C   UNL     1      -1.533   1.043   0.388  0.00  0.00    +0.111 C 
ATOM     10  C   UNL     1      -1.121  -3.297  -0.172  0.00  0.00    +0.003 C 
ATOM     11  C   UNL     1       0.390  -3.404  -0.462  0.00  0.00    +0.034 C 
ATOM     12  C   UNL     1      -3.940  -2.000  -0.304  0.00  0.00    +0.004 C 
ATOM     13  C   UNL     1       0.012  -1.320   1.787  0.00  0.00    +0.003 C 
ATOM     14  C   UNL     1      -5.357   0.057  -0.056  0.00  0.00    -0.042 C 
ATOM     15  C   UNL     1      -5.256  -1.427   0.199  0.00  0.00    +0.022 C 
ATOM     16  C   UNL     1      -4.282   2.348  -0.150  0.00  0.00    +0.012 C 
ATOM     17  C   UNL     1      -4.326   1.006   1.988  0.00  0.00    +0.004 C 
ATOM     18  C   UNL     1      -5.684   2.934  -0.112  0.00  0.00    +0.069 C 
ATOM     19  C   UNL     1      -6.447   0.553  -0.664  0.00  0.00    +0.029 C 
ATOM     20  C   UNL     1      -6.652   2.013  -0.805  0.00  0.00    +0.173 C 
ENDROOT
BRANCH   6  21
ATOM     21  O   UNL     1       1.054  -1.530  -1.848  0.00  0.00    -0.380 OA
ATOM     22  H   UNL     1       0.193  -1.596  -2.289  0.00  0.00    +0.211 HD
ENDBRANCH   6  21
BRANCH   9  23
ATOM     23  O   UNL     1      -1.466   1.222   1.796  0.00  0.00    -0.384 OA
ATOM     24  H   UNL     1      -2.281   1.646   2.107  0.00  0.00    +0.210 HD
ENDBRANCH   9  23
BRANCH   6  26
ATOM     25  O   UNL     1       2.911  -2.784   0.533  0.00  0.00    -0.290 OA
ATOM     26  C   UNL     1       2.303  -1.813   0.086  0.00  0.00    +0.218 C 
BRANCH  26  27
ATOM     27  C   UNL     1       2.890  -0.417   0.086  0.00  0.00    +0.274 C 
BRANCH  27  28
ATOM     28  O   UNL     1       4.296  -0.468  -0.030  0.00  0.00    -0.440 OA
BRANCH  28  30
ATOM     29  O   UNL     1       4.405   1.835   0.040  0.00  0.00    -0.250 OA
ATOM     30  C   UNL     1       4.949   0.742  -0.041  0.00  0.00    +0.318 C 
BRANCH  30  31
ATOM     31  C   UNL     1       6.439   0.511  -0.173  0.00  0.00    +0.121 C 
BRANCH  31  32
ATOM     32  C   UNL     1       7.253   1.798  -0.108  0.00  0.00    +0.121 C 
BRANCH  32  34
ATOM     33  O   UNL     1       9.209   0.395  -0.308  0.00  0.00    -0.250 OA
ATOM     34  C   UNL     1       8.733   1.516  -0.187  0.00  0.00    +0.314 C 
BRANCH  34  35
ATOM     35  O   UNL     1       9.484   2.643  -0.132  0.00  0.00    -0.480 OA
ATOM     36  H   UNL     1       9.069   3.478  -0.039  0.00  0.00    +0.295 HD
ENDBRANCH  34  35
ENDBRANCH  32  34
ENDBRANCH  31  32
ENDBRANCH  30  31
ENDBRANCH  28  30
ENDBRANCH  27  28
ENDBRANCH  26  27
ENDBRANCH   6  26
TORSDOF 10
