REMARK  Name = 11315474
REMARK  6 active torsions:
REMARK  status: ('A' for Active; 'I' for Inactive)
REMARK    1  A    between atoms: N_2  and  C_25
REMARK    2  A    between atoms: C_3  and  C_6
REMARK    3  A    between atoms: N_11  and  C_13
REMARK    4  A    between atoms: C_13  and  C_15
REMARK    5  A    between atoms: C_20  and  C_26
REMARK    6  A    between atoms: C_26  and  C_32
REMARK                            x       y       z     vdW  Elec       q    Type
REMARK                         _______ _______ _______ _____ _____    ______ ____
ROOT
ATOM      1  O   UNL     1       1.177   1.585  -1.852  0.00  0.00    -0.270 OA
ATOM      2  N   UNL     1       0.443   1.642   0.381  0.00  0.00    -0.280 N 
ATOM      3  C   UNL     1       1.368   1.799  -0.659  0.00  0.00    +0.252 C 
ATOM      4  H   UNL     1       0.768   1.861   1.284  0.00  0.00    +0.155 HD
ENDROOT
BRANCH   3   6
ATOM      5  N   UNL     1       4.949   1.737   0.461  0.00  0.00    -0.229 NA
ATOM      6  C   UNL     1       2.723   2.249  -0.245  0.00  0.00    +0.085 C 
ATOM      7  C   UNL     1       3.709   1.357   0.081  0.00  0.00    +0.133 C 
ATOM      8  C   UNL     1       2.972   3.601  -0.195  0.00  0.00    +0.009 C 
ATOM      9  C   UNL     1       4.237   4.032   0.192  0.00  0.00    +0.021 C 
ATOM     10  C   UNL     1       5.182   3.068   0.506  0.00  0.00    +0.100 C 
ATOM     11  N   UNL     1       3.434  -0.033   0.023  0.00  0.00    -0.314 N 
ATOM     12  H   UNL     1       2.536  -0.326  -0.252  0.00  0.00    +0.149 HD
BRANCH  11  13
ATOM     13  C   UNL     1       4.408  -1.024   0.348  0.00  0.00    +0.115 C 
BRANCH  13  15
ATOM     14  N   UNL     1       2.786  -4.955  -0.189  0.00  0.00    -0.242 NA
ATOM     15  C   UNL     1       3.839  -2.403   0.159  0.00  0.00    +0.000 C 
ATOM     16  C   UNL     1       3.959  -3.032  -1.068  0.00  0.00    +0.018 C 
ATOM     17  C   UNL     1       3.200  -3.031   1.215  0.00  0.00    +0.018 C 
ATOM     18  C   UNL     1       3.418  -4.302  -1.190  0.00  0.00    +0.099 C 
ATOM     19  C   UNL     1       2.693  -4.300   0.990  0.00  0.00    +0.099 C 
ENDBRANCH  13  15
ENDBRANCH  11  13
ENDBRANCH   3   6
BRANCH   2  25
ATOM     20  C   UNL     1      -3.532   0.356   0.124  0.00  0.00    -0.010 C 
ATOM     21  C   UNL     1      -2.754   0.452  -1.030  0.00  0.00    -0.002 C 
ATOM     22  C   UNL     1      -2.985   0.689   1.364  0.00  0.00    -0.002 C 
ATOM     23  C   UNL     1      -1.429   0.881  -0.944  0.00  0.00    +0.014 C 
ATOM     24  C   UNL     1      -1.660   1.117   1.449  0.00  0.00    +0.014 C 
ATOM     25  C   UNL     1      -0.882   1.213   0.295  0.00  0.00    +0.051 C 
BRANCH  20  26
ATOM     26  C   UNL     1      -4.981  -0.113   0.030  0.00  0.00    +0.098 C 
ATOM     27  C   UNL     1      -5.457  -0.918   1.260  0.00  0.00    +0.018 C 
ATOM     28  C   UNL     1      -5.229  -1.149  -1.088  0.00  0.00    +0.018 C 
ATOM     29  C   UNL     1      -6.675  -1.713   0.794  0.00  0.00    +0.001 C 
ATOM     30  C   UNL     1      -6.525  -1.867  -0.716  0.00  0.00    +0.001 C 
BRANCH  26  32
ATOM     31  N   UNL     1      -6.535   1.995  -0.328  0.00  0.00    -0.196 NA
ATOM     32  C   UNL     1      -5.853   1.070  -0.171  0.00  0.00    +0.075 C 
ENDBRANCH  26  32
ENDBRANCH  20  26
ENDBRANCH   2  25
TORSDOF 6
