REMARK  Name = 10661
REMARK  0 active torsions:
REMARK  status: ('A' for Active; 'I' for Inactive)
REMARK                            x       y       z     vdW  Elec       q    Type
REMARK                         _______ _______ _______ _____ _____    ______ ____
ROOT
ATOM      1 CL   UNL     1       4.318   0.123   0.000  0.00  0.00    -0.071 Cl
ATOM      2  O   UNL     1      -0.659   2.726  -0.001  0.00  0.00    -0.265 OA
ATOM      3  O   UNL     1      -2.873  -1.415  -0.001  0.00  0.00    -0.246 OA
ATOM      4  N   UNL     1      -0.547  -1.411   0.000  0.00  0.00    -0.266 N 
ATOM      5  N   UNL     1      -1.795   0.664   0.000  0.00  0.00    -0.246 N 
ATOM      6  N   UNL     1       1.863   1.131   0.000  0.00  0.00    -0.300 N 
ATOM      7  N   UNL     1       1.895  -1.098   0.000  0.00  0.00    -0.292 N 
ATOM      8  C   UNL     1       0.606  -0.637   0.000  0.00  0.00    +0.133 A 
ATOM      9  C   UNL     1       0.558   0.730   0.000  0.00  0.00    +0.134 A 
ATOM     10  C   UNL     1      -0.645   1.498   0.000  0.00  0.00    +0.280 A 
ATOM     11  C   UNL     1      -1.814  -0.777   0.000  0.00  0.00    +0.335 A 
ATOM     12  C   UNL     1      -0.444  -2.865   0.000  0.00  0.00    +0.136 C 
ATOM     13  C   UNL     1      -3.090   1.336   0.002  0.00  0.00    +0.138 C 
ATOM     14  C   UNL     1       2.630  -0.005   0.000  0.00  0.00    +0.229 C 
ATOM     15  H   UNL     1       2.191   2.059   0.000  0.00  0.00    +0.150 HD
ATOM     16  H   UNL     1       2.202  -2.033   0.000  0.00  0.00    +0.151 HD
ENDROOT
TORSDOF 0
