REMARK  Name = 175
REMARK  0 active torsions:
REMARK  status: ('A' for Active; 'I' for Inactive)
REMARK                            x       y       z     vdW  Elec       q    Type
REMARK                         _______ _______ _______ _____ _____    ______ ____
ROOT
ATOM      1  O   UNL     1      -0.691  -1.119   0.000  0.00  0.00    -0.246 OA
ATOM      2  O   UNL     1      -0.602   1.167   0.000  0.00  0.00    -0.246 OA
ATOM      3  C   UNL     1       1.405  -0.050   0.000  0.00  0.00    +0.126 C 
ATOM      4  C   UNL     1      -0.113   0.003   0.000  0.00  0.00    +0.365 C 
ENDROOT
TORSDOF 0
