REMARK  Name = 7188
REMARK  5 active torsions:
REMARK  status: ('A' for Active; 'I' for Inactive)
REMARK    1  A    between atoms: S_1  and  C_3
REMARK    2  A    between atoms: S_1  and  S_10
REMARK    3  A    between atoms: C_3  and  N_4
REMARK    4  A    between atoms: S_10  and  C_12
REMARK    5  A    between atoms: C_12  and  N_13
REMARK                            x       y       z     vdW  Elec       q    Type
REMARK                         _______ _______ _______ _____ _____    ______ ____
ROOT
ATOM      1  S   UNL     1       1.083  -2.079   0.368  0.00  0.00    -0.027 S 
ENDROOT
BRANCH   1   3
ATOM      2  S   UNL     1       0.680  -0.843  -2.357  0.00  0.00    -0.027 S 
ATOM      3  C   UNL     1       1.535  -0.999  -0.935  0.00  0.00    +0.121 C 
BRANCH   3   4
ATOM      4  N   UNL     1       2.640  -0.262  -0.658  0.00  0.00    -0.297 N 
ATOM      5  C   UNL     1       4.391   1.557   0.719  0.00  0.00    +0.004 C 
ATOM      6  C   UNL     1       3.192   2.064  -0.084  0.00  0.00    +0.022 C 
ATOM      7  C   UNL     1       4.137   0.145   1.249  0.00  0.00    +0.022 C 
ATOM      8  C   UNL     1       2.814   1.084  -1.191  0.00  0.00    +0.092 C 
ATOM      9  C   UNL     1       3.744  -0.807   0.124  0.00  0.00    +0.092 C 
ENDBRANCH   3   4
ENDBRANCH   1   3
BRANCH   1  10
ATOM     10  S   UNL     1      -0.187  -0.884   1.467  0.00  0.00    -0.027 S 
BRANCH  10  12
ATOM     11  S   UNL     1      -2.430  -2.757   0.710  0.00  0.00    -0.027 S 
ATOM     12  C   UNL     1      -1.732  -1.243   0.725  0.00  0.00    +0.121 C 
BRANCH  12  13
ATOM     13  N   UNL     1      -2.333  -0.152   0.189  0.00  0.00    -0.297 N 
ATOM     14  C   UNL     1      -4.314   1.883  -0.266  0.00  0.00    +0.004 C 
ATOM     15  C   UNL     1      -3.418   1.910   0.974  0.00  0.00    +0.022 C 
ATOM     16  C   UNL     1      -4.519   0.451  -0.761  0.00  0.00    +0.022 C 
ATOM     17  C   UNL     1      -2.099   1.186   0.720  0.00  0.00    +0.092 C 
ATOM     18  C   UNL     1      -3.184  -0.252  -0.991  0.00  0.00    +0.092 C 
ENDBRANCH  12  13
ENDBRANCH  10  12
ENDBRANCH   1  10
TORSDOF 5
