REMARK  Name = 501391
REMARK  8 active torsions:
REMARK  status: ('A' for Active; 'I' for Inactive)
REMARK    1  A    between atoms: N_1  and  C_14
REMARK    2  A    between atoms: C_2  and  C_18
REMARK    3  A    between atoms: C_3  and  O_8
REMARK    4  A    between atoms: C_4  and  O_10
REMARK    5  A    between atoms: C_5  and  O_12
REMARK    6  A    between atoms: C_14  and  C_15
REMARK    7  A    between atoms: C_15  and  C_16
REMARK    8  A    between atoms: C_18  and  O_19
REMARK                            x       y       z     vdW  Elec       q    Type
REMARK                         _______ _______ _______ _____ _____    ______ ____
ROOT
ATOM      1  N   UNL     1      -0.545  -0.324  -0.299  0.00  0.00    +0.393 N 
ATOM      2  C   UNL     1       0.692  -1.126  -0.474  0.00  0.00    +0.002 C 
ATOM      3  C   UNL     1       1.873  -0.461   0.271  0.00  0.00    +0.123 C 
ATOM      4  C   UNL     1       2.080   0.981  -0.196  0.00  0.00    +0.160 C 
ATOM      5  C   UNL     1       0.785   1.776  -0.064  0.00  0.00    +0.119 C 
ATOM      6  C   UNL     1      -0.361   1.057  -0.777  0.00  0.00    -0.045 C 
ATOM      7  H   UNL     1      -0.733  -0.316   0.703  0.00  0.00    -0.079 HD
ENDROOT
BRANCH   3   8
ATOM      8  O   UNL     1       1.618  -0.486   1.678  0.00  0.00    -0.384 OA
ATOM      9  H   UNL     1       1.488  -1.403   1.966  0.00  0.00    +0.210 HD
ENDBRANCH   3   8
BRANCH   4  10
ATOM     10  O   UNL     1       3.094   1.606   0.586  0.00  0.00    -0.380 OA
ATOM     11  H   UNL     1       3.920   1.104   0.506  0.00  0.00    +0.211 HD
ENDBRANCH   4  10
BRANCH   5  12
ATOM     12  O   UNL     1       0.951   3.056  -0.671  0.00  0.00    -0.384 OA
ATOM     13  H   UNL     1       1.675   3.530  -0.233  0.00  0.00    +0.210 HD
ENDBRANCH   5  12
BRANCH   1  14
ATOM     14  C   UNL     1      -1.701  -0.917  -0.978  0.00  0.00    -0.077 C 
BRANCH  14  15
ATOM     15  C   UNL     1      -2.957  -0.089  -0.707  0.00  0.00    -0.023 C 
BRANCH  15  16
ATOM     16  C   UNL     1      -3.276  -0.042   0.787  0.00  0.00    -0.002 C 
ATOM     17  C   UNL     1      -4.504   0.809   1.068  0.00  0.00    -0.000 C 
ENDBRANCH  15  16
ENDBRANCH  14  15
ENDBRANCH   1  14
BRANCH   2  18
ATOM     18  C   UNL     1       0.528  -2.571   0.025  0.00  0.00    +0.119 C 
BRANCH  18  19
ATOM     19  O   UNL     1       1.724  -3.269  -0.251  0.00  0.00    -0.384 OA
ATOM     20  H   UNL     1       1.641  -4.185   0.057  0.00  0.00    +0.210 HD
ENDBRANCH  18  19
ENDBRANCH   2  18
TORSDOF 8
