REMARK  Name = 5443
REMARK  3 active torsions:
REMARK  status: ('A' for Active; 'I' for Inactive)
REMARK    1  A    between atoms: C_1  and  C_10
REMARK    2  A    between atoms: C_2  and  S_7
REMARK    3  A    between atoms: C_10  and  O_11
REMARK                            x       y       z     vdW  Elec       q    Type
REMARK                         _______ _______ _______ _____ _____    ______ ____
ROOT
ATOM      1  C   UNL     1       0.251   0.267  -0.031  0.00  0.00    +0.081 C 
ATOM      2  C   UNL     1      -0.393  -0.970  -0.011  0.00  0.00    +0.028 C 
ATOM      3  C   UNL     1      -0.499   1.443  -0.031  0.00  0.00    +0.007 C 
ATOM      4  C   UNL     1      -1.787  -1.031   0.010  0.00  0.00    +0.006 C 
ATOM      5  C   UNL     1      -1.892   1.382  -0.010  0.00  0.00    +0.000 C 
ATOM      6  C   UNL     1      -2.536   0.145   0.010  0.00  0.00    +0.000 C 
ENDROOT
BRANCH   2   7
ATOM      7  S   UNL     1       0.518  -2.510  -0.010  0.00  0.00    -0.141 S 
ATOM      8  H   UNL     1       1.852  -2.247  -0.032  0.00  0.00    +0.107 HD
ENDBRANCH   2   7
BRANCH   1  10
ATOM      9  O   UNL     1       2.399   0.440  -1.071  0.00  0.00    -0.245 OA
ATOM     10  C   UNL     1       1.704   0.389  -0.053  0.00  0.00    +0.338 C 
BRANCH  10  11
ATOM     11  O   UNL     1       2.236   0.445   1.197  0.00  0.00    -0.477 OA
ATOM     12  H   UNL     1       1.676   0.403   1.947  0.00  0.00    +0.295 HD
ENDBRANCH  10  11
ENDBRANCH   1  10
TORSDOF 3
