REMARK  Name = 33344
REMARK  0 active torsions:
REMARK  status: ('A' for Active; 'I' for Inactive)
REMARK                            x       y       z     vdW  Elec       q    Type
REMARK                         _______ _______ _______ _____ _____    ______ ____
ROOT
ATOM      1 CL   UNL     1      -3.100   0.042  -0.001  0.00  0.00    -0.074 Cl
ATOM      2  S   UNL     1      -0.485   1.500   0.001  0.00  0.00    -0.006 S 
ATOM      3  O   UNL     1       1.650  -1.631   0.000  0.00  0.00    -0.269 OA
ATOM      4  N   UNL     1       0.962   0.612   0.000  0.00  0.00    -0.224 N 
ATOM      5  C   UNL     1       0.789  -0.763   0.001  0.00  0.00    +0.260 C 
ATOM      6  C   UNL     1       2.237   1.293  -0.001  0.00  0.00    +0.129 C 
ATOM      7  C   UNL     1      -0.660  -1.085   0.000  0.00  0.00    +0.078 C 
ATOM      8  C   UNL     1      -1.391   0.033   0.001  0.00  0.00    +0.105 C 
ENDROOT
TORSDOF 0
