REMARK  Name = 637511
REMARK  2 active torsions:
REMARK  status: ('A' for Active; 'I' for Inactive)
REMARK    1  A    between atoms: C_1  and  C_7
REMARK    2  A    between atoms: C_8  and  C_10
REMARK                            x       y       z     vdW  Elec       q    Type
REMARK                         _______ _______ _______ _____ _____    ______ ____
ROOT
ATOM      1  C   UNL     1      -0.436  -0.282   0.093  0.00  0.00    +0.000 C 
ATOM      2  C   UNL     1      -0.826   1.057   0.113  0.00  0.00    +0.000 C 
ATOM      3  C   UNL     1      -1.397  -1.286  -0.022  0.00  0.00    +0.000 C 
ATOM      4  C   UNL     1      -2.177   1.392   0.019  0.00  0.00    +0.000 C 
ATOM      5  C   UNL     1      -2.748  -0.952  -0.117  0.00  0.00    +0.000 C 
ATOM      6  C   UNL     1      -3.138   0.387  -0.097  0.00  0.00    +0.000 C 
ENDROOT
BRANCH   1   7
ATOM      7  C   UNL     1       0.973  -0.631   0.191  0.00  0.00    +0.003 C 
ATOM      8  C   UNL     1       2.004   0.200  -0.073  0.00  0.00    +0.045 C 
BRANCH   8  10
ATOM      9  O   UNL     1       4.358   0.414  -0.167  0.00  0.00    -0.283 OA
ATOM     10  C   UNL     1       3.388  -0.299   0.061  0.00  0.00    +0.234 C 
ENDBRANCH   8  10
ENDBRANCH   1   7
TORSDOF 2
