REMARK  Name = 5281628
REMARK  5 active torsions:
REMARK  status: ('A' for Active; 'I' for Inactive)
REMARK    1  A    between atoms: C_5  and  C_12
REMARK    2  A    between atoms: C_6  and  O_22
REMARK    3  A    between atoms: C_9  and  O_20
REMARK    4  A    between atoms: C_11  and  O_24
REMARK    5  A    between atoms: C_17  and  O_18
REMARK                            x       y       z     vdW  Elec       q    Type
REMARK                         _______ _______ _______ _____ _____    ______ ____
ROOT
ATOM      1  O   UNL     1       0.455   0.748  -0.099  0.00  0.00    -0.453 OA
ATOM      2  O   UNL     1      -1.133  -2.997   0.131  0.00  0.00    -0.286 OA
ATOM      3  C   UNL     1      -1.515  -0.672  -0.049  0.00  0.00    +0.110 C 
ATOM      4  C   UNL     1      -0.906   0.580  -0.125  0.00  0.00    +0.154 C 
ATOM      5  C   UNL     1       1.257  -0.377   0.017  0.00  0.00    +0.148 C 
ATOM      6  C   UNL     1      -2.907  -0.783  -0.082  0.00  0.00    +0.177 C 
ATOM      7  C   UNL     1      -0.667  -1.868   0.064  0.00  0.00    +0.205 C 
ATOM      8  C   UNL     1      -1.688   1.730  -0.235  0.00  0.00    +0.078 C 
ATOM      9  C   UNL     1      -3.687   0.369  -0.191  0.00  0.00    +0.206 C 
ATOM     10  C   UNL     1       0.791  -1.633   0.091  0.00  0.00    +0.080 C 
ATOM     11  C   UNL     1      -3.079   1.623  -0.267  0.00  0.00    +0.174 C 
ENDROOT
BRANCH   5  12
ATOM     12  C   UNL     1       2.704  -0.083   0.029  0.00  0.00    +0.035 C 
ATOM     13  C   UNL     1       3.613  -1.006  -0.493  0.00  0.00    +0.006 C 
ATOM     14  C   UNL     1       3.171   1.120   0.565  0.00  0.00    +0.006 C 
ATOM     15  C   UNL     1       4.980  -0.728  -0.480  0.00  0.00    +0.037 C 
ATOM     16  C   UNL     1       4.538   1.398   0.578  0.00  0.00    +0.037 C 
ATOM     17  C   UNL     1       5.442   0.474   0.056  0.00  0.00    +0.134 C 
BRANCH  17  18
ATOM     18  O   UNL     1       6.776   0.745   0.069  0.00  0.00    -0.506 OA
ATOM     19  H   UNL     1       7.384   0.124  -0.283  0.00  0.00    +0.292 HD
ENDBRANCH  17  18
ENDBRANCH   5  12
BRANCH   9  20
ATOM     20  O   UNL     1      -5.047   0.274  -0.223  0.00  0.00    -0.465 OA
ATOM     21  C   UNL     1      -5.729   0.323   1.028  0.00  0.00    +0.253 C 
ENDBRANCH   9  20
BRANCH   6  22
ATOM     22  O   UNL     1      -3.537  -1.990  -0.009  0.00  0.00    -0.503 OA
ATOM     23  H   UNL     1      -3.035  -2.777   0.064  0.00  0.00    +0.292 HD
ENDBRANCH   6  22
BRANCH  11  24
ATOM     24  O   UNL     1      -3.833   2.753  -0.373  0.00  0.00    -0.503 OA
ATOM     25  H   UNL     1      -3.417   3.591  -0.424  0.00  0.00    +0.292 HD
ENDBRANCH  11  24
TORSDOF 5
