REMARK  Name = 60143346
REMARK  3 active torsions:
REMARK  status: ('A' for Active; 'I' for Inactive)
REMARK    1  A    between atoms: C_3  and  C_17
REMARK    2  A    between atoms: C_4  and  C_22
REMARK    3  A    between atoms: C_25  and  C_30
REMARK                            x       y       z     vdW  Elec       q    Type
REMARK                         _______ _______ _______ _____ _____    ______ ____
ROOT
ATOM      1  N   UNL     1      -0.035  -3.348  -0.060  0.00  0.00    -0.208 N 
ATOM      2  N   UNL     1      -1.225  -3.964   0.041  0.00  0.00    -0.176 NA
ATOM      3  C   UNL     1      -1.469  -1.740  -0.417  0.00  0.00    +0.065 C 
ATOM      4  C   UNL     1      -0.126  -2.015  -0.333  0.00  0.00    +0.090 C 
ATOM      5  C   UNL     1      -2.097  -2.977  -0.178  0.00  0.00    +0.121 C 
ATOM      6  C   UNL     1       1.172  -4.123   0.123  0.00  0.00    +0.140 C 
ENDROOT
BRANCH   3  17
ATOM      7  N   UNL     1      -0.603   0.396   1.950  0.00  0.00    -0.295 N 
ATOM      8  N   UNL     1      -2.922   1.543  -0.689  0.00  0.00    -0.175 N 
ATOM      9  N   UNL     1      -1.679   2.417   1.527  0.00  0.00    -0.210 NA
ATOM     10  N   UNL     1      -2.965  -0.386  -1.785  0.00  0.00    -0.392 NA
ATOM     11  N   UNL     1      -3.162   2.825  -0.335  0.00  0.00    -0.153 NA
ATOM     12  C   UNL     1       0.347   1.040   2.805  0.00  0.00    +0.094 C 
ATOM     13  C   UNL     1      -1.158  -0.368   3.027  0.00  0.00    +0.094 C 
ATOM     14  C   UNL     1       0.153  -0.125   3.776  0.00  0.00    +0.043 C 
ATOM     15  C   UNL     1      -1.443   1.173   1.189  0.00  0.00    +0.137 C 
ATOM     16  C   UNL     1      -2.104   0.696   0.004  0.00  0.00    +0.204 C 
ATOM     17  C   UNL     1      -2.142  -0.490  -0.687  0.00  0.00    +0.140 C 
ATOM     18  C   UNL     1      -3.418   0.850  -1.757  0.00  0.00    +0.180 C 
ATOM     19  C   UNL     1      -2.529   3.186   0.748  0.00  0.00    +0.218 C 
ATOM     20  C   UNL     1      -4.345   1.462  -2.730  0.00  0.00    +0.085 C 
ENDBRANCH   3  17
BRANCH   4  22
ATOM     21  N   UNL     1       1.823  -1.080   0.602  0.00  0.00    -0.243 NA
ATOM     22  C   UNL     1       1.023  -1.152  -0.486  0.00  0.00    +0.096 C 
ATOM     23  C   UNL     1       1.258  -0.468  -1.668  0.00  0.00    +0.020 C 
ATOM     24  C   UNL     1       2.387   0.342  -1.738  0.00  0.00    +0.007 C 
ATOM     25  C   UNL     1       3.233   0.442  -0.639  0.00  0.00    +0.091 C 
ATOM     26  C   UNL     1       2.909  -0.283   0.496  0.00  0.00    +0.103 C 
BRANCH  25  30
ATOM     27  F   UNL     1       4.601   1.938  -1.881  0.00  0.00    -0.166 F 
ATOM     28  F   UNL     1       4.454   2.292   0.259  0.00  0.00    -0.166 F 
ATOM     29  F   UNL     1       5.613   0.616  -0.482  0.00  0.00    -0.166 F 
ATOM     30  C   UNL     1       4.447   1.301  -0.682  0.00  0.00    +0.420 C 
ENDBRANCH  25  30
ENDBRANCH   4  22
TORSDOF 3
