REMARK  Name = 86764100
REMARK  4 active torsions:
REMARK  status: ('A' for Active; 'I' for Inactive)
REMARK    1  A    between atoms: C_1  and  C_12
REMARK    2  A    between atoms: C_5  and  O_19
REMARK    3  A    between atoms: O_19  and  C_21
REMARK    4  A    between atoms: C_22  and  C_29
REMARK                            x       y       z     vdW  Elec       q    Type
REMARK                         _______ _______ _______ _____ _____    ______ ____
ROOT
ATOM      1  C   UNL     1      -1.672  -0.249   0.074  0.00  0.00    +0.012 C 
ATOM      2  C   UNL     1      -0.983  -0.359  -1.134  0.00  0.00    -0.017 C 
ATOM      3  C   UNL     1      -0.978  -0.319   1.282  0.00  0.00    +0.004 C 
ATOM      4  C   UNL     1       0.400  -0.539  -1.134  0.00  0.00    +0.033 C 
ATOM      5  C   UNL     1       1.094  -0.609   0.074  0.00  0.00    +0.147 C 
ATOM      6  C   UNL     1       0.406  -0.499   1.282  0.00  0.00    +0.038 C 
ATOM      7  C   UNL     1      -1.695  -0.288  -2.447  0.00  0.00    +0.031 C 
ENDROOT
BRANCH   1  12
ATOM      8  O   UNL     1      -6.118  -2.049   0.210  0.00  0.00    -0.246 OA
ATOM      9  O   UNL     1      -5.608   2.498   0.137  0.00  0.00    -0.267 OA
ATOM     10  N   UNL     1      -3.945  -1.192   0.145  0.00  0.00    -0.280 N 
ATOM     11  N   UNL     1      -5.836   0.215   0.174  0.00  0.00    -0.275 N 
ATOM     12  C   UNL     1      -3.121  -0.061   0.109  0.00  0.00    +0.064 A 
ATOM     13  C   UNL     1      -3.617   1.196   0.104  0.00  0.00    +0.050 A 
ATOM     14  C   UNL     1      -5.346  -1.087   0.178  0.00  0.00    +0.331 A 
ATOM     15  C   UNL     1      -5.098   1.380   0.140  0.00  0.00    +0.258 A 
ATOM     16  C   UNL     1      -3.343  -2.527   0.147  0.00  0.00    +0.135 C 
ATOM     17  C   UNL     1      -2.818   2.471   0.067  0.00  0.00    +0.038 C 
ATOM     18  H   UNL     1      -6.815   0.316   0.198  0.00  0.00    +0.173 HD
ENDBRANCH   1  12
BRANCH   5  19
ATOM     19  O   UNL     1       2.444  -0.785   0.074  0.00  0.00    -0.436 OA
BRANCH  19  21
ATOM     20  N   UNL     1       2.595   1.535   0.036  0.00  0.00    -0.210 NA
ATOM     21  C   UNL     1       3.241   0.347   0.054  0.00  0.00    +0.234 C 
ATOM     22  C   UNL     1       4.620   0.215   0.053  0.00  0.00    +0.125 C 
ATOM     23  C   UNL     1       5.386   1.376   0.031  0.00  0.00    +0.010 C 
ATOM     24  C   UNL     1       4.757   2.616   0.012  0.00  0.00    +0.021 C 
ATOM     25  C   UNL     1       3.372   2.641   0.016  0.00  0.00    +0.102 C 
BRANCH  22  29
ATOM     26  F   UNL     1       4.971  -1.871   1.171  0.00  0.00    -0.166 F 
ATOM     27  F   UNL     1       4.965  -1.906  -0.998  0.00  0.00    -0.166 F 
ATOM     28  F   UNL     1       6.646  -1.031   0.068  0.00  0.00    -0.166 F 
ATOM     29  C   UNL     1       5.283  -1.119   0.073  0.00  0.00    +0.423 C 
ENDBRANCH  22  29
ENDBRANCH  19  21
ENDBRANCH   5  19
TORSDOF 4
