7896
  -OEChem-06211813073D

 16 15  0     1  0  0  0  0  0999 V2000
    1.2637   -1.3081    0.2225 O   0  0  0  0  0  0  0  0  0  0  0  0
   -2.6897    0.2382    0.1788 O   0  0  0  0  0  0  0  0  0  0  0  0
    1.0351   -0.0150   -0.3309 C   0  0  1  0  0  0  0  0  0  0  0  0
   -0.3116    0.5298    0.1480 C   0  0  0  0  0  0  0  0  0  0  0  0
   -1.4812   -0.3443   -0.2907 C   0  0  0  0  0  0  0  0  0  0  0  0
    2.1837    0.8995    0.0722 C   0  0  0  0  0  0  0  0  0  0  0  0
    1.0341   -0.1135   -1.4228 H   0  0  0  0  0  0  0  0  0  0  0  0
   -0.3232    0.5958    1.2438 H   0  0  0  0  0  0  0  0  0  0  0  0
   -0.4597    1.5516   -0.2226 H   0  0  0  0  0  0  0  0  0  0  0  0
   -1.5333   -0.4288   -1.3807 H   0  0  0  0  0  0  0  0  0  0  0  0
   -1.4148   -1.3498    0.1339 H   0  0  0  0  0  0  0  0  0  0  0  0
    3.1385    0.4854   -0.2693 H   0  0  0  0  0  0  0  0  0  0  0  0
    2.2509    0.9860    1.1624 H   0  0  0  0  0  0  0  0  0  0  0  0
    2.0647    1.9005   -0.3534 H   0  0  0  0  0  0  0  0  0  0  0  0
    0.6725   -1.9336   -0.2291 H   0  0  0  0  0  0  0  0  0  0  0  0
   -2.7689    1.1180   -0.2275 H   0  0  0  0  0  0  0  0  0  0  0  0
  1  3  1  0  0  0  0
  1 15  1  0  0  0  0
  2  5  1  0  0  0  0
  2 16  1  0  0  0  0
  3  4  1  0  0  0  0
  3  6  1  0  0  0  0
  3  7  1  0  0  0  0
  4  5  1  0  0  0  0
  4  8  1  0  0  0  0
  4  9  1  0  0  0  0
  5 10  1  0  0  0  0
  5 11  1  0  0  0  0
  6 12  1  0  0  0  0
  6 13  1  0  0  0  0
  6 14  1  0  0  0  0
M  END
> <DATABASE_ID>
DB14110

> <DATABASE_NAME>
drugbank

> <ORIGINAL_SOURCE>
PUBCHEM

> <ORIGINAL_SOURCE_URL>
https://pubchem.ncbi.nlm.nih.gov/rest/pug/compound/inchikey/PUPZLCDOIYMWBV-UHFFFAOYSA-N/SDF?record_type=3d

> <SMILES>
CC(O)CCO

> <INCHI_IDENTIFIER>
InChI=1S/C4H10O2/c1-4(6)2-3-5/h4-6H,2-3H2,1H3

> <INCHI_KEY>
PUPZLCDOIYMWBV-UHFFFAOYSA-N

> <FORMULA>
C4H10O2

> <MOLECULAR_WEIGHT>
90.121

> <EXACT_MASS>
90.068079564

> <JCHEM_ACCEPTOR_COUNT>
2

> <JCHEM_ATOM_COUNT>
16

> <JCHEM_AVERAGE_POLARIZABILITY>
9.963175537338191

> <JCHEM_BIOAVAILABILITY>
1

> <JCHEM_DONOR_COUNT>
2

> <JCHEM_FORMAL_CHARGE>
0

> <JCHEM_GHOSE_FILTER>
0

> <JCHEM_IUPAC>
butane-1,3-diol

> <ALOGPS_LOGP>
-0.59

> <JCHEM_LOGP>
-0.7321443170000002

> <ALOGPS_LOGS>
0.92

> <JCHEM_MDDR_LIKE_RULE>
0

> <JCHEM_NUMBER_OF_RINGS>
0

> <JCHEM_PHYSIOLOGICAL_CHARGE>
0

> <JCHEM_PKA>
16.16810027525158

> <JCHEM_PKA_STRONGEST_ACIDIC>
15.413883421143819

> <JCHEM_PKA_STRONGEST_BASIC>
-2.4089176560901633

> <JCHEM_POLAR_SURFACE_AREA>
40.46

> <JCHEM_REFRACTIVITY>
23.837799999999998

> <JCHEM_ROTATABLE_BOND_COUNT>
2

> <JCHEM_RULE_OF_FIVE>
1

> <ALOGPS_SOLUBILITY>
7.42e+02 g/l

> <JCHEM_TRADITIONAL_IUPAC>
1,3-butanediol

> <JCHEM_VEBER_RULE>
0

> <DRUGBANK_ID>
DB14110

> <DRUG_GROUPS>
approved; experimental

> <GENERIC_NAME>
Butylene glycol

> <SYNONYMS>
(RS)-1,3-Butandiol; 1,3 Butylene glycol; 1,3-Butandiol; 1,3-Butanediol; 1,3-Butylene glycol; 1,3-Butylenglykol; BD; beta-Butylene glycol; Butane-1,3-diol; Methyltrimethylene glycol

> <PRODUCTS>
3ce Super Slim Pen Eye Liner Black; 3ce Super Slim Pen Eye Liner Brown; 3ce Super Slim Pen Eye Liner Burgundy Brown; 3ce Super Slim Pen Eye Liner Light Brown; Blooming Shield Blossom Mist; Buddate Inonotus Obliquus Water Brilliance Mask; Buddate Reges Intensive Treatment; DR.G A-CLEAR SPOT Repairing SERUM; Dr.G Actifirm Real Lifting Neck; Dr.G Actifirm Real Lifting Toner; Dr.g A-clear Balancing Toner; Dr.g Lock and More Nourishing Mask; Dr.g Lock and More Sensi Calming Mask; ELUOTONG Herbal Moxibustion Paster; Human Body Lubricant R170009; HydroGold 9; Im real SEAWEED AQUA MOISTURE; Kinkly Personal Lubricant; LingLongJiuHuo Linglong Moxibustion; Medi SM 24K Gold Hydrogel Peptide Mask Pack; Miaojun Heat Paster; Miaojun Medical Cold Paster; Natural Oriental Herb Care; PLAY and JOY Cologne Maca Extra Hot Lubricant PJ-LBS201-35EU; QIZHOUGUAI Chinese medicine patch; SiYi Human Body Lubricant; Water-based Personal Lubricant, ACVIOO 001; Water-based Personal Lubricant, AMBOLOVE 001; acmeros Lubricant X0026F3541; acmeros Personal Lubricant

$$$$
