REMARK  Name = 158637
REMARK  8 active torsions:
REMARK  status: ('A' for Active; 'I' for Inactive)
REMARK    1  A    between atoms: C_2  and  O_7
REMARK    2  A    between atoms: C_3  and  O_9
REMARK    3  A    between atoms: C_4  and  O_11
REMARK    4  A    between atoms: C_5  and  C_22
REMARK    5  A    between atoms: C_6  and  O_13
REMARK    6  A    between atoms: O_13  and  C_14
REMARK    7  A    between atoms: C_19  and  O_20
REMARK    8  A    between atoms: C_22  and  O_23
REMARK                            x       y       z     vdW  Elec       q    Type
REMARK                         _______ _______ _______ _____ _____    ______ ____
ROOT
ATOM      1  O   UNL     1      -0.995  -0.807  -0.893  0.00  0.00    -0.316 OA
ATOM      2  C   UNL     1      -2.788   1.142   0.257  0.00  0.00    +0.173 C 
ATOM      3  C   UNL     1      -3.161  -0.337   0.137  0.00  0.00    +0.169 C 
ATOM      4  C   UNL     1      -1.716   1.511  -0.766  0.00  0.00    +0.210 C 
ATOM      5  C   UNL     1      -1.910  -1.226   0.127  0.00  0.00    +0.177 C 
ATOM      6  C   UNL     1      -0.538   0.536  -0.726  0.00  0.00    +0.318 C 
ENDROOT
BRANCH   2   7
ATOM      7  O   UNL     1      -3.960   1.922   0.008  0.00  0.00    -0.379 OA
ATOM      8  H   UNL     1      -4.645   1.692   0.655  0.00  0.00    +0.211 HD
ENDBRANCH   2   7
BRANCH   3   9
ATOM      9  O   UNL     1      -3.998  -0.672   1.241  0.00  0.00    -0.379 OA
ATOM     10  H   UNL     1      -4.784  -0.104   1.235  0.00  0.00    +0.211 HD
ENDBRANCH   3   9
BRANCH   4  11
ATOM     11  O   UNL     1      -1.267   2.839  -0.521  0.00  0.00    -0.377 OA
ATOM     12  H   UNL     1      -2.023   3.446  -0.549  0.00  0.00    +0.211 HD
ENDBRANCH   4  11
BRANCH   6  13
ATOM     13  O   UNL     1       0.263   0.693   0.444  0.00  0.00    -0.451 OA
BRANCH  13  14
ATOM     14  C   UNL     1       1.599   0.424   0.313  0.00  0.00    +0.142 C 
ATOM     15  C   UNL     1       2.012  -0.844  -0.081  0.00  0.00    +0.040 C 
ATOM     16  C   UNL     1       2.532   1.422   0.575  0.00  0.00    +0.040 C 
ATOM     17  C   UNL     1       3.373  -1.118  -0.215  0.00  0.00    +0.040 C 
ATOM     18  C   UNL     1       3.893   1.148   0.442  0.00  0.00    +0.040 C 
ATOM     19  C   UNL     1       4.314  -0.122   0.046  0.00  0.00    +0.134 C 
BRANCH  19  20
ATOM     20  O   UNL     1       5.642  -0.389  -0.084  0.00  0.00    -0.506 OA
ATOM     21  H   UNL     1       5.924  -1.242  -0.349  0.00  0.00    +0.292 HD
ENDBRANCH  19  20
ENDBRANCH  13  14
ENDBRANCH   6  13
BRANCH   5  22
ATOM     22  C   UNL     1      -2.248  -2.688  -0.150  0.00  0.00    +0.169 C 
BRANCH  22  23
ATOM     23  O   UNL     1      -1.045  -3.435  -0.153  0.00  0.00    -0.379 OA
ATOM     24  H   UNL     1      -1.245  -4.368  -0.328  0.00  0.00    +0.211 HD
ENDBRANCH  22  23
ENDBRANCH   5  22
TORSDOF 8
