REMARK  Name = 7456
REMARK  3 active torsions:
REMARK  status: ('A' for Active; 'I' for Inactive)
REMARK    1  A    between atoms: C_1  and  C_10
REMARK    2  A    between atoms: C_6  and  O_7
REMARK    3  A    between atoms: C_10  and  O_11
REMARK                            x       y       z     vdW  Elec       q    Type
REMARK                         _______ _______ _______ _____ _____    ______ ____
ROOT
ATOM      1  C   UNL     1      -0.304   0.189   0.001  0.00  0.00    +0.076 C 
ATOM      2  C   UNL     1       0.533   1.304   0.000  0.00  0.00    +0.010 C 
ATOM      3  C   UNL     1       0.243  -1.095   0.001  0.00  0.00    +0.010 C 
ATOM      4  C   UNL     1       1.918   1.136   0.000  0.00  0.00    +0.037 C 
ATOM      5  C   UNL     1       1.628  -1.262   0.001  0.00  0.00    +0.037 C 
ATOM      6  C   UNL     1       2.465  -0.147   0.000  0.00  0.00    +0.134 C 
ENDROOT
BRANCH   6   7
ATOM      7  O   UNL     1       3.817  -0.310  -0.001  0.00  0.00    -0.506 OA
ATOM      8  H   UNL     1       4.379   0.439  -0.002  0.00  0.00    +0.292 HD
ENDBRANCH   6   7
BRANCH   1  10
ATOM      9  O   UNL     1      -2.320   1.461   0.000  0.00  0.00    -0.245 OA
ATOM     10  C   UNL     1      -1.748   0.363   0.001  0.00  0.00    +0.341 C 
BRANCH  10  11
ATOM     11  O   UNL     1      -2.400  -0.839   0.000  0.00  0.00    -0.441 OA
ATOM     12  C   UNL     1      -3.831  -0.799  -0.001  0.00  0.00    +0.256 C 
ENDBRANCH  10  11
ENDBRANCH   1  10
TORSDOF 3
