REMARK  Name = 8269
REMARK  6 active torsions:
REMARK  status: ('A' for Active; 'I' for Inactive)
REMARK    1  A    between atoms: C_3  and  C_12
REMARK    2  A    between atoms: C_3  and  C_22
REMARK    3  A    between atoms: C_17  and  O_18
REMARK    4  A    between atoms: O_18  and  C_20
REMARK    5  A    between atoms: C_27  and  O_28
REMARK    6  A    between atoms: O_28  and  C_30
REMARK                            x       y       z     vdW  Elec       q    Type
REMARK                         _______ _______ _______ _____ _____    ______ ____
ROOT
ATOM      1  O   UNL     1      -0.353   1.165  -2.921  0.00  0.00    -0.274 OA
ATOM      2  N   UNL     1      -0.089   3.172  -1.742  0.00  0.00    -0.283 N 
ATOM      3  C   UNL     1       0.012   1.145  -0.453  0.00  0.00    +0.126 C 
ATOM      4  C   UNL     1       0.182   2.409   0.390  0.00  0.00    +0.006 C 
ATOM      5  C   UNL     1      -0.172   1.784  -1.883  0.00  0.00    +0.237 C 
ATOM      6  C   UNL     1       0.113   3.540  -0.421  0.00  0.00    +0.047 C 
ATOM      7  C   UNL     1       0.365   2.551   1.758  0.00  0.00    -0.002 C 
ATOM      8  C   UNL     1       0.229   4.825   0.073  0.00  0.00    +0.014 C 
ATOM      9  C   UNL     1       0.485   3.842   2.284  0.00  0.00    -0.000 C 
ATOM     10  C   UNL     1       0.418   4.969   1.448  0.00  0.00    +0.001 C 
ATOM     11  H   UNL     1      -0.165   3.809  -2.489  0.00  0.00    +0.155 HD
ENDROOT
BRANCH   3  12
ATOM     12  C   UNL     1       1.228   0.280  -0.441  0.00  0.00    -0.007 C 
ATOM     13  C   UNL     1       1.300  -0.831  -1.280  0.00  0.00    -0.000 C 
ATOM     14  C   UNL     1       2.289   0.583   0.410  0.00  0.00    -0.000 C 
ATOM     15  C   UNL     1       2.437  -1.640  -1.269  0.00  0.00    +0.037 C 
ATOM     16  C   UNL     1       3.426  -0.226   0.422  0.00  0.00    +0.037 C 
ATOM     17  C   UNL     1       3.499  -1.338  -0.417  0.00  0.00    +0.148 C 
BRANCH  17  18
ATOM     18  O   UNL     1       4.608  -2.127  -0.406  0.00  0.00    -0.424 OA
BRANCH  18  20
ATOM     19  O   UNL     1       3.614  -3.429   1.267  0.00  0.00    -0.250 OA
ATOM     20  C   UNL     1       4.549  -3.187   0.514  0.00  0.00    +0.322 C 
ATOM     21  C   UNL     1       5.811  -3.994   0.450  0.00  0.00    +0.122 C 
ENDBRANCH  18  20
ENDBRANCH  17  18
ENDBRANCH   3  12
BRANCH   3  22
ATOM     22  C   UNL     1      -1.210   0.371  -0.084  0.00  0.00    -0.007 C 
ATOM     23  C   UNL     1      -1.109  -0.719   0.780  0.00  0.00    -0.000 C 
ATOM     24  C   UNL     1      -2.450   0.739  -0.605  0.00  0.00    -0.000 C 
ATOM     25  C   UNL     1      -2.251  -1.442   1.124  0.00  0.00    +0.037 C 
ATOM     26  C   UNL     1      -3.592   0.015  -0.260  0.00  0.00    +0.037 C 
ATOM     27  C   UNL     1      -3.493  -1.075   0.605  0.00  0.00    +0.148 C 
BRANCH  27  28
ATOM     28  O   UNL     1      -4.606  -1.781   0.941  0.00  0.00    -0.424 OA
BRANCH  28  30
ATOM     29  O   UNL     1      -4.228  -3.177  -0.899  0.00  0.00    -0.250 OA
ATOM     30  C   UNL     1      -4.886  -2.856   0.081  0.00  0.00    +0.322 C 
ATOM     31  C   UNL     1      -6.126  -3.567   0.534  0.00  0.00    +0.122 C 
ENDBRANCH  28  30
ENDBRANCH  27  28
ENDBRANCH   3  22
TORSDOF 6
