REMARK  Name = 12317881
REMARK  2 active torsions:
REMARK  status: ('A' for Active; 'I' for Inactive)
REMARK    1  A    between atoms: C_8  and  C_17
REMARK    2  A    between atoms: C_13  and  N_25
REMARK                            x       y       z     vdW  Elec       q    Type
REMARK                         _______ _______ _______ _____ _____    ______ ____
ROOT
ATOM      1  N   UNL     1       2.413  -0.138   0.063  0.00  0.00    -0.279 N 
ATOM      2  N   UNL     1       0.314  -1.871   1.444  0.00  0.00    -0.262 NA
ATOM      3  N   UNL     1       3.707  -1.808   0.687  0.00  0.00    -0.131 NA
ATOM      4  N   UNL     1       4.350  -1.118  -0.312  0.00  0.00    -0.133 NA
ATOM      5  C   UNL     1       1.325   0.762   0.015  0.00  0.00    +0.068 C 
ATOM      6  C   UNL     1       0.038   0.395   0.454  0.00  0.00    +0.035 C 
ATOM      7  C   UNL     1       2.564  -1.201   0.924  0.00  0.00    +0.172 A 
ATOM      8  C   UNL     1      -0.369  -1.018   0.759  0.00  0.00    +0.079 C 
ATOM      9  C   UNL     1       1.598  -1.497   2.004  0.00  0.00    +0.191 C 
ATOM     10  C   UNL     1       3.581  -0.110  -0.655  0.00  0.00    +0.147 A 
ATOM     11  C   UNL     1       1.556   2.067  -0.451  0.00  0.00    +0.019 C 
ATOM     12  C   UNL     1      -0.970   1.374   0.500  0.00  0.00    +0.027 C 
ATOM     13  C   UNL     1      -0.721   2.676   0.068  0.00  0.00    +0.143 C 
ATOM     14  C   UNL     1       0.535   3.017  -0.422  0.00  0.00    +0.026 C 
ATOM     15  C   UNL     1       3.894   0.786  -1.788  0.00  0.00    +0.074 C 
ENDROOT
BRANCH   8  17
ATOM     16 CL   UNL     1      -0.338  -2.354  -2.027  0.00  0.00    -0.082 Cl
ATOM     17  C   UNL     1      -1.665  -1.511   0.204  0.00  0.00    +0.028 C 
ATOM     18  C   UNL     1      -1.738  -2.125  -1.041  0.00  0.00    +0.059 C 
ATOM     19  C   UNL     1      -2.807  -1.339   0.978  0.00  0.00    +0.002 C 
ATOM     20  C   UNL     1      -2.970  -2.573  -1.519  0.00  0.00    +0.011 C 
ATOM     21  C   UNL     1      -4.039  -1.786   0.500  0.00  0.00    +0.000 C 
ATOM     22  C   UNL     1      -4.120  -2.403  -0.748  0.00  0.00    +0.001 C 
ENDBRANCH   8  17
BRANCH  13  25
ATOM     23  O   UNL     1      -1.508   4.808  -0.302  0.00  0.00    -0.126 OA
ATOM     24  O   UNL     1      -2.878   3.316   0.555  0.00  0.00    -0.126 OA
ATOM     25  N   UNL     1      -1.754   3.649   0.109  0.00  0.00    +0.058 N 
ENDBRANCH  13  25
TORSDOF 2
