REMARK  Name = 7619
REMARK  2 active torsions:
REMARK  status: ('A' for Active; 'I' for Inactive)
REMARK    1  A    between atoms: C_3  and  S_10
REMARK    2  A    between atoms: S_10  and  N_12
REMARK                            x       y       z     vdW  Elec       q    Type
REMARK                         _______ _______ _______ _____ _____    ______ ____
ROOT
ATOM      1  S   UNL     1      -1.257   1.803  -0.907  0.00  0.00    -0.046 S 
ATOM      2  N   UNL     1      -0.621   0.184   0.996  0.00  0.00    -0.391 NA
ATOM      3  C   UNL     1      -0.210   1.202   0.292  0.00  0.00    +0.201 C 
ATOM      4  C   UNL     1      -2.409   0.595  -0.475  0.00  0.00    +0.058 C 
ATOM      5  C   UNL     1      -1.889  -0.179   0.567  0.00  0.00    +0.121 C 
ATOM      6  C   UNL     1      -3.680   0.351  -1.018  0.00  0.00    +0.008 C 
ATOM      7  C   UNL     1      -2.672  -1.236   1.081  0.00  0.00    +0.085 C 
ATOM      8  C   UNL     1      -4.435  -0.700  -0.491  0.00  0.00    -0.004 C 
ATOM      9  C   UNL     1      -3.939  -1.484   0.545  0.00  0.00    -0.019 C 
ENDROOT
BRANCH   3  10
ATOM     10  S   UNL     1       1.379   1.915   0.588  0.00  0.00    +0.001 S 
BRANCH  10  12
ATOM     11  O   UNL     1       4.249  -1.327  -0.673  0.00  0.00    -0.351 OA
ATOM     12  N   UNL     1       2.314   0.566   0.274  0.00  0.00    -0.217 NA
ATOM     13  C   UNL     1       2.234  -0.038  -1.068  0.00  0.00    +0.116 C 
ATOM     14  C   UNL     1       3.717   0.580   0.726  0.00  0.00    +0.116 C 
ATOM     15  C   UNL     1       2.888  -1.415  -1.091  0.00  0.00    +0.160 C 
ATOM     16  C   UNL     1       4.331  -0.815   0.655  0.00  0.00    +0.160 C 
ENDBRANCH  10  12
ENDBRANCH   3  10
TORSDOF 2
