REMARK  Name = 57520598
REMARK  9 active torsions:
REMARK  status: ('A' for Active; 'I' for Inactive)
REMARK    1  A    between atoms: N_2  and  C_20
REMARK    2  A    between atoms: N_2  and  C_27
REMARK    3  A    between atoms: C_3  and  C_6
REMARK    4  A    between atoms: C_10  and  C_12
REMARK    5  A    between atoms: C_20  and  C_21
REMARK    6  A    between atoms: C_21  and  C_22
REMARK    7  A    between atoms: C_22  and  C_24
REMARK    8  A    between atoms: C_24  and  O_25
REMARK    9  A    between atoms: C_27  and  C_29
REMARK                            x       y       z     vdW  Elec       q    Type
REMARK                         _______ _______ _______ _____ _____    ______ ____
ROOT
ATOM      1  O   UNL     1       0.058  -1.495  -1.339  0.00  0.00    -0.273 OA
ATOM      2  N   UNL     1       1.825  -0.077  -0.757  0.00  0.00    -0.274 N 
ATOM      3  C   UNL     1       0.465  -0.473  -0.766  0.00  0.00    +0.242 C 
ENDROOT
BRANCH   3   6
ATOM      4  O   UNL     1      -2.604  -1.631   0.622  0.00  0.00    -0.270 OA
ATOM      5  N   UNL     1      -1.898   0.287  -0.436  0.00  0.00    -0.271 N 
ATOM      6  C   UNL     1      -0.517   0.441  -0.015  0.00  0.00    +0.131 C 
ATOM      7  C   UNL     1      -0.636   1.897  -0.478  0.00  0.00    +0.049 C 
ATOM      8  C   UNL     1      -1.918   1.506  -1.224  0.00  0.00    +0.096 C 
ATOM      9  C   UNL     1      -0.400   0.317   1.488  0.00  0.00    +0.029 C 
ATOM     10  C   UNL     1      -2.835  -0.643  -0.071  0.00  0.00    +0.250 C 
BRANCH  10  12
ATOM     11  S   UNL     1      -6.192  -0.075  -2.126  0.00  0.00    -0.086 S 
ATOM     12  C   UNL     1      -4.218  -0.417  -0.532  0.00  0.00    +0.061 C 
ATOM     13  C   UNL     1      -5.364  -0.254   0.317  0.00  0.00    +0.011 C 
ATOM     14  C   UNL     1      -4.528  -0.342  -1.869  0.00  0.00    +0.040 C 
ATOM     15  C   UNL     1      -6.526  -0.056  -0.434  0.00  0.00    +0.030 C 
ATOM     16  C   UNL     1      -5.473  -0.266   1.729  0.00  0.00    +0.001 C 
ATOM     17  C   UNL     1      -7.779   0.129   0.182  0.00  0.00    +0.006 C 
ATOM     18  C   UNL     1      -6.715  -0.083   2.344  0.00  0.00    +0.000 C 
ATOM     19  C   UNL     1      -7.854   0.113   1.577  0.00  0.00    +0.001 C 
ENDBRANCH  10  12
ENDBRANCH   3   6
BRANCH   2  20
ATOM     20  C   UNL     1       2.342   1.097  -0.108  0.00  0.00    +0.094 C 
BRANCH  20  21
ATOM     21  C   UNL     1       3.023   2.059  -1.080  0.00  0.00    +0.033 C 
BRANCH  21  22
ATOM     22  C   UNL     1       3.622   3.301  -0.413  0.00  0.00    +0.111 C 
BRANCH  22  24
ATOM     23  O   UNL     1       5.333   1.961   0.687  0.00  0.00    -0.250 OA
ATOM     24  C   UNL     1       4.647   2.973   0.649  0.00  0.00    +0.314 C 
BRANCH  24  25
ATOM     25  O   UNL     1       4.743   3.967   1.571  0.00  0.00    -0.480 OA
ATOM     26  H   UNL     1       4.196   4.725   1.501  0.00  0.00    +0.295 HD
ENDBRANCH  24  25
ENDBRANCH  22  24
ENDBRANCH  21  22
ENDBRANCH  20  21
ENDBRANCH   2  20
BRANCH   2  27
ATOM     27  C   UNL     1       2.802  -0.915  -1.460  0.00  0.00    +0.120 C 
BRANCH  27  29
ATOM     28 CL   UNL     1       7.812  -1.346  -0.103  0.00  0.00    -0.082 Cl
ATOM     29  C   UNL     1       3.837  -1.476  -0.526  0.00  0.00    -0.001 C 
ATOM     30  C   UNL     1       5.186  -1.184  -0.725  0.00  0.00    +0.009 C 
ATOM     31  C   UNL     1       3.448  -2.287   0.540  0.00  0.00    -0.003 C 
ATOM     32  C   UNL     1       6.147  -1.704   0.143  0.00  0.00    +0.057 C 
ATOM     33  C   UNL     1       4.408  -2.806   1.407  0.00  0.00    +0.001 C 
ATOM     34  C   UNL     1       5.758  -2.515   1.209  0.00  0.00    +0.011 C 
ENDBRANCH  27  29
ENDBRANCH   2  27
TORSDOF 9
