REMARK  Name = 86291103
REMARK  4 active torsions:
REMARK  status: ('A' for Active; 'I' for Inactive)
REMARK    1  A    between atoms: C_3  and  C_19
REMARK    2  A    between atoms: C_4  and  C_13
REMARK    3  A    between atoms: C_19  and  N_20
REMARK    4  A    between atoms: C_19  and  C_33
REMARK                            x       y       z     vdW  Elec       q    Type
REMARK                         _______ _______ _______ _____ _____    ______ ____
ROOT
ATOM      1  O   UNL     1       1.162  -1.671   0.773  0.00  0.00    -0.456 OA
ATOM      2  O   UNL     1       3.840   0.518  -1.368  0.00  0.00    -0.286 OA
ATOM      3  C   UNL     1       0.915  -0.336   0.482  0.00  0.00    +0.143 A 
ATOM      4  C   UNL     1       1.756   0.452  -0.221  0.00  0.00    +0.071 A 
ATOM      5  C   UNL     1       3.030  -0.137  -0.724  0.00  0.00    +0.201 A 
ATOM      6  C   UNL     1       3.274  -1.551  -0.408  0.00  0.00    +0.074 A 
ATOM      7  C   UNL     1       2.321  -2.246   0.328  0.00  0.00    +0.148 A 
ATOM      8  C   UNL     1       4.440  -2.190  -0.836  0.00  0.00    +0.006 C 
ATOM      9  C   UNL     1       2.527  -3.590   0.643  0.00  0.00    +0.038 C 
ATOM     10  C   UNL     1       4.645  -3.534  -0.520  0.00  0.00    +0.000 C 
ATOM     11  C   UNL     1       3.690  -4.233   0.219  0.00  0.00    +0.003 C 
ENDROOT
BRANCH   4  13
ATOM     12  F   UNL     1       1.976   5.136   0.969  0.00  0.00    -0.204 F 
ATOM     13  C   UNL     1       1.457   1.850  -0.503  0.00  0.00    +0.008 C 
ATOM     14  C   UNL     1       1.867   2.844   0.386  0.00  0.00    +0.030 C 
ATOM     15  C   UNL     1       0.760   2.195  -1.661  0.00  0.00    +0.000 C 
ATOM     16  C   UNL     1       1.581   4.182   0.117  0.00  0.00    +0.140 C 
ATOM     17  C   UNL     1       0.474   3.533  -1.931  0.00  0.00    +0.002 C 
ATOM     18  C   UNL     1       0.885   4.527  -1.042  0.00  0.00    +0.030 C 
ENDBRANCH   4  13
BRANCH   3  19
ATOM     19  C   UNL     1      -0.403   0.113   1.051  0.00  0.00    +0.128 C 
BRANCH  19  20
ATOM     20  N   UNL     1      -1.433  -0.678   0.420  0.00  0.00    -0.316 N 
ATOM     21  N   UNL     1      -3.164   0.906   0.825  0.00  0.00    -0.232 NA
ATOM     22  N   UNL     1      -3.673  -2.300  -0.903  0.00  0.00    -0.270 NA
ATOM     23  N   UNL     1      -5.788  -1.608  -1.034  0.00  0.00    -0.307 N 
ATOM     24  N   UNL     1      -5.463   0.514   0.107  0.00  0.00    -0.232 NA
ATOM     25  C   UNL     1      -2.757  -0.280   0.320  0.00  0.00    +0.124 C 
ATOM     26  C   UNL     1      -3.701  -1.077  -0.295  0.00  0.00    +0.164 C 
ATOM     27  C   UNL     1      -5.025  -0.668  -0.389  0.00  0.00    +0.125 C 
ATOM     28  C   UNL     1      -4.946  -2.575  -1.329  0.00  0.00    +0.163 C 
ATOM     29  C   UNL     1      -4.473   1.226   0.689  0.00  0.00    +0.252 C 
ATOM     30  H   UNL     1      -1.180  -1.550   0.039  0.00  0.00    +0.148 HD
ATOM     31  H   UNL     1      -2.884  -2.877  -1.015  0.00  0.00    +0.126 HD
ATOM     32  H   UNL     1      -6.752  -1.568  -1.232  0.00  0.00    +0.149 HD
ENDBRANCH  19  20
BRANCH  19  33
ATOM     33  C   UNL     1      -0.436  -0.061   2.570  0.00  0.00    +0.027 C 
ATOM     34  C   UNL     1       0.660   0.739   3.264  0.00  0.00    +0.002 C 
ENDBRANCH  19  33
ENDBRANCH   3  19
TORSDOF 4
