REMARK  Name = 68109743
REMARK  6 active torsions:
REMARK  status: ('A' for Active; 'I' for Inactive)
REMARK    1  A    between atoms: N_1  and  C_13
REMARK    2  A    between atoms: C_8  and  C_25
REMARK    3  A    between atoms: C_16  and  O_18
REMARK    4  A    between atoms: O_18  and  C_19
REMARK    5  A    between atoms: C_19  and  C_20
REMARK    6  A    between atoms: N_24  and  S_27
REMARK                            x       y       z     vdW  Elec       q    Type
REMARK                         _______ _______ _______ _____ _____    ______ ____
ROOT
ATOM      1  N   UNL     1       0.442   1.407  -0.116  0.00  0.00    -0.228 N 
ATOM      2  N   UNL     1       0.127   2.693  -0.341  0.00  0.00    -0.169 NA
ATOM      3  C   UNL     1      -0.640   0.587   0.064  0.00  0.00    +0.084 A 
ATOM      4  C   UNL     1      -1.750   1.415  -0.056  0.00  0.00    +0.033 A 
ATOM      5  C   UNL     1      -1.208   2.695  -0.304  0.00  0.00    +0.081 A 
ATOM      6  C   UNL     1      -3.036   0.866   0.080  0.00  0.00    +0.007 C 
ATOM      7  C   UNL     1      -0.735  -0.783   0.316  0.00  0.00    +0.019 C 
ATOM      8  C   UNL     1      -3.154  -0.506   0.334  0.00  0.00    +0.055 C 
ATOM      9  C   UNL     1      -2.022  -1.315   0.449  0.00  0.00    +0.006 C 
ATOM     10  C   UNL     1      -1.937   3.958  -0.513  0.00  0.00    +0.054 C 
ENDROOT
BRANCH   1  13
ATOM     11 CL   UNL     1       5.329   2.579   0.871  0.00  0.00    -0.077 Cl
ATOM     12  N   UNL     1       3.449  -0.690  -0.458  0.00  0.00    -0.208 NA
ATOM     13  C   UNL     1       1.783   1.022  -0.083  0.00  0.00    +0.103 C 
ATOM     14  C   UNL     1       2.773   1.905   0.335  0.00  0.00    +0.037 C 
ATOM     15  C   UNL     1       2.170  -0.253  -0.466  0.00  0.00    +0.121 C 
ATOM     16  C   UNL     1       4.383   0.196  -0.046  0.00  0.00    +0.236 C 
ATOM     17  C   UNL     1       4.101   1.492   0.356  0.00  0.00    +0.112 C 
BRANCH  16  18
ATOM     18  O   UNL     1       5.677  -0.257  -0.042  0.00  0.00    -0.460 OA
BRANCH  18  19
ATOM     19  C   UNL     1       5.886  -1.598  -0.469  0.00  0.00    +0.207 C 
BRANCH  19  20
ATOM     20  C   UNL     1       7.374  -1.946  -0.387  0.00  0.00    +0.044 C 
ATOM     21  C   UNL     1       7.621  -3.359  -0.911  0.00  0.00    +0.004 C 
ATOM     22  C   UNL     1       7.901  -1.810   1.044  0.00  0.00    +0.004 C 
ENDBRANCH  19  20
ENDBRANCH  18  19
ENDBRANCH  16  18
ENDBRANCH   1  13
BRANCH   8  25
ATOM     23  O   UNL     1      -4.668  -2.119   1.152  0.00  0.00    -0.269 OA
ATOM     24  N   UNL     1      -5.561  -0.431  -0.208  0.00  0.00    -0.185 N 
ATOM     25  C   UNL     1      -4.476  -1.095   0.478  0.00  0.00    +0.264 C 
ATOM     26  H   UNL     1      -5.336   0.374  -0.727  0.00  0.00    +0.176 HD
BRANCH  24  27
ATOM     27  S   UNL     1      -7.201  -0.922  -0.197  0.00  0.00    +0.058 S 
ATOM     28  O   UNL     1      -7.666  -1.077   1.167  0.00  0.00    -0.154 OA
ATOM     29  O   UNL     1      -7.934  -0.110  -1.148  0.00  0.00    -0.154 OA
ATOM     30  C   UNL     1      -7.027  -2.543  -0.904  0.00  0.00    +0.200 C 
ENDBRANCH  24  27
ENDBRANCH   8  25
TORSDOF 6
