REMARK  Name = 5283190
REMARK  15 active torsions:
REMARK  status: ('A' for Active; 'I' for Inactive)
REMARK    1  A    between atoms: C_1  and  C_15
REMARK    2  A    between atoms: C_2  and  C_4
REMARK    3  A    between atoms: C_3  and  C_5
REMARK    4  A    between atoms: C_5  and  C_7
REMARK    5  A    between atoms: C_6  and  C_8
REMARK    6  A    between atoms: C_8  and  C_9
REMARK    7  A    between atoms: C_9  and  C_10
REMARK    8  A    between atoms: C_10  and  C_12
REMARK    9  A    between atoms: C_12  and  O_13
REMARK   10  A    between atoms: C_15  and  O_16
REMARK   11  A    between atoms: C_15  and  C_18
REMARK   12  A    between atoms: C_18  and  C_19
REMARK   13  A    between atoms: C_20  and  C_21
REMARK   14  A    between atoms: C_21  and  C_22
REMARK   15  A    between atoms: C_23  and  C_24
REMARK                            x       y       z     vdW  Elec       q    Type
REMARK                         _______ _______ _______ _____ _____    ______ ____
ROOT
ATOM      1  C   UNL     1      -1.971  -2.645  -0.538  0.00  0.00    +0.003 C 
ATOM      2  C   UNL     1      -0.702  -2.663  -0.102  0.00  0.00    -0.003 C 
ENDROOT
BRANCH   2   4
ATOM      3  C   UNL     1       1.537  -3.629   0.124  0.00  0.00    -0.021 C 
ATOM      4  C   UNL     1       0.283  -3.691  -0.352  0.00  0.00    -0.004 C 
BRANCH   3   5
ATOM      5  C   UNL     1       2.052  -2.496   0.964  0.00  0.00    +0.052 C 
BRANCH   5   7
ATOM      6  C   UNL     1       4.127  -1.515  -0.047  0.00  0.00    -0.030 C 
ATOM      7  C   UNL     1       3.539  -2.345   0.827  0.00  0.00    -0.026 C 
BRANCH   6   8
ATOM      8  C   UNL     1       3.371  -0.632  -0.997  0.00  0.00    +0.026 C 
BRANCH   8   9
ATOM      9  C   UNL     1       3.094   0.739  -0.381  0.00  0.00    +0.016 C 
BRANCH   9  10
ATOM     10  C   UNL     1       2.360   1.647  -1.361  0.00  0.00    +0.110 C 
BRANCH  10  12
ATOM     11  O   UNL     1       2.533   3.359   0.340  0.00  0.00    -0.250 OA
ATOM     12  C   UNL     1       2.132   3.007  -0.760  0.00  0.00    +0.314 C 
BRANCH  12  13
ATOM     13  O   UNL     1       1.439   3.806  -1.609  0.00  0.00    -0.480 OA
ATOM     14  H   UNL     1       1.160   3.476  -2.440  0.00  0.00    +0.295 HD
ENDBRANCH  12  13
ENDBRANCH  10  12
ENDBRANCH   9  10
ENDBRANCH   8   9
ENDBRANCH   6   8
ENDBRANCH   5   7
ENDBRANCH   3   5
ENDBRANCH   2   4
BRANCH   1  15
ATOM     15  C   UNL     1      -3.022  -1.594  -0.296  0.00  0.00    +0.137 C 
BRANCH  15  16
ATOM     16  O   UNL     1      -4.280  -2.268  -0.208  0.00  0.00    -0.380 OA
ATOM     17  H   UNL     1      -4.984  -1.619  -0.052  0.00  0.00    +0.211 HD
ENDBRANCH  15  16
BRANCH  15  18
ATOM     18  C   UNL     1      -3.089  -0.573  -1.441  0.00  0.00    +0.059 C 
BRANCH  18  19
ATOM     19  C   UNL     1      -3.852   0.661  -1.055  0.00  0.00    -0.027 C 
ATOM     20  C   UNL     1      -3.281   1.775  -0.573  0.00  0.00    -0.026 C 
BRANCH  20  21
ATOM     21  C   UNL     1      -1.803   1.924  -0.359  0.00  0.00    +0.051 C 
BRANCH  21  22
ATOM     22  C   UNL     1      -1.505   2.909   0.733  0.00  0.00    -0.026 C 
ATOM     23  C   UNL     1      -1.359   2.580   2.025  0.00  0.00    -0.030 C 
BRANCH  23  24
ATOM     24  C   UNL     1      -1.475   1.176   2.541  0.00  0.00    +0.026 C 
ATOM     25  C   UNL     1      -0.130   0.467   2.526  0.00  0.00    +0.005 C 
ENDBRANCH  23  24
ENDBRANCH  21  22
ENDBRANCH  20  21
ENDBRANCH  18  19
ENDBRANCH  15  18
ENDBRANCH   1  15
TORSDOF 15
