REMARK  Name = 118599727
REMARK  3 active torsions:
REMARK  status: ('A' for Active; 'I' for Inactive)
REMARK    1  A    between atoms: C_5  and  C_26
REMARK    2  A    between atoms: C_9  and  C_17
REMARK    3  A    between atoms: C_26  and  C_29
REMARK                            x       y       z     vdW  Elec       q    Type
REMARK                         _______ _______ _______ _____ _____    ______ ____
ROOT
ATOM      1  F   UNL     1       6.942   0.626  -0.815  0.00  0.00    -0.204 F 
ATOM      2  O   UNL     1       3.214  -1.384   1.225  0.00  0.00    -0.472 OA
ATOM      3  O   UNL     1       0.831   2.754  -0.653  0.00  0.00    -0.270 OA
ATOM      4  N   UNL     1       1.408   0.592   0.132  0.00  0.00    -0.250 N 
ATOM      5  C   UNL     1       0.937  -0.682   0.730  0.00  0.00    +0.133 C 
ATOM      6  C   UNL     1       1.933  -1.131   1.791  0.00  0.00    +0.226 C 
ATOM      7  C   UNL     1       2.832   0.647  -0.104  0.00  0.00    +0.088 C 
ATOM      8  C   UNL     1       3.666  -0.350   0.441  0.00  0.00    +0.154 C 
ATOM      9  C   UNL     1       0.544   1.665  -0.161  0.00  0.00    +0.253 C 
ATOM     10  C   UNL     1       3.441   1.633  -0.896  0.00  0.00    +0.020 C 
ATOM     11  C   UNL     1       5.044  -0.362   0.195  0.00  0.00    +0.068 C 
ATOM     12  C   UNL     1       4.822   1.628  -1.128  0.00  0.00    +0.031 C 
ATOM     13  C   UNL     1       5.623   0.632  -0.584  0.00  0.00    +0.143 C 
ENDROOT
BRANCH   9  17
ATOM     14  O   UNL     1      -4.897   1.193   1.183  0.00  0.00    -0.464 OA
ATOM     15  O   UNL     1      -6.181  -0.242  -1.875  0.00  0.00    -0.271 OA
ATOM     16  N   UNL     1      -4.018   0.354  -1.371  0.00  0.00    -0.278 N 
ATOM     17  C   UNL     1      -0.878   1.520   0.180  0.00  0.00    +0.055 C 
ATOM     18  C   UNL     1      -1.768   0.989  -0.755  0.00  0.00    +0.022 C 
ATOM     19  C   UNL     1      -3.117   0.852  -0.424  0.00  0.00    +0.085 C 
ATOM     20  C   UNL     1      -1.339   1.922   1.434  0.00  0.00    +0.008 C 
ATOM     21  C   UNL     1      -3.578   1.250   0.830  0.00  0.00    +0.153 C 
ATOM     22  C   UNL     1      -2.690   1.795   1.757  0.00  0.00    +0.038 C 
ATOM     23  C   UNL     1      -5.663   0.284   0.416  0.00  0.00    +0.290 C 
ATOM     24  C   UNL     1      -5.339   0.129  -1.060  0.00  0.00    +0.271 C 
ATOM     25  H   UNL     1      -3.699   0.161  -2.282  0.00  0.00    +0.155 HD
ENDBRANCH   9  17
BRANCH   5  26
ATOM     26  C   UNL     1       0.715  -1.753  -0.345  0.00  0.00    +0.109 C 
BRANCH  26  29
ATOM     27  O   UNL     1      -0.682  -2.902   1.261  0.00  0.00    -0.275 OA
ATOM     28  N   UNL     1      -0.392  -3.810  -0.859  0.00  0.00    -0.303 N 
ATOM     29  C   UNL     1      -0.194  -2.862   0.135  0.00  0.00    +0.224 C 
ATOM     30  C   UNL     1      -1.216  -4.983  -0.678  0.00  0.00    +0.111 C 
ATOM     31  H   UNL     1       0.050  -3.677  -1.728  0.00  0.00    +0.149 HD
ENDBRANCH  26  29
ENDBRANCH   5  26
TORSDOF 3
