REMARK  Name = 118414016
REMARK  6 active torsions:
REMARK  status: ('A' for Active; 'I' for Inactive)
REMARK    1  A    between atoms: C_2  and  O_18
REMARK    2  A    between atoms: C_8  and  O_16
REMARK    3  A    between atoms: C_9  and  C_13
REMARK    4  A    between atoms: O_18  and  C_19
REMARK    5  A    between atoms: C_19  and  C_24
REMARK    6  A    between atoms: C_23  and  C_28
REMARK                            x       y       z     vdW  Elec       q    Type
REMARK                         _______ _______ _______ _____ _____    ______ ____
ROOT
ATOM      1  N   UNL     1       0.408   2.200  -0.145  0.00  0.00    -0.210 NA
ATOM      2  C   UNL     1      -0.062   0.952   0.080  0.00  0.00    +0.225 C 
ATOM      3  C   UNL     1      -1.409   0.592   0.018  0.00  0.00    +0.056 C 
ATOM      4  C   UNL     1      -2.339   1.603  -0.301  0.00  0.00    +0.006 C 
ATOM      5  C   UNL     1      -1.857  -0.718   0.259  0.00  0.00    +0.042 C 
ATOM      6  C   UNL     1      -3.704   1.279  -0.372  0.00  0.00    +0.008 C 
ATOM      7  C   UNL     1      -1.873   2.902  -0.538  0.00  0.00    +0.021 C 
ATOM      8  C   UNL     1      -3.216  -1.022   0.184  0.00  0.00    +0.143 C 
ATOM      9  C   UNL     1      -4.137  -0.026  -0.131  0.00  0.00    +0.087 C 
ATOM     10  C   UNL     1      -0.510   3.142  -0.448  0.00  0.00    +0.102 C 
ENDROOT
BRANCH   9  13
ATOM     11  O   UNL     1      -6.303  -0.216   0.775  0.00  0.00    -0.270 OA
ATOM     12  N   UNL     1      -6.065  -0.722  -1.449  0.00  0.00    -0.325 N 
ATOM     13  C   UNL     1      -5.560  -0.326  -0.215  0.00  0.00    +0.246 C 
ATOM     14  H   UNL     1      -7.021  -0.933  -1.545  0.00  0.00    +0.145 HD
ATOM     15  H   UNL     1      -5.465  -0.791  -2.226  0.00  0.00    +0.145 HD
ENDBRANCH   9  13
BRANCH   8  16
ATOM     16  O   UNL     1      -3.622  -2.301   0.421  0.00  0.00    -0.471 OA
ATOM     17  C   UNL     1      -3.945  -2.638   1.769  0.00  0.00    +0.252 C 
ENDBRANCH   8  16
BRANCH   2  18
ATOM     18  O   UNL     1       0.891   0.012   0.384  0.00  0.00    -0.458 OA
BRANCH  18  19
ATOM     19  C   UNL     1       2.238   0.454   0.428  0.00  0.00    +0.227 C 
BRANCH  19  24
ATOM     20  F   UNL     1       4.957   0.482  -1.309  0.00  0.00    -0.227 F 
ATOM     21  O   UNL     1       4.396  -2.423  -2.060  0.00  0.00    -0.272 OA
ATOM     22  N   UNL     1       3.080  -1.735  -0.249  0.00  0.00    -0.300 N 
ATOM     23  C   UNL     1       4.634  -0.426   0.868  0.00  0.00    +0.063 C 
ATOM     24  C   UNL     1       3.131  -0.727   0.787  0.00  0.00    +0.118 C 
ATOM     25  C   UNL     1       5.119  -0.645  -0.572  0.00  0.00    +0.238 C 
ATOM     26  C   UNL     1       4.199  -1.730  -1.074  0.00  0.00    +0.255 C 
ATOM     27  H   UNL     1       2.328  -2.361  -0.358  0.00  0.00    +0.150 HD
BRANCH  23  28
ATOM     28  C   UNL     1       5.021   0.926   1.441  0.00  0.00    +0.005 C 
ATOM     29  C   UNL     1       6.525   1.110   1.447  0.00  0.00    +0.000 C 
ENDBRANCH  23  28
ENDBRANCH  19  24
ENDBRANCH  18  19
ENDBRANCH   2  18
TORSDOF 6
