REMARK  Name = 10156
REMARK  5 active torsions:
REMARK  status: ('A' for Active; 'I' for Inactive)
REMARK    1  A    between atoms: C_2  and  N_19
REMARK    2  A    between atoms: C_9  and  O_23
REMARK    3  A    between atoms: C_13  and  O_25
REMARK    4  A    between atoms: C_14  and  O_27
REMARK    5  A    between atoms: C_17  and  O_29
REMARK                            x       y       z     vdW  Elec       q    Type
REMARK                         _______ _______ _______ _____ _____    ______ ____
ROOT
ATOM      1  O   UNL     1      -4.757  -0.228  -1.510  0.00  0.00    -0.283 OA
ATOM      2  C   UNL     1      -1.075   2.016   0.510  0.00  0.00    +0.094 C 
ATOM      3  C   UNL     1      -0.404   2.225   1.886  0.00  0.00    +0.029 C 
ATOM      4  C   UNL     1       0.322   1.037   2.527  0.00  0.00    +0.029 C 
ATOM      5  C   UNL     1      -1.790   0.684   0.267  0.00  0.00    -0.001 C 
ATOM      6  C   UNL     1       1.115   0.214   1.549  0.00  0.00    -0.016 C 
ATOM      7  C   UNL     1       0.449  -0.563   0.579  0.00  0.00    +0.033 C 
ATOM      8  C   UNL     1      -1.042  -0.557   0.524  0.00  0.00    +0.000 C 
ATOM      9  C   UNL     1       1.198  -1.305  -0.347  0.00  0.00    +0.175 C 
ATOM     10  C   UNL     1       2.516   0.224   1.582  0.00  0.00    +0.036 C 
ATOM     11  C   UNL     1      -3.035   0.740  -0.241  0.00  0.00    +0.043 C 
ATOM     12  C   UNL     1      -1.601  -1.748   0.817  0.00  0.00    +0.003 C 
ATOM     13  C   UNL     1       2.592  -1.288  -0.301  0.00  0.00    +0.206 C 
ATOM     14  C   UNL     1       3.249  -0.526   0.663  0.00  0.00    +0.175 C 
ATOM     15  C   UNL     1      -3.964  -0.364  -0.581  0.00  0.00    +0.229 C 
ATOM     16  C   UNL     1      -2.993  -2.095   0.929  0.00  0.00    +0.040 C 
ATOM     17  C   UNL     1      -4.039  -1.552   0.301  0.00  0.00    +0.173 C 
ENDROOT
BRANCH   2  19
ATOM     18  O   UNL     1      -0.320   4.602  -0.572  0.00  0.00    -0.275 OA
ATOM     19  N   UNL     1      -0.159   2.280  -0.581  0.00  0.00    -0.302 N 
ATOM     20  C   UNL     1       0.136   3.555  -1.025  0.00  0.00    +0.223 C 
ATOM     21  C   UNL     1       1.135   3.546  -2.151  0.00  0.00    +0.095 C 
ATOM     22  H   UNL     1       0.273   1.516  -1.027  0.00  0.00    +0.150 HD
ENDBRANCH   2  19
BRANCH   9  23
ATOM     23  O   UNL     1       0.581  -2.034  -1.325  0.00  0.00    -0.468 OA
ATOM     24  C   UNL     1       0.330  -1.372  -2.560  0.00  0.00    +0.253 C 
ENDBRANCH   9  23
BRANCH  13  25
ATOM     25  O   UNL     1       3.314  -2.010  -1.204  0.00  0.00    -0.465 OA
ATOM     26  C   UNL     1       3.651  -3.347  -0.842  0.00  0.00    +0.253 C 
ENDBRANCH  13  25
BRANCH  14  27
ATOM     27  O   UNL     1       4.610  -0.500   0.715  0.00  0.00    -0.468 OA
ATOM     28  C   UNL     1       5.269   0.505  -0.053  0.00  0.00    +0.253 C 
ENDBRANCH  14  27
BRANCH  17  29
ATOM     29  O   UNL     1      -5.287  -2.138   0.445  0.00  0.00    -0.503 OA
ATOM     30  H   UNL     1      -6.031  -1.769   0.010  0.00  0.00    +0.292 HD
ENDBRANCH  17  29
TORSDOF 5
