44633765
  -OEChem-05201910433D

 53 56  0     0  0  0  0  0  0999 V2000
   -7.6056   -2.8485    0.4593 Cl  0  0  0  0  0  0  0  0  0  0  0  0
   -0.4003   -2.1529    0.7567 O   0  0  0  0  0  0  0  0  0  0  0  0
    6.7172    0.2142   -0.3426 O   0  0  0  0  0  0  0  0  0  0  0  0
    5.5274   -1.5256    1.4603 O   0  0  0  0  0  0  0  0  0  0  0  0
    0.5967   -1.0140   -0.9999 N   0  0  0  0  0  0  0  0  0  0  0  0
   -1.9966    2.1818    0.4510 N   0  0  0  0  0  0  0  0  0  0  0  0
    3.6528   -1.7173    0.1157 N   0  0  0  0  0  0  0  0  0  0  0  0
    0.9388    1.0644    1.5715 N   0  0  0  0  0  0  0  0  0  0  0  0
   -7.3081    0.9080   -0.8320 N   0  0  0  0  0  0  0  0  0  0  0  0
   -1.3879   -0.1311    0.0971 C   0  0  0  0  0  0  0  0  0  0  0  0
   -1.0778    1.1951    0.3523 C   0  0  0  0  0  0  0  0  0  0  0  0
   -3.7019    0.5212    0.0272 C   0  0  0  0  0  0  0  0  0  0  0  0
   -2.7273   -0.4661   -0.0673 C   0  0  0  0  0  0  0  0  0  0  0  0
    1.6537   -1.9698   -1.2411 C   0  0  0  0  0  0  0  0  0  0  0  0
   -0.3730   -1.1707   -0.0042 C   0  0  0  0  0  0  0  0  0  0  0  0
   -5.1011    0.2053   -0.1387 C   0  0  0  0  0  0  0  0  0  0  0  0
    3.0132   -1.3707   -1.0238 C   0  0  0  0  0  0  0  0  0  0  0  0
    0.2850    1.6424    0.5389 C   0  0  0  0  0  0  0  0  0  0  0  0
   -3.2881    1.8182    0.2855 C   0  0  0  0  0  0  0  0  0  0  0  0
    3.5362   -0.5107   -1.9761 C   0  0  0  0  0  0  0  0  0  0  0  0
   -5.6007   -1.0443    0.2108 C   0  0  0  0  0  0  0  0  0  0  0  0
    0.8446    2.5944   -0.2982 C   0  0  0  0  0  0  0  0  0  0  0  0
    4.7968    0.0283   -1.7440 C   0  0  0  0  0  0  0  0  0  0  0  0
    5.4860   -0.3044   -0.5832 C   0  0  0  0  0  0  0  0  0  0  0  0
   -5.9881    1.1382   -0.6512 C   0  0  0  0  0  0  0  0  0  0  0  0
    4.8758   -1.1737    0.3068 C   0  0  0  0  0  0  0  0  0  0  0  0
   -6.9530   -1.3190    0.0396 C   0  0  0  0  0  0  0  0  0  0  0  0
    2.1597    2.9778   -0.0603 C   0  0  0  0  0  0  0  0  0  0  0  0
    2.2152    1.4622    1.7720 C   0  0  0  0  0  0  0  0  0  0  0  0
    2.8652    2.4056    0.9926 C   0  0  0  0  0  0  0  0  0  0  0  0
   -7.7572   -0.3178   -0.4809 C   0  0  0  0  0  0  0  0  0  0  0  0
    7.2554    1.1006   -1.3251 C   0  0  0  0  0  0  0  0  0  0  0  0
    4.8469   -2.4211    2.3313 C   0  0  0  0  0  0  0  0  0  0  0  0
   -2.9810   -1.4985   -0.2952 H   0  0  0  0  0  0  0  0  0  0  0  0
    1.5239   -2.8476   -0.5989 H   0  0  0  0  0  0  0  0  0  0  0  0
    1.5564   -2.3123   -2.2774 H   0  0  0  0  0  0  0  0  0  0  0  0
    0.5420   -0.2077   -1.6159 H   0  0  0  0  0  0  0  0  0  0  0  0
   -3.9812    2.6458    0.3997 H   0  0  0  0  0  0  0  0  0  0  0  0
    2.9890   -0.2569   -2.8778 H   0  0  0  0  0  0  0  0  0  0  0  0
   -4.9645   -1.8134    0.6420 H   0  0  0  0  0  0  0  0  0  0  0  0
    0.2910    3.0342   -1.1215 H   0  0  0  0  0  0  0  0  0  0  0  0
    5.1820    0.6990   -2.5041 H   0  0  0  0  0  0  0  0  0  0  0  0
   -5.6808    2.1285   -0.9727 H   0  0  0  0  0  0  0  0  0  0  0  0
    2.6353    3.7188   -0.6956 H   0  0  0  0  0  0  0  0  0  0  0  0
    2.7226    0.9836    2.6030 H   0  0  0  0  0  0  0  0  0  0  0  0
    3.8924    2.6866    1.1947 H   0  0  0  0  0  0  0  0  0  0  0  0
   -8.8207   -0.4699   -0.6386 H   0  0  0  0  0  0  0  0  0  0  0  0
    8.2415    1.4169   -0.9699 H   0  0  0  0  0  0  0  0  0  0  0  0
    6.6450    2.0044   -1.4267 H   0  0  0  0  0  0  0  0  0  0  0  0
    7.4064    0.5929   -2.2837 H   0  0  0  0  0  0  0  0  0  0  0  0
    3.9104   -1.9825    2.6923 H   0  0  0  0  0  0  0  0  0  0  0  0
    4.6644   -3.3836    1.8416 H   0  0  0  0  0  0  0  0  0  0  0  0
    5.4900   -2.6011    3.1979 H   0  0  0  0  0  0  0  0  0  0  0  0
  1 27  1  0  0  0  0
  2 15  2  0  0  0  0
  3 24  1  0  0  0  0
  3 32  1  0  0  0  0
  4 26  1  0  0  0  0
  4 33  1  0  0  0  0
  5 14  1  0  0  0  0
  5 15  1  0  0  0  0
  5 37  1  0  0  0  0
  6 11  1  0  0  0  0
  6 19  2  0  0  0  0
  7 17  2  0  0  0  0
  7 26  1  0  0  0  0
  8 18  1  0  0  0  0
  8 29  2  0  0  0  0
  9 25  2  0  0  0  0
  9 31  1  0  0  0  0
 10 11  2  0  0  0  0
 10 13  1  0  0  0  0
 10 15  1  0  0  0  0
 11 18  1  0  0  0  0
 12 13  2  0  0  0  0
 12 16  1  0  0  0  0
 12 19  1  0  0  0  0
 13 34  1  0  0  0  0
 14 17  1  0  0  0  0
 14 35  1  0  0  0  0
 14 36  1  0  0  0  0
 16 21  2  0  0  0  0
 16 25  1  0  0  0  0
 17 20  1  0  0  0  0
 18 22  2  0  0  0  0
 19 38  1  0  0  0  0
 20 23  2  0  0  0  0
 20 39  1  0  0  0  0
 21 27  1  0  0  0  0
 21 40  1  0  0  0  0
 22 28  1  0  0  0  0
 22 41  1  0  0  0  0
 23 24  1  0  0  0  0
 23 42  1  0  0  0  0
 24 26  2  0  0  0  0
 25 43  1  0  0  0  0
 27 31  2  0  0  0  0
 28 30  2  0  0  0  0
 28 44  1  0  0  0  0
 29 30  1  0  0  0  0
 29 45  1  0  0  0  0
 30 46  1  0  0  0  0
 31 47  1  0  0  0  0
 32 48  1  0  0  0  0
 32 49  1  0  0  0  0
 32 50  1  0  0  0  0
 33 51  1  0  0  0  0
 33 52  1  0  0  0  0
 33 53  1  0  0  0  0
M  END
> <DATABASE_ID>
DB15028

> <DATABASE_NAME>
drugbank

> <ORIGINAL_SOURCE>
PUBCHEM

> <ORIGINAL_SOURCE_URL>
https://pubchem.ncbi.nlm.nih.gov/rest/pug/compound/inchikey/CKTWQGHVNRYNCM-UHFFFAOYSA-N/SDF?record_type=3d

> <SMILES>
COC1=CC=C(CNC(=O)C2=CC(=CN=C2C2=NC=CC=C2)C2=CN=CC(Cl)=C2)N=C1OC

> <INCHI_IDENTIFIER>
InChI=1S/C24H20ClN5O3/c1-32-21-7-6-18(30-24(21)33-2)14-29-23(31)19-10-16(15-9-17(25)13-26-11-15)12-28-22(19)20-5-3-4-8-27-20/h3-13H,14H2,1-2H3,(H,29,31)

> <INCHI_KEY>
CKTWQGHVNRYNCM-UHFFFAOYSA-N

> <FORMULA>
C24H20ClN5O3

> <MOLECULAR_WEIGHT>
461.91

> <EXACT_MASS>
461.1254672

> <JCHEM_ACCEPTOR_COUNT>
7

> <JCHEM_ATOM_COUNT>
53

> <JCHEM_AVERAGE_POLARIZABILITY>
47.3524429634124

> <JCHEM_BIOAVAILABILITY>
1

> <JCHEM_DONOR_COUNT>
1

> <JCHEM_FORMAL_CHARGE>
0

> <JCHEM_GHOSE_FILTER>
1

> <JCHEM_IUPAC>
5'-chloro-N-[(5,6-dimethoxypyridin-2-yl)methyl]-6-(pyridin-2-yl)-[3,3'-bipyridine]-5-carboxamide

> <ALOGPS_LOGP>
3.27

> <JCHEM_LOGP>
2.932128526

> <ALOGPS_LOGS>
-4.79

> <JCHEM_MDDR_LIKE_RULE>
1

> <JCHEM_NUMBER_OF_RINGS>
4

> <JCHEM_PHYSIOLOGICAL_CHARGE>
0

> <JCHEM_PKA_STRONGEST_ACIDIC>
13.23161486991096

> <JCHEM_PKA_STRONGEST_BASIC>
2.9694115715863583

> <JCHEM_POLAR_SURFACE_AREA>
99.12

> <JCHEM_REFRACTIVITY>
123.06899999999999

> <JCHEM_ROTATABLE_BOND_COUNT>
7

> <JCHEM_RULE_OF_FIVE>
1

> <ALOGPS_SOLUBILITY>
7.41e-03 g/l

> <JCHEM_TRADITIONAL_IUPAC>
(2R)-14-fluoro-2-methyl-6,9,10,19-tetraazapentacyclo[14.2.1.0^{2,6}.0^{8,18}.0^{12,17}]nonadeca-1(18),8,12(17),13,15-pentaen-11-one

> <JCHEM_VEBER_RULE>
0

> <DRUGBANK_ID>
DB15028

> <DRUG_GROUPS>
investigational

> <GENERIC_NAME>
MK-1064

$$$$
