10156
  -OEChem-10091918073D

 51 53  0     1  0  0  0  0  0999 V2000
    0.5814   -2.0343   -1.3245 O   0  0  0  0  0  0  0  0  0  0  0  0
    3.3145   -2.0100   -1.2043 O   0  0  0  0  0  0  0  0  0  0  0  0
    4.6104   -0.5001    0.7151 O   0  0  0  0  0  0  0  0  0  0  0  0
   -4.7573   -0.2284   -1.5099 O   0  0  0  0  0  0  0  0  0  0  0  0
   -5.2871   -2.1376    0.4447 O   0  0  0  0  0  0  0  0  0  0  0  0
   -0.3203    4.6020   -0.5724 O   0  0  0  0  0  0  0  0  0  0  0  0
   -0.1588    2.2803   -0.5814 N   0  0  0  0  0  0  0  0  0  0  0  0
   -1.0751    2.0163    0.5100 C   0  0  2  0  0  0  0  0  0  0  0  0
   -0.4040    2.2251    1.8860 C   0  0  0  0  0  0  0  0  0  0  0  0
    0.3216    1.0369    2.5272 C   0  0  0  0  0  0  0  0  0  0  0  0
   -1.7896    0.6840    0.2669 C   0  0  0  0  0  0  0  0  0  0  0  0
    1.1151    0.2137    1.5489 C   0  0  0  0  0  0  0  0  0  0  0  0
    0.4485   -0.5631    0.5794 C   0  0  0  0  0  0  0  0  0  0  0  0
   -1.0420   -0.5574    0.5239 C   0  0  0  0  0  0  0  0  0  0  0  0
    1.1980   -1.3053   -0.3471 C   0  0  0  0  0  0  0  0  0  0  0  0
    2.5157    0.2235    1.5823 C   0  0  0  0  0  0  0  0  0  0  0  0
   -3.0351    0.7395   -0.2411 C   0  0  0  0  0  0  0  0  0  0  0  0
   -1.6011   -1.7477    0.8166 C   0  0  0  0  0  0  0  0  0  0  0  0
    2.5918   -1.2876   -0.3009 C   0  0  0  0  0  0  0  0  0  0  0  0
    3.2490   -0.5260    0.6626 C   0  0  0  0  0  0  0  0  0  0  0  0
   -3.9637   -0.3639   -0.5808 C   0  0  0  0  0  0  0  0  0  0  0  0
    0.1363    3.5555   -1.0250 C   0  0  0  0  0  0  0  0  0  0  0  0
   -2.9932   -2.0952    0.9292 C   0  0  0  0  0  0  0  0  0  0  0  0
   -4.0394   -1.5524    0.3007 C   0  0  0  0  0  0  0  0  0  0  0  0
    1.1348    3.5462   -2.1514 C   0  0  0  0  0  0  0  0  0  0  0  0
    0.3295   -1.3718   -2.5600 C   0  0  0  0  0  0  0  0  0  0  0  0
    3.6508   -3.3471   -0.8421 C   0  0  0  0  0  0  0  0  0  0  0  0
    5.2693    0.5050   -0.0526 C   0  0  0  0  0  0  0  0  0  0  0  0
   -1.8211    2.8224    0.4512 H   0  0  0  0  0  0  0  0  0  0  0  0
   -1.1729    2.5509    2.5998 H   0  0  0  0  0  0  0  0  0  0  0  0
    0.3041    3.0617    1.8156 H   0  0  0  0  0  0  0  0  0  0  0  0
   -0.4018    0.3861    3.0360 H   0  0  0  0  0  0  0  0  0  0  0  0
    0.9727    1.4113    3.3275 H   0  0  0  0  0  0  0  0  0  0  0  0
    0.3036    1.4970   -1.0334 H   0  0  0  0  0  0  0  0  0  0  0  0
    3.0387    0.8207    2.3258 H   0  0  0  0  0  0  0  0  0  0  0  0
   -3.4558    1.7140   -0.4878 H   0  0  0  0  0  0  0  0  0  0  0  0
   -0.9559   -2.5966    1.0497 H   0  0  0  0  0  0  0  0  0  0  0  0
   -3.1611   -2.9757    1.5490 H   0  0  0  0  0  0  0  0  0  0  0  0
    1.2289    4.5521   -2.5696 H   0  0  0  0  0  0  0  0  0  0  0  0
    2.1085    3.2212   -1.7742 H   0  0  0  0  0  0  0  0  0  0  0  0
    0.8047    2.8662   -2.9421 H   0  0  0  0  0  0  0  0  0  0  0  0
   -0.3477   -0.5244   -2.4183 H   0  0  0  0  0  0  0  0  0  0  0  0
   -0.1457   -2.0851   -3.2390 H   0  0  0  0  0  0  0  0  0  0  0  0
    1.2648   -1.0297   -3.0143 H   0  0  0  0  0  0  0  0  0  0  0  0
    2.7462   -3.9422   -0.6815 H   0  0  0  0  0  0  0  0  0  0  0  0
    4.2719   -3.3577    0.0591 H   0  0  0  0  0  0  0  0  0  0  0  0
    4.2196   -3.7914   -1.6634 H   0  0  0  0  0  0  0  0  0  0  0  0
    4.9759    1.5026    0.2895 H   0  0  0  0  0  0  0  0  0  0  0  0
    5.0394    0.3902   -1.1166 H   0  0  0  0  0  0  0  0  0  0  0  0
    6.3477    0.3906    0.0864 H   0  0  0  0  0  0  0  0  0  0  0  0
   -5.2093   -2.9063    1.0353 H   0  0  0  0  0  0  0  0  0  0  0  0
  1 15  1  0  0  0  0
  1 26  1  0  0  0  0
  2 19  1  0  0  0  0
  2 27  1  0  0  0  0
  3 20  1  0  0  0  0
  3 28  1  0  0  0  0
  4 21  2  0  0  0  0
  5 24  1  0  0  0  0
  5 51  1  0  0  0  0
  6 22  2  0  0  0  0
  7  8  1  0  0  0  0
  7 22  1  0  0  0  0
  7 34  1  0  0  0  0
  8  9  1  0  0  0  0
  8 11  1  0  0  0  0
  8 29  1  0  0  0  0
  9 10  1  0  0  0  0
  9 30  1  0  0  0  0
  9 31  1  0  0  0  0
 10 12  1  0  0  0  0
 10 32  1  0  0  0  0
 10 33  1  0  0  0  0
 11 14  1  0  0  0  0
 11 17  2  0  0  0  0
 12 13  1  0  0  0  0
 12 16  2  0  0  0  0
 13 14  1  0  0  0  0
 13 15  2  0  0  0  0
 14 18  2  0  0  0  0
 15 19  1  0  0  0  0
 16 20  1  0  0  0  0
 16 35  1  0  0  0  0
 17 21  1  0  0  0  0
 17 36  1  0  0  0  0
 18 23  1  0  0  0  0
 18 37  1  0  0  0  0
 19 20  2  0  0  0  0
 21 24  1  0  0  0  0
 22 25  1  0  0  0  0
 23 24  2  0  0  0  0
 23 38  1  0  0  0  0
 25 39  1  0  0  0  0
 25 40  1  0  0  0  0
 25 41  1  0  0  0  0
 26 42  1  0  0  0  0
 26 43  1  0  0  0  0
 26 44  1  0  0  0  0
 27 45  1  0  0  0  0
 27 46  1  0  0  0  0
 27 47  1  0  0  0  0
 28 48  1  0  0  0  0
 28 49  1  0  0  0  0
 28 50  1  0  0  0  0
M  END
> <DATABASE_ID>
DB15534

> <DATABASE_NAME>
drugbank

> <ORIGINAL_SOURCE>
PUBCHEM

> <ORIGINAL_SOURCE_URL>
https://pubchem.ncbi.nlm.nih.gov/rest/pug/compound/inchikey/PRGILOMAMBLWNG-UHFFFAOYSA-N/SDF?record_type=3d

> <SMILES>
COC1=C(OC)C(OC)=C2C(CCC(NC(C)=O)C3=CC(=O)C(O)=CC=C23)=C1

> <INCHI_IDENTIFIER>
InChI=1S/C21H23NO6/c1-11(23)22-15-7-5-12-9-18(26-2)20(27-3)21(28-4)19(12)13-6-8-16(24)17(25)10-14(13)15/h6,8-10,15H,5,7H2,1-4H3,(H,22,23)(H,24,25)

> <INCHI_KEY>
PRGILOMAMBLWNG-UHFFFAOYSA-N

> <FORMULA>
C21H23NO6

> <MOLECULAR_WEIGHT>
385.416

> <EXACT_MASS>
385.152537465

> <JCHEM_ACCEPTOR_COUNT>
6

> <JCHEM_ATOM_COUNT>
51

> <JCHEM_AVERAGE_POLARIZABILITY>
40.15870170149402

> <JCHEM_BIOAVAILABILITY>
1

> <JCHEM_DONOR_COUNT>
2

> <JCHEM_FORMAL_CHARGE>
0

> <JCHEM_GHOSE_FILTER>
1

> <JCHEM_IUPAC>
N-{14-hydroxy-3,4,5-trimethoxy-13-oxotricyclo[9.5.0.0^{2,7}]hexadeca-1(16),2,4,6,11,14-hexaen-10-yl}acetamide

> <ALOGPS_LOGP>
0.98

> <JCHEM_LOGP>
1.3491611809999997

> <ALOGPS_LOGS>
-3.76

> <JCHEM_MDDR_LIKE_RULE>
0

> <JCHEM_NUMBER_OF_RINGS>
3

> <JCHEM_PHYSIOLOGICAL_CHARGE>
0

> <JCHEM_PKA>
15.138486913796614

> <JCHEM_PKA_STRONGEST_ACIDIC>
10.526461463208085

> <JCHEM_PKA_STRONGEST_BASIC>
-1.1577773807922767

> <JCHEM_POLAR_SURFACE_AREA>
94.09000000000002

> <JCHEM_REFRACTIVITY>
106.6244

> <JCHEM_ROTATABLE_BOND_COUNT>
4

> <JCHEM_RULE_OF_FIVE>
1

> <ALOGPS_SOLUBILITY>
6.71e-02 g/l

> <JCHEM_TRADITIONAL_IUPAC>
3-methyl-[1,2,4]triazino[3,4-a]phthalazin-4-one

> <JCHEM_VEBER_RULE>
0

> <DRUGBANK_ID>
DB15534

> <DRUG_GROUPS>
approved; experimental

> <GENERIC_NAME>
Colchiceine

> <SYNONYMS>
O-Demethylcolchicine; O10-Demethylcolchicine

> <PRODUCTS>
Colchicine

$$$$
