REMARK  Name = 2826731
REMARK  3 active torsions:
REMARK  status: ('A' for Active; 'I' for Inactive)
REMARK    1  A    between atoms: C_3  and  C_10
REMARK    2  A    between atoms: C_8  and  O_19
REMARK    3  A    between atoms: C_13  and  N_16
REMARK                            x       y       z     vdW  Elec       q    Type
REMARK                         _______ _______ _______ _____ _____    ______ ____
ROOT
ATOM      1  S   UNL     1       0.940  -1.523   0.171  0.00  0.00    -0.071 S 
ATOM      2  N   UNL     1       0.772   1.036  -0.103  0.00  0.00    -0.399 NA
ATOM      3  C   UNL     1       0.064  -0.063   0.019  0.00  0.00    +0.157 C 
ATOM      4  C   UNL     1       2.416  -0.637   0.068  0.00  0.00    +0.131 C 
ATOM      5  C   UNL     1       2.123   0.722  -0.077  0.00  0.00    +0.124 C 
ATOM      6  C   UNL     1       3.737  -1.111   0.111  0.00  0.00    +0.028 C 
ATOM      7  C   UNL     1       3.193   1.638  -0.181  0.00  0.00    +0.032 C 
ATOM      8  C   UNL     1       4.777  -0.184   0.005  0.00  0.00    +0.131 C 
ATOM      9  C   UNL     1       4.511   1.173  -0.139  0.00  0.00    +0.039 C 
ENDROOT
BRANCH   3  10
ATOM     10  C   UNL     1      -1.379  -0.116   0.033  0.00  0.00    +0.036 C 
ATOM     11  C   UNL     1      -2.116   1.029   0.329  0.00  0.00    +0.004 C 
ATOM     12  C   UNL     1      -2.033  -1.314  -0.252  0.00  0.00    +0.004 C 
ATOM     13  C   UNL     1      -4.165  -0.220   0.056  0.00  0.00    +0.045 C 
ATOM     14  C   UNL     1      -3.509   0.978   0.341  0.00  0.00    +0.014 C 
ATOM     15  C   UNL     1      -3.427  -1.366  -0.240  0.00  0.00    +0.014 C 
BRANCH  13  16
ATOM     16  N   UNL     1      -5.574  -0.273   0.069  0.00  0.00    -0.331 N 
ATOM     17  C   UNL     1      -6.397   0.851  -0.255  0.00  0.00    +0.109 C 
ATOM     18  H   UNL     1      -6.011  -1.122   0.311  0.00  0.00    +0.147 HD
ENDBRANCH  13  16
ENDBRANCH   3  10
BRANCH   8  19
ATOM     19  O   UNL     1       6.068  -0.618   0.045  0.00  0.00    -0.506 OA
ATOM     20  H   UNL     1       6.253  -1.531   0.142  0.00  0.00    +0.292 HD
ENDBRANCH   8  19
TORSDOF 3
