REMARK  Name = 44595848
REMARK  4 active torsions:
REMARK  status: ('A' for Active; 'I' for Inactive)
REMARK    1  A    between atoms: N_2  and  S_17
REMARK    2  A    between atoms: C_9  and  C_11
REMARK    3  A    between atoms: S_17  and  C_20
REMARK    4  A    between atoms: C_25  and  C_29
REMARK                            x       y       z     vdW  Elec       q    Type
REMARK                         _______ _______ _______ _____ _____    ______ ____
ROOT
ATOM      1  O   UNL     1      -3.491  -0.111   2.345  0.00  0.00    -0.270 OA
ATOM      2  N   UNL     1       0.132  -2.240  -0.386  0.00  0.00    -0.152 NA
ATOM      3  N   UNL     1      -2.235  -0.956   0.558  0.00  0.00    -0.275 N 
ATOM      4  C   UNL     1      -1.585  -1.991   1.382  0.00  0.00    +0.093 C 
ATOM      5  C   UNL     1      -0.086  -2.092   1.082  0.00  0.00    +0.116 C 
ATOM      6  C   UNL     1      -0.415  -1.070  -1.128  0.00  0.00    +0.117 C 
ATOM      7  C   UNL     1      -1.915  -0.968  -0.878  0.00  0.00    +0.113 C 
ATOM      8  C   UNL     1      -2.296  -3.338   1.218  0.00  0.00    +0.023 C 
ATOM      9  C   UNL     1      -3.208  -0.137   1.148  0.00  0.00    +0.250 C 
ENDROOT
BRANCH   9  11
ATOM     10  N   UNL     1      -4.237   2.921  -0.783  0.00  0.00    -0.248 NA
ATOM     11  C   UNL     1      -3.975   0.767   0.282  0.00  0.00    +0.067 C 
ATOM     12  C   UNL     1      -3.559   2.060   0.008  0.00  0.00    +0.064 C 
ATOM     13  C   UNL     1      -5.164   0.330  -0.293  0.00  0.00    +0.007 C 
ATOM     14  C   UNL     1      -2.291   2.585   0.598  0.00  0.00    +0.052 C 
ATOM     15  C   UNL     1      -5.889   1.187  -1.113  0.00  0.00    +0.021 C 
ATOM     16  C   UNL     1      -5.388   2.461  -1.324  0.00  0.00    +0.098 C 
ENDBRANCH   9  11
BRANCH   2  17
ATOM     17  S   UNL     1       1.704  -2.736  -0.850  0.00  0.00    +0.063 S 
ATOM     18  O   UNL     1       1.732  -2.942  -2.282  0.00  0.00    -0.153 OA
ATOM     19  O   UNL     1       2.161  -3.764   0.061  0.00  0.00    -0.153 OA
BRANCH  17  20
ATOM     20  C   UNL     1       2.608  -1.260  -0.499  0.00  0.00    +0.122 C 
ATOM     21  C   UNL     1       2.758  -0.284  -1.484  0.00  0.00    +0.020 C 
ATOM     22  C   UNL     1       3.175  -1.072   0.761  0.00  0.00    +0.020 C 
ATOM     23  C   UNL     1       3.475   0.880  -1.209  0.00  0.00    +0.005 C 
ATOM     24  C   UNL     1       3.892   0.092   1.037  0.00  0.00    +0.005 C 
ATOM     25  C   UNL     1       4.041   1.069   0.052  0.00  0.00    +0.072 C 
BRANCH  25  29
ATOM     26  F   UNL     1       4.859   3.163  -0.721  0.00  0.00    -0.166 F 
ATOM     27  F   UNL     1       4.285   3.048   1.373  0.00  0.00    -0.166 F 
ATOM     28  F   UNL     1       6.107   2.086   0.698  0.00  0.00    -0.166 F 
ATOM     29  C   UNL     1       4.807   2.314   0.347  0.00  0.00    +0.419 C 
ENDBRANCH  25  29
ENDBRANCH  17  20
ENDBRANCH   2  17
TORSDOF 4
