REMARK  Name = 21236
REMARK  6 active torsions:
REMARK  status: ('A' for Active; 'I' for Inactive)
REMARK    1  A    between atoms: CA_1  and  N_2
REMARK    2  A    between atoms: CA_1  and  C_7
REMARK    3  A    between atoms: CA_1  and  C_10
REMARK    4  A    between atoms: C_7  and  O_8
REMARK    5  A    between atoms: C_10  and  C_11
REMARK    6  A    between atoms: C_11  and  C_12
REMARK                            x       y       z     vdW  Elec       q    Type
REMARK                         _______ _______ _______ _____ _____    ______ ____
ROOT
ATOM      1  CA  UNL     1      -1.095  -0.655   0.510  0.00  0.00    +0.036 C 
ENDROOT
BRANCH   1   2
ATOM      2  N   UNL     1      -2.093  -1.652   0.116  0.00  0.00    +0.389 N 
ATOM      3  H1  UNL     1      -1.819  -2.567   0.473  0.00  0.00    -0.088 HD
ATOM      4  H2  UNL     1      -2.154  -1.688  -0.902  0.00  0.00    -0.088 HD
ATOM      5  H3  UNL     1      -3.002  -1.395   0.502  0.00  0.00    -0.088 HD
ENDBRANCH   1   2
BRANCH   1   7
ATOM      6  OXT UNL     1      -2.178   0.818  -1.102  0.00  0.00    -0.253 OA
ATOM      7  C   UNL     1      -1.565   0.675  -0.051  0.00  0.00    +0.293 C 
BRANCH   7   8
ATOM      8  O   UNL     1      -1.206   1.722   0.736  0.00  0.00    -0.482 OA
ATOM      9  H   UNL     1      -0.737   1.570   1.533  0.00  0.00    +0.295 HD
ENDBRANCH   7   8
ENDBRANCH   1   7
BRANCH   1  10
ATOM     10  C   UNL     1       0.273  -1.048  -0.058  0.00  0.00    -0.011 C 
BRANCH  10  11
ATOM     11  C   UNL     1       1.363  -0.013   0.245  0.00  0.00    -0.002 C 
BRANCH  11  12
ATOM     12  C   UNL     1       2.704  -0.426  -0.363  0.00  0.00    -0.000 C 
ATOM     13  C   UNL     1       3.797   0.578  -0.034  0.00  0.00    -0.000 C 
ENDBRANCH  11  12
ENDBRANCH  10  11
ENDBRANCH   1  10
TORSDOF 6
