REMARK  Name = 125766
REMARK  7 active torsions:
REMARK  status: ('A' for Active; 'I' for Inactive)
REMARK    1  A    between atoms: C_1  and  O_2
REMARK    2  A    between atoms: C_1  and  C_4
REMARK    3  A    between atoms: C_1  and  C_8
REMARK    4  A    between atoms: C_4  and  O_6
REMARK    5  A    between atoms: C_8  and  C_10
REMARK    6  A    between atoms: C_8  and  O_13
REMARK    7  A    between atoms: C_10  and  C_12
REMARK                            x       y       z     vdW  Elec       q    Type
REMARK                         _______ _______ _______ _____ _____    ______ ____
ROOT
ATOM      1  C   UNL     1       0.995  -0.397  -0.191  0.00  0.00    +0.167 C 
ENDROOT
BRANCH   1   2
ATOM      2  O   UNL     1       1.178  -1.399   0.816  0.00  0.00    -0.379 OA
ATOM      3  H   UNL     1       0.365  -1.920   0.905  0.00  0.00    +0.211 HD
ENDBRANCH   1   2
BRANCH   1   4
ATOM      4  C   UNL     1       2.296   0.417  -0.316  0.00  0.00    +0.140 C 
ATOM      5  C   UNL     1       3.506  -0.471  -0.596  0.00  0.00    +0.034 C 
BRANCH   4   6
ATOM      6  O   UNL     1       2.543   1.145   0.883  0.00  0.00    -0.382 OA
ATOM      7  H   UNL     1       1.784   1.715   1.078  0.00  0.00    +0.210 HD
ENDBRANCH   4   6
ENDBRANCH   1   4
BRANCH   1   8
ATOM      8  C   UNL     1      -0.284   0.392   0.160  0.00  0.00    +0.180 C 
BRANCH   8  10
ATOM      9  F   UNL     1      -1.709  -1.230  -0.803  0.00  0.00    -0.226 F 
ATOM     10  C   UNL     1      -1.516  -0.498   0.327  0.00  0.00    +0.254 C 
BRANCH  10  12
ATOM     11  O   UNL     1      -3.737   0.350  -0.073  0.00  0.00    -0.285 OA
ATOM     12  C   UNL     1      -2.740   0.323   0.642  0.00  0.00    +0.245 C 
ENDBRANCH  10  12
ENDBRANCH   8  10
BRANCH   8  13
ATOM     13  O   UNL     1      -0.533   1.369  -0.851  0.00  0.00    -0.379 OA
ATOM     14  H   UNL     1       0.249   1.933  -0.955  0.00  0.00    +0.211 HD
ENDBRANCH   8  13
ENDBRANCH   1   8
TORSDOF 7
