REMARK  Name = 25171648
REMARK  8 active torsions:
REMARK  status: ('A' for Active; 'I' for Inactive)
REMARK    1  A    between atoms: C_1  and  C_12
REMARK    2  A    between atoms: C_2  and  C_23
REMARK    3  A    between atoms: C_9  and  O_13
REMARK    4  A    between atoms: O_13  and  C_14
REMARK    5  A    between atoms: C_14  and  C_16
REMARK    6  A    between atoms: C_23  and  N_25
REMARK    7  A    between atoms: C_27  and  C_31
REMARK    8  A    between atoms: C_34  and  C_38
REMARK                            x       y       z     vdW  Elec       q    Type
REMARK                         _______ _______ _______ _____ _____    ______ ____
ROOT
ATOM      1  C   UNL     1       1.385  -2.898   0.061  0.00  0.00    +0.062 C 
ATOM      2  C   UNL     1       3.684  -2.357   0.572  0.00  0.00    +0.000 C 
ATOM      3  C   UNL     1       2.326  -2.041   0.632  0.00  0.00    +0.007 C 
ATOM      4  C   UNL     1       1.802  -4.070  -0.570  0.00  0.00    +0.010 C 
ATOM      5  C   UNL     1       4.100  -3.529  -0.059  0.00  0.00    -0.003 C 
ATOM      6  C   UNL     1       3.159  -4.386  -0.629  0.00  0.00    +0.000 C 
ENDROOT
BRANCH   1  12
ATOM      7  N   UNL     1      -0.328  -1.263   0.145  0.00  0.00    -0.212 NA
ATOM      8  N   UNL     1      -0.874  -3.610   0.152  0.00  0.00    -0.190 NA
ATOM      9  C   UNL     1      -2.629  -1.965   0.238  0.00  0.00    +0.161 C 
ATOM     10  C   UNL     1      -1.649  -0.994   0.203  0.00  0.00    +0.201 C 
ATOM     11  C   UNL     1      -2.178  -3.269   0.209  0.00  0.00    +0.144 C 
ATOM     12  C   UNL     1      -0.016  -2.572   0.123  0.00  0.00    +0.031 C 
BRANCH   9  13
ATOM     13  O   UNL     1      -3.965  -1.654   0.296  0.00  0.00    -0.476 OA
BRANCH  13  14
ATOM     14  C   UNL     1      -4.306  -0.281   0.319  0.00  0.00    +0.205 C 
BRANCH  14  16
ATOM     15  N   UNL     1      -8.341   0.825  -0.754  0.00  0.00    +0.386 N 
ATOM     16  C   UNL     1      -5.825  -0.158   0.387  0.00  0.00    +0.040 C 
ATOM     17  C   UNL     1      -6.485  -0.809  -0.834  0.00  0.00    -0.019 C 
ATOM     18  C   UNL     1      -6.256   1.309   0.487  0.00  0.00    -0.019 C 
ATOM     19  C   UNL     1      -8.001  -0.603  -0.824  0.00  0.00    -0.077 C 
ATOM     20  C   UNL     1      -7.780   1.445   0.454  0.00  0.00    -0.077 C 
ATOM     21  C   UNL     1      -9.792   1.008  -0.797  0.00  0.00    -0.101 C 
ATOM     22  H   UNL     1      -7.929   1.286  -1.565  0.00  0.00    -0.080 HD
ENDBRANCH  14  16
ENDBRANCH  13  14
ENDBRANCH   9  13
ENDBRANCH   1  12
BRANCH   2  23
ATOM     23  C   UNL     1       4.691  -1.441   1.182  0.00  0.00    +0.146 C 
BRANCH  23  25
ATOM     24  O   UNL     1       6.933  -0.956  -0.536  0.00  0.00    -0.268 OA
ATOM     25  N   UNL     1       4.915  -0.252   0.377  0.00  0.00    -0.173 N 
ATOM     26  N   UNL     1       3.946   0.704   0.487  0.00  0.00    -0.175 NA
ATOM     27  C   UNL     1       4.082   1.795  -0.196  0.00  0.00    +0.099 C 
ATOM     28  C   UNL     1       6.038  -0.118  -0.426  0.00  0.00    +0.268 C 
ATOM     29  C   UNL     1       5.205   2.073  -1.111  0.00  0.00    +0.025 C 
ATOM     30  C   UNL     1       6.143   1.133  -1.206  0.00  0.00    +0.061 C 
BRANCH  27  31
ATOM     31  C   UNL     1       3.036   2.846  -0.081  0.00  0.00    +0.020 C 
ATOM     32  C   UNL     1       1.718   2.491   0.206  0.00  0.00    +0.012 C 
ATOM     33  C   UNL     1       3.374   4.188  -0.259  0.00  0.00    +0.002 C 
ATOM     34  C   UNL     1       0.738   3.478   0.314  0.00  0.00    +0.068 C 
ATOM     35  C   UNL     1       2.394   5.175  -0.151  0.00  0.00    +0.001 C 
ATOM     36  C   UNL     1       1.076   4.820   0.136  0.00  0.00    +0.010 C 
BRANCH  34  38
ATOM     37  N   UNL     1      -1.710   2.820   0.845  0.00  0.00    -0.191 NA
ATOM     38  C   UNL     1      -0.613   3.115   0.607  0.00  0.00    +0.100 C 
ENDBRANCH  34  38
ENDBRANCH  27  31
ENDBRANCH  23  25
ENDBRANCH   2  23
TORSDOF 8
