REMARK  Name = 4118151
REMARK  1 active torsions:
REMARK  status: ('A' for Active; 'I' for Inactive)
REMARK    1  A    between atoms: C_4  and  C_17
REMARK                            x       y       z     vdW  Elec       q    Type
REMARK                         _______ _______ _______ _____ _____    ______ ____
ROOT
ATOM      1  O   UNL     1      -4.231   1.216  -0.438  0.00  0.00    -0.242 OA
ATOM      2  N   UNL     1      -3.078   1.267  -1.203  0.00  0.00    -0.048 NA
ATOM      3  N   UNL     1      -4.103   0.348   0.633  0.00  0.00    -0.048 NA
ATOM      4  C   UNL     1      -0.269  -0.824  -0.133  0.00  0.00    +0.055 C 
ATOM      5  C   UNL     1      -0.894   0.104  -0.984  0.00  0.00    +0.029 C 
ATOM      6  C   UNL     1      -0.901  -1.393   1.003  0.00  0.00    +0.006 C 
ATOM      7  C   UNL     1      -2.213   0.429  -0.617  0.00  0.00    +0.143 A 
ATOM      8  C   UNL     1      -2.865  -0.154   0.550  0.00  0.00    +0.143 A 
ATOM      9  C   UNL     1      -2.218  -1.082   1.387  0.00  0.00    +0.024 C 
ENDROOT
BRANCH   4  17
ATOM     10  O   UNL     1       1.241  -2.207  -1.167  0.00  0.00    -0.270 OA
ATOM     11  N   UNL     1       2.151  -0.483   0.124  0.00  0.00    -0.276 N 
ATOM     12  C   UNL     1       4.024   1.703   0.342  0.00  0.00    +0.004 C 
ATOM     13  C   UNL     1       4.296   0.506  -0.569  0.00  0.00    +0.022 C 
ATOM     14  C   UNL     1       2.523   1.911   0.545  0.00  0.00    +0.022 C 
ATOM     15  C   UNL     1       3.585  -0.745  -0.060  0.00  0.00    +0.094 C 
ATOM     16  C   UNL     1       1.844   0.629   1.023  0.00  0.00    +0.094 C 
ATOM     17  C   UNL     1       1.110  -1.226  -0.437  0.00  0.00    +0.249 C 
ENDBRANCH   4  17
TORSDOF 1
