REMARK  Name = 5311110
REMARK  8 active torsions:
REMARK  status: ('A' for Active; 'I' for Inactive)
REMARK    1  A    between atoms: C_1  and  O_2
REMARK    2  A    between atoms: C_1  and  C_4
REMARK    3  A    between atoms: C_1  and  C_10
REMARK    4  A    between atoms: C_4  and  O_5
REMARK    5  A    between atoms: C_4  and  C_7
REMARK    6  A    between atoms: C_7  and  O_8
REMARK    7  A    between atoms: C_10  and  O_11
REMARK    8  A    between atoms: C_10  and  C_14
REMARK                            x       y       z     vdW  Elec       q    Type
REMARK                         _______ _______ _______ _____ _____    ______ ____
ROOT
ATOM      1  C   UNL     1       0.026  -0.658   0.367  0.00  0.00    +0.174 C 
ENDROOT
BRANCH   1   2
ATOM      2  O   UNL     1       0.243  -1.563  -0.716  0.00  0.00    -0.379 OA
ATOM      3  H   UNL     1      -0.580  -2.039  -0.909  0.00  0.00    +0.211 HD
ENDBRANCH   1   2
BRANCH   1   4
ATOM      4  C   UNL     1      -1.166   0.250   0.029  0.00  0.00    +0.169 C 
BRANCH   4   5
ATOM      5  O   UNL     1      -1.443   1.115   1.130  0.00  0.00    -0.379 OA
ATOM      6  H   UNL     1      -0.650   1.631   1.344  0.00  0.00    +0.211 HD
ENDBRANCH   4   5
BRANCH   4   7
ATOM      7  C   UNL     1      -2.429  -0.552  -0.290  0.00  0.00    +0.169 C 
BRANCH   7   8
ATOM      8  O   UNL     1      -3.494   0.354  -0.561  0.00  0.00    -0.379 OA
ATOM      9  H   UNL     1      -4.300  -0.146  -0.765  0.00  0.00    +0.211 HD
ENDBRANCH   7   8
ENDBRANCH   4   7
ENDBRANCH   1   4
BRANCH   1  10
ATOM     10  C   UNL     1       1.326   0.098   0.675  0.00  0.00    +0.205 C 
BRANCH  10  11
ATOM     11  O   UNL     1       2.349  -0.852   0.938  0.00  0.00    -0.375 OA
ATOM     12  H   UNL     1       2.078  -1.423   1.673  0.00  0.00    +0.211 HD
ENDBRANCH  10  11
BRANCH  10  14
ATOM     13  O   UNL     1       2.818   0.828  -1.097  0.00  0.00    -0.286 OA
ATOM     14  C   UNL     1       1.770   0.979  -0.476  0.00  0.00    +0.239 C 
ENDBRANCH  10  14
ENDBRANCH   1  10
TORSDOF 8
