REMARK  Name = 14896
REMARK  0 active torsions:
REMARK  status: ('A' for Active; 'I' for Inactive)
REMARK                            x       y       z     vdW  Elec       q    Type
REMARK                         _______ _______ _______ _____ _____    ______ ____
ROOT
ATOM      1  C   UNL     1      -1.119   0.326  -0.168  0.00  0.00    +0.003 C 
ATOM      2  C   UNL     1      -0.796  -1.190   0.018  0.00  0.00    +0.001 C 
ATOM      3  C   UNL     1       0.023   0.557   0.873  0.00  0.00    +0.018 C 
ATOM      4  C   UNL     1      -0.459  -0.800   1.490  0.00  0.00    +0.004 C 
ATOM      5  C   UNL     1       0.421  -1.635  -0.810  0.00  0.00    +0.004 C 
ATOM      6  C   UNL     1       1.371   0.453   0.226  0.00  0.00    -0.045 C 
ATOM      7  C   UNL     1       1.697  -0.892  -0.370  0.00  0.00    +0.022 C 
ATOM      8  C   UNL     1      -0.782   0.848  -1.561  0.00  0.00    +0.000 C 
ATOM      9  C   UNL     1      -2.519   0.804   0.155  0.00  0.00    +0.000 C 
ATOM     10  C   UNL     1       2.163   1.529   0.147  0.00  0.00    -0.009 C 
ENDROOT
TORSDOF 0
