REMARK  Name = 68488178
REMARK  9 active torsions:
REMARK  status: ('A' for Active; 'I' for Inactive)
REMARK    1  A    between atoms: N_1  and  C_10
REMARK    2  A    between atoms: N_2  and  C_29
REMARK    3  A    between atoms: C_10  and  C_11
REMARK    4  A    between atoms: C_16  and  O_17
REMARK    5  A    between atoms: O_17  and  C_18
REMARK    6  A    between atoms: C_23  and  C_26
REMARK    7  A    between atoms: C_29  and  C_30
REMARK    8  A    between atoms: C_35  and  C_37
REMARK    9  A    between atoms: C_37  and  O_38
REMARK                            x       y       z     vdW  Elec       q    Type
REMARK                         _______ _______ _______ _____ _____    ______ ____
ROOT
ATOM      1  N   UNL     1      -1.501  -2.829  -0.471  0.00  0.00    +0.388 N 
ATOM      2  N   UNL     1      -3.829  -1.532   0.395  0.00  0.00    +0.388 N 
ATOM      3  C   UNL     1      -2.814  -3.021  -1.133  0.00  0.00    -0.081 C 
ATOM      4  C   UNL     1      -3.370  -2.819   0.973  0.00  0.00    -0.081 C 
ATOM      5  C   UNL     1      -3.619  -3.830  -0.132  0.00  0.00    -0.046 C 
ATOM      6  C   UNL     1      -1.831  -2.768   0.975  0.00  0.00    -0.098 C 
ATOM      7  C   UNL     1      -3.539  -1.665  -1.055  0.00  0.00    -0.098 C 
ATOM      8  H   UNL     1      -1.028  -1.986  -0.799  0.00  0.00    -0.079 HD
ATOM      9  H   UNL     1      -3.353  -0.733   0.816  0.00  0.00    -0.079 HD
ENDROOT
BRANCH   1  10
ATOM     10  C   UNL     1      -0.558  -3.899  -0.774  0.00  0.00    -0.050 C 
BRANCH  10  11
ATOM     11  C   UNL     1       0.859  -3.506  -0.452  0.00  0.00    -0.043 C 
ATOM     12  C   UNL     1       1.476  -4.002   0.697  0.00  0.00    -0.003 C 
ATOM     13  C   UNL     1       1.555  -2.646  -1.302  0.00  0.00    -0.003 C 
ATOM     14  C   UNL     1       2.789  -3.638   0.996  0.00  0.00    +0.037 C 
ATOM     15  C   UNL     1       2.868  -2.282  -1.003  0.00  0.00    +0.037 C 
ATOM     16  C   UNL     1       3.485  -2.778   0.146  0.00  0.00    +0.145 C 
BRANCH  16  17
ATOM     17  O   UNL     1       4.766  -2.422   0.438  0.00  0.00    -0.453 OA
BRANCH  17  18
ATOM     18  C   UNL     1       5.108  -1.086   0.310  0.00  0.00    +0.145 C 
ATOM     19  C   UNL     1       6.300  -0.729  -0.320  0.00  0.00    +0.038 C 
ATOM     20  C   UNL     1       4.261  -0.098   0.812  0.00  0.00    +0.038 C 
ATOM     21  C   UNL     1       6.646   0.616  -0.446  0.00  0.00    +0.008 C 
ATOM     22  C   UNL     1       4.607   1.247   0.686  0.00  0.00    +0.008 C 
ATOM     23  C   UNL     1       5.800   1.605   0.056  0.00  0.00    +0.054 C 
BRANCH  23  26
ATOM     24  O   UNL     1       5.262   3.876   0.451  0.00  0.00    -0.431 OA
ATOM     25  N   UNL     1       7.222   3.535  -0.625  0.00  0.00    -0.206 NA
ATOM     26  C   UNL     1       6.158   2.996  -0.074  0.00  0.00    +0.230 C 
ATOM     27  C   UNL     1       5.825   5.091   0.201  0.00  0.00    +0.202 C 
ATOM     28  C   UNL     1       7.014   4.879  -0.451  0.00  0.00    +0.143 C 
ENDBRANCH  23  26
ENDBRANCH  17  18
ENDBRANCH  16  17
ENDBRANCH  10  11
ENDBRANCH   1  10
BRANCH   2  29
ATOM     29  C   UNL     1      -5.241  -1.273   0.651  0.00  0.00    -0.050 C 
BRANCH  29  30
ATOM     30  C   UNL     1      -5.594   0.174   0.433  0.00  0.00    -0.043 C 
ATOM     31  C   UNL     1      -5.241   1.129   1.387  0.00  0.00    -0.006 C 
ATOM     32  C   UNL     1      -6.275   0.560  -0.722  0.00  0.00    -0.006 C 
ATOM     33  C   UNL     1      -5.569   2.469   1.185  0.00  0.00    +0.006 C 
ATOM     34  C   UNL     1      -6.603   1.900  -0.923  0.00  0.00    +0.006 C 
ATOM     35  C   UNL     1      -6.249   2.856   0.030  0.00  0.00    +0.075 C 
BRANCH  35  37
ATOM     36  O   UNL     1      -6.327   5.179   0.594  0.00  0.00    -0.245 OA
ATOM     37  C   UNL     1      -6.590   4.253  -0.180  0.00  0.00    +0.338 C 
BRANCH  37  38
ATOM     38  O   UNL     1      -7.250   4.457  -1.353  0.00  0.00    -0.477 OA
ATOM     39  H   UNL     1      -7.435   3.733  -1.919  0.00  0.00    +0.295 HD
ENDBRANCH  37  38
ENDBRANCH  35  37
ENDBRANCH  29  30
ENDBRANCH   2  29
TORSDOF 9
