REMARK  Name = 5280373
REMARK  4 active torsions:
REMARK  status: ('A' for Active; 'I' for Inactive)
REMARK    1  A    between atoms: C_4  and  C_12
REMARK    2  A    between atoms: C_7  and  O_20
REMARK    3  A    between atoms: C_11  and  O_22
REMARK    4  A    between atoms: C_17  and  O_18
REMARK                            x       y       z     vdW  Elec       q    Type
REMARK                         _______ _______ _______ _____ _____    ______ ____
ROOT
ATOM      1  O   UNL     1      -1.552   2.035  -0.048  0.00  0.00    -0.450 OA
ATOM      2  O   UNL     1      -0.226  -1.823   0.018  0.00  0.00    -0.286 OA
ATOM      3  C   UNL     1      -2.054  -0.339  -0.010  0.00  0.00    +0.107 C 
ATOM      4  C   UNL     1       0.323   0.494   0.032  0.00  0.00    +0.077 C 
ATOM      5  C   UNL     1      -2.449   0.998  -0.043  0.00  0.00    +0.154 C 
ATOM      6  C   UNL     1      -0.615  -0.662   0.018  0.00  0.00    +0.204 C 
ATOM      7  C   UNL     1      -3.012  -1.356  -0.008  0.00  0.00    +0.143 C 
ATOM      8  C   UNL     1      -0.215   1.723  -0.001  0.00  0.00    +0.183 C 
ATOM      9  C   UNL     1      -3.805   1.326  -0.073  0.00  0.00    +0.074 C 
ATOM     10  C   UNL     1      -4.368  -1.025  -0.038  0.00  0.00    +0.073 C 
ATOM     11  C   UNL     1      -4.763   0.313  -0.071  0.00  0.00    +0.140 C 
ENDROOT
BRANCH   4  12
ATOM     12  C   UNL     1       1.782   0.313   0.099  0.00  0.00    +0.006 C 
ATOM     13  C   UNL     1       2.423   0.234   1.337  0.00  0.00    +0.003 C 
ATOM     14  C   UNL     1       2.531   0.219  -1.077  0.00  0.00    +0.003 C 
ATOM     15  C   UNL     1       3.805   0.063   1.400  0.00  0.00    +0.037 C 
ATOM     16  C   UNL     1       3.913   0.048  -1.014  0.00  0.00    +0.037 C 
ATOM     17  C   UNL     1       4.551  -0.030   0.224  0.00  0.00    +0.139 C 
BRANCH  17  18
ATOM     18  O   UNL     1       5.900  -0.197   0.286  0.00  0.00    -0.471 OA
ATOM     19  C   UNL     1       6.601  -0.285  -0.954  0.00  0.00    +0.252 C 
ENDBRANCH  17  18
ENDBRANCH   4  12
BRANCH   7  20
ATOM     20  O   UNL     1      -2.682  -2.677   0.022  0.00  0.00    -0.505 OA
ATOM     21  H   UNL     1      -1.781  -2.935   0.043  0.00  0.00    +0.292 HD
ENDBRANCH   7  20
BRANCH  11  22
ATOM     22  O   UNL     1      -6.087   0.629  -0.098  0.00  0.00    -0.505 OA
ATOM     23  H   UNL     1      -6.353   1.528  -0.120  0.00  0.00    +0.292 HD
ENDBRANCH  11  22
TORSDOF 4
