REMARK  Name = 44126305
REMARK  3 active torsions:
REMARK  status: ('A' for Active; 'I' for Inactive)
REMARK    1  A    between atoms: C_4  and  N_11
REMARK    2  A    between atoms: C_9  and  C_18
REMARK    3  A    between atoms: C_18  and  C_19
REMARK                            x       y       z     vdW  Elec       q    Type
REMARK                         _______ _______ _______ _____ _____    ______ ____
ROOT
ATOM      1  N   UNL     1      -1.665  -0.075  -0.352  0.00  0.00    -0.290 N 
ATOM      2  N   UNL     1       0.673   0.263  -0.526  0.00  0.00    -0.333 NA
ATOM      3  N   UNL     1       2.178  -1.572  -0.108  0.00  0.00    -0.333 NA
ATOM      4  C   UNL     1      -3.575   0.624  -0.526  0.00  0.00    -0.022 C 
ATOM      5  C   UNL     1      -2.170   1.217  -0.667  0.00  0.00    +0.073 C 
ATOM      6  C   UNL     1      -2.901  -0.581   0.139  0.00  0.00    +0.073 C 
ATOM      7  C   UNL     1      -0.356  -0.572  -0.273  0.00  0.00    +0.181 C 
ATOM      8  C   UNL     1      -0.200  -1.901   0.065  0.00  0.00    +0.151 C 
ATOM      9  C   UNL     1       1.895  -0.295  -0.427  0.00  0.00    +0.116 C 
ATOM     10  C   UNL     1       1.103  -2.351   0.133  0.00  0.00    +0.175 C 
ATOM     11  N   UNL     1       1.307  -3.710   0.475  0.00  0.00    -0.335 N 
ATOM     12  H   UNL     1       2.221  -4.070   0.535  0.00  0.00    +0.144 HD
ATOM     13  H   UNL     1       0.534  -4.293   0.654  0.00  0.00    +0.144 HD
ENDROOT
BRANCH   4  14
ATOM     14  N   UNL     1      -4.313   1.374   0.481  0.00  0.00    +0.386 N 
ATOM     15  C   UNL     1      -5.655   0.834   0.654  0.00  0.00    -0.105 C 
ATOM     16  H   UNL     1      -4.380   2.348   0.188  0.00  0.00    -0.084 HD
ATOM     17  H   UNL     1      -3.816   1.301   1.369  0.00  0.00    -0.084 HD
ENDBRANCH   4  14
BRANCH   9  18
ATOM     18  C   UNL     1       3.072   0.608  -0.704  0.00  0.00    +0.125 C 
BRANCH  18  19
ATOM     19  C   UNL     1       3.111   1.870   0.180  0.00  0.00    +0.017 C 
ATOM     20  C   UNL     1       3.191   1.526   1.669  0.00  0.00    +0.001 C 
ATOM     21  C   UNL     1       4.307   2.741  -0.212  0.00  0.00    +0.001 C 
ENDBRANCH  18  19
ENDBRANCH   9  18
TORSDOF 3
