REMARK  Name = 11579379
REMARK  7 active torsions:
REMARK  status: ('A' for Active; 'I' for Inactive)
REMARK    1  A    between atoms: C_1  and  C_2
REMARK    2  A    between atoms: C_1  and  CA_11
REMARK    3  A    between atoms: C_7  and  O_8
REMARK    4  A    between atoms: O_8  and  C_10
REMARK    5  A    between atoms: CA_11  and  N_12
REMARK    6  A    between atoms: CA_11  and  C_17
REMARK    7  A    between atoms: C_17  and  O_18
REMARK                            x       y       z     vdW  Elec       q    Type
REMARK                         _______ _______ _______ _____ _____    ______ ____
ROOT
ATOM      1  C   UNL     1       1.956  -0.981  -0.743  0.00  0.00    +0.015 C 
ENDROOT
BRANCH   1   2
ATOM      2  C   UNL     1       0.486  -0.781  -0.452  0.00  0.00    -0.024 C 
ATOM      3  C   UNL     1      -0.210  -1.766   0.229  0.00  0.00    -0.001 C 
ATOM      4  C   UNL     1      -0.135   0.383  -0.873  0.00  0.00    -0.001 C 
ATOM      5  C   UNL     1      -1.567  -1.581   0.496  0.00  0.00    +0.037 C 
ATOM      6  C   UNL     1      -1.492   0.568  -0.605  0.00  0.00    +0.037 C 
ATOM      7  C   UNL     1      -2.207  -0.414   0.080  0.00  0.00    +0.142 C 
BRANCH   7   8
ATOM      8  O   UNL     1      -3.531  -0.235   0.341  0.00  0.00    -0.445 OA
BRANCH   8  10
ATOM      9  F   UNL     1      -5.444   0.920   0.196  0.00  0.00    -0.181 F 
ATOM     10  C   UNL     1      -4.120   0.980  -0.113  0.00  0.00    +0.403 C 
ENDBRANCH   8  10
ENDBRANCH   7   8
ENDBRANCH   1   2
BRANCH   1  11
ATOM     11  CA  UNL     1       2.864  -0.441   0.373  0.00  0.00    +0.040 C 
BRANCH  11  12
ATOM     12  N   UNL     1       4.180  -1.068   0.282  0.00  0.00    +0.389 N 
ATOM     13  H1  UNL     1       4.080  -2.080   0.357  0.00  0.00    -0.088 HD
ATOM     14  H2  UNL     1       4.772  -0.728   1.040  0.00  0.00    -0.088 HD
ATOM     15  H3  UNL     1       4.607  -0.834  -0.614  0.00  0.00    -0.088 HD
ENDBRANCH  11  12
BRANCH  11  17
ATOM     16  OXT UNL     1       3.978   1.582  -0.401  0.00  0.00    -0.253 OA
ATOM     17  C   UNL     1       3.087   1.057   0.254  0.00  0.00    +0.293 C 
BRANCH  17  18
ATOM     18  O   UNL     1       2.156   1.774   0.937  0.00  0.00    -0.482 OA
ATOM     19  H   UNL     1       1.490   1.332   1.426  0.00  0.00    +0.295 HD
ENDBRANCH  17  18
ENDBRANCH  11  17
ENDBRANCH   1  11
TORSDOF 7
