REMARK  Name = 449698
REMARK  8 active torsions:
REMARK  status: ('A' for Active; 'I' for Inactive)
REMARK    1  A    between atoms: N_1  and  C_23
REMARK    2  A    between atoms: C_2  and  N_9
REMARK    3  A    between atoms: C_2  and  C_20
REMARK    4  A    between atoms: N_9  and  C_11
REMARK    5  A    between atoms: C_10  and  C_17
REMARK    6  A    between atoms: C_20  and  O_21
REMARK    7  A    between atoms: C_23  and  C_24
REMARK    8  A    between atoms: C_24  and  C_25
REMARK                            x       y       z     vdW  Elec       q    Type
REMARK                         _______ _______ _______ _____ _____    ______ ____
ROOT
ATOM      1  N   UNL     1       1.542  -0.276   0.040  0.00  0.00    +0.387 N 
ATOM      2  C   UNL     1      -1.294   0.475   0.198  0.00  0.00    +0.149 C 
ATOM      3  C   UNL     1      -0.729  -0.764   0.897  0.00  0.00    +0.007 C 
ATOM      4  C   UNL     1      -0.391   0.903  -0.963  0.00  0.00    +0.007 C 
ATOM      5  C   UNL     1       0.758  -0.614   1.235  0.00  0.00    -0.075 C 
ATOM      6  C   UNL     1       1.082   0.987  -0.552  0.00  0.00    -0.075 C 
ATOM      7  H   UNL     1       1.404  -1.016  -0.648  0.00  0.00    -0.080 HD
ENDROOT
BRANCH   2   9
ATOM      8  O   UNL     1      -3.070   2.383  -1.169  0.00  0.00    -0.275 OA
ATOM      9  N   UNL     1      -2.642   0.236  -0.262  0.00  0.00    -0.252 N 
ATOM     10  C   UNL     1      -3.428   1.229  -0.918  0.00  0.00    +0.230 C 
BRANCH   9  11
ATOM     11  C   UNL     1      -3.228  -1.085  -0.044  0.00  0.00    +0.054 C 
ATOM     12  C   UNL     1      -3.078  -2.081  -1.009  0.00  0.00    +0.015 C 
ATOM     13  C   UNL     1      -3.936  -1.350   1.128  0.00  0.00    +0.015 C 
ATOM     14  C   UNL     1      -3.637  -3.342  -0.802  0.00  0.00    +0.001 C 
ATOM     15  C   UNL     1      -4.495  -2.611   1.335  0.00  0.00    +0.001 C 
ATOM     16  C   UNL     1      -4.345  -3.607   0.370  0.00  0.00    +0.000 C 
ENDBRANCH   9  11
BRANCH  10  17
ATOM     17  C   UNL     1      -4.845   0.793  -1.283  0.00  0.00    +0.086 C 
ATOM     18  C   UNL     1      -5.633   1.883  -1.992  0.00  0.00    +0.010 C 
ENDBRANCH  10  17
ENDBRANCH   2   9
BRANCH   2  20
ATOM     19  O   UNL     1      -2.170   1.522   2.187  0.00  0.00    -0.248 OA
ATOM     20  C   UNL     1      -1.491   1.604   1.173  0.00  0.00    +0.333 C 
BRANCH  20  21
ATOM     21  O   UNL     1      -0.804   2.701   0.745  0.00  0.00    -0.443 OA
ATOM     22  C   UNL     1      -0.905   3.856   1.584  0.00  0.00    +0.256 C 
ENDBRANCH  20  21
ENDBRANCH   2  20
BRANCH   1  23
ATOM     23  C   UNL     1       2.965  -0.199   0.367  0.00  0.00    -0.073 C 
BRANCH  23  24
ATOM     24  C   UNL     1       3.827  -0.468  -0.867  0.00  0.00    +0.004 C 
BRANCH  24  25
ATOM     25  C   UNL     1       5.297  -0.413  -0.538  0.00  0.00    -0.024 C 
ATOM     26  C   UNL     1       5.989   0.794  -0.634  0.00  0.00    -0.004 C 
ATOM     27  C   UNL     1       5.966  -1.570  -0.137  0.00  0.00    -0.004 C 
ATOM     28  C   UNL     1       7.350   0.845  -0.330  0.00  0.00    -0.000 C 
ATOM     29  C   UNL     1       7.326  -1.519   0.168  0.00  0.00    -0.000 C 
ATOM     30  C   UNL     1       8.018  -0.312   0.071  0.00  0.00    -0.000 C 
ENDBRANCH  24  25
ENDBRANCH  23  24
ENDBRANCH   1  23
TORSDOF 8
