REMARK  Name = 57267
REMARK  7 active torsions:
REMARK  status: ('A' for Active; 'I' for Inactive)
REMARK    1  A    between atoms: N_2  and  C_18
REMARK    2  A    between atoms: C_3  and  C_6
REMARK    3  A    between atoms: C_7  and  O_14
REMARK    4  A    between atoms: C_8  and  O_12
REMARK    5  A    between atoms: C_9  and  C_16
REMARK    6  A    between atoms: C_18  and  C_20
REMARK    7  A    between atoms: N_19  and  C_25
REMARK                            x       y       z     vdW  Elec       q    Type
REMARK                         _______ _______ _______ _____ _____    ______ ____
ROOT
ATOM      1  O   UNL     1      -0.168  -0.956  -1.579  0.00  0.00    -0.270 OA
ATOM      2  N   UNL     1      -0.725  -0.717   0.658  0.00  0.00    -0.303 N 
ATOM      3  C   UNL     1       0.124  -0.645  -0.428  0.00  0.00    +0.252 C 
ATOM      4  H   UNL     1      -0.392  -0.442   1.543  0.00  0.00    +0.150 HD
ENDROOT
BRANCH   3   6
ATOM      5 CL   UNL     1       3.466   3.305   0.018  0.00  0.00    -0.079 Cl
ATOM      6  C   UNL     1       1.501  -0.170  -0.132  0.00  0.00    +0.121 C 
ATOM      7  C   UNL     1       2.471  -1.096   0.200  0.00  0.00    +0.137 C 
ATOM      8  C   UNL     1       1.774   1.183  -0.196  0.00  0.00    +0.156 C 
ATOM      9  C   UNL     1       3.764  -0.652   0.478  0.00  0.00    +0.013 C 
ATOM     10  C   UNL     1       3.066   1.627   0.082  0.00  0.00    +0.092 C 
ATOM     11  C   UNL     1       4.062   0.710   0.419  0.00  0.00    +0.013 C 
BRANCH   8  12
ATOM     12  O   UNL     1       0.795   2.075  -0.526  0.00  0.00    -0.470 OA
ATOM     13  C   UNL     1       0.638   2.378  -1.910  0.00  0.00    +0.253 C 
ENDBRANCH   8  12
BRANCH   7  14
ATOM     14  O   UNL     1       2.185  -2.429   0.259  0.00  0.00    -0.506 OA
ATOM     15  H   UNL     1       1.318  -2.731   0.073  0.00  0.00    +0.292 HD
ENDBRANCH   7  14
BRANCH   9  16
ATOM     16  C   UNL     1       4.844  -1.618   0.840  0.00  0.00    +0.029 C 
ATOM     17  C   UNL     1       5.601  -2.126  -0.383  0.00  0.00    +0.005 C 
ENDBRANCH   9  16
ENDBRANCH   3   6
BRANCH   2  18
ATOM     18  C   UNL     1      -2.097  -1.186   0.535  0.00  0.00    +0.069 C 
BRANCH  18  20
ATOM     19  N   UNL     1      -4.461  -0.426   0.230  0.00  0.00    +0.389 N 
ATOM     20  C   UNL     1      -3.046  -0.032   0.238  0.00  0.00    -0.038 C 
ATOM     21  C   UNL     1      -3.000   1.036   1.334  0.00  0.00    -0.021 C 
ATOM     22  C   UNL     1      -4.418   1.592   1.413  0.00  0.00    -0.025 C 
ATOM     23  C   UNL     1      -5.204   0.829   0.360  0.00  0.00    -0.077 C 
ATOM     24  H   UNL     1      -4.658  -1.079   0.988  0.00  0.00    -0.080 HD
BRANCH  19  25
ATOM     25  C   UNL     1      -4.850  -1.154  -0.973  0.00  0.00    -0.077 C 
ATOM     26  C   UNL     1      -6.322  -1.527  -0.936  0.00  0.00    -0.025 C 
ENDBRANCH  19  25
ENDBRANCH  18  20
ENDBRANCH   2  18
TORSDOF 7
