REMARK  Name = 24785538
REMARK  3 active torsions:
REMARK  status: ('A' for Active; 'I' for Inactive)
REMARK    1  A    between atoms: C_8  and  C_26
REMARK    2  A    between atoms: C_12  and  C_35
REMARK    3  A    between atoms: N_25  and  C_30
REMARK                            x       y       z     vdW  Elec       q    Type
REMARK                         _______ _______ _______ _____ _____    ______ ____
ROOT
ATOM      1  N   UNL     1      -0.639   0.826  -1.798  0.00  0.00    -0.237 N 
ATOM      2  N   UNL     1       4.668  -1.064  -1.056  0.00  0.00    -0.239 N 
ATOM      3  N   UNL     1       1.116   0.882  -0.256  0.00  0.00    -0.320 NA
ATOM      4  N   UNL     1      -0.969   1.991   0.152  0.00  0.00    -0.094 NA
ATOM      5  N   UNL     1       3.533  -0.414  -0.749  0.00  0.00    -0.166 NA
ATOM      6  N   UNL     1       2.926   0.879   1.217  0.00  0.00    -0.270 N 
ATOM      7  N   UNL     1      -0.437   2.381   1.332  0.00  0.00    -0.175 N 
ATOM      8  C   UNL     1      -1.972   1.101  -2.351  0.00  0.00    +0.136 C 
ATOM      9  C   UNL     1      -2.034   0.220  -3.612  0.00  0.00    +0.030 C 
ATOM     10  C   UNL     1      -0.578   0.096  -4.034  0.00  0.00    +0.024 C 
ATOM     11  C   UNL     1       0.159   0.008  -2.705  0.00  0.00    +0.103 C 
ATOM     12  C   UNL     1       5.632  -0.974  -0.094  0.00  0.00    +0.045 C 
ATOM     13  C   UNL     1      -2.126   2.584  -2.679  0.00  0.00    +0.030 C 
ATOM     14  C   UNL     1      -0.180   1.256  -0.603  0.00  0.00    +0.165 C 
ATOM     15  C   UNL     1       5.088  -0.212   0.911  0.00  0.00    +0.048 C 
ATOM     16  C   UNL     1       3.795   0.104   0.454  0.00  0.00    +0.152 C 
ATOM     17  C   UNL     1       1.646   1.252   0.882  0.00  0.00    +0.213 C 
ATOM     18  C   UNL     1       0.825   2.057   1.746  0.00  0.00    +0.120 C 
ATOM     19  C   UNL     1       1.030   2.620   2.986  0.00  0.00    +0.022 C 
ATOM     20  C   UNL     1      -1.049   3.147   2.290  0.00  0.00    +0.090 C 
ATOM     21  C   UNL     1      -0.160   3.311   3.331  0.00  0.00    +0.020 C 
ATOM     22  H   UNL     1       4.794  -1.559  -1.897  0.00  0.00    +0.174 HD
ATOM     23  H   UNL     1       3.263   1.193   2.087  0.00  0.00    +0.156 HD
ENDROOT
BRANCH   8  26
ATOM     24  O   UNL     1      -3.891   1.436  -0.990  0.00  0.00    -0.273 OA
ATOM     25  N   UNL     1      -2.821  -0.659  -0.983  0.00  0.00    -0.281 N 
ATOM     26  C   UNL     1      -3.016   0.662  -1.363  0.00  0.00    +0.243 C 
ATOM     27  H   UNL     1      -2.054  -1.122  -1.392  0.00  0.00    +0.155 HD
BRANCH  25  30
ATOM     28  F   UNL     1      -5.904  -3.499   2.555  0.00  0.00    -0.183 F 
ATOM     29  N   UNL     1      -5.482  -1.533   1.436  0.00  0.00    -0.215 NA
ATOM     30  C   UNL     1      -3.597  -1.417  -0.074  0.00  0.00    +0.070 C 
ATOM     31  C   UNL     1      -3.278  -2.740   0.212  0.00  0.00    +0.020 C 
ATOM     32  C   UNL     1      -4.699  -0.865   0.559  0.00  0.00    +0.116 C 
ATOM     33  C   UNL     1      -4.059  -3.460   1.109  0.00  0.00    +0.051 C 
ATOM     34  C   UNL     1      -5.141  -2.816   1.688  0.00  0.00    +0.222 C 
ENDBRANCH  25  30
ENDBRANCH   8  26
BRANCH  12  35
ATOM     35  C   UNL     1       7.022  -1.594  -0.138  0.00  0.00    +0.037 C 
ATOM     36  C   UNL     1       7.145  -3.073  -0.363  0.00  0.00    +0.006 C 
ATOM     37  C   UNL     1       7.446  -2.492   0.988  0.00  0.00    +0.006 C 
ENDBRANCH  12  35
TORSDOF 3
