REMARK  Name = 76314940
REMARK  4 active torsions:
REMARK  status: ('A' for Active; 'I' for Inactive)
REMARK    1  A    between atoms: C_14  and  O_23
REMARK    2  A    between atoms: C_18  and  O_21
REMARK    3  A    between atoms: O_23  and  C_25
REMARK    4  A    between atoms: C_25  and  C_26
REMARK                            x       y       z     vdW  Elec       q    Type
REMARK                         _______ _______ _______ _____ _____    ______ ____
ROOT
ATOM      1  O   UNL     1       0.272  -0.818   0.761  0.00  0.00    -0.469 OA
ATOM      2  N   UNL     1      -4.172   2.083   0.135  0.00  0.00    +0.387 N 
ATOM      3  C   UNL     1      -1.669   0.668   0.545  0.00  0.00    +0.062 C 
ATOM      4  C   UNL     1      -2.002   1.351  -0.789  0.00  0.00    -0.007 C 
ATOM      5  C   UNL     1      -3.550   1.297  -0.949  0.00  0.00    -0.053 C 
ATOM      6  C   UNL     1      -0.171   0.567   0.908  0.00  0.00    +0.225 C 
ATOM      7  C   UNL     1      -2.460   1.276   1.724  0.00  0.00    -0.015 C 
ATOM      8  C   UNL     1      -1.969  -0.755   0.276  0.00  0.00    +0.014 C 
ATOM      9  C   UNL     1      -4.039  -0.209  -1.015  0.00  0.00    +0.005 C 
ATOM     10  C   UNL     1      -1.307   2.710  -0.874  0.00  0.00    +0.027 C 
ATOM     11  C   UNL     1      -3.951   1.483   1.452  0.00  0.00    -0.077 C 
ATOM     12  C   UNL     1      -3.093  -1.218  -0.393  0.00  0.00    -0.025 C 
ATOM     13  C   UNL     1      -0.859  -1.542   0.477  0.00  0.00    +0.168 C 
ATOM     14  C   UNL     1       0.686   1.542   0.137  0.00  0.00    +0.162 C 
ATOM     15  C   UNL     1       0.172   2.531  -0.621  0.00  0.00    +0.011 C 
ATOM     16  C   UNL     1      -5.588   2.354  -0.095  0.00  0.00    -0.101 C 
ATOM     17  C   UNL     1      -3.176  -2.592  -0.624  0.00  0.00    -0.001 C 
ATOM     18  C   UNL     1      -0.906  -2.899   0.234  0.00  0.00    +0.172 C 
ATOM     19  C   UNL     1      -2.096  -3.430  -0.283  0.00  0.00    +0.040 C 
ATOM     20  H   UNL     1      -3.697   2.985   0.127  0.00  0.00    -0.080 HD
ENDROOT
BRANCH  18  21
ATOM     21  O   UNL     1       0.173  -3.694   0.441  0.00  0.00    -0.468 OA
ATOM     22  C   UNL     1       0.022  -5.087   0.160  0.00  0.00    +0.253 C 
ENDBRANCH  18  21
BRANCH  14  23
ATOM     23  O   UNL     1       2.044   1.396   0.335  0.00  0.00    -0.422 OA
BRANCH  23  25
ATOM     24  O   UNL     1       2.153   0.030  -1.537  0.00  0.00    -0.244 OA
ATOM     25  C   UNL     1       2.664   0.603  -0.587  0.00  0.00    +0.346 C 
BRANCH  25  26
ATOM     26  C   UNL     1       4.112   0.494  -0.268  0.00  0.00    +0.076 C 
ATOM     27  C   UNL     1       4.770   1.555   0.353  0.00  0.00    +0.006 C 
ATOM     28  C   UNL     1       4.812  -0.669  -0.591  0.00  0.00    +0.006 C 
ATOM     29  C   UNL     1       6.129   1.454   0.651  0.00  0.00    +0.000 C 
ATOM     30  C   UNL     1       6.171  -0.770  -0.292  0.00  0.00    +0.000 C 
ATOM     31  C   UNL     1       6.829   0.291   0.329  0.00  0.00    +0.000 C 
ENDBRANCH  25  26
ENDBRANCH  23  25
ENDBRANCH  14  23
TORSDOF 4
