REMARK  Name = 51040949
REMARK  6 active torsions:
REMARK  status: ('A' for Active; 'I' for Inactive)
REMARK    1  A    between atoms: N_1  and  C_23
REMARK    2  A    between atoms: C_2  and  C_16
REMARK    3  A    between atoms: C_10  and  O_21
REMARK    4  A    between atoms: N_15  and  C_17
REMARK    5  A    between atoms: N_15  and  C_19
REMARK    6  A    between atoms: C_23  and  C_25
REMARK                            x       y       z     vdW  Elec       q    Type
REMARK                         _______ _______ _______ _____ _____    ______ ____
ROOT
ATOM      1  N   UNL     1       2.466  -0.628  -0.458  0.00  0.00    -0.328 N 
ATOM      2  C   UNL     1      -1.018  -0.883   0.623  0.00  0.00    +0.100 C 
ATOM      3  C   UNL     1       0.341  -0.442   0.191  0.00  0.00    +0.002 A 
ATOM      4  C   UNL     1       1.357  -1.333  -0.087  0.00  0.00    +0.034 A 
ATOM      5  C   UNL     1      -1.029  -2.378   1.020  0.00  0.00    +0.014 C 
ATOM      6  C   UNL     1       1.291  -2.812   0.026  0.00  0.00    +0.044 C 
ATOM      7  C   UNL     1      -0.179  -3.263   0.085  0.00  0.00    +0.007 C 
ATOM      8  C   UNL     1       0.862   0.870  -0.015  0.00  0.00    +0.047 A 
ATOM      9  C   UNL     1       2.192   0.722  -0.423  0.00  0.00    +0.062 A 
ATOM     10  C   UNL     1       0.333   2.171   0.103  0.00  0.00    +0.140 C 
ATOM     11  C   UNL     1       3.017   1.815  -0.718  0.00  0.00    +0.017 C 
ATOM     12  C   UNL     1       1.146   3.271  -0.188  0.00  0.00    +0.037 C 
ATOM     13  C   UNL     1       2.467   3.094  -0.592  0.00  0.00    +0.005 C 
ENDROOT
BRANCH   2  16
ATOM     14  O   UNL     1      -1.626  -0.698  -1.651  0.00  0.00    -0.275 OA
ATOM     15  N   UNL     1      -3.314  -0.347  -0.092  0.00  0.00    -0.279 N 
ATOM     16  C   UNL     1      -2.005  -0.636  -0.478  0.00  0.00    +0.229 C 
BRANCH  15  17
ATOM     17  C   UNL     1      -4.372  -0.086  -1.059  0.00  0.00    +0.093 C 
ATOM     18  C   UNL     1      -5.088  -1.360  -1.456  0.00  0.00    +0.023 C 
ENDBRANCH  15  17
BRANCH  15  19
ATOM     19  C   UNL     1      -3.719  -0.284   1.310  0.00  0.00    +0.093 C 
ATOM     20  C   UNL     1      -3.561   1.114   1.872  0.00  0.00    +0.023 C 
ENDBRANCH  15  19
ENDBRANCH   2  16
BRANCH  10  21
ATOM     21  O   UNL     1      -0.960   2.390   0.501  0.00  0.00    -0.471 OA
ATOM     22  C   UNL     1      -1.383   3.746   0.585  0.00  0.00    +0.252 C 
ENDBRANCH  10  21
BRANCH   1  23
ATOM     23  C   UNL     1       3.744  -1.206  -0.818  0.00  0.00    +0.144 C 
BRANCH  23  25
ATOM     24  F   UNL     1       4.282  -1.744   1.406  0.00  0.00    -0.232 F 
ATOM     25  C   UNL     1       4.755  -1.091   0.311  0.00  0.00    +0.218 C 
ENDBRANCH  23  25
ENDBRANCH   1  23
TORSDOF 6
