REMARK  Name = 24749700
REMARK  7 active torsions:
REMARK  status: ('A' for Active; 'I' for Inactive)
REMARK    1  A    between atoms: C_1  and  C_7
REMARK    2  A    between atoms: C_3  and  C_12
REMARK    3  A    between atoms: C_7  and  C_8
REMARK    4  A    between atoms: C_8  and  C_9
REMARK    5  A    between atoms: C_9  and  C_10
REMARK    6  A    between atoms: C_12  and  C_14
REMARK    7  A    between atoms: C_14  and  O_15
REMARK                            x       y       z     vdW  Elec       q    Type
REMARK                         _______ _______ _______ _____ _____    ______ ____
ROOT
ATOM      1  C   UNL     1       0.336   1.147   0.391  0.00  0.00    -0.022 C 
ATOM      2  C   UNL     1      -0.675   0.274   0.790  0.00  0.00    -0.008 C 
ATOM      3  C   UNL     1      -1.990   0.497   0.383  0.00  0.00    -0.011 C 
ATOM      4  C   UNL     1       0.033   2.243  -0.417  0.00  0.00    -0.004 C 
ATOM      5  C   UNL     1      -2.294   1.593  -0.425  0.00  0.00    -0.004 C 
ATOM      6  C   UNL     1      -1.283   2.466  -0.825  0.00  0.00    -0.001 C 
ENDROOT
BRANCH   1   7
ATOM      7  C   UNL     1       1.758   0.907   0.831  0.00  0.00    +0.026 C 
BRANCH   7   8
ATOM      8  C   UNL     1       2.564   0.027  -0.132  0.00  0.00    +0.005 C 
BRANCH   8   9
ATOM      9  C   UNL     1       3.981  -0.269   0.370  0.00  0.00    +0.000 C 
BRANCH   9  10
ATOM     10  C   UNL     1       4.738  -1.169  -0.608  0.00  0.00    +0.000 C 
ATOM     11  C   UNL     1       6.131  -1.498  -0.097  0.00  0.00    +0.000 C 
ENDBRANCH   9  10
ENDBRANCH   8   9
ENDBRANCH   7   8
ENDBRANCH   1   7
BRANCH   3  12
ATOM     12  C   UNL     1      -3.072  -0.437   0.809  0.00  0.00    +0.136 C 
BRANCH  12  14
ATOM     13  O   UNL     1      -2.690  -1.749  -1.207  0.00  0.00    -0.250 OA
ATOM     14  C   UNL     1      -3.290  -1.589  -0.153  0.00  0.00    +0.318 C 
BRANCH  14  15
ATOM     15  O   UNL     1      -4.246  -2.446   0.292  0.00  0.00    -0.480 OA
ATOM     16  H   UNL     1      -4.679  -2.283   1.106  0.00  0.00    +0.295 HD
ENDBRANCH  14  15
ENDBRANCH  12  14
ENDBRANCH   3  12
TORSDOF 7
