REMARK  Name = 54674461
REMARK  5 active torsions:
REMARK  status: ('A' for Active; 'I' for Inactive)
REMARK    1  A    between atoms: N_2  and  C_29
REMARK    2  A    between atoms: C_7  and  C_14
REMARK    3  A    between atoms: C_15  and  N_21
REMARK    4  A    between atoms: C_22  and  O_24
REMARK    5  A    between atoms: C_29  and  C_31
REMARK                            x       y       z     vdW  Elec       q    Type
REMARK                         _______ _______ _______ _____ _____    ______ ____
ROOT
ATOM      1  F   UNL     1       1.200  -5.070   0.806  0.00  0.00    -0.207 F 
ATOM      2  N   UNL     1       2.312  -0.129  -0.985  0.00  0.00    -0.193 N 
ATOM      3  N   UNL     1       1.159   0.558  -0.898  0.00  0.00    -0.168 NA
ATOM      4  N   UNL     1       3.198  -2.336  -0.541  0.00  0.00    -0.251 NA
ATOM      5  C   UNL     1       0.893  -1.596  -0.173  0.00  0.00    +0.133 C 
ATOM      6  C   UNL     1       2.211  -1.423  -0.565  0.00  0.00    +0.133 C 
ATOM      7  C   UNL     1       0.299  -0.339  -0.403  0.00  0.00    +0.172 C 
ATOM      8  C   UNL     1       0.511  -2.854   0.308  0.00  0.00    +0.015 C 
ATOM      9  C   UNL     1       1.493  -3.844   0.357  0.00  0.00    +0.139 C 
ATOM     10  C   UNL     1       2.781  -3.535  -0.069  0.00  0.00    +0.182 C 
ENDROOT
BRANCH   7  14
ATOM     11  N   UNL     1      -1.875  -0.930   0.337  0.00  0.00    -0.326 NA
ATOM     12  N   UNL     1      -1.416   1.297  -0.461  0.00  0.00    -0.326 NA
ATOM     13  N   UNL     1      -4.048  -1.515   1.075  0.00  0.00    -0.334 N 
ATOM     14  C   UNL     1      -1.073   0.030  -0.162  0.00  0.00    +0.156 C 
ATOM     15  C   UNL     1      -3.630   0.716   0.284  0.00  0.00    +0.210 C 
ATOM     16  C   UNL     1      -3.152  -0.551   0.549  0.00  0.00    +0.193 C 
ATOM     17  C   UNL     1      -2.708   1.608  -0.225  0.00  0.00    +0.193 C 
ATOM     18  H   UNL     1      -3.730  -2.426   1.272  0.00  0.00    +0.144 HD
ATOM     19  H   UNL     1      -4.987  -1.274   1.244  0.00  0.00    +0.144 HD
ATOM     20  N   UNL     1      -3.133   2.927  -0.521  0.00  0.00    -0.334 N 
ATOM     21  H   UNL     1      -2.493   3.580  -0.885  0.00  0.00    +0.144 HD
ATOM     22  H   UNL     1      -4.069   3.189  -0.363  0.00  0.00    +0.144 HD
BRANCH  15  24
ATOM     23  O   UNL     1      -6.183  -0.392  -0.849  0.00  0.00    -0.226 OA
ATOM     24  N   UNL     1      -4.961   1.073   0.513  0.00  0.00    -0.258 N 
ATOM     25  C   UNL     1      -6.114   0.525  -0.040  0.00  0.00    +0.402 C 
ATOM     26  H   UNL     1      -5.102   1.810   1.151  0.00  0.00    +0.154 HD
BRANCH  25  27
ATOM     27  O   UNL     1      -7.209   1.175   0.462  0.00  0.00    -0.431 OA
ATOM     28  C   UNL     1      -8.482   0.723  -0.015  0.00  0.00    +0.257 C 
ENDBRANCH  25  27
ENDBRANCH  15  24
ENDBRANCH   7  14
BRANCH   2  29
ATOM     29  C   UNL     1       3.495   0.527  -1.490  0.00  0.00    +0.146 C 
BRANCH  29  31
ATOM     30  F   UNL     1       5.824  -0.210  -0.053  0.00  0.00    -0.204 F 
ATOM     31  C   UNL     1       4.157   1.427  -0.477  0.00  0.00    +0.027 C 
ATOM     32  C   UNL     1       5.303   1.000   0.195  0.00  0.00    +0.138 C 
ATOM     33  C   UNL     1       3.623   2.688  -0.212  0.00  0.00    -0.000 C 
ATOM     34  C   UNL     1       5.914   1.834   1.131  0.00  0.00    +0.029 C 
ATOM     35  C   UNL     1       4.234   3.522   0.725  0.00  0.00    -0.000 C 
ATOM     36  C   UNL     1       5.379   3.095   1.397  0.00  0.00    +0.002 C 
ENDBRANCH  29  31
ENDBRANCH   2  29
TORSDOF 5
