22565
  -OEChem-12231912353D

 46 47  0     1  0  0  0  0  0999 V2000
   -1.3251   -0.0664    2.0254 O   0  0  0  0  0  0  0  0  0  0  0  0
   -2.9539   -0.8651    0.2613 N   0  0  0  0  0  0  0  0  0  0  0  0
   -0.0134   -1.9240    1.8848 N   0  0  0  0  0  0  0  0  0  0  0  0
    0.1305   -0.2682    0.0395 C   0  0  0  0  0  0  0  0  0  0  0  0
   -0.8177   -0.9197   -1.0549 C   0  0  0  0  0  0  0  0  0  0  0  0
   -2.3268   -0.5578   -1.0212 C   0  0  1  0  0  0  0  0  0  0  0  0
    0.1242    1.2880   -0.0548 C   0  0  0  0  0  0  0  0  0  0  0  0
    1.6182   -0.6969   -0.1058 C   0  0  0  0  0  0  0  0  0  0  0  0
   -0.5099   -0.7335    1.3882 C   0  0  0  0  0  0  0  0  0  0  0  0
   -3.0696   -1.3073   -2.1319 C   0  0  0  0  0  0  0  0  0  0  0  0
   -0.0164    1.8436   -1.2909 C   0  0  0  0  0  0  0  0  0  0  0  0
    2.5058   -0.2287    0.8184 C   0  0  0  0  0  0  0  0  0  0  0  0
    0.2593    1.9901    1.1049 C   0  0  0  0  0  0  0  0  0  0  0  0
    1.9434   -1.5149   -1.1481 C   0  0  0  0  0  0  0  0  0  0  0  0
   -2.8961   -2.3023    0.5296 C   0  0  0  0  0  0  0  0  0  0  0  0
   -4.3406   -0.3987    0.2796 C   0  0  0  0  0  0  0  0  0  0  0  0
   -0.0222    3.2358   -1.3755 C   0  0  0  0  0  0  0  0  0  0  0  0
    3.8403   -0.6134    0.6884 C   0  0  0  0  0  0  0  0  0  0  0  0
    0.2532    3.3825    1.0202 C   0  0  0  0  0  0  0  0  0  0  0  0
    3.2779   -1.8996   -1.2779 C   0  0  0  0  0  0  0  0  0  0  0  0
    0.1125    4.0053   -0.2199 C   0  0  0  0  0  0  0  0  0  0  0  0
    4.2263   -1.4488   -0.3597 C   0  0  0  0  0  0  0  0  0  0  0  0
   -0.4640   -0.6822   -2.0661 H   0  0  0  0  0  0  0  0  0  0  0  0
   -0.7171   -2.0117   -1.0021 H   0  0  0  0  0  0  0  0  0  0  0  0
   -2.4225    0.5164   -1.2167 H   0  0  0  0  0  0  0  0  0  0  0  0
   -2.9856   -2.3963   -2.0625 H   0  0  0  0  0  0  0  0  0  0  0  0
   -2.6237   -1.0379   -3.0984 H   0  0  0  0  0  0  0  0  0  0  0  0
   -4.1247   -1.0352   -2.2193 H   0  0  0  0  0  0  0  0  0  0  0  0
   -0.0884    1.2892   -2.2163 H   0  0  0  0  0  0  0  0  0  0  0  0
    2.2400    0.3854    1.6677 H   0  0  0  0  0  0  0  0  0  0  0  0
    0.4016    1.5544    2.0861 H   0  0  0  0  0  0  0  0  0  0  0  0
    1.2584   -1.8973   -1.8914 H   0  0  0  0  0  0  0  0  0  0  0  0
   -1.9282   -2.7837    0.3925 H   0  0  0  0  0  0  0  0  0  0  0  0
   -3.6264   -2.8763   -0.0537 H   0  0  0  0  0  0  0  0  0  0  0  0
   -3.1585   -2.4685    1.5823 H   0  0  0  0  0  0  0  0  0  0  0  0
   -4.7185   -0.4445    1.3080 H   0  0  0  0  0  0  0  0  0  0  0  0
   -5.0275   -0.9906   -0.3338 H   0  0  0  0  0  0  0  0  0  0  0  0
   -4.4116    0.6525   -0.0219 H   0  0  0  0  0  0  0  0  0  0  0  0
    0.6416   -2.5083    1.3765 H   0  0  0  0  0  0  0  0  0  0  0  0
   -0.3432   -2.2887    2.7724 H   0  0  0  0  0  0  0  0  0  0  0  0
   -0.1233    3.7214   -2.3418 H   0  0  0  0  0  0  0  0  0  0  0  0
    4.5775   -0.2706    1.4086 H   0  0  0  0  0  0  0  0  0  0  0  0
    0.3656    3.9823    1.9188 H   0  0  0  0  0  0  0  0  0  0  0  0
    3.5796   -2.5505   -2.0934 H   0  0  0  0  0  0  0  0  0  0  0  0
    0.1115    5.0893   -0.2862 H   0  0  0  0  0  0  0  0  0  0  0  0
    5.2649   -1.7502   -0.4596 H   0  0  0  0  0  0  0  0  0  0  0  0
  1  9  2  0  0  0  0
  2  6  1  0  0  0  0
  2 15  1  0  0  0  0
  2 16  1  0  0  0  0
  3  9  1  0  0  0  0
  3 39  1  0  0  0  0
  3 40  1  0  0  0  0
  4  5  1  0  0  0  0
  4  7  1  0  0  0  0
  4  8  1  0  0  0  0
  4  9  1  0  0  0  0
  5  6  1  0  0  0  0
  5 23  1  0  0  0  0
  5 24  1  0  0  0  0
  6 10  1  0  0  0  0
  6 25  1  0  0  0  0
  7 11  2  0  0  0  0
  7 13  1  0  0  0  0
  8 12  2  0  0  0  0
  8 14  1  0  0  0  0
 10 26  1  0  0  0  0
 10 27  1  0  0  0  0
 10 28  1  0  0  0  0
 11 17  1  0  0  0  0
 11 29  1  0  0  0  0
 12 18  1  0  0  0  0
 12 30  1  0  0  0  0
 13 19  2  0  0  0  0
 13 31  1  0  0  0  0
 14 20  2  0  0  0  0
 14 32  1  0  0  0  0
 15 33  1  0  0  0  0
 15 34  1  0  0  0  0
 15 35  1  0  0  0  0
 16 36  1  0  0  0  0
 16 37  1  0  0  0  0
 16 38  1  0  0  0  0
 17 21  2  0  0  0  0
 17 41  1  0  0  0  0
 18 22  2  0  0  0  0
 18 42  1  0  0  0  0
 19 21  1  0  0  0  0
 19 43  1  0  0  0  0
 20 22  1  0  0  0  0
 20 44  1  0  0  0  0
 21 45  1  0  0  0  0
 22 46  1  0  0  0  0
M  END
> <DATABASE_ID>
DB15597

> <DATABASE_NAME>
drugbank

> <ORIGINAL_SOURCE>
PUBCHEM

> <ORIGINAL_SOURCE_URL>
https://pubchem.ncbi.nlm.nih.gov/rest/pug/compound/inchikey/NARHAGIVSFTMIG-UHFFFAOYSA-N/SDF?record_type=3d

> <SMILES>
CC(CC(C(N)=O)(C1=CC=CC=C1)C1=CC=CC=C1)N(C)C

> <INCHI_IDENTIFIER>
InChI=1S/C19H24N2O/c1-15(21(2)3)14-19(18(20)22,16-10-6-4-7-11-16)17-12-8-5-9-13-17/h4-13,15H,14H2,1-3H3,(H2,20,22)

> <INCHI_KEY>
NARHAGIVSFTMIG-UHFFFAOYSA-N

> <FORMULA>
C19H24N2O

> <MOLECULAR_WEIGHT>
296.414

> <EXACT_MASS>
296.188863401

> <JCHEM_ACCEPTOR_COUNT>
2

> <JCHEM_ATOM_COUNT>
46

> <JCHEM_AVERAGE_NEUTRAL_MICROSPECIES_CHARGE>
0.9980645937746123

> <JCHEM_AVERAGE_POLARIZABILITY>
33.18472000104781

> <JCHEM_BIOAVAILABILITY>
1

> <JCHEM_DONOR_COUNT>
1

> <JCHEM_FORMAL_CHARGE>
0

> <JCHEM_GHOSE_FILTER>
1

> <JCHEM_IUPAC>
4-(dimethylamino)-2,2-diphenylpentanamide

> <ALOGPS_LOGP>
2.61

> <JCHEM_LOGP>
3.1700676519999993

> <ALOGPS_LOGS>
-4.01

> <JCHEM_MDDR_LIKE_RULE>
0

> <JCHEM_NEUTRAL_CHARGE>
1

> <JCHEM_NUMBER_OF_RINGS>
2

> <JCHEM_PHYSIOLOGICAL_CHARGE>
1

> <JCHEM_PKA_STRONGEST_ACIDIC>
16.448230051925222

> <JCHEM_PKA_STRONGEST_BASIC>
9.712386421838463

> <JCHEM_POLAR_SURFACE_AREA>
46.330000000000005

> <JCHEM_REFRACTIVITY>
90.91310000000004

> <JCHEM_ROTATABLE_BOND_COUNT>
6

> <JCHEM_RULE_OF_FIVE>
1

> <ALOGPS_SOLUBILITY>
2.92e-02 g/l

> <JCHEM_TRADITIONAL_IUPAC>
1-(4-fluorophenyl)-4-[(10R,15S)-4-methyl-1,4,12-triazatetracyclo[7.6.1.0^{5,16}.0^{10,15}]hexadeca-5(16),6,8-trien-12-yl]butan-1-one

> <JCHEM_VEBER_RULE>
0

> <DRUGBANK_ID>
DB15597

> <DRUG_GROUPS>
experimental; vet_approved

> <GENERIC_NAME>
Aminopentamide

> <SYNONYMS>
Aminopentamide; Dimevamida; Dimevamide; Dimevamidum

> <INTERNATIONAL_BRANDS>
Centrine

> <SALTS>
Aminopentamide hydrochloride; Aminopentamide sulfate

$$$$
