REMARK  Name = 16719221
REMARK  6 active torsions:
REMARK  status: ('A' for Active; 'I' for Inactive)
REMARK    1  A    between atoms: C_3  and  C_20
REMARK    2  A    between atoms: C_11  and  O_13
REMARK    3  A    between atoms: O_13  and  C_16
REMARK    4  A    between atoms: C_20  and  C_24
REMARK    5  A    between atoms: N_22  and  S_30
REMARK    6  A    between atoms: S_30  and  N_33
REMARK                            x       y       z     vdW  Elec       q    Type
REMARK                         _______ _______ _______ _____ _____    ______ ____
ROOT
ATOM      1  O   UNL     1       0.933  -0.466   1.656  0.00  0.00    -0.421 OA
ATOM      2  O   UNL     1      -1.291  -0.560   2.099  0.00  0.00    -0.245 OA
ATOM      3  C   UNL     1      -0.501  -1.986   0.361  0.00  0.00    +0.054 A 
ATOM      4  C   UNL     1       0.548  -2.390  -0.386  0.00  0.00    -0.016 A 
ATOM      5  C   UNL     1       1.893  -1.849  -0.101  0.00  0.00    +0.031 A 
ATOM      6  C   UNL     1       2.038  -0.903   0.910  0.00  0.00    +0.151 A 
ATOM      7  C   UNL     1      -0.341  -0.963   1.435  0.00  0.00    +0.342 A 
ATOM      8  C   UNL     1       0.435  -3.368  -1.529  0.00  0.00    +0.031 C 
ATOM      9  C   UNL     1       3.056  -2.236  -0.785  0.00  0.00    +0.006 C 
ATOM     10  C   UNL     1       3.273  -0.341   1.244  0.00  0.00    +0.076 C 
ATOM     11  C   UNL     1       4.411  -0.736   0.549  0.00  0.00    +0.162 C 
ATOM     12  C   UNL     1       4.303  -1.684  -0.464  0.00  0.00    +0.039 C 
ENDROOT
BRANCH  11  13
ATOM     13  O   UNL     1       5.622  -0.201   0.858  0.00  0.00    -0.392 OA
BRANCH  13  16
ATOM     14  N   UNL     1       5.145   1.436  -0.721  0.00  0.00    -0.185 NA
ATOM     15  N   UNL     1       7.214   1.456   0.514  0.00  0.00    -0.162 NA
ATOM     16  C   UNL     1       6.011   0.947   0.187  0.00  0.00    +0.196 C 
ATOM     17  C   UNL     1       5.555   2.554  -1.355  0.00  0.00    +0.167 C 
ATOM     18  C   UNL     1       7.561   2.573  -0.158  0.00  0.00    +0.110 C 
ATOM     19  C   UNL     1       6.765   3.173  -1.112  0.00  0.00    +0.022 C 
ENDBRANCH  13  16
ENDBRANCH  11  13
BRANCH   3  20
ATOM     20  C   UNL     1      -1.910  -2.504   0.220  0.00  0.00    +0.061 C 
BRANCH  20  24
ATOM     21  F   UNL     1      -4.235  -1.421   1.438  0.00  0.00    -0.202 F 
ATOM     22  N   UNL     1      -5.895   0.420   0.151  0.00  0.00    -0.187 N 
ATOM     23  N   UNL     1      -4.482   0.326  -1.734  0.00  0.00    -0.226 NA
ATOM     24  C   UNL     1      -2.810  -1.516  -0.461  0.00  0.00    +0.014 C 
ATOM     25  C   UNL     1      -3.934  -1.024   0.194  0.00  0.00    +0.169 C 
ATOM     26  C   UNL     1      -2.521  -1.087  -1.752  0.00  0.00    +0.019 C 
ATOM     27  C   UNL     1      -4.731  -0.114  -0.480  0.00  0.00    +0.175 C 
ATOM     28  C   UNL     1      -3.381  -0.173  -2.339  0.00  0.00    +0.100 C 
ATOM     29  H   UNL     1      -6.500  -0.154   0.675  0.00  0.00    +0.176 HD
BRANCH  22  30
ATOM     30  S   UNL     1      -6.204   2.113  -0.039  0.00  0.00    +0.111 S 
ATOM     31  O   UNL     1      -6.499   2.363  -1.438  0.00  0.00    -0.138 OA
ATOM     32  O   UNL     1      -7.134   2.556   0.983  0.00  0.00    -0.138 OA
BRANCH  30  33
ATOM     33  N   UNL     1      -4.660   2.788   0.319  0.00  0.00    -0.165 NA
ATOM     34  C   UNL     1      -4.235   2.817   1.736  0.00  0.00    +0.112 C 
ATOM     35  H   UNL     1      -4.663   3.751  -0.018  0.00  0.00    +0.150 HD
ENDBRANCH  30  33
ENDBRANCH  22  30
ENDBRANCH  20  24
ENDBRANCH   3  20
TORSDOF 6
