REMARK  Name = 57384863
REMARK  1 active torsions:
REMARK  status: ('A' for Active; 'I' for Inactive)
REMARK    1  A    between atoms: C_21  and  C_25
REMARK                            x       y       z     vdW  Elec       q    Type
REMARK                         _______ _______ _______ _____ _____    ______ ____
ROOT
ATOM      1  O   UNL     1      -4.061   3.079   0.411  0.00  0.00    -0.349 OA
ATOM      2  O   UNL     1      -1.196  -5.320  -0.258  0.00  0.00    -0.350 OA
ATOM      3  N   UNL     1      -1.623   1.871   0.103  0.00  0.00    -0.234 N 
ATOM      4  N   UNL     1      -0.548  -2.594  -0.033  0.00  0.00    -0.276 N 
ATOM      5  N   UNL     1      -2.412  -0.202   0.063  0.00  0.00    -0.381 NA
ATOM      6  N   UNL     1       0.769   1.424   0.053  0.00  0.00    -0.322 NA
ATOM      7  N   UNL     1       1.205  -0.976  -0.019  0.00  0.00    -0.322 NA
ATOM      8  C   UNL     1      -4.125   1.664   0.123  0.00  0.00    +0.152 C 
ATOM      9  C   UNL     1      -2.743   1.076   0.107  0.00  0.00    +0.190 C 
ATOM     10  C   UNL     1      -1.679   3.315   0.166  0.00  0.00    +0.132 C 
ATOM     11  C   UNL     1      -0.525   1.068   0.063  0.00  0.00    +0.235 C 
ATOM     12  C   UNL     1      -3.045   3.796  -0.295  0.00  0.00    +0.164 C 
ATOM     13  C   UNL     1      -1.038  -0.220   0.038  0.00  0.00    +0.222 C 
ATOM     14  C   UNL     1      -4.952   1.043   1.254  0.00  0.00    +0.038 C 
ATOM     15  C   UNL     1      -4.833   1.436  -1.216  0.00  0.00    +0.038 C 
ATOM     16  C   UNL     1      -0.118  -1.264  -0.005  0.00  0.00    +0.230 C 
ATOM     17  C   UNL     1      -1.395  -3.066  -1.134  0.00  0.00    +0.125 C 
ATOM     18  C   UNL     1       0.317  -3.616   0.573  0.00  0.00    +0.125 C 
ATOM     19  C   UNL     1      -2.125  -4.338  -0.715  0.00  0.00    +0.164 C 
ATOM     20  C   UNL     1      -0.505  -4.857   0.902  0.00  0.00    +0.164 C 
ATOM     21  C   UNL     1       1.561   0.331   0.011  0.00  0.00    +0.140 C 
ENDROOT
BRANCH  21  25
ATOM     22  N   UNL     1       4.832   2.005  -0.603  0.00  0.00    -0.202 NA
ATOM     23  N   UNL     1       5.226  -0.080   0.540  0.00  0.00    -0.180 NA
ATOM     24  N   UNL     1       7.010   1.323  -0.056  0.00  0.00    -0.303 N 
ATOM     25  C   UNL     1       2.979   0.590  -0.006  0.00  0.00    +0.109 C 
ATOM     26  C   UNL     1       3.511   1.731  -0.569  0.00  0.00    +0.177 C 
ATOM     27  C   UNL     1       3.893  -0.289   0.539  0.00  0.00    +0.120 C 
ATOM     28  C   UNL     1       5.620   1.070  -0.038  0.00  0.00    +0.084 C 
ATOM     29  H   UNL     1       7.355   2.148  -0.466  0.00  0.00    +0.154 HD
ATOM     30  H   UNL     1       7.633   0.673   0.343  0.00  0.00    +0.154 HD
ENDBRANCH  21  25
TORSDOF 1
