REMARK  Name = 10149052
REMARK  9 active torsions:
REMARK  status: ('A' for Active; 'I' for Inactive)
REMARK    1  A    between atoms: C_1  and  C_2
REMARK    2  A    between atoms: C_1  and  C_8
REMARK    3  A    between atoms: C_1  and  C_13
REMARK    4  A    between atoms: C_2  and  C_3
REMARK    5  A    between atoms: C_3  and  C_5
REMARK    6  A    between atoms: C_5  and  C_6
REMARK    7  A    between atoms: C_8  and  C_10
REMARK    8  A    between atoms: C_10  and  O_11
REMARK    9  A    between atoms: C_13  and  N_14
REMARK                            x       y       z     vdW  Elec       q    Type
REMARK                         _______ _______ _______ _____ _____    ______ ____
ROOT
ATOM      1  C   UNL     1       1.099  -0.692   0.049  0.00  0.00    -0.011 C 
ENDROOT
BRANCH   1   2
ATOM      2  C   UNL     1      -0.290   0.001   0.037  0.00  0.00    -0.002 C 
BRANCH   2   3
ATOM      3  C   UNL     1      -1.452  -0.765  -0.644  0.00  0.00    -0.000 C 
ATOM      4  C   UNL     1      -1.052  -1.073  -2.094  0.00  0.00    -0.000 C 
BRANCH   3   5
ATOM      5  C   UNL     1      -2.776   0.024  -0.574  0.00  0.00    -0.000 C 
BRANCH   5   6
ATOM      6  C   UNL     1      -3.288   0.349   0.834  0.00  0.00    -0.000 C 
ATOM      7  C   UNL     1      -4.628   1.068   0.840  0.00  0.00    +0.000 C 
ENDBRANCH   5   6
ENDBRANCH   3   5
ENDBRANCH   2   3
ENDBRANCH   1   2
BRANCH   1   8
ATOM      8  C   UNL     1       2.137   0.242   0.711  0.00  0.00    +0.107 C 
BRANCH   8  10
ATOM      9  O   UNL     1       1.993   2.654   0.541  0.00  0.00    -0.250 OA
ATOM     10  C   UNL     1       2.252   1.578   0.021  0.00  0.00    +0.314 C 
BRANCH  10  11
ATOM     11  O   UNL     1       2.664   1.436  -1.262  0.00  0.00    -0.480 OA
ATOM     12  H   UNL     1       2.848   0.583  -1.603  0.00  0.00    +0.295 HD
ENDBRANCH  10  11
ENDBRANCH   8  10
ENDBRANCH   1   8
BRANCH   1  13
ATOM     13  C   UNL     1       1.032  -2.057   0.768  0.00  0.00    -0.086 C 
BRANCH  13  14
ATOM     14  N   UNL     1       2.311  -2.764   0.771  0.00  0.00    +0.380 N 
ATOM     15  H   UNL     1       2.206  -3.654   1.257  0.00  0.00    -0.089 HD
ATOM     16  H   UNL     1       3.011  -2.196   1.248  0.00  0.00    -0.089 HD
ATOM     17  H   UNL     1       2.607  -2.934  -0.190  0.00  0.00    -0.089 HD
ENDBRANCH  13  14
ENDBRANCH   1  13
TORSDOF 9
