REMARK  Name = 57380301
REMARK  6 active torsions:
REMARK  status: ('A' for Active; 'I' for Inactive)
REMARK    1  A    between atoms: N_1  and  N_15
REMARK    2  A    between atoms: C_2  and  C_4
REMARK    3  A    between atoms: C_2  and  C_10
REMARK    4  A    between atoms: N_15  and  C_18
REMARK    5  A    between atoms: C_18  and  N_19
REMARK    6  A    between atoms: N_19  and  C_21
REMARK                            x       y       z     vdW  Elec       q    Type
REMARK                         _______ _______ _______ _____ _____    ______ ____
ROOT
ATOM      1  N   UNL     1      -0.941  -1.262   0.008  0.00  0.00    -0.177 NA
ATOM      2  C   UNL     1      -1.732  -0.227   0.015  0.00  0.00    +0.134 C 
ENDROOT
BRANCH   2   4
ATOM      3  N   UNL     1      -3.893   0.533  -0.752  0.00  0.00    -0.242 NA
ATOM      4  C   UNL     1      -3.203  -0.464  -0.153  0.00  0.00    +0.102 C 
ATOM      5  C   UNL     1      -3.776  -1.643   0.295  0.00  0.00    +0.021 C 
ATOM      6  C   UNL     1      -5.144  -1.812   0.115  0.00  0.00    +0.003 C 
ATOM      7  C   UNL     1      -5.221   0.334  -0.910  0.00  0.00    +0.099 C 
ATOM      8  C   UNL     1      -5.888  -0.809  -0.499  0.00  0.00    +0.021 C 
ENDBRANCH   2   4
BRANCH   2  10
ATOM      9  N   UNL     1      -0.407   1.619  -0.761  0.00  0.00    -0.242 NA
ATOM     10  C   UNL     1      -1.270   1.172   0.178  0.00  0.00    +0.102 C 
ATOM     11  C   UNL     1      -1.722   1.936   1.243  0.00  0.00    +0.021 C 
ATOM     12  C   UNL     1      -1.258   3.243   1.349  0.00  0.00    +0.003 C 
ATOM     13  C   UNL     1       0.022   2.893  -0.625  0.00  0.00    +0.099 C 
ATOM     14  C   UNL     1      -0.369   3.738   0.402  0.00  0.00    +0.021 C 
ENDBRANCH   2  10
BRANCH   1  15
ATOM     15  N   UNL     1       0.394  -1.068   0.158  0.00  0.00    -0.218 N 
ATOM     16  H   UNL     1       0.746  -0.150   0.195  0.00  0.00    +0.176 HD
BRANCH  15  18
ATOM     17  S   UNL     1       0.747  -3.753   0.208  0.00  0.00    -0.017 S 
ATOM     18  C   UNL     1       1.278  -2.145   0.262  0.00  0.00    +0.154 C 
BRANCH  18  19
ATOM     19  N   UNL     1       2.647  -1.772   0.415  0.00  0.00    -0.290 N 
ATOM     20  C   UNL     1       3.590  -2.623   1.160  0.00  0.00    +0.114 C 
BRANCH  19  21
ATOM     21  C   UNL     1       3.217  -0.563  -0.128  0.00  0.00    +0.074 C 
ATOM     22  C   UNL     1       4.315  -0.895  -1.141  0.00  0.00    +0.020 C 
ATOM     23  C   UNL     1       3.746   0.337   0.992  0.00  0.00    +0.020 C 
ATOM     24  C   UNL     1       4.971   0.368  -1.693  0.00  0.00    +0.002 C 
ATOM     25  C   UNL     1       4.402   1.599   0.437  0.00  0.00    +0.002 C 
ATOM     26  C   UNL     1       5.495   1.265  -0.575  0.00  0.00    +0.000 C 
ENDBRANCH  19  21
ENDBRANCH  18  19
ENDBRANCH  15  18
ENDBRANCH   1  15
TORSDOF 6
