REMARK  Name = 9907331
REMARK  3 active torsions:
REMARK  status: ('A' for Active; 'I' for Inactive)
REMARK    1  A    between atoms: N_3  and  C_19
REMARK    2  A    between atoms: CA_9  and  C_26
REMARK    3  A    between atoms: C_26  and  O_27
REMARK                            x       y       z     vdW  Elec       q    Type
REMARK                         _______ _______ _______ _____ _____    ______ ____
ROOT
ATOM      1 CL   UNL     1      -6.430  -2.273   0.345  0.00  0.00    -0.082 Cl
ATOM      2  O   UNL     1       1.653   1.130  -1.221  0.00  0.00    -0.270 OA
ATOM      3  N   UNL     1       2.456  -0.721   0.052  0.00  0.00    -0.255 N 
ATOM      4  N   UNL     1      -3.321   1.710  -0.394  0.00  0.00    -0.325 N 
ATOM      5  C   UNL     1      -0.974   0.078  -0.614  0.00  0.00    -0.018 C 
ATOM      6  C   UNL     1       0.188  -0.522  -0.312  0.00  0.00    +0.030 C 
ATOM      7  C   UNL     1      -1.004   1.473  -1.193  0.00  0.00    +0.057 C 
ATOM      8  C   UNL     1       0.376  -1.845   0.344  0.00  0.00    +0.053 C 
ATOM      9  CA  UNL     1      -2.031   2.362  -0.495  0.00  0.00    +0.174 C 
ATOM     10  C   UNL     1       1.821  -1.787   0.811  0.00  0.00    +0.103 C 
ATOM     11  C   UNL     1      -2.307  -0.523  -0.358  0.00  0.00    +0.009 C 
ATOM     12  C   UNL     1       1.513   0.102  -0.579  0.00  0.00    +0.248 C 
ATOM     13  C   UNL     1      -3.430   0.330  -0.262  0.00  0.00    +0.045 C 
ATOM     14  C   UNL     1      -2.492  -1.912  -0.241  0.00  0.00    +0.002 C 
ATOM     15  C   UNL     1      -4.700  -0.234  -0.054  0.00  0.00    +0.026 C 
ATOM     16  C   UNL     1      -3.761  -2.450  -0.024  0.00  0.00    +0.011 C 
ATOM     17  C   UNL     1      -4.865  -1.612   0.069  0.00  0.00    +0.059 C 
ATOM     18  H   UNL     1      -4.139   2.257  -0.419  0.00  0.00    +0.147 HD
ENDROOT
BRANCH   3  19
ATOM     19  C   UNL     1       3.871  -0.527   0.067  0.00  0.00    +0.054 C 
ATOM     20  C   UNL     1       4.437   0.568  -0.591  0.00  0.00    +0.015 C 
ATOM     21  C   UNL     1       4.697  -1.431   0.740  0.00  0.00    +0.015 C 
ATOM     22  C   UNL     1       5.819   0.758  -0.576  0.00  0.00    +0.001 C 
ATOM     23  C   UNL     1       6.079  -1.242   0.755  0.00  0.00    +0.001 C 
ATOM     24  C   UNL     1       6.639  -0.147   0.097  0.00  0.00    +0.000 C 
ENDBRANCH   3  19
BRANCH   9  26
ATOM     25  OXT UNL     1      -2.210   2.513   1.911  0.00  0.00    -0.248 OA
ATOM     26  C   UNL     1      -1.597   2.761   0.883  0.00  0.00    +0.332 C 
BRANCH  26  27
ATOM     27  O   UNL     1      -0.426   3.442   0.839  0.00  0.00    -0.479 OA
ATOM     28  H   UNL     1      -0.007   3.599   0.016  0.00  0.00    +0.295 HD
ENDBRANCH  26  27
ENDBRANCH   9  26
TORSDOF 3
