REMARK  Name = 50313
REMARK  4 active torsions:
REMARK  status: ('A' for Active; 'I' for Inactive)
REMARK    1  A    between atoms: C_3  and  O_17
REMARK    2  A    between atoms: C_4  and  N_10
REMARK    3  A    between atoms: C_6  and  C_19
REMARK    4  A    between atoms: C_19  and  O_20
REMARK                            x       y       z     vdW  Elec       q    Type
REMARK                         _______ _______ _______ _____ _____    ______ ____
ROOT
ATOM      1  F   UNL     1       1.062   0.273   1.834  0.00  0.00    -0.230 F 
ATOM      2  O   UNL     1       1.506  -0.248  -1.091  0.00  0.00    -0.332 OA
ATOM      3  C   UNL     1       2.998   0.573   0.573  0.00  0.00    +0.177 C 
ATOM      4  C   UNL     1       0.881   0.865  -0.439  0.00  0.00    +0.235 C 
ATOM      5  C   UNL     1       1.607   1.071   0.877  0.00  0.00    +0.237 C 
ATOM      6  C   UNL     1       2.757  -0.543  -0.439  0.00  0.00    +0.176 C 
ENDROOT
BRANCH   4  10
ATOM      7  I   UNL     1      -2.740  -3.033   0.405  0.00  0.00    -0.036 I 
ATOM      8  O   UNL     1      -1.180   2.831  -0.531  0.00  0.00    -0.252 OA
ATOM      9  O   UNL     1      -4.466  -0.299   0.176  0.00  0.00    -0.269 OA
ATOM     10  N   UNL     1      -0.519   0.606  -0.284  0.00  0.00    -0.216 N 
ATOM     11  N   UNL     1      -2.804   1.252  -0.178  0.00  0.00    -0.235 N 
ATOM     12  C   UNL     1      -1.473   1.649  -0.345  0.00  0.00    +0.315 C 
ATOM     13  C   UNL     1      -0.937  -0.706  -0.069  0.00  0.00    +0.082 C 
ATOM     14  C   UNL     1      -2.212  -1.079   0.091  0.00  0.00    +0.099 C 
ATOM     15  C   UNL     1      -3.274  -0.037   0.038  0.00  0.00    +0.259 C 
ATOM     16  H   UNL     1      -3.482   1.964  -0.218  0.00  0.00    +0.159 HD
ENDBRANCH   4  10
BRANCH   3  17
ATOM     17  O   UNL     1       3.766   1.617  -0.018  0.00  0.00    -0.379 OA
ATOM     18  H   UNL     1       3.912   2.320   0.635  0.00  0.00    +0.211 HD
ENDBRANCH   3  17
BRANCH   6  19
ATOM     19  C   UNL     1       2.630  -1.916   0.207  0.00  0.00    +0.169 C 
BRANCH  19  20
ATOM     20  O   UNL     1       2.398  -2.876  -0.809  0.00  0.00    -0.379 OA
ATOM     21  H   UNL     1       2.315  -3.756  -0.410  0.00  0.00    +0.211 HD
ENDBRANCH  19  20
ENDBRANCH   6  19
TORSDOF 4
