REMARK  Name = 5281607
REMARK  3 active torsions:
REMARK  status: ('A' for Active; 'I' for Inactive)
REMARK    1  A    between atoms: C_5  and  C_12
REMARK    2  A    between atoms: C_7  and  O_18
REMARK    3  A    between atoms: C_10  and  O_20
REMARK                            x       y       z     vdW  Elec       q    Type
REMARK                         _______ _______ _______ _____ _____    ______ ____
ROOT
ATOM      1  O   UNL     1       0.235  -0.822   0.051  0.00  0.00    -0.453 OA
ATOM      2  O   UNL     1      -1.304   2.943  -0.186  0.00  0.00    -0.286 OA
ATOM      3  C   UNL     1      -1.717   0.621  -0.036  0.00  0.00    +0.107 C 
ATOM      4  C   UNL     1      -1.125  -0.638   0.044  0.00  0.00    +0.154 C 
ATOM      5  C   UNL     1       1.053   0.294  -0.033  0.00  0.00    +0.148 C 
ATOM      6  C   UNL     1      -0.853   1.808  -0.116  0.00  0.00    +0.205 C 
ATOM      7  C   UNL     1      -3.108   0.749  -0.039  0.00  0.00    +0.143 C 
ATOM      8  C   UNL     1       0.603   1.557  -0.108  0.00  0.00    +0.080 C 
ATOM      9  C   UNL     1      -1.922  -1.780   0.123  0.00  0.00    +0.074 C 
ATOM     10  C   UNL     1      -3.312  -1.657   0.120  0.00  0.00    +0.140 C 
ATOM     11  C   UNL     1      -3.903  -0.395   0.040  0.00  0.00    +0.073 C 
ENDROOT
BRANCH   5  12
ATOM     12  C   UNL     1       2.496  -0.016  -0.011  0.00  0.00    +0.035 C 
ATOM     13  C   UNL     1       3.401   0.892   0.543  0.00  0.00    +0.003 C 
ATOM     14  C   UNL     1       2.963  -1.220  -0.545  0.00  0.00    +0.003 C 
ATOM     15  C   UNL     1       4.765   0.598   0.564  0.00  0.00    +0.000 C 
ATOM     16  C   UNL     1       4.327  -1.514  -0.524  0.00  0.00    +0.000 C 
ATOM     17  C   UNL     1       5.228  -0.605   0.030  0.00  0.00    +0.000 C 
ENDBRANCH   5  12
BRANCH   7  18
ATOM     18  O   UNL     1      -3.734   1.956  -0.115  0.00  0.00    -0.505 OA
ATOM     19  H   UNL     1      -3.229   2.743  -0.169  0.00  0.00    +0.292 HD
ENDBRANCH   7  18
BRANCH  10  20
ATOM     20  O   UNL     1      -4.093  -2.770   0.198  0.00  0.00    -0.505 OA
ATOM     21  H   UNL     1      -3.697  -3.617   0.252  0.00  0.00    +0.292 HD
ENDBRANCH  10  20
TORSDOF 3
