REMARK  Name = 6452099
REMARK  4 active torsions:
REMARK  status: ('A' for Active; 'I' for Inactive)
REMARK    1  A    between atoms: C_5  and  C_18
REMARK    2  A    between atoms: C_21  and  O_24
REMARK    3  A    between atoms: C_22  and  O_26
REMARK    4  A    between atoms: C_23  and  O_28
REMARK                            x       y       z     vdW  Elec       q    Type
REMARK                         _______ _______ _______ _____ _____    ______ ____
ROOT
ATOM      1  O   UNL     1      -0.229   4.487   0.001  0.00  0.00    -0.440 OA
ATOM      2  O   UNL     1       3.401  -3.023  -1.228  0.00  0.00    -0.435 OA
ATOM      3  O   UNL     1       4.970  -2.121   0.363  0.00  0.00    -0.435 OA
ATOM      4  O   UNL     1      -1.522   3.290  -1.480  0.00  0.00    -0.245 OA
ATOM      5  C   UNL     1       0.364   0.903  -0.922  0.00  0.00    +0.006 C 
ATOM      6  C   UNL     1       0.358   2.296  -0.387  0.00  0.00    +0.075 C 
ATOM      7  C   UNL     1       1.639   0.141  -0.541  0.00  0.00    +0.003 C 
ATOM      8  C   UNL     1       1.236   2.804   0.472  0.00  0.00    +0.028 C 
ATOM      9  C   UNL     1       2.385   2.043   1.027  0.00  0.00    -0.000 C 
ATOM     10  C   UNL     1       2.579   0.680   0.388  0.00  0.00    +0.003 C 
ATOM     11  C   UNL     1       0.936   4.209   0.790  0.00  0.00    +0.236 C 
ATOM     12  C   UNL     1       1.882  -1.116  -1.127  0.00  0.00    +0.040 C 
ATOM     13  C   UNL     1      -0.582   3.373  -0.708  0.00  0.00    +0.341 C 
ATOM     14  C   UNL     1       3.726  -0.055   0.734  0.00  0.00    +0.040 C 
ATOM     15  C   UNL     1       3.023  -1.801  -0.763  0.00  0.00    +0.176 C 
ATOM     16  C   UNL     1       3.917  -1.287   0.144  0.00  0.00    +0.176 C 
ATOM     17  C   UNL     1       4.633  -3.222  -0.506  0.00  0.00    +0.429 C 
ENDROOT
BRANCH   5  18
ATOM     18  C   UNL     1      -0.856   0.167  -0.457  0.00  0.00    +0.006 C 
ATOM     19  C   UNL     1      -1.057  -0.044   0.903  0.00  0.00    +0.040 C 
ATOM     20  C   UNL     1      -1.777  -0.300  -1.389  0.00  0.00    +0.040 C 
ATOM     21  C   UNL     1      -2.912  -0.986  -0.956  0.00  0.00    +0.175 C 
ATOM     22  C   UNL     1      -2.192  -0.730   1.336  0.00  0.00    +0.175 C 
ATOM     23  C   UNL     1      -3.119  -1.201   0.407  0.00  0.00    +0.206 C 
BRANCH  21  24
ATOM     24  O   UNL     1      -3.809  -1.442  -1.874  0.00  0.00    -0.468 OA
ATOM     25  C   UNL     1      -4.871  -0.560  -2.235  0.00  0.00    +0.253 C 
ENDBRANCH  21  24
BRANCH  22  26
ATOM     26  O   UNL     1      -2.383  -0.932   2.670  0.00  0.00    -0.468 OA
ATOM     27  C   UNL     1      -1.388  -0.419   3.552  0.00  0.00    +0.253 C 
ENDBRANCH  22  26
BRANCH  23  28
ATOM     28  O   UNL     1      -4.229  -1.869   0.831  0.00  0.00    -0.465 OA
ATOM     29  C   UNL     1      -4.123  -3.286   0.957  0.00  0.00    +0.253 C 
ENDBRANCH  23  28
ENDBRANCH   5  18
TORSDOF 4
