REMARK  Name = 76071881
REMARK  2 active torsions:
REMARK  status: ('A' for Active; 'I' for Inactive)
REMARK    1  A    between atoms: C_2  and  N_14
REMARK    2  A    between atoms: C_9  and  C_22
REMARK                            x       y       z     vdW  Elec       q    Type
REMARK                         _______ _______ _______ _____ _____    ______ ____
ROOT
ATOM      1  N   UNL     1       4.420  -0.956  -0.256  0.00  0.00    -0.234 NA
ATOM      2  C   UNL     1      -0.491   0.255  -0.101  0.00  0.00    +0.070 C 
ATOM      3  C   UNL     1       0.201  -0.933  -0.342  0.00  0.00    +0.016 C 
ATOM      4  C   UNL     1       0.207   1.430   0.166  0.00  0.00    +0.016 C 
ATOM      5  C   UNL     1       1.605  -0.959  -0.317  0.00  0.00    +0.005 C 
ATOM      6  C   UNL     1       2.309   0.233  -0.046  0.00  0.00    +0.028 C 
ATOM      7  C   UNL     1       1.602   1.422   0.194  0.00  0.00    +0.004 C 
ATOM      8  C   UNL     1       2.328  -2.134  -0.554  0.00  0.00    +0.021 C 
ATOM      9  C   UNL     1       3.704   0.168  -0.030  0.00  0.00    +0.149 C 
ATOM     10  C   UNL     1       3.713  -2.078  -0.512  0.00  0.00    +0.100 C 
ENDROOT
BRANCH   2  14
ATOM     11  S   UNL     1      -2.674  -0.404   1.287  0.00  0.00    +0.113 S 
ATOM     12  O   UNL     1      -2.583  -1.851   1.227  0.00  0.00    -0.138 OA
ATOM     13  O   UNL     1      -2.204   0.307   2.461  0.00  0.00    -0.138 OA
ATOM     14  N   UNL     1      -1.938   0.265  -0.131  0.00  0.00    -0.181 N 
ATOM     15  N   UNL     1      -4.307   0.055   0.996  0.00  0.00    -0.166 NA
ATOM     16  C   UNL     1      -4.041   0.297  -1.468  0.00  0.00    +0.039 C 
ATOM     17  C   UNL     1      -2.569  -0.144  -1.425  0.00  0.00    +0.118 C 
ATOM     18  C   UNL     1      -4.863  -0.320  -0.330  0.00  0.00    +0.095 C 
ATOM     19  C   UNL     1      -4.170   1.824  -1.495  0.00  0.00    +0.003 C 
ATOM     20  H   UNL     1      -4.367   1.070   1.084  0.00  0.00    +0.150 HD
ENDBRANCH   2  14
BRANCH   9  22
ATOM     21  N   UNL     1       5.214   2.220   0.443  0.00  0.00    -0.189 NA
ATOM     22  C   UNL     1       4.537   1.301   0.231  0.00  0.00    +0.120 C 
ENDBRANCH   9  22
TORSDOF 2
