54576693
  -OEChem-05201910563D

 45 48  0     0  0  0  0  0  0999 V2000
   -6.3992    2.3824    0.4353 Cl  0  0  0  0  0  0  0  0  0  0  0  0
    7.1404   -2.0580    0.9069 F   0  0  0  0  0  0  0  0  0  0  0  0
    8.0343   -0.9233   -0.7367 F   0  0  0  0  0  0  0  0  0  0  0  0
    5.8104   -1.3625   -0.7931 O   0  0  0  0  0  0  0  0  0  0  0  0
   -3.2701   -1.8733    1.0765 O   0  0  0  0  0  0  0  0  0  0  0  0
    6.7775    0.1775    0.7960 O   0  0  0  0  0  0  0  0  0  0  0  0
    0.6039    0.9764   -0.2416 N   0  0  0  0  0  0  0  0  0  0  0  0
   -1.9398   -0.0311    0.6402 N   0  0  0  0  0  0  0  0  0  0  0  0
   -4.2926    0.1597    0.6217 N   0  0  0  0  0  0  0  0  0  0  0  0
   -7.0144   -1.9499   -0.7043 N   0  0  0  0  0  0  0  0  0  0  0  0
    0.3442   -0.4689   -0.2225 C   0  0  0  0  0  0  0  0  0  0  0  0
   -0.6291    1.7055   -0.5631 C   0  0  0  0  0  0  0  0  0  0  0  0
   -1.7347    1.4122    0.4547 C   0  0  0  0  0  0  0  0  0  0  0  0
   -0.7119   -0.8065    0.8266 C   0  0  0  0  0  0  0  0  0  0  0  0
    1.6561    1.2963   -1.2058 C   0  0  0  0  0  0  0  0  0  0  0  0
    3.0283    1.0261   -0.6485 C   0  0  0  0  0  0  0  0  0  0  0  0
   -3.1884   -0.6758    0.7917 C   0  0  0  0  0  0  0  0  0  0  0  0
    3.7303   -0.1113   -1.0547 C   0  0  0  0  0  0  0  0  0  0  0  0
    3.5913    1.9227    0.2770 C   0  0  0  0  0  0  0  0  0  0  0  0
    4.9842   -0.3159   -0.5166 C   0  0  0  0  0  0  0  0  0  0  0  0
    5.5360    0.5628    0.3901 C   0  0  0  0  0  0  0  0  0  0  0  0
    4.8631    1.6926    0.8074 C   0  0  0  0  0  0  0  0  0  0  0  0
   -5.5745   -0.1985    0.1350 C   0  0  0  0  0  0  0  0  0  0  0  0
    6.9296   -1.0342    0.0426 C   0  0  0  0  0  0  0  0  0  0  0  0
   -6.6083    0.7228    0.0073 C   0  0  0  0  0  0  0  0  0  0  0  0
   -5.8265   -1.5108   -0.2311 C   0  0  0  0  0  0  0  0  0  0  0  0
   -7.8448    0.3092   -0.4762 C   0  0  0  0  0  0  0  0  0  0  0  0
   -7.9952   -1.0260   -0.8148 C   0  0  0  0  0  0  0  0  0  0  0  0
   -0.4420    2.7862   -0.5576 H   0  0  0  0  0  0  0  0  0  0  0  0
   -0.9806    1.4382   -1.5689 H   0  0  0  0  0  0  0  0  0  0  0  0
    0.0068   -0.8182   -1.2075 H   0  0  0  0  0  0  0  0  0  0  0  0
    1.2507   -1.0280    0.0329 H   0  0  0  0  0  0  0  0  0  0  0  0
   -0.9235   -1.8803    0.7979 H   0  0  0  0  0  0  0  0  0  0  0  0
   -0.3395   -0.5768    1.8328 H   0  0  0  0  0  0  0  0  0  0  0  0
   -1.4715    1.8238    1.4365 H   0  0  0  0  0  0  0  0  0  0  0  0
   -2.6418    1.9161    0.1175 H   0  0  0  0  0  0  0  0  0  0  0  0
    1.6309    2.3659   -1.4586 H   0  0  0  0  0  0  0  0  0  0  0  0
    1.5078    0.7755   -2.1618 H   0  0  0  0  0  0  0  0  0  0  0  0
    3.3108   -0.8130   -1.7676 H   0  0  0  0  0  0  0  0  0  0  0  0
    3.0402    2.8064    0.5898 H   0  0  0  0  0  0  0  0  0  0  0  0
   -4.1931    1.1443    0.8440 H   0  0  0  0  0  0  0  0  0  0  0  0
    5.3003    2.3814    1.5211 H   0  0  0  0  0  0  0  0  0  0  0  0
   -5.0879   -2.3006   -0.1993 H   0  0  0  0  0  0  0  0  0  0  0  0
   -8.6753    0.9980   -0.5902 H   0  0  0  0  0  0  0  0  0  0  0  0
   -8.9398   -1.3992   -1.1964 H   0  0  0  0  0  0  0  0  0  0  0  0
  1 25  1  0  0  0  0
  2 24  1  0  0  0  0
  3 24  1  0  0  0  0
  4 20  1  0  0  0  0
  4 24  1  0  0  0  0
  5 17  2  0  0  0  0
  6 21  1  0  0  0  0
  6 24  1  0  0  0  0
  7 11  1  0  0  0  0
  7 12  1  0  0  0  0
  7 15  1  0  0  0  0
  8 13  1  0  0  0  0
  8 14  1  0  0  0  0
  8 17  1  0  0  0  0
  9 17  1  0  0  0  0
  9 23  1  0  0  0  0
  9 41  1  0  0  0  0
 10 26  2  0  0  0  0
 10 28  1  0  0  0  0
 11 14  1  0  0  0  0
 11 31  1  0  0  0  0
 11 32  1  0  0  0  0
 12 13  1  0  0  0  0
 12 29  1  0  0  0  0
 12 30  1  0  0  0  0
 13 35  1  0  0  0  0
 13 36  1  0  0  0  0
 14 33  1  0  0  0  0
 14 34  1  0  0  0  0
 15 16  1  0  0  0  0
 15 37  1  0  0  0  0
 15 38  1  0  0  0  0
 16 18  2  0  0  0  0
 16 19  1  0  0  0  0
 18 20  1  0  0  0  0
 18 39  1  0  0  0  0
 19 22  2  0  0  0  0
 19 40  1  0  0  0  0
 20 21  2  0  0  0  0
 21 22  1  0  0  0  0
 22 42  1  0  0  0  0
 23 25  2  0  0  0  0
 23 26  1  0  0  0  0
 25 27  1  0  0  0  0
 26 43  1  0  0  0  0
 27 28  2  0  0  0  0
 27 44  1  0  0  0  0
 28 45  1  0  0  0  0
M  END
> <DATABASE_ID>
DB15173

> <DATABASE_NAME>
drugbank

> <ORIGINAL_SOURCE>
PUBCHEM

> <ORIGINAL_SOURCE_URL>
https://pubchem.ncbi.nlm.nih.gov/rest/pug/compound/inchikey/YWGYNGCRVZLMCS-UHFFFAOYSA-N/SDF?record_type=3d

> <SMILES>
FC1(F)OC2=CC=C(CN3CCN(CC3)C(=O)NC3=C(Cl)C=CN=C3)C=C2O1

> <INCHI_IDENTIFIER>
InChI=1S/C18H17ClF2N4O3/c19-13-3-4-22-10-14(13)23-17(26)25-7-5-24(6-8-25)11-12-1-2-15-16(9-12)28-18(20,21)27-15/h1-4,9-10H,5-8,11H2,(H,23,26)

> <INCHI_KEY>
YWGYNGCRVZLMCS-UHFFFAOYSA-N

> <FORMULA>
C18H17ClF2N4O3

> <MOLECULAR_WEIGHT>
410.81

> <EXACT_MASS>
410.0957244

> <JCHEM_ACCEPTOR_COUNT>
5

> <JCHEM_ATOM_COUNT>
45

> <JCHEM_AVERAGE_POLARIZABILITY>
38.60997812486839

> <JCHEM_BIOAVAILABILITY>
1

> <JCHEM_DONOR_COUNT>
1

> <JCHEM_FORMAL_CHARGE>
0

> <JCHEM_GHOSE_FILTER>
1

> <JCHEM_IUPAC>
N-(4-chloropyridin-3-yl)-4-[(2,2-difluoro-2H-1,3-benzodioxol-5-yl)methyl]piperazine-1-carboxamide

> <ALOGPS_LOGP>
2.75

> <JCHEM_LOGP>
3.298705604333334

> <ALOGPS_LOGS>
-3.47

> <JCHEM_MDDR_LIKE_RULE>
0

> <JCHEM_NUMBER_OF_RINGS>
4

> <JCHEM_PHYSIOLOGICAL_CHARGE>
0

> <JCHEM_PKA_STRONGEST_ACIDIC>
11.97616767884207

> <JCHEM_PKA_STRONGEST_BASIC>
6.0073510343630385

> <JCHEM_POLAR_SURFACE_AREA>
66.93

> <JCHEM_REFRACTIVITY>
96.5385

> <JCHEM_ROTATABLE_BOND_COUNT>
3

> <JCHEM_RULE_OF_FIVE>
1

> <ALOGPS_SOLUBILITY>
1.41e-01 g/l

> <JCHEM_TRADITIONAL_IUPAC>
(2R)-14-fluoro-2-methyl-6,9,10,19-tetraazapentacyclo[14.2.1.0^{2,6}.0^{8,18}.0^{12,17}]nonadeca-1(18),8,12(17),13,15-pentaen-11-one

> <JCHEM_VEBER_RULE>
0

> <DRUGBANK_ID>
DB15173

> <DRUG_GROUPS>
investigational

> <GENERIC_NAME>
JNJ-42165279

$$$$
