REMARK  Name = 54576693
REMARK  3 active torsions:
REMARK  status: ('A' for Active; 'I' for Inactive)
REMARK    1  A    between atoms: N_2  and  C_19
REMARK    2  A    between atoms: N_4  and  C_14
REMARK    3  A    between atoms: C_19  and  C_24
REMARK                            x       y       z     vdW  Elec       q    Type
REMARK                         _______ _______ _______ _____ _____    ______ ____
ROOT
ATOM      1  O   UNL     1      -3.270  -1.873   1.077  0.00  0.00    -0.252 OA
ATOM      2  N   UNL     1       0.604   0.976  -0.242  0.00  0.00    +0.392 N 
ATOM      3  N   UNL     1      -1.940  -0.031   0.640  0.00  0.00    -0.268 N 
ATOM      4  N   UNL     1      -4.293   0.160   0.622  0.00  0.00    -0.266 N 
ATOM      5  C   UNL     1       0.344  -0.469  -0.223  0.00  0.00    -0.055 C 
ATOM      6  C   UNL     1      -0.629   1.706  -0.563  0.00  0.00    -0.055 C 
ATOM      7  C   UNL     1      -1.735   1.412   0.455  0.00  0.00    +0.072 C 
ATOM      8  C   UNL     1      -0.712  -0.806   0.827  0.00  0.00    +0.072 C 
ATOM      9  C   UNL     1      -3.188  -0.676   0.792  0.00  0.00    +0.308 C 
ATOM     10  H   UNL     1       0.922   1.264   0.684  0.00  0.00    -0.079 HD
ATOM     11  H   UNL     1      -4.167   1.105   0.868  0.00  0.00    +0.156 HD
ENDROOT
BRANCH   4  14
ATOM     12 CL   UNL     1      -6.399   2.382   0.435  0.00  0.00    -0.081 Cl
ATOM     13  N   UNL     1      -7.014  -1.950  -0.704  0.00  0.00    -0.241 NA
ATOM     14  C   UNL     1      -5.574  -0.199   0.135  0.00  0.00    +0.082 C 
ATOM     15  C   UNL     1      -6.608   0.723   0.007  0.00  0.00    +0.074 C 
ATOM     16  C   UNL     1      -5.827  -1.511  -0.231  0.00  0.00    +0.114 C 
ATOM     17  C   UNL     1      -7.845   0.309  -0.476  0.00  0.00    +0.033 C 
ATOM     18  C   UNL     1      -7.995  -1.026  -0.815  0.00  0.00    +0.100 C 
ENDBRANCH   4  14
BRANCH   2  19
ATOM     19  C   UNL     1       1.656   1.296  -1.206  0.00  0.00    -0.050 C 
BRANCH  19  24
ATOM     20  F   UNL     1       7.140  -2.058   0.907  0.00  0.00    -0.125 F 
ATOM     21  F   UNL     1       8.034  -0.923  -0.737  0.00  0.00    -0.125 F 
ATOM     22  O   UNL     1       5.810  -1.363  -0.793  0.00  0.00    -0.395 OA
ATOM     23  O   UNL     1       6.777   0.177   0.796  0.00  0.00    -0.395 OA
ATOM     24  C   UNL     1       3.028   1.026  -0.648  0.00  0.00    -0.040 C 
ATOM     25  C   UNL     1       3.730  -0.111  -1.055  0.00  0.00    +0.034 C 
ATOM     26  C   UNL     1       3.591   1.923   0.277  0.00  0.00    -0.003 C 
ATOM     27  C   UNL     1       4.984  -0.316  -0.517  0.00  0.00    +0.181 C 
ATOM     28  C   UNL     1       5.536   0.563   0.390  0.00  0.00    +0.182 C 
ATOM     29  C   UNL     1       4.863   1.693   0.807  0.00  0.00    +0.040 C 
ATOM     30  C   UNL     1       6.930  -1.034   0.043  0.00  0.00    +0.589 C 
ENDBRANCH  19  24
ENDBRANCH   2  19
TORSDOF 3
