REMARK  Name = 73386890
REMARK  6 active torsions:
REMARK  status: ('A' for Active; 'I' for Inactive)
REMARK    1  A    between atoms: N_1  and  C_31
REMARK    2  A    between atoms: N_4  and  C_16
REMARK    3  A    between atoms: C_17  and  O_28
REMARK    4  A    between atoms: C_18  and  C_25
REMARK    5  A    between atoms: O_28  and  C_29
REMARK    6  A    between atoms: C_31  and  C_32
REMARK                            x       y       z     vdW  Elec       q    Type
REMARK                         _______ _______ _______ _____ _____    ______ ____
ROOT
ATOM      1  N   UNL     1      -2.530   1.649   0.103  0.00  0.00    -0.306 N 
ATOM      2  N   UNL     1      -4.770   0.984   0.125  0.00  0.00    -0.393 NA
ATOM      3  N   UNL     1      -1.684  -0.929  -0.299  0.00  0.00    -0.334 NA
ATOM      4  N   UNL     1       0.021  -2.510  -0.606  0.00  0.00    -0.244 N 
ATOM      5  N   UNL     1      -2.197  -3.265  -0.597  0.00  0.00    -0.170 NA
ATOM      6  C   UNL     1      -3.466   0.633   0.009  0.00  0.00    +0.210 C 
ATOM      7  C   UNL     1      -2.998  -0.655  -0.194  0.00  0.00    +0.185 C 
ATOM      8  C   UNL     1      -3.973  -1.655  -0.283  0.00  0.00    +0.039 C 
ATOM      9  C   UNL     1      -5.672  -0.015   0.032  0.00  0.00    +0.093 C 
ATOM     10  C   UNL     1      -5.333  -1.340  -0.170  0.00  0.00    +0.085 C 
ATOM     11  C   UNL     1      -1.357  -2.222  -0.495  0.00  0.00    +0.149 C 
ATOM     12  C   UNL     1      -3.502  -2.950  -0.487  0.00  0.00    +0.111 C 
ATOM     13  C   UNL     1      -7.109   0.365   0.158  0.00  0.00    +0.062 C 
ATOM     14  H   UNL     1      -1.578   1.413   0.021  0.00  0.00    +0.149 HD
ATOM     15  H   UNL     1       0.216  -3.465  -0.749  0.00  0.00    +0.165 HD
ENDROOT
BRANCH   4  16
ATOM     16  C   UNL     1       1.171  -1.701  -0.552  0.00  0.00    +0.091 C 
ATOM     17  C   UNL     1       2.379  -2.213  -0.078  0.00  0.00    +0.152 C 
ATOM     18  C   UNL     1       3.435  -0.074  -0.456  0.00  0.00    +0.037 C 
ATOM     19  C   UNL     1       3.511  -1.400  -0.030  0.00  0.00    +0.041 C 
ATOM     20  C   UNL     1       1.096  -0.375  -0.979  0.00  0.00    +0.018 C 
ATOM     21  C   UNL     1       2.228   0.439  -0.931  0.00  0.00    +0.004 C 
BRANCH  18  25
ATOM     22  N   UNL     1       4.688   1.919   0.315  0.00  0.00    -0.251 N 
ATOM     23  N   UNL     1       5.741   0.556  -1.034  0.00  0.00    -0.131 NA
ATOM     24  N   UNL     1       6.591   1.597  -0.715  0.00  0.00    -0.128 NA
ATOM     25  C   UNL     1       4.606   0.767  -0.407  0.00  0.00    +0.158 C 
ATOM     26  C   UNL     1       3.675   2.521   1.148  0.00  0.00    +0.120 C 
ATOM     27  C   UNL     1       5.941   2.403   0.095  0.00  0.00    +0.192 C 
ENDBRANCH  18  25
BRANCH  17  28
ATOM     28  O   UNL     1       2.473  -3.506   0.344  0.00  0.00    -0.474 OA
BRANCH  28  29
ATOM     29  C   UNL     1       2.864  -3.718   1.699  0.00  0.00    +0.206 C 
ATOM     30  C   UNL     1       2.223  -4.993   2.204  0.00  0.00    +0.051 C 
ENDBRANCH  28  29
ENDBRANCH  17  28
ENDBRANCH   4  16
BRANCH   1  31
ATOM     31  C   UNL     1      -2.872   3.037   0.314  0.00  0.00    +0.089 C 
BRANCH  31  32
ATOM     32  C   UNL     1      -1.620   3.936   0.427  0.00  0.00    +0.018 C 
ATOM     33  C   UNL     1      -0.699   3.454   1.562  0.00  0.00    +0.002 C 
ATOM     34  C   UNL     1      -0.845   3.857  -0.901  0.00  0.00    +0.002 C 
ATOM     35  C   UNL     1      -2.016   5.401   0.678  0.00  0.00    +0.002 C 
ENDBRANCH  31  32
ENDBRANCH   1  31
TORSDOF 6
