REMARK  Name = 64766
REMARK  9 active torsions:
REMARK  status: ('A' for Active; 'I' for Inactive)
REMARK    1  A    between atoms: N_1  and  C_8
REMARK    2  A    between atoms: N_1  and  CA_20
REMARK    3  A    between atoms: C_7  and  C_17
REMARK    4  A    between atoms: C_17  and  O_18
REMARK    5  A    between atoms: CA_20  and  C_22
REMARK    6  A    between atoms: CA_20  and  C_25
REMARK    7  A    between atoms: C_22  and  O_23
REMARK    8  A    between atoms: C_25  and  C_26
REMARK    9  A    between atoms: C_26  and  C_27
REMARK                            x       y       z     vdW  Elec       q    Type
REMARK                         _______ _______ _______ _____ _____    ______ ____
ROOT
ATOM      1  N   UNL     1       0.244   1.536   0.753  0.00  0.00    +0.399 N 
ATOM      2  H1  UNL     1      -0.196   2.245   1.339  0.00  0.00    -0.083 HD
ATOM      3  H2  UNL     1       0.454   0.704   1.304  0.00  0.00    -0.083 HD
ENDROOT
BRANCH   1   8
ATOM      4  O   UNL     1       2.229   1.193  -1.874  0.00  0.00    -0.276 OA
ATOM      5  N   UNL     1       2.465  -0.350   1.345  0.00  0.00    -0.202 NA
ATOM      6  N   UNL     1       2.684  -0.128  -0.035  0.00  0.00    -0.214 N 
ATOM      7  C   UNL     1       3.443  -1.121  -0.807  0.00  0.00    +0.190 C 
ATOM      8  C   UNL     1       1.489   2.067   0.210  0.00  0.00    +0.019 C 
ATOM      9  C   UNL     1       2.491  -1.773   1.687  0.00  0.00    +0.092 C 
ATOM     10  C   UNL     1       3.369   0.454   2.171  0.00  0.00    +0.092 C 
ATOM     11  C   UNL     1       4.423  -1.931   0.036  0.00  0.00    +0.034 C 
ATOM     12  C   UNL     1       2.439   2.670   1.251  0.00  0.00    -0.011 C 
ATOM     13  C   UNL     1       3.809  -2.460   1.333  0.00  0.00    +0.021 C 
ATOM     14  C   UNL     1       2.736   1.810   2.478  0.00  0.00    +0.017 C 
ATOM     15  C   UNL     1       2.155   1.003  -0.654  0.00  0.00    +0.219 C 
BRANCH   7  17
ATOM     16  O   UNL     1       1.244  -1.945  -1.399  0.00  0.00    -0.248 OA
ATOM     17  C   UNL     1       2.459  -2.006  -1.520  0.00  0.00    +0.334 C 
BRANCH  17  18
ATOM     18  O   UNL     1       3.103  -2.891  -2.319  0.00  0.00    -0.479 OA
ATOM     19  H   UNL     1       4.039  -2.885  -2.367  0.00  0.00    +0.295 HD
ENDBRANCH  17  18
ENDBRANCH   7  17
ENDBRANCH   1   8
BRANCH   1  20
ATOM     20  CA  UNL     1      -0.666   1.170  -0.319  0.00  0.00    +0.041 C 
BRANCH  20  22
ATOM     21  OXT UNL     1      -1.503   3.429  -0.674  0.00  0.00    -0.253 OA
ATOM     22  C   UNL     1      -0.942   2.433  -1.115  0.00  0.00    +0.293 C 
BRANCH  22  23
ATOM     23  O   UNL     1      -0.473   2.360  -2.387  0.00  0.00    -0.482 OA
ATOM     24  H   UNL     1      -0.050   1.579  -2.686  0.00  0.00    +0.295 HD
ENDBRANCH  22  23
ENDBRANCH  20  22
BRANCH  20  25
ATOM     25  C   UNL     1      -1.958   0.603   0.285  0.00  0.00    -0.006 C 
BRANCH  25  26
ATOM     26  C   UNL     1      -3.002   0.155  -0.749  0.00  0.00    +0.025 C 
BRANCH  26  27
ATOM     27  C   UNL     1      -4.241  -0.472  -0.158  0.00  0.00    -0.022 C 
ATOM     28  C   UNL     1      -4.275  -1.842   0.052  0.00  0.00    -0.004 C 
ATOM     29  C   UNL     1      -5.322   0.332   0.167  0.00  0.00    -0.004 C 
ATOM     30  C   UNL     1      -5.419  -2.423   0.599  0.00  0.00    -0.000 C 
ATOM     31  C   UNL     1      -6.466  -0.248   0.714  0.00  0.00    -0.000 C 
ATOM     32  C   UNL     1      -6.515  -1.626   0.930  0.00  0.00    -0.000 C 
ENDBRANCH  26  27
ENDBRANCH  25  26
ENDBRANCH  20  25
ENDBRANCH   1  20
TORSDOF 9
