REMARK  Name = 11616111
REMARK  4 active torsions:
REMARK  status: ('A' for Active; 'I' for Inactive)
REMARK    1  A    between atoms: C_4  and  C_12
REMARK    2  A    between atoms: C_12  and  N_13
REMARK    3  A    between atoms: N_13  and  S_15
REMARK    4  A    between atoms: S_15  and  N_18
REMARK                            x       y       z     vdW  Elec       q    Type
REMARK                         _______ _______ _______ _____ _____    ______ ____
ROOT
ATOM      1 CL   UNL     1       5.761   0.180   0.755  0.00  0.00    -0.082 Cl
ATOM      2  O   UNL     1       0.145  -0.862  -0.637  0.00  0.00    -0.471 OA
ATOM      3  O   UNL     1       1.066   1.827  -0.162  0.00  0.00    -0.468 OA
ATOM      4  C   UNL     1      -0.569   0.296  -1.089  0.00  0.00    +0.227 C 
ATOM      5  C   UNL     1      -0.317   1.458  -0.137  0.00  0.00    +0.250 C 
ATOM      6  C   UNL     1       1.439  -0.570  -0.295  0.00  0.00    +0.172 C 
ATOM      7  C   UNL     1       1.888   0.734  -0.076  0.00  0.00    +0.173 C 
ATOM      8  C   UNL     1       2.319  -1.644  -0.160  0.00  0.00    +0.041 C 
ATOM      9  C   UNL     1       3.228   0.969   0.237  0.00  0.00    +0.051 C 
ATOM     10  C   UNL     1       3.655  -1.410   0.166  0.00  0.00    +0.015 C 
ATOM     11  C   UNL     1       4.110  -0.105   0.359  0.00  0.00    +0.061 C 
ENDROOT
BRANCH   4  12
ATOM     12  C   UNL     1      -2.046  -0.063  -1.145  0.00  0.00    +0.140 C 
BRANCH  12  13
ATOM     13  N   UNL     1      -2.548  -0.428   0.172  0.00  0.00    -0.166 NA
ATOM     14  H   UNL     1      -2.418  -1.435   0.274  0.00  0.00    +0.150 HD
BRANCH  13  15
ATOM     15  S   UNL     1      -4.194  -0.088   0.558  0.00  0.00    +0.093 S 
ATOM     16  O   UNL     1      -4.563  -0.858   1.732  0.00  0.00    -0.142 OA
ATOM     17  O   UNL     1      -4.399   1.347   0.525  0.00  0.00    -0.142 OA
BRANCH  15  18
ATOM     18  N   UNL     1      -4.976  -0.783  -0.803  0.00  0.00    -0.193 NA
ATOM     19  H   UNL     1      -5.985  -0.658  -0.716  0.00  0.00    +0.145 HD
ATOM     20  H   UNL     1      -4.760  -1.779  -0.848  0.00  0.00    +0.145 HD
ENDBRANCH  15  18
ENDBRANCH  13  15
ENDBRANCH  12  13
ENDBRANCH   4  12
TORSDOF 4
