REMARK  Name = 1576
REMARK  3 active torsions:
REMARK  status: ('A' for Active; 'I' for Inactive)
REMARK    1  A    between atoms: C_2  and  C_3
REMARK    2  A    between atoms: C_2  and  C_9
REMARK    3  A    between atoms: C_9  and  N_11
REMARK                            x       y       z     vdW  Elec       q    Type
REMARK                         _______ _______ _______ _____ _____    ______ ____
ROOT
ATOM      1  O   UNL     1       1.211   1.111  -1.266  0.00  0.00    -0.294 OA
ATOM      2  C   UNL     1       0.805   0.239  -0.468  0.00  0.00    +0.153 C 
ENDROOT
BRANCH   2   3
ATOM      3  C   UNL     1      -0.616   0.110  -0.188  0.00  0.00    +0.033 C 
ATOM      4  C   UNL     1      -1.148  -1.131   0.162  0.00  0.00    +0.003 C 
ATOM      5  C   UNL     1      -1.447   1.227  -0.268  0.00  0.00    +0.003 C 
ATOM      6  C   UNL     1      -2.511  -1.255   0.431  0.00  0.00    +0.000 C 
ATOM      7  C   UNL     1      -2.810   1.103   0.002  0.00  0.00    +0.000 C 
ATOM      8  C   UNL     1      -3.342  -0.138   0.352  0.00  0.00    +0.000 C 
ENDBRANCH   2   3
BRANCH   2   9
ATOM      9  C   UNL     1       1.834  -0.681   0.224  0.00  0.00    +0.002 C 
ATOM     10  C   UNL     1       2.111  -1.907  -0.636  0.00  0.00    -0.016 C 
BRANCH   9  11
ATOM     11  N   UNL     1       3.074   0.073   0.417  0.00  0.00    +0.388 N 
ATOM     12  C   UNL     1       2.837   1.250   1.237  0.00  0.00    -0.105 C 
ATOM     13  H   UNL     1       3.433   0.366  -0.492  0.00  0.00    -0.084 HD
ATOM     14  H   UNL     1       3.752  -0.525   0.889  0.00  0.00    -0.084 HD
ENDBRANCH   9  11
ENDBRANCH   2   9
TORSDOF 3
