REMARK  Name = 52951810
REMARK  5 active torsions:
REMARK  status: ('A' for Active; 'I' for Inactive)
REMARK    1  A    between atoms: N_4  and  C_17
REMARK    2  A    between atoms: C_17  and  C_18
REMARK    3  A    between atoms: C_18  and  C_21
REMARK    4  A    between atoms: C_18  and  C_24
REMARK    5  A    between atoms: C_24  and  C_26
REMARK                            x       y       z     vdW  Elec       q    Type
REMARK                         _______ _______ _______ _____ _____    ______ ____
ROOT
ATOM      1  S   UNL     1       3.648  -1.317   0.203  0.00  0.00    -0.060 S 
ATOM      2  F   UNL     1       6.213  -2.136   0.331  0.00  0.00    -0.197 F 
ATOM      3  O   UNL     1       2.184   2.453   0.139  0.00  0.00    -0.354 OA
ATOM      4  N   UNL     1      -0.908   0.831  -0.278  0.00  0.00    +0.387 N 
ATOM      5  C   UNL     1       2.023   1.014   0.000  0.00  0.00    +0.113 C 
ATOM      6  C   UNL     1       1.096   0.592   1.158  0.00  0.00    +0.009 C 
ATOM      7  C   UNL     1       1.325   0.694  -1.336  0.00  0.00    +0.009 C 
ATOM      8  C   UNL     1      -0.308   1.193   1.013  0.00  0.00    -0.075 C 
ATOM      9  C   UNL     1      -0.083   1.297  -1.400  0.00  0.00    -0.075 C 
ATOM     10  C   UNL     1       3.393   0.369   0.099  0.00  0.00    +0.030 C 
ATOM     11  C   UNL     1       4.588   1.066   0.076  0.00  0.00    -0.013 C 
ATOM     12  C   UNL     1       3.268   3.036  -0.594  0.00  0.00    +0.147 C 
ATOM     13  C   UNL     1       4.600   2.553  -0.021  0.00  0.00    +0.059 C 
ATOM     14  C   UNL     1       5.717   0.202   0.165  0.00  0.00    +0.032 C 
ATOM     15  C   UNL     1       5.347  -1.122   0.241  0.00  0.00    +0.169 C 
ATOM     16  H   UNL     1      -0.955  -0.187  -0.326  0.00  0.00    -0.080 HD
ENDROOT
BRANCH   4  17
ATOM     17  C   UNL     1      -2.264   1.369  -0.381  0.00  0.00    -0.068 C 
BRANCH  17  18
ATOM     18  C   UNL     1      -3.281   0.539   0.424  0.00  0.00    +0.060 C 
BRANCH  18  21
ATOM     19  O   UNL     1      -4.860   1.686   1.836  0.00  0.00    -0.275 OA
ATOM     20  N   UNL     1      -5.237   1.735  -0.449  0.00  0.00    -0.303 N 
ATOM     21  C   UNL     1      -4.535   1.379   0.689  0.00  0.00    +0.220 C 
ATOM     22  C   UNL     1      -6.447   2.520  -0.395  0.00  0.00    +0.111 C 
ATOM     23  H   UNL     1      -4.899   1.443  -1.326  0.00  0.00    +0.149 HD
ENDBRANCH  18  21
BRANCH  18  24
ATOM     24  C   UNL     1      -3.626  -0.804  -0.253  0.00  0.00    +0.036 C 
BRANCH  24  26
ATOM     25  F   UNL     1      -2.207  -2.056  -2.365  0.00  0.00    -0.205 F 
ATOM     26  C   UNL     1      -2.576  -1.868  -0.028  0.00  0.00    +0.006 C 
ATOM     27  C   UNL     1      -1.917  -2.442  -1.115  0.00  0.00    +0.136 C 
ATOM     28  C   UNL     1      -2.267  -2.275   1.270  0.00  0.00    -0.002 C 
ATOM     29  C   UNL     1      -0.948  -3.423  -0.904  0.00  0.00    +0.029 C 
ATOM     30  C   UNL     1      -1.298  -3.256   1.481  0.00  0.00    -0.000 C 
ATOM     31  C   UNL     1      -0.638  -3.830   0.394  0.00  0.00    +0.002 C 
ENDBRANCH  24  26
ENDBRANCH  18  24
ENDBRANCH  17  18
ENDBRANCH   4  17
TORSDOF 5
