REMARK  Name = 4617
REMARK  1 active torsions:
REMARK  status: ('A' for Active; 'I' for Inactive)
REMARK    1  A    between atoms: C_6  and  C_20
REMARK                            x       y       z     vdW  Elec       q    Type
REMARK                         _______ _______ _______ _____ _____    ______ ____
ROOT
ATOM      1 CL   UNL     1       4.637  -0.185   1.804  0.00  0.00    -0.082 Cl
ATOM      2  O   UNL     1      -0.089  -1.940   0.728  0.00  0.00    -0.373 OA
ATOM      3  O   UNL     1      -1.601   1.606  -2.951  0.00  0.00    -0.277 OA
ATOM      4  N   UNL     1      -0.736  -1.123  -1.383  0.00  0.00    +0.417 N 
ATOM      5  N   UNL     1       0.201   1.842  -1.554  0.00  0.00    -0.286 N 
ATOM      6  C   UNL     1      -0.264  -0.713  -0.038  0.00  0.00    +0.097 C 
ATOM      7  C   UNL     1      -0.353  -2.528  -1.499  0.00  0.00    -0.042 C 
ATOM      8  C   UNL     1      -0.592  -3.006  -0.086  0.00  0.00    +0.093 C 
ATOM      9  C   UNL     1       1.074   0.066  -0.055  0.00  0.00    +0.003 C 
ATOM     10  C   UNL     1      -0.294  -0.354  -2.531  0.00  0.00    +0.015 C 
ATOM     11  C   UNL     1       1.190   1.324  -0.690  0.00  0.00    +0.047 C 
ATOM     12  C   UNL     1       0.133  -4.295   0.250  0.00  0.00    +0.030 C 
ATOM     13  C   UNL     1      -0.651   1.103  -2.349  0.00  0.00    +0.205 C 
ATOM     14  C   UNL     1       2.176  -0.389   0.699  0.00  0.00    +0.009 C 
ATOM     15  C   UNL     1       2.315   2.132  -0.470  0.00  0.00    +0.015 C 
ATOM     16  C   UNL     1       3.317   0.399   0.864  0.00  0.00    +0.057 C 
ATOM     17  C   UNL     1       3.378   1.666   0.297  0.00  0.00    +0.013 C 
ATOM     18  H   UNL     1      -1.740  -0.946  -1.422  0.00  0.00    -0.074 HD
ATOM     19  H   UNL     1       0.111   2.822  -1.592  0.00  0.00    +0.155 HD
ENDROOT
BRANCH   6  20
ATOM     20  C   UNL     1      -1.341   0.049   0.769  0.00  0.00    -0.012 C 
ATOM     21  C   UNL     1      -1.123   0.331   2.114  0.00  0.00    -0.004 C 
ATOM     22  C   UNL     1      -2.518   0.446   0.145  0.00  0.00    -0.004 C 
ATOM     23  C   UNL     1      -2.094   1.018   2.842  0.00  0.00    -0.000 C 
ATOM     24  C   UNL     1      -3.489   1.133   0.873  0.00  0.00    -0.000 C 
ATOM     25  C   UNL     1      -3.277   1.419   2.222  0.00  0.00    -0.000 C 
ENDBRANCH   6  20
TORSDOF 1
