REMARK  Name = 44473425
REMARK  10 active torsions:
REMARK  status: ('A' for Active; 'I' for Inactive)
REMARK    1  A    between atoms: C_1  and  C_2
REMARK    2  A    between atoms: C_1  and  CA_11
REMARK    3  A    between atoms: C_2  and  C_4
REMARK    4  A    between atoms: C_2  and  C_7
REMARK    5  A    between atoms: C_4  and  O_5
REMARK    6  A    between atoms: C_7  and  C_8
REMARK    7  A    between atoms: C_8  and  C_10
REMARK    8  A    between atoms: CA_11  and  N_12
REMARK    9  A    between atoms: CA_11  and  C_17
REMARK   10  A    between atoms: C_17  and  O_18
REMARK                            x       y       z     vdW  Elec       q    Type
REMARK                         _______ _______ _______ _____ _____    ______ ____
ROOT
ATOM      1  C   UNL     1       0.754  -0.822  -0.834  0.00  0.00    +0.000 C 
ENDROOT
BRANCH   1   2
ATOM      2  C   UNL     1      -0.297  -0.140   0.069  0.00  0.00    +0.097 C 
BRANCH   2   4
ATOM      3  O   UNL     1      -0.767   1.777  -1.361  0.00  0.00    -0.250 OA
ATOM      4  C   UNL     1      -0.421   1.338  -0.272  0.00  0.00    +0.313 C 
BRANCH   4   5
ATOM      5  O   UNL     1      -0.132   2.139   0.786  0.00  0.00    -0.480 OA
ATOM      6  H   UNL     1       0.130   1.760   1.602  0.00  0.00    +0.295 HD
ENDBRANCH   4   5
ENDBRANCH   2   4
BRANCH   2   7
ATOM      7  C   UNL     1      -1.695  -0.770  -0.077  0.00  0.00    +0.014 C 
BRANCH   7   8
ATOM      8  C   UNL     1      -2.735  -0.161   0.868  0.00  0.00    +0.039 C 
BRANCH   8  10
ATOM      9  F   UNL     1      -4.537  -0.657  -0.556  0.00  0.00    -0.234 F 
ATOM     10  C   UNL     1      -4.088  -0.836   0.714  0.00  0.00    +0.193 C 
ENDBRANCH   8  10
ENDBRANCH   7   8
ENDBRANCH   2   7
ENDBRANCH   1   2
BRANCH   1  11
ATOM     11  CA  UNL     1       2.159  -0.194  -0.753  0.00  0.00    +0.036 C 
BRANCH  11  12
ATOM     12  N   UNL     1       3.085  -0.856  -1.667  0.00  0.00    +0.389 N 
ATOM     13  H1  UNL     1       2.729  -0.788  -2.620  0.00  0.00    -0.088 HD
ATOM     14  H2  UNL     1       3.176  -1.838  -1.407  0.00  0.00    -0.088 HD
ATOM     15  H3  UNL     1       3.998  -0.404  -1.612  0.00  0.00    -0.088 HD
ENDBRANCH  11  12
BRANCH  11  17
ATOM     16  OXT UNL     1       2.943  -1.381   1.228  0.00  0.00    -0.253 OA
ATOM     17  C   UNL     1       2.734  -0.324   0.647  0.00  0.00    +0.293 C 
BRANCH  17  18
ATOM     18  O   UNL     1       2.996   0.887   1.207  0.00  0.00    -0.482 OA
ATOM     19  H   UNL     1       2.821   1.673   0.728  0.00  0.00    +0.295 HD
ENDBRANCH  17  18
ENDBRANCH  11  17
ENDBRANCH   1  11
TORSDOF 10
