REMARK  Name = 11826859
REMARK  9 active torsions:
REMARK  status: ('A' for Active; 'I' for Inactive)
REMARK    1  A    between atoms: C_2  and  N_10
REMARK    2  A    between atoms: C_3  and  C_22
REMARK    3  A    between atoms: C_12  and  C_20
REMARK    4  A    between atoms: C_22  and  O_23
REMARK    5  A    between atoms: O_23  and  C_24
REMARK    6  A    between atoms: C_24  and  C_28
REMARK    7  A    between atoms: C_28  and  O_29
REMARK    8  A    between atoms: O_29  and  C_30
REMARK    9  A    between atoms: C_30  and  C_31
REMARK                            x       y       z     vdW  Elec       q    Type
REMARK                         _______ _______ _______ _____ _____    ______ ____
ROOT
ATOM      1 CL   UNL     1       2.238  -4.256   0.069  0.00  0.00    -0.082 Cl
ATOM      2  C   UNL     1      -1.279  -1.444   0.017  0.00  0.00    +0.063 C 
ATOM      3  C   UNL     1       1.103  -1.776   0.004  0.00  0.00    +0.087 C 
ATOM      4  C   UNL     1       0.005  -0.916  -0.012  0.00  0.00    +0.023 C 
ATOM      5  C   UNL     1      -1.486  -2.816   0.062  0.00  0.00    +0.016 C 
ATOM      6  C   UNL     1       0.906  -3.156   0.049  0.00  0.00    +0.064 C 
ATOM      7  C   UNL     1      -0.388  -3.676   0.079  0.00  0.00    +0.013 C 
ENDROOT
BRANCH   2  10
ATOM      8  O   UNL     1      -3.701  -2.027   1.296  0.00  0.00    -0.251 OA
ATOM      9  O   UNL     1      -1.298   1.063  -1.304  0.00  0.00    -0.269 OA
ATOM     10  N   UNL     1      -2.420  -0.551   0.001  0.00  0.00    -0.189 N 
ATOM     11  N   UNL     1      -4.707  -0.082   0.551  0.00  0.00    -0.237 N 
ATOM     12  C   UNL     1      -4.601   1.162  -0.059  0.00  0.00    +0.132 C 
ATOM     13  C   UNL     1      -3.617  -0.977   0.649  0.00  0.00    +0.321 C 
ATOM     14  C   UNL     1      -2.275   0.679  -0.662  0.00  0.00    +0.261 C 
ATOM     15  C   UNL     1      -3.457   1.559  -0.624  0.00  0.00    +0.078 C 
ATOM     16  C   UNL     1      -5.981  -0.472   1.162  0.00  0.00    +0.122 C 
BRANCH  12  20
ATOM     17  F   UNL     1      -5.489   3.237  -0.699  0.00  0.00    -0.165 F 
ATOM     18  F   UNL     1      -6.825   1.514  -0.722  0.00  0.00    -0.165 F 
ATOM     19  F   UNL     1      -6.188   2.374   1.177  0.00  0.00    -0.165 F 
ATOM     20  C   UNL     1      -5.791   2.084  -0.075  0.00  0.00    +0.431 C 
ENDBRANCH  12  20
ENDBRANCH   2  10
BRANCH   3  22
ATOM     21  O   UNL     1       3.288  -1.346   0.855  0.00  0.00    -0.245 OA
ATOM     22  C   UNL     1       2.436  -1.188  -0.027  0.00  0.00    +0.342 C 
BRANCH  22  23
ATOM     23  O   UNL     1       2.626  -0.440  -1.156  0.00  0.00    -0.442 OA
BRANCH  23  24
ATOM     24  C   UNL     1       3.903   0.191  -1.303  0.00  0.00    +0.224 C 
ATOM     25  C   UNL     1       3.888   0.990  -2.602  0.00  0.00    +0.055 C 
ATOM     26  C   UNL     1       4.973  -0.899  -1.344  0.00  0.00    +0.055 C 
BRANCH  24  28
ATOM     27  O   UNL     1       3.261   1.743   0.458  0.00  0.00    -0.246 OA
ATOM     28  C   UNL     1       4.149   1.145  -0.137  0.00  0.00    +0.354 C 
BRANCH  28  29
ATOM     29  O   UNL     1       5.480   1.201   0.165  0.00  0.00    -0.441 OA
BRANCH  29  30
ATOM     30  C   UNL     1       5.829   2.038   1.272  0.00  0.00    +0.235 C 
BRANCH  30  31
ATOM     31  C   UNL     1       7.308   1.987   1.464  0.00  0.00    +0.021 C 
ATOM     32  C   UNL     1       8.108   3.057   1.396  0.00  0.00    -0.001 C 
ENDBRANCH  30  31
ENDBRANCH  29  30
ENDBRANCH  28  29
ENDBRANCH  24  28
ENDBRANCH  23  24
ENDBRANCH  22  23
ENDBRANCH   3  22
TORSDOF 9
