REMARK  Name = 9808844
REMARK  5 active torsions:
REMARK  status: ('A' for Active; 'I' for Inactive)
REMARK    1  A    between atoms: N_2  and  C_13
REMARK    2  A    between atoms: C_8  and  O_19
REMARK    3  A    between atoms: O_19  and  C_20
REMARK    4  A    between atoms: C_20  and  C_22
REMARK    5  A    between atoms: C_25  and  C_29
REMARK                            x       y       z     vdW  Elec       q    Type
REMARK                         _______ _______ _______ _____ _____    ______ ____
ROOT
ATOM      1  O   UNL     1       0.005   3.147  -0.042  0.00  0.00    -0.446 OA
ATOM      2  N   UNL     1       4.153   0.961   0.194  0.00  0.00    -0.296 N 
ATOM      3  N   UNL     1       2.145  -0.285  -0.161  0.00  0.00    -0.130 NA
ATOM      4  N   UNL     1       0.768  -0.378  -0.325  0.00  0.00    -0.106 NA
ATOM      5  C   UNL     1       1.981   2.058   0.065  0.00  0.00    +0.076 A 
ATOM      6  C   UNL     1       0.609   1.928  -0.102  0.00  0.00    +0.202 A 
ATOM      7  C   UNL     1       2.758   0.905   0.032  0.00  0.00    +0.157 A 
ATOM      8  C   UNL     1      -0.018   0.716  -0.299  0.00  0.00    +0.279 A 
ATOM      9  C   UNL     1       2.218   3.447   0.237  0.00  0.00    +0.047 C 
ATOM     10  C   UNL     1       0.989   4.062   0.163  0.00  0.00    +0.180 C 
ATOM     11  H   UNL     1       4.498   1.873   0.328  0.00  0.00    +0.154 HD
ENDROOT
BRANCH   2  13
ATOM     12 CL   UNL     1       8.369  -3.196   0.227  0.00  0.00    -0.082 Cl
ATOM     13  C   UNL     1       5.158  -0.030   0.202  0.00  0.00    +0.049 C 
ATOM     14  C   UNL     1       6.313   0.155   0.961  0.00  0.00    +0.016 C 
ATOM     15  C   UNL     1       4.995  -1.194  -0.549  0.00  0.00    +0.016 C 
ATOM     16  C   UNL     1       7.306  -0.824   0.969  0.00  0.00    +0.013 C 
ATOM     17  C   UNL     1       5.988  -2.173  -0.541  0.00  0.00    +0.013 C 
ATOM     18  C   UNL     1       7.143  -1.988   0.218  0.00  0.00    +0.058 C 
ENDBRANCH   2  13
BRANCH   8  19
ATOM     19  O   UNL     1      -1.371   0.578  -0.464  0.00  0.00    -0.452 OA
BRANCH  19  20
ATOM     20  C   UNL     1      -1.861  -0.744  -0.657  0.00  0.00    +0.234 C 
BRANCH  20  22
ATOM     21  N   UNL     1      -6.109  -0.592  -1.208  0.00  0.00    -0.239 NA
ATOM     22  C   UNL     1      -3.349  -0.691  -0.849  0.00  0.00    +0.024 C 
ATOM     23  C   UNL     1      -4.189  -0.782   0.248  0.00  0.00    +0.023 C 
ATOM     24  C   UNL     1      -3.873  -0.552  -2.125  0.00  0.00    +0.020 C 
ATOM     25  C   UNL     1      -5.554  -0.727   0.017  0.00  0.00    +0.134 C 
ATOM     26  C   UNL     1      -5.252  -0.508  -2.250  0.00  0.00    +0.099 C 
BRANCH  25  29
ATOM     27  O   UNL     1      -6.077  -0.921   2.295  0.00  0.00    -0.268 OA
ATOM     28  N   UNL     1      -7.853  -0.754   0.814  0.00  0.00    -0.298 N 
ATOM     29  C   UNL     1      -6.489  -0.816   1.125  0.00  0.00    +0.264 C 
ATOM     30  C   UNL     1      -8.903  -0.805   1.806  0.00  0.00    +0.111 C 
ATOM     31  H   UNL     1      -8.111  -0.670  -0.132  0.00  0.00    +0.150 HD
ENDBRANCH  25  29
ENDBRANCH  20  22
ENDBRANCH  19  20
ENDBRANCH   8  19
TORSDOF 5
