REMARK  Name = 53340426
REMARK  11 active torsions:
REMARK  status: ('A' for Active; 'I' for Inactive)
REMARK    1  A    between atoms: N_1  and  C_9
REMARK    2  A    between atoms: N_1  and  C_15
REMARK    3  A    between atoms: C_4  and  C_23
REMARK    4  A    between atoms: N_22  and  C_25
REMARK    5  A    between atoms: C_25  and  C_26
REMARK    6  A    between atoms: C_26  and  C_27
REMARK    7  A    between atoms: C_27  and  C_28
REMARK    8  A    between atoms: C_28  and  C_29
REMARK    9  A    between atoms: C_29  and  C_30
REMARK   10  A    between atoms: C_30  and  C_33
REMARK   11  A    between atoms: N_32  and  O_35
REMARK                            x       y       z     vdW  Elec       q    Type
REMARK                         _______ _______ _______ _____ _____    ______ ____
ROOT
ATOM      1  N   UNL     1       3.215  -0.181  -0.117  0.00  0.00    -0.210 N 
ATOM      2  N   UNL     1       0.983  -0.026   0.589  0.00  0.00    -0.202 NA
ATOM      3  N   UNL     1       2.061   1.822  -0.520  0.00  0.00    -0.180 NA
ATOM      4  C   UNL     1      -0.231   2.014   0.192  0.00  0.00    +0.076 C 
ATOM      5  C   UNL     1       2.027   0.576  -0.011  0.00  0.00    +0.098 C 
ATOM      6  C   UNL     1      -0.135   0.725   0.674  0.00  0.00    +0.170 C 
ATOM      7  C   UNL     1       0.910   2.516  -0.402  0.00  0.00    +0.113 C 
ENDROOT
BRANCH   1   9
ATOM      8 CL   UNL     1       3.545   0.760   2.783  0.00  0.00    -0.081 Cl
ATOM      9  C   UNL     1       3.557  -1.196   0.879  0.00  0.00    +0.076 C 
ATOM     10  C   UNL     1       3.728  -0.864   2.223  0.00  0.00    +0.072 C 
ATOM     11  C   UNL     1       3.713  -2.518   0.462  0.00  0.00    +0.017 C 
ATOM     12  C   UNL     1       4.054  -1.854   3.150  0.00  0.00    +0.013 C 
ATOM     13  C   UNL     1       4.039  -3.508   1.389  0.00  0.00    +0.001 C 
ATOM     14  C   UNL     1       4.210  -3.176   2.733  0.00  0.00    +0.001 C 
ENDBRANCH   1   9
BRANCH   1  15
ATOM     15  C   UNL     1       4.146   0.024  -1.227  0.00  0.00    +0.065 C 
ATOM     16  C   UNL     1       5.510  -0.205  -1.045  0.00  0.00    +0.016 C 
ATOM     17  C   UNL     1       3.670   0.448  -2.468  0.00  0.00    +0.016 C 
ATOM     18  C   UNL     1       6.398  -0.010  -2.103  0.00  0.00    +0.001 C 
ATOM     19  C   UNL     1       4.557   0.643  -3.526  0.00  0.00    +0.001 C 
ATOM     20  C   UNL     1       5.921   0.414  -3.343  0.00  0.00    +0.000 C 
ENDBRANCH   1  15
BRANCH   4  23
ATOM     21  O   UNL     1      -1.714   3.679  -0.533  0.00  0.00    -0.270 OA
ATOM     22  N   UNL     1      -2.320   2.486   1.362  0.00  0.00    -0.301 N 
ATOM     23  C   UNL     1      -1.480   2.811   0.303  0.00  0.00    +0.245 C 
ATOM     24  H   UNL     1      -2.044   1.773   1.982  0.00  0.00    +0.150 HD
BRANCH  22  25
ATOM     25  C   UNL     1      -3.574   3.150   1.589  0.00  0.00    +0.090 C 
BRANCH  25  26
ATOM     26  C   UNL     1      -4.718   2.449   0.865  0.00  0.00    +0.021 C 
BRANCH  26  27
ATOM     27  C   UNL     1      -4.878   1.006   1.344  0.00  0.00    +0.002 C 
BRANCH  27  28
ATOM     28  C   UNL     1      -6.050   0.315   0.645  0.00  0.00    +0.001 C 
BRANCH  28  29
ATOM     29  C   UNL     1      -6.188  -1.141   1.102  0.00  0.00    +0.010 C 
BRANCH  29  30
ATOM     30  C   UNL     1      -7.331  -1.867   0.395  0.00  0.00    +0.087 C 
BRANCH  30  33
ATOM     31  O   UNL     1      -7.635  -1.085  -1.877  0.00  0.00    -0.273 OA
ATOM     32  N   UNL     1      -6.490  -3.056  -1.506  0.00  0.00    -0.197 N 
ATOM     33  C   UNL     1      -7.175  -1.931  -1.115  0.00  0.00    +0.244 C 
ATOM     34  H   UNL     1      -6.139  -3.708  -0.857  0.00  0.00    +0.182 HD
BRANCH  32  35
ATOM     35  O   UNL     1      -6.324  -3.218  -2.888  0.00  0.00    -0.295 OA
ATOM     36  H   UNL     1      -5.832  -4.036  -3.061  0.00  0.00    +0.241 HD
ENDBRANCH  32  35
ENDBRANCH  30  33
ENDBRANCH  29  30
ENDBRANCH  28  29
ENDBRANCH  27  28
ENDBRANCH  26  27
ENDBRANCH  25  26
ENDBRANCH  22  25
ENDBRANCH   4  23
TORSDOF 11
