REMARK  Name = 56639723
REMARK  6 active torsions:
REMARK  status: ('A' for Active; 'I' for Inactive)
REMARK    1  A    between atoms: N_2  and  C_12
REMARK    2  A    between atoms: C_6  and  C_26
REMARK    3  A    between atoms: C_12  and  C_15
REMARK    4  A    between atoms: C_19  and  C_25
REMARK    5  A    between atoms: C_26  and  C_28
REMARK    6  A    between atoms: C_28  and  O_29
REMARK                            x       y       z     vdW  Elec       q    Type
REMARK                         _______ _______ _______ _____ _____    ______ ____
ROOT
ATOM      1  O   UNL     1      -2.604   3.042  -0.127  0.00  0.00    -0.264 OA
ATOM      2  N   UNL     1      -1.757   1.232   1.075  0.00  0.00    -0.208 N 
ATOM      3  N   UNL     1      -1.823  -0.096   1.409  0.00  0.00    -0.169 NA
ATOM      4  N   UNL     1      -4.676  -1.147  -0.550  0.00  0.00    -0.239 NA
ATOM      5  N   UNL     1      -4.550   1.578  -1.244  0.00  0.00    -0.236 NA
ATOM      6  C   UNL     1      -2.750  -0.834   0.885  0.00  0.00    +0.109 A 
ATOM      7  C   UNL     1      -3.742  -0.316  -0.053  0.00  0.00    +0.119 A 
ATOM      8  C   UNL     1      -2.637   1.857   0.193  0.00  0.00    +0.296 A 
ATOM      9  C   UNL     1      -3.679   1.010  -0.388  0.00  0.00    +0.157 A 
ATOM     10  C   UNL     1      -5.551  -0.585  -1.408  0.00  0.00    +0.120 C 
ATOM     11  C   UNL     1      -5.490   0.752  -1.749  0.00  0.00    +0.120 C 
ENDROOT
BRANCH   2  12
ATOM     12  C   UNL     1      -0.681   1.967   1.718  0.00  0.00    +0.196 C 
BRANCH  12  15
ATOM     13  S   UNL     1       1.345   2.871   0.057  0.00  0.00    -0.074 S 
ATOM     14  N   UNL     1       1.336   0.584   1.249  0.00  0.00    -0.401 NA
ATOM     15  C   UNL     1       0.649   1.689   1.079  0.00  0.00    +0.159 C 
ATOM     16  C   UNL     1       2.515   0.652   0.521  0.00  0.00    +0.123 C 
ATOM     17  C   UNL     1       2.699   1.835  -0.201  0.00  0.00    +0.128 C 
ATOM     18  C   UNL     1       3.511  -0.345   0.453  0.00  0.00    +0.033 C 
ATOM     19  C   UNL     1       4.652  -0.134  -0.326  0.00  0.00    +0.073 C 
ATOM     20  C   UNL     1       3.843   2.054  -0.986  0.00  0.00    -0.008 C 
ATOM     21  C   UNL     1       4.814   1.051  -1.036  0.00  0.00    +0.001 C 
BRANCH  19  25
ATOM     22  F   UNL     1       6.751  -0.835  -1.196  0.00  0.00    -0.166 F 
ATOM     23  F   UNL     1       6.254  -1.495   0.816  0.00  0.00    -0.166 F 
ATOM     24  F   UNL     1       5.251  -2.380  -0.891  0.00  0.00    -0.166 F 
ATOM     25  C   UNL     1       5.704  -1.190  -0.396  0.00  0.00    +0.419 C 
ENDBRANCH  19  25
ENDBRANCH  12  15
ENDBRANCH   2  12
BRANCH   6  26
ATOM     26  C   UNL     1      -2.815  -2.293   1.256  0.00  0.00    +0.158 C 
BRANCH  26  28
ATOM     27  O   UNL     1      -1.854  -2.845  -0.905  0.00  0.00    -0.250 OA
ATOM     28  C   UNL     1      -2.304  -3.192   0.176  0.00  0.00    +0.320 C 
BRANCH  28  29
ATOM     29  O   UNL     1      -2.411  -4.486   0.571  0.00  0.00    -0.480 OA
ATOM     30  H   UNL     1      -2.765  -4.691   1.414  0.00  0.00    +0.295 HD
ENDBRANCH  28  29
ENDBRANCH  26  28
ENDBRANCH   6  26
TORSDOF 6
