REMARK  Name = 9976892
REMARK  4 active torsions:
REMARK  status: ('A' for Active; 'I' for Inactive)
REMARK    1  A    between atoms: N_1  and  C_13
REMARK    2  A    between atoms: C_10  and  O_17
REMARK    3  A    between atoms: O_17  and  C_20
REMARK    4  A    between atoms: C_19  and  N_25
REMARK                            x       y       z     vdW  Elec       q    Type
REMARK                         _______ _______ _______ _____ _____    ______ ____
ROOT
ATOM      1  N   UNL     1       4.767   0.674   0.194  0.00  0.00    +0.389 N 
ATOM      2  C   UNL     1       3.677   0.620   1.179  0.00  0.00    -0.073 C 
ATOM      3  C   UNL     1       4.351   0.268  -1.158  0.00  0.00    -0.073 C 
ATOM      4  C   UNL     1       3.255  -0.808   1.542  0.00  0.00    +0.003 C 
ATOM      5  C   UNL     1       4.072  -1.233  -1.283  0.00  0.00    +0.003 C 
ATOM      6  C   UNL     1       2.314  -1.428   0.540  0.00  0.00    -0.025 C 
ATOM      7  C   UNL     1       2.701  -1.629  -0.797  0.00  0.00    -0.028 C 
ATOM      8  C   UNL     1       1.032  -1.826   0.951  0.00  0.00    +0.033 C 
ATOM      9  C   UNL     1       1.796  -2.225  -1.692  0.00  0.00    -0.002 C 
ATOM     10  C   UNL     1       0.142  -2.412   0.051  0.00  0.00    +0.147 C 
ATOM     11  C   UNL     1       0.525  -2.612  -1.270  0.00  0.00    +0.037 C 
ATOM     12  H   UNL     1       5.486   0.016   0.497  0.00  0.00    -0.080 HD
ENDROOT
BRANCH   1  13
ATOM     13  C   UNL     1       5.257   2.027   0.136  0.00  0.00    -0.058 C 
ATOM     14  C   UNL     1       6.244   2.305   1.288  0.00  0.00    -0.021 C 
ATOM     15  C   UNL     1       6.462   2.135  -0.821  0.00  0.00    -0.021 C 
ATOM     16  C   UNL     1       7.135   3.019   0.250  0.00  0.00    -0.004 C 
ENDBRANCH   1  13
BRANCH  10  17
ATOM     17  O   UNL     1      -1.097  -2.790   0.467  0.00  0.00    -0.436 OA
BRANCH  17  20
ATOM     18  N   UNL     1      -1.789  -0.658  -0.132  0.00  0.00    -0.209 NA
ATOM     19  C   UNL     1      -4.102  -0.018   0.167  0.00  0.00    +0.073 C 
ATOM     20  C   UNL     1      -2.120  -1.861   0.370  0.00  0.00    +0.230 C 
ATOM     21  C   UNL     1      -4.391  -1.278   0.679  0.00  0.00    +0.021 C 
ATOM     22  C   UNL     1      -2.797   0.240  -0.221  0.00  0.00    +0.117 C 
ATOM     23  C   UNL     1      -3.382  -2.228   0.787  0.00  0.00    +0.059 C 
BRANCH  19  25
ATOM     24  O   UNL     1      -3.961   2.843  -0.894  0.00  0.00    -0.275 OA
ATOM     25  N   UNL     1      -5.116   0.977   0.045  0.00  0.00    -0.257 N 
ATOM     26  C   UNL     1      -7.272   1.855  -0.157  0.00  0.00    +0.031 C 
ATOM     27  C   UNL     1      -6.469   0.766   0.523  0.00  0.00    +0.099 C 
ATOM     28  C   UNL     1      -6.280   2.993  -0.290  0.00  0.00    +0.087 C 
ATOM     29  C   UNL     1      -4.955   2.284  -0.454  0.00  0.00    +0.229 C 
ENDBRANCH  19  25
ENDBRANCH  17  20
ENDBRANCH  10  17
TORSDOF 4
