REMARK  Name = 135565465
REMARK  7 active torsions:
REMARK  status: ('A' for Active; 'I' for Inactive)
REMARK    1  A    between atoms: N_2  and  C_9
REMARK    2  A    between atoms: N_2  and  O_21
REMARK    3  A    between atoms: C_3  and  C_23
REMARK    4  A    between atoms: C_10  and  C_14
REMARK    5  A    between atoms: C_23  and  C_24
REMARK    6  A    between atoms: C_24  and  C_25
REMARK    7  A    between atoms: C_25  and  N_27
REMARK                            x       y       z     vdW  Elec       q    Type
REMARK                         _______ _______ _______ _____ _____    ______ ____
ROOT
ATOM      1  O   UNL     1      -1.990   0.506  -0.708  0.00  0.00    -0.453 OA
ATOM      2  C   UNL     1       2.060   0.081  -1.529  0.00  0.00    -0.040 C 
ATOM      3  C   UNL     1       1.375  -0.997  -0.960  0.00  0.00    +0.053 C 
ATOM      4  C   UNL     1       0.010  -0.886  -0.672  0.00  0.00    +0.036 C 
ATOM      5  C   UNL     1       1.390   1.269  -1.812  0.00  0.00    -0.005 C 
ATOM      6  C   UNL     1      -0.655   0.310  -0.958  0.00  0.00    +0.143 C 
ATOM      7  C   UNL     1       0.032   1.385  -1.527  0.00  0.00    +0.037 C 
ATOM      8  C   UNL     1      -0.765  -1.994  -0.072  0.00  0.00    +0.110 C 
ATOM      9  C   UNL     1      -2.714  -0.524  -0.135  0.00  0.00    +0.160 C 
ATOM     10  C   UNL     1      -2.199  -1.722   0.181  0.00  0.00    +0.060 C 
ENDROOT
BRANCH   9  13
ATOM     11  S   UNL     1      -6.662   2.809   0.904  0.00  0.00    -0.091 S 
ATOM     12  N   UNL     1      -4.989  -1.248   0.010  0.00  0.00    -0.266 NA
ATOM     13  C   UNL     1      -4.139  -0.206   0.088  0.00  0.00    +0.093 C 
ATOM     14  C   UNL     1      -4.510   1.099   0.356  0.00  0.00    +0.081 C 
ATOM     15  C   UNL     1      -5.879   1.314   0.555  0.00  0.00    +0.011 C 
ATOM     16  C   UNL     1      -6.797   0.262   0.483  0.00  0.00    +0.005 C 
ATOM     17  C   UNL     1      -6.308  -1.024   0.204  0.00  0.00    +0.152 C 
ATOM     18  C   UNL     1      -8.134   0.723   0.721  0.00  0.00    +0.005 C 
ATOM     19  C   UNL     1      -8.200   2.075   0.961  0.00  0.00    +0.035 C 
ENDBRANCH   9  13
BRANCH   8  20
ATOM     20  N   UNL     1      -0.281  -3.155   0.235  0.00  0.00    -0.135 NA
BRANCH  20  21
ATOM     21  O   UNL     1      -1.310  -3.929   0.773  0.00  0.00    -0.265 OA
ATOM     22  H   UNL     1      -1.139  -4.806   1.053  0.00  0.00    +0.247 HD
ENDBRANCH  20  21
ENDBRANCH   8  20
BRANCH   2  23
ATOM     23  C   UNL     1       3.515  -0.043  -1.834  0.00  0.00    +0.020 C 
BRANCH  23  24
ATOM     24  C   UNL     1       4.396   0.395  -0.654  0.00  0.00    -0.018 C 
BRANCH  24  25
ATOM     25  C   UNL     1       5.882   0.224  -0.967  0.00  0.00    -0.077 C 
BRANCH  25  27
ATOM     26  O   UNL     1       8.912   0.419   1.931  0.00  0.00    -0.358 OA
ATOM     27  N   UNL     1       6.693   0.667   0.165  0.00  0.00    +0.390 N 
ATOM     28  C   UNL     1       6.729  -0.360   1.216  0.00  0.00    -0.045 C 
ATOM     29  C   UNL     1       8.059   0.992  -0.267  0.00  0.00    -0.045 C 
ATOM     30  C   UNL     1       8.890   1.439   0.932  0.00  0.00    +0.119 C 
ATOM     31  C   UNL     1       7.590   0.120   2.380  0.00  0.00    +0.119 C 
ATOM     32  H   UNL     1       6.263   1.509   0.547  0.00  0.00    -0.079 HD
ENDBRANCH  25  27
ENDBRANCH  24  25
ENDBRANCH  23  24
ENDBRANCH   2  23
TORSDOF 7
