REMARK  Name = 71611869
REMARK  6 active torsions:
REMARK  status: ('A' for Active; 'I' for Inactive)
REMARK    1  A    between atoms: C_5  and  C_25
REMARK    2  A    between atoms: C_6  and  C_35
REMARK    3  A    between atoms: C_7  and  C_14
REMARK    4  A    between atoms: C_19  and  O_23
REMARK    5  A    between atoms: C_25  and  N_27
REMARK    6  A    between atoms: C_35  and  O_36
REMARK                            x       y       z     vdW  Elec       q    Type
REMARK                         _______ _______ _______ _____ _____    ______ ____
ROOT
ATOM      1  N   UNL     1       1.786   1.952  -0.308  0.00  0.00    -0.232 N 
ATOM      2  N   UNL     1       2.638   2.981  -0.079  0.00  0.00    -0.143 NA
ATOM      3  N   UNL     1       0.733   4.170   0.796  0.00  0.00    -0.206 NA
ATOM      4  N   UNL     1      -1.425   3.336   0.920  0.00  0.00    -0.341 N 
ATOM      5  C   UNL     1       2.100   0.736  -0.857  0.00  0.00    +0.038 A 
ATOM      6  C   UNL     1       0.944  -0.013  -0.911  0.00  0.00    +0.021 A 
ATOM      7  C   UNL     1      -0.103   0.778  -0.375  0.00  0.00    +0.026 A 
ATOM      8  C   UNL     1       0.448   1.987  -0.012  0.00  0.00    +0.114 A 
ATOM      9  C   UNL     1      -0.101   3.184   0.580  0.00  0.00    +0.145 C 
ATOM     10  C   UNL     1       2.066   4.022   0.456  0.00  0.00    +0.221 C 
ATOM     11  H   UNL     1      -1.737   4.179   1.321  0.00  0.00    +0.144 HD
ATOM     12  H   UNL     1      -2.061   2.601   0.762  0.00  0.00    +0.144 HD
ENDROOT
BRANCH   7  14
ATOM     13  S   UNL     1      -2.144  -0.396   1.145  0.00  0.00    -0.084 S 
ATOM     14  C   UNL     1      -1.512   0.376  -0.238  0.00  0.00    +0.031 C 
ATOM     15  C   UNL     1      -2.472   0.576  -1.201  0.00  0.00    +0.007 C 
ATOM     16  C   UNL     1      -3.765   0.090  -0.810  0.00  0.00    +0.009 C 
ATOM     17  C   UNL     1      -3.728  -0.475   0.469  0.00  0.00    +0.063 C 
ATOM     18  C   UNL     1      -5.001   0.102  -1.502  0.00  0.00    -0.004 C 
ATOM     19  C   UNL     1      -4.881  -1.021   1.066  0.00  0.00    +0.144 C 
ATOM     20  C   UNL     1      -6.146  -0.439  -0.911  0.00  0.00    -0.019 C 
ATOM     21  C   UNL     1      -6.085  -0.994   0.359  0.00  0.00    +0.033 C 
ATOM     22  C   UNL     1      -7.440  -0.417  -1.654  0.00  0.00    +0.031 C 
BRANCH  19  23
ATOM     23  O   UNL     1      -4.857  -1.576   2.319  0.00  0.00    -0.471 OA
ATOM     24  C   UNL     1      -4.572  -2.968   2.396  0.00  0.00    +0.252 C 
ENDBRANCH  19  23
ENDBRANCH   7  14
BRANCH   5  25
ATOM     25  C   UNL     1       3.501   0.395  -1.289  0.00  0.00    -0.030 C 
BRANCH  25  27
ATOM     26  O   UNL     1       6.678  -3.045  -0.436  0.00  0.00    -0.277 OA
ATOM     27  N   UNL     1       4.163  -0.496  -0.336  0.00  0.00    +0.398 N 
ATOM     28  N   UNL     1       5.996  -1.741   1.314  0.00  0.00    -0.308 N 
ATOM     29  C   UNL     1       4.630   0.256   0.831  0.00  0.00    -0.055 C 
ATOM     30  C   UNL     1       5.291  -1.177  -0.982  0.00  0.00    +0.010 C 
ATOM     31  C   UNL     1       5.110  -0.741   1.870  0.00  0.00    +0.067 C 
ATOM     32  C   UNL     1       6.022  -2.089  -0.018  0.00  0.00    +0.201 C 
ATOM     33  H   UNL     1       3.490  -1.196  -0.024  0.00  0.00    -0.078 HD
ATOM     34  H   UNL     1       6.617  -2.200   1.924  0.00  0.00    +0.149 HD
ENDBRANCH  25  27
ENDBRANCH   5  25
BRANCH   6  35
ATOM     35  C   UNL     1       0.829  -1.392  -1.433  0.00  0.00    +0.170 C 
BRANCH  35  36
ATOM     36  O   UNL     1       0.704  -2.312  -0.350  0.00  0.00    -0.346 OA
ATOM     37  C   UNL     1       0.591  -3.648  -0.818  0.00  0.00    +0.175 C 
ENDBRANCH  35  36
ENDBRANCH   6  35
TORSDOF 6
