REMARK  Name = 91885568
REMARK  5 active torsions:
REMARK  status: ('A' for Active; 'I' for Inactive)
REMARK    1  A    between atoms: N_2  and  C_10
REMARK    2  A    between atoms: C_3  and  C_25
REMARK    3  A    between atoms: C_5  and  N_12
REMARK    4  A    between atoms: C_25  and  C_27
REMARK    5  A    between atoms: C_28  and  C_33
REMARK                            x       y       z     vdW  Elec       q    Type
REMARK                         _______ _______ _______ _____ _____    ______ ____
ROOT
ATOM      1  O   UNL     1       3.278  -0.017  -2.485  0.00  0.00    -0.266 OA
ATOM      2  N   UNL     1       2.684  -1.128  -0.472  0.00  0.00    -0.278 N 
ATOM      3  C   UNL     1       3.523  -0.649  -1.472  0.00  0.00    +0.290 C 
ATOM      4  H   UNL     1       3.116  -1.632   0.254  0.00  0.00    +0.155 HD
ENDROOT
BRANCH   2  10
ATOM      5  C   UNL     1      -1.467  -0.676  -0.193  0.00  0.00    +0.048 C 
ATOM      6  C   UNL     1      -0.773  -1.373   0.796  0.00  0.00    +0.016 C 
ATOM      7  C   UNL     1      -0.777  -0.129  -1.275  0.00  0.00    +0.016 C 
ATOM      8  C   UNL     1       0.611  -1.524   0.702  0.00  0.00    +0.016 C 
ATOM      9  C   UNL     1       0.606  -0.279  -1.369  0.00  0.00    +0.016 C 
ATOM     10  C   UNL     1       1.300  -0.977  -0.380  0.00  0.00    +0.051 C 
BRANCH   5  12
ATOM     11  F   UNL     1     -11.073   0.361   0.452  0.00  0.00    -0.205 F 
ATOM     12  N   UNL     1      -2.848  -0.527  -0.101  0.00  0.00    -0.304 N 
ATOM     13  N   UNL     1      -5.703  -0.218   0.091  0.00  0.00    -0.250 N 
ATOM     14  N   UNL     1      -7.814  -1.201   0.174  0.00  0.00    -0.200 NA
ATOM     15  N   UNL     1      -7.548   1.192   0.273  0.00  0.00    -0.178 NA
ATOM     16  C   UNL     1      -3.673  -1.538   0.561  0.00  0.00    +0.113 C 
ATOM     17  C   UNL     1      -3.519   0.646  -0.661  0.00  0.00    +0.113 C 
ATOM     18  C   UNL     1      -4.818   0.946   0.091  0.00  0.00    +0.123 C 
ATOM     19  C   UNL     1      -5.093  -1.544  -0.010  0.00  0.00    +0.123 C 
ATOM     20  C   UNL     1      -7.084  -0.069   0.184  0.00  0.00    +0.090 C 
ATOM     21  C   UNL     1      -9.148  -1.020   0.265  0.00  0.00    +0.195 C 
ATOM     22  C   UNL     1      -8.890   1.300   0.361  0.00  0.00    +0.138 C 
ATOM     23  C   UNL     1      -9.748   0.219   0.362  0.00  0.00    +0.163 C 
ENDBRANCH   5  12
ENDBRANCH   2  10
BRANCH   3  25
ATOM     24  O   UNL     1       5.495  -1.700  -2.084  0.00  0.00    -0.280 OA
ATOM     25  C   UNL     1       4.957  -1.010  -1.231  0.00  0.00    +0.262 C 
BRANCH  25  27
ATOM     26  N   UNL     1       6.673  -1.209   0.597  0.00  0.00    -0.286 N 
ATOM     27  C   UNL     1       5.658  -0.526  -0.020  0.00  0.00    +0.095 C 
ATOM     28  C   UNL     1       5.441   0.636   0.687  0.00  0.00    +0.018 C 
ATOM     29  C   UNL     1       7.108  -0.502   1.687  0.00  0.00    +0.029 C 
ATOM     30  C   UNL     1       6.359   0.651   1.767  0.00  0.00    +0.012 C 
ATOM     31  C   UNL     1       7.205  -2.485   0.164  0.00  0.00    +0.117 C 
ATOM     32  C   UNL     1       8.199  -0.985   2.558  0.00  0.00    +0.047 C 
BRANCH  28  33
ATOM     33  C   UNL     1       4.447   1.610   0.337  0.00  0.00    +0.001 C 
ATOM     34  C   UNL     1       3.431   1.924   1.239  0.00  0.00    +0.000 C 
ATOM     35  C   UNL     1       4.496   2.242  -0.906  0.00  0.00    +0.000 C 
ATOM     36  C   UNL     1       2.463   2.870   0.899  0.00  0.00    +0.000 C 
ATOM     37  C   UNL     1       3.529   3.188  -1.246  0.00  0.00    +0.000 C 
ATOM     38  C   UNL     1       2.513   3.502  -0.343  0.00  0.00    +0.000 C 
ENDBRANCH  28  33
ENDBRANCH  25  27
ENDBRANCH   3  25
TORSDOF 5
