REMARK  Name = 22591684
REMARK  8 active torsions:
REMARK  status: ('A' for Active; 'I' for Inactive)
REMARK    1  A    between atoms: C_1  and  C_25
REMARK    2  A    between atoms: C_2  and  C_12
REMARK    3  A    between atoms: C_13  and  C_15
REMARK    4  A    between atoms: C_16  and  C_24
REMARK    5  A    between atoms: C_25  and  C_26
REMARK    6  A    between atoms: C_26  and  C_27
REMARK    7  A    between atoms: C_27  and  S_28
REMARK    8  A    between atoms: S_28  and  C_31
REMARK                            x       y       z     vdW  Elec       q    Type
REMARK                         _______ _______ _______ _____ _____    ______ ____
ROOT
ATOM      1  C   UNL     1      -2.715   1.518  -0.085  0.00  0.00    +0.000 C 
ATOM      2  C   UNL     1      -0.071   1.419   0.109  0.00  0.00    +0.053 C 
ATOM      3  C   UNL     1      -2.123   0.570  -1.147  0.00  0.00    +0.000 C 
ATOM      4  C   UNL     1      -2.106   2.915  -0.300  0.00  0.00    +0.000 C 
ATOM      5  C   UNL     1      -2.286   1.020   1.310  0.00  0.00    +0.000 C 
ATOM      6  C   UNL     1      -0.593   0.517  -1.044  0.00  0.00    +0.007 C 
ATOM      7  C   UNL     1      -0.576   2.861  -0.188  0.00  0.00    +0.007 C 
ATOM      8  C   UNL     1      -0.756   0.969   1.428  0.00  0.00    +0.007 C 
ENDROOT
BRANCH   2  12
ATOM      9  N   UNL     1       2.094   0.226   0.482  0.00  0.00    -0.297 N 
ATOM     10  N   UNL     1       2.243   2.371   0.076  0.00  0.00    -0.133 NA
ATOM     11  N   UNL     1       3.518   1.873   0.255  0.00  0.00    -0.129 NA
ATOM     12  C   UNL     1       1.404   1.370   0.216  0.00  0.00    +0.142 A 
ATOM     13  C   UNL     1       3.408   0.586   0.497  0.00  0.00    +0.166 A 
ATOM     14  C   UNL     1       1.540  -1.089   0.699  0.00  0.00    +0.133 C 
BRANCH  13  15
ATOM     15  C   UNL     1       4.493  -0.331   0.749  0.00  0.00    +0.040 C 
ATOM     16  C   UNL     1       5.115  -1.015  -0.295  0.00  0.00    +0.074 C 
ATOM     17  C   UNL     1       4.918  -0.527   2.063  0.00  0.00    +0.003 C 
ATOM     18  C   UNL     1       6.163  -1.896  -0.025  0.00  0.00    +0.004 C 
ATOM     19  C   UNL     1       5.966  -1.408   2.333  0.00  0.00    +0.000 C 
ATOM     20  C   UNL     1       6.588  -2.092   1.289  0.00  0.00    -0.000 C 
BRANCH  16  24
ATOM     21  F   UNL     1       5.407  -1.579  -2.602  0.00  0.00    -0.166 F 
ATOM     22  F   UNL     1       3.384  -1.166  -1.938  0.00  0.00    -0.166 F 
ATOM     23  F   UNL     1       4.813   0.461  -2.135  0.00  0.00    -0.166 F 
ATOM     24  C   UNL     1       4.687  -0.831  -1.716  0.00  0.00    +0.419 C 
ENDBRANCH  16  24
ENDBRANCH  13  15
ENDBRANCH   2  12
BRANCH   1  25
ATOM     25  C   UNL     1      -4.239   1.569  -0.195  0.00  0.00    +0.002 C 
BRANCH  25  26
ATOM     26  C   UNL     1      -4.850   0.184  -0.017  0.00  0.00    +0.025 C 
BRANCH  26  27
ATOM     27  C   UNL     1      -6.363   0.234  -0.163  0.00  0.00    +0.151 C 
BRANCH  27  28
ATOM     28  S   UNL     1      -7.084  -1.361   0.064  0.00  0.00    -0.010 S 
ATOM     29  O   UNL     1      -6.650  -2.217  -1.027  0.00  0.00    -0.173 OA
ATOM     30  O   UNL     1      -6.875  -1.762   1.446  0.00  0.00    -0.173 OA
BRANCH  28  31
ATOM     31  C   UNL     1      -8.824  -1.060  -0.149  0.00  0.00    +0.151 C 
ATOM     32  C   UNL     1      -9.630  -2.330   0.011  0.00  0.00    +0.027 C 
ENDBRANCH  28  31
ENDBRANCH  27  28
ENDBRANCH  26  27
ENDBRANCH  25  26
ENDBRANCH   1  25
TORSDOF 8
