REMARK  Name = 25191001
REMARK  7 active torsions:
REMARK  status: ('A' for Active; 'I' for Inactive)
REMARK    1  A    between atoms: C_1  and  N_9
REMARK    2  A    between atoms: C_2  and  O_24
REMARK    3  A    between atoms: N_8  and  C_14
REMARK    4  A    between atoms: C_15  and  C_23
REMARK    5  A    between atoms: O_24  and  C_26
REMARK    6  A    between atoms: C_28  and  C_33
REMARK    7  A    between atoms: N_32  and  C_35
REMARK                            x       y       z     vdW  Elec       q    Type
REMARK                         _______ _______ _______ _____ _____    ______ ____
ROOT
ATOM      1  C   UNL     1       0.560   1.716  -0.431  0.00  0.00    +0.052 C 
ATOM      2  C   UNL     1       3.289   2.181  -0.082  0.00  0.00    +0.145 C 
ATOM      3  C   UNL     1       1.244   2.553  -1.313  0.00  0.00    +0.018 C 
ATOM      4  C   UNL     1       1.241   1.112   0.626  0.00  0.00    +0.018 C 
ATOM      5  C   UNL     1       2.608   2.785  -1.139  0.00  0.00    +0.039 C 
ATOM      6  C   UNL     1       2.606   1.344   0.801  0.00  0.00    +0.039 C 
ENDROOT
BRANCH   1   9
ATOM      7  O   UNL     1      -1.327   0.034   1.160  0.00  0.00    -0.252 OA
ATOM      8  N   UNL     1      -2.987   0.716  -0.346  0.00  0.00    -0.268 N 
ATOM      9  N   UNL     1      -0.824   1.482  -0.607  0.00  0.00    -0.268 N 
ATOM     10  C   UNL     1      -1.670   0.678   0.173  0.00  0.00    +0.308 C 
ATOM     11  H   UNL     1      -3.115   1.277  -1.145  0.00  0.00    +0.156 HD
ATOM     12  H   UNL     1      -1.245   1.939  -1.370  0.00  0.00    +0.156 HD
BRANCH   8  14
ATOM     13 CL   UNL     1      -7.798  -2.058   1.677  0.00  0.00    -0.082 Cl
ATOM     14  C   UNL     1      -4.128   0.065   0.125  0.00  0.00    +0.052 C 
ATOM     15  C   UNL     1      -6.487  -0.420  -0.062  0.00  0.00    +0.083 C 
ATOM     16  C   UNL     1      -5.347   0.231  -0.533  0.00  0.00    +0.019 C 
ATOM     17  C   UNL     1      -4.049  -0.751   1.253  0.00  0.00    +0.016 C 
ATOM     18  C   UNL     1      -6.409  -1.237   1.066  0.00  0.00    +0.062 C 
ATOM     19  C   UNL     1      -5.189  -1.402   1.724  0.00  0.00    +0.013 C 
BRANCH  15  23
ATOM     20  F   UNL     1      -7.662   0.612  -1.873  0.00  0.00    -0.166 F 
ATOM     21  F   UNL     1      -8.308  -1.373  -1.286  0.00  0.00    -0.166 F 
ATOM     22  F   UNL     1      -8.742   0.331  -0.007  0.00  0.00    -0.166 F 
ATOM     23  C   UNL     1      -7.774  -0.217  -0.795  0.00  0.00    +0.419 C 
ENDBRANCH  15  23
ENDBRANCH   8  14
ENDBRANCH   1   9
BRANCH   2  24
ATOM     24  O   UNL     1       4.620   2.409   0.090  0.00  0.00    -0.453 OA
BRANCH  24  26
ATOM     25  N   UNL     1       7.069  -0.879   0.905  0.00  0.00    -0.239 NA
ATOM     26  C   UNL     1       5.430   1.319   0.360  0.00  0.00    +0.149 C 
ATOM     27  C   UNL     1       5.289   0.145  -0.371  0.00  0.00    +0.061 C 
ATOM     28  C   UNL     1       6.125  -0.916  -0.063  0.00  0.00    +0.137 C 
ATOM     29  C   UNL     1       6.390   1.396   1.363  0.00  0.00    +0.058 C 
ATOM     30  C   UNL     1       7.177   0.279   1.595  0.00  0.00    +0.102 C 
BRANCH  28  33
ATOM     31  O   UNL     1       5.197  -2.293  -1.718  0.00  0.00    -0.269 OA
ATOM     32  N   UNL     1       6.900  -3.194  -0.427  0.00  0.00    -0.313 N 
ATOM     33  C   UNL     1       6.022  -2.167  -0.794  0.00  0.00    +0.263 C 
ATOM     34  H   UNL     1       7.527  -3.027   0.313  0.00  0.00    +0.149 HD
ATOM     35  C   UNL     1       6.936  -4.485  -1.074  0.00  0.00    +0.128 C 
ENDBRANCH  28  33
ENDBRANCH  24  26
ENDBRANCH   2  24
TORSDOF 6
