REMARK  Name = 71479709
REMARK  6 active torsions:
REMARK  status: ('A' for Active; 'I' for Inactive)
REMARK    1  A    between atoms: N_1  and  C_25
REMARK    2  A    between atoms: C_5  and  C_9
REMARK    3  A    between atoms: C_14  and  O_15
REMARK    4  A    between atoms: O_15  and  C_16
REMARK    5  A    between atoms: C_25  and  C_28
REMARK    6  A    between atoms: C_33  and  C_34
REMARK                            x       y       z     vdW  Elec       q    Type
REMARK                         _______ _______ _______ _____ _____    ______ ____
ROOT
ATOM      1  N   UNL     1       0.411   2.301   0.276  0.00  0.00    -0.321 N 
ATOM      2  N   UNL     1       1.551   4.232  -0.390  0.00  0.00    -0.233 NA
ATOM      3  N   UNL     1       3.900   4.132  -0.921  0.00  0.00    -0.234 NA
ATOM      4  C   UNL     1       1.593   2.910  -0.126  0.00  0.00    +0.113 C 
ATOM      5  C   UNL     1       2.734   2.141  -0.235  0.00  0.00    +0.129 C 
ATOM      6  C   UNL     1       3.869   2.813  -0.640  0.00  0.00    +0.110 C 
ATOM      7  C   UNL     1       2.723   4.771  -0.777  0.00  0.00    +0.252 C 
ATOM      8  H   UNL     1       0.430   1.336   0.471  0.00  0.00    +0.148 HD
ATOM      9  N   UNL     1       5.080   2.088  -0.777  0.00  0.00    -0.346 N 
ATOM     10  H   UNL     1       5.900   2.550  -1.066  0.00  0.00    +0.143 HD
ATOM     11  H   UNL     1       5.100   1.123  -0.584  0.00  0.00    +0.143 HD
ENDROOT
BRANCH   5  12
ATOM     12  C   UNL     1       2.739   0.721   0.056  0.00  0.00    -0.009 C 
ATOM     13  C   UNL     1       3.013   0.274   1.349  0.00  0.00    -0.000 C 
ATOM     14  C   UNL     1       2.472  -0.200  -0.957  0.00  0.00    -0.000 C 
ATOM     15  C   UNL     1       3.020  -1.092   1.628  0.00  0.00    +0.037 C 
ATOM     16  C   UNL     1       2.478  -1.566  -0.678  0.00  0.00    +0.037 C 
ATOM     17  C   UNL     1       2.753  -2.012   0.615  0.00  0.00    +0.145 C 
BRANCH  17  18
ATOM     18  O   UNL     1       2.761  -3.346   0.887  0.00  0.00    -0.453 OA
BRANCH  18  19
ATOM     19  C   UNL     1       1.725  -4.113   0.381  0.00  0.00    +0.145 C 
ATOM     20  C   UNL     1       0.409  -3.660   0.478  0.00  0.00    +0.037 C 
ATOM     21  C   UNL     1       1.997  -5.338  -0.227  0.00  0.00    +0.037 C 
ATOM     22  C   UNL     1      -0.634  -4.432  -0.033  0.00  0.00    +0.003 C 
ATOM     23  C   UNL     1       0.954  -6.111  -0.737  0.00  0.00    +0.003 C 
ATOM     24  C   UNL     1      -0.362  -5.658  -0.640  0.00  0.00    +0.000 C 
ENDBRANCH  18  19
ENDBRANCH  17  18
ENDBRANCH   5  12
BRANCH   1  25
ATOM     25  C   UNL     1      -0.839   2.998   0.426  0.00  0.00    +0.088 C 
BRANCH  25  28
ATOM     26  O   UNL     1      -6.748   1.053   0.151  0.00  0.00    -0.270 OA
ATOM     27  N   UNL     1      -4.478   0.679   0.493  0.00  0.00    -0.276 N 
ATOM     28  C   UNL     1      -1.924   2.021   0.873  0.00  0.00    +0.023 C 
ATOM     29  C   UNL     1      -3.260   2.746   1.084  0.00  0.00    +0.023 C 
ATOM     30  C   UNL     1      -2.098   0.891  -0.151  0.00  0.00    +0.023 C 
ATOM     31  C   UNL     1      -4.360   1.762   1.472  0.00  0.00    +0.094 C 
ATOM     32  C   UNL     1      -3.230  -0.059   0.242  0.00  0.00    +0.094 C 
ATOM     33  C   UNL     1      -5.720   0.415  -0.080  0.00  0.00    +0.249 C 
BRANCH  33  34
ATOM     34  C   UNL     1      -5.814  -0.711  -1.030  0.00  0.00    +0.058 C 
ATOM     35  C   UNL     1      -6.715  -0.651  -2.013  0.00  0.00    +0.005 C 
ENDBRANCH  33  34
ENDBRANCH  25  28
ENDBRANCH   1  25
TORSDOF 6
