REMARK  Name = 24744336
REMARK  3 active torsions:
REMARK  status: ('A' for Active; 'I' for Inactive)
REMARK    1  A    between atoms: N_3  and  C_15
REMARK    2  A    between atoms: C_12  and  N_21
REMARK    3  A    between atoms: N_21  and  S_23
REMARK                            x       y       z     vdW  Elec       q    Type
REMARK                         _______ _______ _______ _____ _____    ______ ____
ROOT
ATOM      1  O   UNL     1      -0.825   2.257   0.715  0.00  0.00    -0.473 OA
ATOM      2  O   UNL     1       2.629   2.570   0.032  0.00  0.00    -0.270 OA
ATOM      3  N   UNL     1       1.359   0.608   0.037  0.00  0.00    -0.232 N 
ATOM      4  C   UNL     1       0.232   2.803  -0.067  0.00  0.00    +0.202 C 
ATOM      5  C   UNL     1       1.537   1.999   0.018  0.00  0.00    +0.269 C 
ATOM      6  C   UNL     1       0.050   0.055   0.197  0.00  0.00    +0.092 C 
ATOM      7  C   UNL     1      -0.996   0.910   0.559  0.00  0.00    +0.154 C 
ATOM      8  C   UNL     1       0.465   4.214   0.493  0.00  0.00    +0.053 C 
ATOM      9  C   UNL     1      -0.202   2.928  -1.537  0.00  0.00    +0.053 C 
ATOM     10  C   UNL     1      -2.287   0.424   0.794  0.00  0.00    +0.054 C 
ATOM     11  C   UNL     1      -0.260  -1.298  -0.023  0.00  0.00    +0.020 C 
ATOM     12  C   UNL     1      -2.564  -0.926   0.611  0.00  0.00    +0.068 C 
ATOM     13  C   UNL     1      -1.554  -1.784   0.189  0.00  0.00    +0.017 C 
ENDROOT
BRANCH   3  15
ATOM     14  F   UNL     1       5.804  -2.731  -0.154  0.00  0.00    -0.204 F 
ATOM     15  C   UNL     1       2.505  -0.253  -0.013  0.00  0.00    +0.058 C 
ATOM     16  C   UNL     1       2.801  -1.082   1.069  0.00  0.00    +0.018 C 
ATOM     17  C   UNL     1       3.323  -0.260  -1.142  0.00  0.00    +0.018 C 
ATOM     18  C   UNL     1       3.916  -1.919   1.021  0.00  0.00    +0.031 C 
ATOM     19  C   UNL     1       4.438  -1.097  -1.190  0.00  0.00    +0.031 C 
ATOM     20  C   UNL     1       4.734  -1.927  -0.108  0.00  0.00    +0.140 C 
ENDBRANCH   3  15
BRANCH  12  21
ATOM     21  N   UNL     1      -3.882  -1.426   0.837  0.00  0.00    -0.219 N 
ATOM     22  H   UNL     1      -4.076  -2.012   1.603  0.00  0.00    +0.173 HD
BRANCH  21  23
ATOM     23  S   UNL     1      -5.124  -0.974  -0.268  0.00  0.00    +0.056 S 
ATOM     24  O   UNL     1      -6.402  -1.370   0.292  0.00  0.00    -0.154 OA
ATOM     25  O   UNL     1      -4.919   0.375  -0.755  0.00  0.00    -0.154 OA
ATOM     26  C   UNL     1      -4.777  -2.095  -1.605  0.00  0.00    +0.200 C 
ENDBRANCH  21  23
ENDBRANCH  12  21
TORSDOF 3
