REMARK  Name = 57775240
REMARK  7 active torsions:
REMARK  status: ('A' for Active; 'I' for Inactive)
REMARK    1  A    between atoms: C_1  and  C_16
REMARK    2  A    between atoms: C_2  and  O_20
REMARK    3  A    between atoms: C_4  and  N_9
REMARK    4  A    between atoms: C_5  and  C_22
REMARK    5  A    between atoms: C_23  and  C_24
REMARK    6  A    between atoms: C_27  and  N_30
REMARK    7  A    between atoms: N_30  and  S_32
REMARK                            x       y       z     vdW  Elec       q    Type
REMARK                         _______ _______ _______ _____ _____    ______ ____
ROOT
ATOM      1  C   UNL     1      -2.659   2.147   0.059  0.00  0.00    +0.012 C 
ATOM      2  C   UNL     1      -1.296   1.941  -0.153  0.00  0.00    +0.135 C 
ATOM      3  C   UNL     1      -3.528   1.057   0.112  0.00  0.00    +0.014 C 
ATOM      4  C   UNL     1      -3.034  -0.238  -0.045  0.00  0.00    +0.059 C 
ATOM      5  C   UNL     1      -0.802   0.646  -0.311  0.00  0.00    +0.035 C 
ATOM      6  C   UNL     1      -1.671  -0.443  -0.257  0.00  0.00    +0.018 C 
ENDROOT
BRANCH   4   9
ATOM      7  O   UNL     1      -5.773  -0.218  -0.945  0.00  0.00    -0.251 OA
ATOM      8  O   UNL     1      -6.406  -4.605   0.229  0.00  0.00    -0.270 OA
ATOM      9  N   UNL     1      -3.938  -1.370   0.009  0.00  0.00    -0.220 N 
ATOM     10  N   UNL     1      -6.074  -2.376  -0.288  0.00  0.00    -0.235 N 
ATOM     11  C   UNL     1      -5.283  -1.225  -0.428  0.00  0.00    +0.318 C 
ATOM     12  C   UNL     1      -3.497  -2.607   0.468  0.00  0.00    +0.078 C 
ATOM     13  C   UNL     1      -4.262  -3.696   0.558  0.00  0.00    +0.075 C 
ATOM     14  C   UNL     1      -5.675  -3.622   0.159  0.00  0.00    +0.254 C 
ATOM     15  H   UNL     1      -7.022  -2.285  -0.536  0.00  0.00    +0.159 HD
ENDBRANCH   4   9
BRANCH   1  16
ATOM     16  C   UNL     1      -3.224   3.566   0.234  0.00  0.00    +0.022 C 
ATOM     17  C   UNL     1      -4.752   3.494   0.449  0.00  0.00    +0.004 C 
ATOM     18  C   UNL     1      -2.629   4.332   1.437  0.00  0.00    +0.004 C 
ATOM     19  C   UNL     1      -2.929   4.402  -1.030  0.00  0.00    +0.004 C 
ENDBRANCH   1  16
BRANCH   2  20
ATOM     20  O   UNL     1      -0.453   3.014  -0.206  0.00  0.00    -0.472 OA
ATOM     21  C   UNL     1       0.596   3.059   0.757  0.00  0.00    +0.252 C 
ENDBRANCH   2  20
BRANCH   5  22
ATOM     22  C   UNL     1       0.618   0.404  -0.534  0.00  0.00    +0.003 C 
ATOM     23  C   UNL     1       1.409  -0.362   0.251  0.00  0.00    +0.000 C 
BRANCH  23  24
ATOM     24  C   UNL     1       2.840  -0.621   0.015  0.00  0.00    +0.000 C 
ATOM     25  C   UNL     1       3.579   0.234  -0.803  0.00  0.00    +0.001 C 
ATOM     26  C   UNL     1       3.457  -1.721   0.612  0.00  0.00    +0.001 C 
ATOM     27  C   UNL     1       5.551  -1.112  -0.428  0.00  0.00    +0.064 C 
ATOM     28  C   UNL     1       4.934  -0.012  -1.025  0.00  0.00    +0.016 C 
ATOM     29  C   UNL     1       4.812  -1.967   0.390  0.00  0.00    +0.016 C 
BRANCH  27  30
ATOM     30  N   UNL     1       6.937  -1.363  -0.656  0.00  0.00    -0.219 N 
ATOM     31  H   UNL     1       7.230  -2.125  -1.207  0.00  0.00    +0.173 HD
BRANCH  30  32
ATOM     32  S   UNL     1       8.085  -0.296   0.059  0.00  0.00    +0.056 S 
ATOM     33  O   UNL     1       9.390  -0.580  -0.509  0.00  0.00    -0.154 OA
ATOM     34  O   UNL     1       7.578   1.061   0.098  0.00  0.00    -0.154 OA
ATOM     35  C   UNL     1       8.101  -0.922   1.724  0.00  0.00    +0.200 C 
ENDBRANCH  30  32
ENDBRANCH  27  30
ENDBRANCH  23  24
ENDBRANCH   5  22
TORSDOF 7
