REMARK  Name = 369312
REMARK  3 active torsions:
REMARK  status: ('A' for Active; 'I' for Inactive)
REMARK    1  A    between atoms: C_1  and  C_7
REMARK    2  A    between atoms: C_5  and  C_10
REMARK    3  A    between atoms: C_10  and  O_11
REMARK                            x       y       z     vdW  Elec       q    Type
REMARK                         _______ _______ _______ _____ _____    ______ ____
ROOT
ATOM      1  C   UNL     1      -1.069  -0.107   0.297  0.00  0.00    +0.023 C 
ATOM      2  C   UNL     1      -0.381  -1.033  -0.712  0.00  0.00    +0.009 C 
ATOM      3  C   UNL     1      -0.475   1.309   0.208  0.00  0.00    +0.029 C 
ATOM      4  C   UNL     1       1.129  -1.105  -0.460  0.00  0.00    +0.024 C 
ATOM      5  C   UNL     1       1.760   0.234  -0.178  0.00  0.00    -0.019 C 
ATOM      6  C   UNL     1       1.022   1.321   0.106  0.00  0.00    -0.032 C 
ENDROOT
BRANCH   1   7
ATOM      7  C   UNL     1      -2.553  -0.079   0.085  0.00  0.00    -0.044 C 
ATOM      8  C   UNL     1      -3.394  -0.563   1.229  0.00  0.00    +0.026 C 
ATOM      9  C   UNL     1      -3.097   0.355  -1.061  0.00  0.00    -0.009 C 
ENDBRANCH   1   7
BRANCH   5  10
ATOM     10  C   UNL     1       3.258   0.284  -0.232  0.00  0.00    +0.159 C 
BRANCH  10  11
ATOM     11  O   UNL     1       3.800  -0.615   0.718  0.00  0.00    -0.378 OA
ATOM     12  H   UNL     1       4.769  -0.580   0.680  0.00  0.00    +0.211 HD
ENDBRANCH  10  11
ENDBRANCH   5  10
TORSDOF 3
