REMARK  Name = 24983461
REMARK  7 active torsions:
REMARK  status: ('A' for Active; 'I' for Inactive)
REMARK    1  A    between atoms: N_1  and  C_26
REMARK    2  A    between atoms: N_2  and  C_12
REMARK    3  A    between atoms: N_15  and  C_17
REMARK    4  A    between atoms: C_17  and  C_19
REMARK    5  A    between atoms: C_26  and  C_27
REMARK    6  A    between atoms: C_26  and  C_31
REMARK    7  A    between atoms: C_27  and  O_29
REMARK                            x       y       z     vdW  Elec       q    Type
REMARK                         _______ _______ _______ _____ _____    ______ ____
ROOT
ATOM      1  N   UNL     1      -2.740  -1.951   0.229  0.00  0.00    -0.258 N 
ATOM      2  N   UNL     1      -2.852   2.763  -0.029  0.00  0.00    -0.262 N 
ATOM      3  N   UNL     1      -3.011   0.342   0.102  0.00  0.00    -0.311 NA
ATOM      4  N   UNL     1      -0.800  -0.689   0.168  0.00  0.00    -0.311 NA
ATOM      5  N   UNL     1      -0.635   3.001  -0.032  0.00  0.00    -0.240 NA
ATOM      6  C   UNL     1      -2.336   1.500   0.042  0.00  0.00    +0.220 C 
ATOM      7  C   UNL     1      -0.961   1.670   0.040  0.00  0.00    +0.167 C 
ATOM      8  C   UNL     1      -2.155  -0.701   0.162  0.00  0.00    +0.202 C 
ATOM      9  C   UNL     1      -0.184   0.517   0.106  0.00  0.00    +0.215 C 
ATOM     10  C   UNL     1      -1.792   3.629  -0.072  0.00  0.00    +0.222 C 
ATOM     11  H   UNL     1      -3.723  -2.006   0.230  0.00  0.00    +0.160 HD
ATOM     12  N   UNL     1       1.219   0.595   0.110  0.00  0.00    -0.302 N 
ATOM     13  H   UNL     1       1.640   1.484   0.064  0.00  0.00    +0.150 HD
ENDROOT
BRANCH   2  14
ATOM     14  C   UNL     1      -4.248   3.126  -0.056  0.00  0.00    +0.077 C 
ATOM     15  C   UNL     1      -4.620   3.836  -1.360  0.00  0.00    +0.022 C 
ATOM     16  C   UNL     1      -4.633   3.977   1.157  0.00  0.00    +0.022 C 
ENDBRANCH   2  14
BRANCH  12  17
ATOM     17  C   UNL     1       2.066  -0.559   0.176  0.00  0.00    +0.117 C 
BRANCH  17  19
ATOM     18  N   UNL     1       5.530   0.160   1.494  0.00  0.00    -0.248 NA
ATOM     19  C   UNL     1       3.513  -0.150   0.199  0.00  0.00    +0.013 C 
ATOM     20  C   UNL     1       4.175   0.274  -0.948  0.00  0.00    -0.022 C 
ATOM     21  C   UNL     1       4.228  -0.189   1.384  0.00  0.00    +0.095 C 
ATOM     22  C   UNL     1       5.514   0.641  -0.875  0.00  0.00    +0.010 C 
ATOM     23  C   UNL     1       3.471   0.343  -2.262  0.00  0.00    +0.031 C 
ATOM     24  C   UNL     1       6.140   0.567   0.359  0.00  0.00    +0.059 C 
ATOM     25  C   UNL     1       7.577   0.953   0.475  0.00  0.00    +0.052 C 
ENDBRANCH  17  19
ENDBRANCH  12  17
BRANCH   1  26
ATOM     26  C   UNL     1      -1.982  -3.186   0.298  0.00  0.00    +0.107 C 
BRANCH  26  27
ATOM     27  C   UNL     1      -1.459  -3.560  -1.101  0.00  0.00    +0.129 C 
ATOM     28  C   UNL     1      -0.260  -4.503  -1.059  0.00  0.00    +0.034 C 
BRANCH  27  29
ATOM     29  O   UNL     1      -2.501  -4.161  -1.868  0.00  0.00    -0.383 OA
ATOM     30  H   UNL     1      -3.265  -3.564  -1.897  0.00  0.00    +0.210 HD
ENDBRANCH  27  29
ENDBRANCH  26  27
BRANCH  26  31
ATOM     31  C   UNL     1      -2.869  -4.296   0.887  0.00  0.00    +0.023 C 
ATOM     32  C   UNL     1      -3.397  -3.951   2.274  0.00  0.00    +0.002 C 
ENDBRANCH  26  31
ENDBRANCH   1  26
TORSDOF 7
