REMARK  Name = 5055
REMARK  3 active torsions:
REMARK  status: ('A' for Active; 'I' for Inactive)
REMARK    1  A    between atoms: C_1  and  O_9
REMARK    2  A    between atoms: C_4  and  O_7
REMARK    3  A    between atoms: O_9  and  C_11
REMARK                            x       y       z     vdW  Elec       q    Type
REMARK                         _______ _______ _______ _____ _____    ______ ____
ROOT
ATOM      1  C   UNL     1       0.191   0.229   0.477  0.00  0.00    +0.151 C 
ATOM      2  C   UNL     1      -0.670  -0.864   0.386  0.00  0.00    +0.074 C 
ATOM      3  C   UNL     1      -0.277   1.511   0.185  0.00  0.00    +0.038 C 
ATOM      4  C   UNL     1      -1.999  -0.677   0.004  0.00  0.00    +0.137 C 
ATOM      5  C   UNL     1      -1.605   1.699  -0.197  0.00  0.00    +0.006 C 
ATOM      6  C   UNL     1      -2.466   0.605  -0.288  0.00  0.00    +0.037 C 
ENDROOT
BRANCH   4   7
ATOM      7  O   UNL     1      -2.839  -1.744  -0.085  0.00  0.00    -0.505 OA
ATOM      8  H   UNL     1      -2.525  -2.605   0.111  0.00  0.00    +0.292 HD
ENDBRANCH   4   7
BRANCH   1   9
ATOM      9  O   UNL     1       1.486   0.047   0.850  0.00  0.00    -0.424 OA
BRANCH   9  11
ATOM     10  O   UNL     1       2.053  -0.240  -1.403  0.00  0.00    -0.250 OA
ATOM     11  C   UNL     1       2.364  -0.189  -0.221  0.00  0.00    +0.322 C 
ATOM     12  C   UNL     1       3.761  -0.377   0.292  0.00  0.00    +0.122 C 
ENDBRANCH   9  11
ENDBRANCH   1   9
TORSDOF 3
