REMARK  Name = 71616860
REMARK  5 active torsions:
REMARK  status: ('A' for Active; 'I' for Inactive)
REMARK    1  A    between atoms: C_10  and  C_17
REMARK    2  A    between atoms: C_15  and  O_21
REMARK    3  A    between atoms: C_16  and  C_18
REMARK    4  A    between atoms: O_21  and  C_22
REMARK    5  A    between atoms: C_22  and  C_25
REMARK                            x       y       z     vdW  Elec       q    Type
REMARK                         _______ _______ _______ _____ _____    ______ ____
ROOT
ATOM      1  O   UNL     1       1.751   3.880  -0.236  0.00  0.00    -0.193 OA
ATOM      2  N   UNL     1       0.216   2.149  -0.172  0.00  0.00    -0.205 N 
ATOM      3  N   UNL     1       2.581   1.786   0.027  0.00  0.00    -0.284 NA
ATOM      4  C   UNL     1      -2.136   2.642   0.444  0.00  0.00    +0.049 C 
ATOM      5  C   UNL     1      -2.482   1.219   0.104  0.00  0.00    -0.019 C 
ATOM      6  C   UNL     1      -0.912   3.069  -0.355  0.00  0.00    +0.114 C 
ATOM      7  C   UNL     1      -1.447   0.302  -0.173  0.00  0.00    +0.011 C 
ATOM      8  C   UNL     1      -0.034   0.774  -0.111  0.00  0.00    +0.068 C 
ATOM      9  C   UNL     1      -3.822   0.805   0.094  0.00  0.00    +0.004 C 
ATOM     10  C   UNL     1      -4.149  -0.509  -0.228  0.00  0.00    +0.041 C 
ATOM     11  C   UNL     1      -1.801  -1.014  -0.512  0.00  0.00    +0.002 C 
ATOM     12  C   UNL     1       0.985  -0.085   0.043  0.00  0.00    +0.088 C 
ATOM     13  C   UNL     1      -3.140  -1.415  -0.537  0.00  0.00    +0.008 C 
ATOM     14  C   UNL     1       1.531   2.671  -0.132  0.00  0.00    +0.275 C 
ATOM     15  C   UNL     1       2.311   0.530   0.105  0.00  0.00    +0.291 C 
ENDROOT
BRANCH  10  17
ATOM     16  C   UNL     1      -6.665  -1.271  -0.260  0.00  0.00    -0.087 C 
ATOM     17  C   UNL     1      -5.516  -0.924  -0.245  0.00  0.00    -0.064 C 
BRANCH  16  18
ATOM     18  C   UNL     1      -8.044  -1.686  -0.279  0.00  0.00    +0.065 C 
ATOM     19  C   UNL     1      -9.041  -0.902   0.525  0.00  0.00    +0.014 C 
ATOM     20  C   UNL     1      -8.634  -2.275   0.971  0.00  0.00    +0.014 C 
ENDBRANCH  16  18
ENDBRANCH  10  17
BRANCH  15  21
ATOM     21  O   UNL     1       3.307  -0.371   0.262  0.00  0.00    -0.448 OA
BRANCH  21  22
ATOM     22  C   UNL     1       4.601   0.210   0.325  0.00  0.00    +0.240 C 
BRANCH  22  25
ATOM     23  O   UNL     1       5.529  -1.795  -0.594  0.00  0.00    -0.347 OA
ATOM     24  O   UNL     1       7.985  -1.403   0.708  0.00  0.00    -0.348 OA
ATOM     25  C   UNL     1       5.630  -0.893   0.515  0.00  0.00    +0.188 C 
ATOM     26  C   UNL     1       7.048  -0.330   0.579  0.00  0.00    +0.175 C 
ATOM     27  C   UNL     1       6.470  -2.864  -0.468  0.00  0.00    +0.174 C 
ATOM     28  C   UNL     1       7.879  -2.301  -0.399  0.00  0.00    +0.174 C 
ENDBRANCH  22  25
ENDBRANCH  21  22
ENDBRANCH  15  21
TORSDOF 5
