REMARK  Name = 44462738
REMARK  5 active torsions:
REMARK  status: ('A' for Active; 'I' for Inactive)
REMARK    1  A    between atoms: N_1  and  C_17
REMARK    2  A    between atoms: C_8  and  C_30
REMARK    3  A    between atoms: C_12  and  N_19
REMARK    4  A    between atoms: N_18  and  C_26
REMARK    5  A    between atoms: C_33  and  C_36
REMARK                            x       y       z     vdW  Elec       q    Type
REMARK                         _______ _______ _______ _____ _____    ______ ____
ROOT
ATOM      1  N   UNL     1       0.089   2.417   0.462  0.00  0.00    -0.296 N 
ATOM      2  N   UNL     1       1.332   0.447   0.631  0.00  0.00    -0.225 NA
ATOM      3  N   UNL     1       3.710   1.746  -0.035  0.00  0.00    -0.167 N 
ATOM      4  N   UNL     1       2.670   3.695  -0.237  0.00  0.00    -0.203 NA
ATOM      5  N   UNL     1       4.686   2.618  -0.386  0.00  0.00    -0.150 NA
ATOM      6  C   UNL     1       1.284   1.740   0.387  0.00  0.00    +0.166 C 
ATOM      7  C   UNL     1       2.512   2.425   0.041  0.00  0.00    +0.188 C 
ATOM      8  C   UNL     1       3.729   0.374   0.227  0.00  0.00    +0.098 C 
ATOM      9  C   UNL     1       2.551  -0.206   0.547  0.00  0.00    +0.117 C 
ATOM     10  C   UNL     1       4.008   3.763  -0.489  0.00  0.00    +0.219 C 
ATOM     11  H   UNL     1       0.142   3.365   0.724  0.00  0.00    +0.154 HD
ENDROOT
BRANCH   1  17
ATOM     12  C   UNL     1      -3.761   0.919  -0.296  0.00  0.00    +0.048 C 
ATOM     13  C   UNL     1      -2.660   0.387  -0.968  0.00  0.00    +0.016 C 
ATOM     14  C   UNL     1      -3.583   1.948   0.628  0.00  0.00    +0.016 C 
ATOM     15  C   UNL     1      -1.382   0.884  -0.717  0.00  0.00    +0.016 C 
ATOM     16  C   UNL     1      -2.304   2.446   0.880  0.00  0.00    +0.016 C 
ATOM     17  C   UNL     1      -1.204   1.914   0.208  0.00  0.00    +0.050 C 
BRANCH  12  19
ATOM     18  N   UNL     1      -6.988  -1.477   0.234  0.00  0.00    +0.392 N 
ATOM     19  N   UNL     1      -5.018   0.429  -0.543  0.00  0.00    -0.313 N 
ATOM     20  C   UNL     1      -6.814  -0.930  -1.132  0.00  0.00    -0.036 C 
ATOM     21  C   UNL     1      -6.250   0.746   0.193  0.00  0.00    +0.050 C 
ATOM     22  C   UNL     1      -7.313   0.490  -0.880  0.00  0.00    -0.002 C 
ATOM     23  C   UNL     1      -6.497  -0.425   1.154  0.00  0.00    -0.057 C 
ATOM     24  C   UNL     1      -5.332  -0.648  -1.490  0.00  0.00    +0.070 C 
ATOM     25  H   UNL     1      -7.973  -1.687   0.397  0.00  0.00    -0.079 HD
BRANCH  18  26
ATOM     26  C   UNL     1      -6.374  -2.773   0.460  0.00  0.00    -0.058 C 
ATOM     27  C   UNL     1      -6.913  -3.795  -0.537  0.00  0.00    -0.023 C 
ATOM     28  C   UNL     1      -6.638  -3.216   1.896  0.00  0.00    -0.023 C 
ENDBRANCH  18  26
ENDBRANCH  12  19
ENDBRANCH   1  17
BRANCH   8  30
ATOM     29  O   UNL     1       7.156  -0.931   0.305  0.00  0.00    -0.446 OA
ATOM     30  C   UNL     1       4.971  -0.416   0.177  0.00  0.00    +0.058 C 
ATOM     31  C   UNL     1       5.126  -1.786  -0.143  0.00  0.00    +0.047 C 
ATOM     32  C   UNL     1       6.235   0.059   0.442  0.00  0.00    +0.181 C 
ATOM     33  C   UNL     1       6.473  -2.050  -0.052  0.00  0.00    +0.198 C 
BRANCH  33  36
ATOM     34  O   UNL     1       6.674  -4.329  -0.612  0.00  0.00    -0.267 OA
ATOM     35  N   UNL     1       8.611  -3.217  -0.092  0.00  0.00    -0.323 N 
ATOM     36  C   UNL     1       7.215  -3.246  -0.262  0.00  0.00    +0.277 C 
ATOM     37  H   UNL     1       9.141  -4.035  -0.233  0.00  0.00    +0.145 HD
ATOM     38  H   UNL     1       9.058  -2.380   0.169  0.00  0.00    +0.145 HD
ENDBRANCH  33  36
ENDBRANCH   8  30
TORSDOF 5
