REMARK  Name = 1133
REMARK  3 active torsions:
REMARK  status: ('A' for Active; 'I' for Inactive)
REMARK    1  A    between atoms: C_2  and  O_3
REMARK    2  A    between atoms: C_2  and  C_5
REMARK    3  A    between atoms: C_5  and  S_6
REMARK                            x       y       z     vdW  Elec       q    Type
REMARK                         _______ _______ _______ _____ _____    ______ ____
ROOT
ATOM      1  O   UNL     1      -0.533   1.295  -0.087  0.00  0.00    -0.249 OA
ATOM      2  C   UNL     1      -0.558   0.072  -0.047  0.00  0.00    +0.325 C 
ENDROOT
BRANCH   2   3
ATOM      3  O   UNL     1      -1.683  -0.643   0.208  0.00  0.00    -0.480 OA
ATOM      4  H   UNL     1      -1.649  -1.579   0.228  0.00  0.00    +0.295 HD
ENDBRANCH   2   3
BRANCH   2   5
ATOM      5  C   UNL     1       0.640  -0.800  -0.292  0.00  0.00    +0.163 C 
BRANCH   5   6
ATOM      6  S   UNL     1       2.133   0.076   0.218  0.00  0.00    -0.157 S 
ATOM      7  H   UNL     1       3.219  -0.713  -0.003  0.00  0.00    +0.103 HD
ENDBRANCH   5   6
ENDBRANCH   2   5
TORSDOF 3
