REMARK  Name = 2735289
REMARK  4 active torsions:
REMARK  status: ('A' for Active; 'I' for Inactive)
REMARK    1  A    between atoms: O_1  and  C_3
REMARK    2  A    between atoms: O_1  and  C_16
REMARK    3  A    between atoms: C_6  and  N_8
REMARK    4  A    between atoms: C_11  and  C_17
REMARK                            x       y       z     vdW  Elec       q    Type
REMARK                         _______ _______ _______ _____ _____    ______ ____
ROOT
ATOM      1  O   UNL     1      -1.144   1.660   0.006  0.00  0.00    -0.436 OA
ENDROOT
BRANCH   1   3
ATOM      2  N   UNL     1      -1.924  -0.525   0.001  0.00  0.00    -0.209 NA
ATOM      3  C   UNL     1      -2.219   0.787   0.004  0.00  0.00    +0.230 C 
ATOM      4  C   UNL     1      -3.493   1.314   0.004  0.00  0.00    +0.059 C 
ATOM      5  C   UNL     1      -4.556   0.417   0.001  0.00  0.00    +0.020 C 
ATOM      6  C   UNL     1      -4.304  -0.951  -0.001  0.00  0.00    +0.061 C 
ATOM      7  C   UNL     1      -2.982  -1.367  -0.001  0.00  0.00    +0.116 C 
BRANCH   6   8
ATOM      8  N   UNL     1      -5.357  -1.880  -0.003  0.00  0.00    -0.356 N 
ATOM      9  H   UNL     1      -6.290  -1.567  -0.004  0.00  0.00    +0.142 HD
ATOM     10  H   UNL     1      -5.161  -2.845  -0.005  0.00  0.00    +0.142 HD
ENDBRANCH   6   8
ENDBRANCH   1   3
BRANCH   1  16
ATOM     11  C   UNL     1       2.628   0.042   0.003  0.00  0.00    -0.023 C 
ATOM     12  C   UNL     1       2.029   0.300  -1.204  0.00  0.00    -0.001 C 
ATOM     13  C   UNL     1       2.029   0.296   1.212  0.00  0.00    -0.001 C 
ATOM     14  C   UNL     1       0.748   0.850  -1.203  0.00  0.00    +0.037 C 
ATOM     15  C   UNL     1       0.748   0.846   1.213  0.00  0.00    +0.037 C 
ATOM     16  C   UNL     1       0.106   1.123   0.005  0.00  0.00    +0.147 C 
BRANCH  11  17
ATOM     17  C   UNL     1       4.041  -0.564   0.002  0.00  0.00    +0.019 C 
ATOM     18  C   UNL     1       5.014   0.390  -0.723  0.00  0.00    +0.004 C 
ATOM     19  C   UNL     1       4.023  -1.924  -0.730  0.00  0.00    +0.004 C 
ATOM     20  C   UNL     1       4.615  -0.814   1.415  0.00  0.00    +0.004 C 
ENDBRANCH  11  17
ENDBRANCH   1  16
TORSDOF 4
