REMARK  Name = 11338127
REMARK  7 active torsions:
REMARK  status: ('A' for Active; 'I' for Inactive)
REMARK    1  A    between atoms: N_1  and  C_8
REMARK    2  A    between atoms: C_3  and  N_20
REMARK    3  A    between atoms: C_4  and  C_24
REMARK    4  A    between atoms: C_6  and  C_15
REMARK    5  A    between atoms: N_14  and  C_17
REMARK    6  A    between atoms: C_24  and  C_25
REMARK    7  A    between atoms: C_28  and  C_32
REMARK                            x       y       z     vdW  Elec       q    Type
REMARK                         _______ _______ _______ _____ _____    ______ ____
ROOT
ATOM      1  N   UNL     1      -0.489   1.104   0.278  0.00  0.00    -0.177 N 
ATOM      2  N   UNL     1       0.159   0.913   1.440  0.00  0.00    -0.171 NA
ATOM      3  C   UNL     1       0.312   1.011  -0.822  0.00  0.00    +0.122 C 
ATOM      4  C   UNL     1       1.534   0.746  -0.322  0.00  0.00    +0.088 C 
ATOM      5  C   UNL     1       1.417   0.691   1.052  0.00  0.00    +0.124 C 
ENDROOT
BRANCH   1   8
ATOM      6  C   UNL     1      -4.120   0.544   0.246  0.00  0.00    +0.055 C 
ATOM      7  C   UNL     1      -2.747   0.301   0.232  0.00  0.00    +0.021 C 
ATOM      8  C   UNL     1      -1.860   1.369   0.292  0.00  0.00    +0.071 C 
ATOM      9  C   UNL     1      -4.596   1.853   0.320  0.00  0.00    +0.004 C 
ATOM     10  C   UNL     1      -2.325   2.676   0.367  0.00  0.00    -0.006 C 
ATOM     11  C   UNL     1      -3.698   2.919   0.381  0.00  0.00    -0.003 C 
ATOM     12  C   UNL     1      -1.389   3.840   0.433  0.00  0.00    +0.032 C 
BRANCH   6  15
ATOM     13  O   UNL     1      -6.192  -0.520   0.682  0.00  0.00    -0.270 OA
ATOM     14  N   UNL     1      -4.602  -1.726  -0.454  0.00  0.00    -0.302 N 
ATOM     15  C   UNL     1      -5.057  -0.566   0.182  0.00  0.00    +0.246 C 
ATOM     16  H   UNL     1      -3.696  -1.729  -0.840  0.00  0.00    +0.150 HD
BRANCH  14  17
ATOM     17  C   UNL     1      -5.406  -2.922  -0.569  0.00  0.00    +0.072 C 
ATOM     18  C   UNL     1      -4.761  -4.252  -0.742  0.00  0.00    +0.021 C 
ATOM     19  C   UNL     1      -5.451  -3.909   0.545  0.00  0.00    +0.021 C 
ENDBRANCH  14  17
ENDBRANCH   6  15
ENDBRANCH   1   8
BRANCH   3  20
ATOM     20  N   UNL     1      -0.166   1.175  -2.075  0.00  0.00    -0.344 N 
ATOM     21  H   UNL     1      -1.121   1.368  -2.216  0.00  0.00    +0.144 HD
ATOM     22  H   UNL     1       0.441   1.103  -2.847  0.00  0.00    +0.144 HD
ENDBRANCH   3  20
BRANCH   4  24
ATOM     23  O   UNL     1       2.707   0.623  -2.368  0.00  0.00    -0.286 OA
ATOM     24  C   UNL     1       2.756   0.555  -1.130  0.00  0.00    +0.200 C 
BRANCH  24  25
ATOM     25  C   UNL     1       4.035   0.273  -0.497  0.00  0.00    +0.040 C 
ATOM     26  C   UNL     1       4.420  -1.047  -0.261  0.00  0.00    +0.013 C 
ATOM     27  C   UNL     1       4.877   1.322  -0.127  0.00  0.00    +0.003 C 
ATOM     28  C   UNL     1       5.646  -1.318   0.345  0.00  0.00    +0.069 C 
ATOM     29  C   UNL     1       6.103   1.051   0.479  0.00  0.00    +0.001 C 
ATOM     30  C   UNL     1       6.488  -0.269   0.716  0.00  0.00    +0.010 C 
BRANCH  28  32
ATOM     31  N   UNL     1       6.363  -3.768   0.786  0.00  0.00    -0.191 NA
ATOM     32  C   UNL     1       6.041  -2.669   0.588  0.00  0.00    +0.100 C 
ENDBRANCH  28  32
ENDBRANCH  24  25
ENDBRANCH   4  24
TORSDOF 7
