REMARK  Name = 46836227
REMARK  13 active torsions:
REMARK  status: ('A' for Active; 'I' for Inactive)
REMARK    1  A    between atoms: C_3  and  C_18
REMARK    2  A    between atoms: C_6  and  N_11
REMARK    3  A    between atoms: N_11  and  C_12
REMARK    4  A    between atoms: N_11  and  C_15
REMARK    5  A    between atoms: C_12  and  C_14
REMARK    6  A    between atoms: C_15  and  C_17
REMARK    7  A    between atoms: C_18  and  C_19
REMARK    8  A    between atoms: C_19  and  C_20
REMARK    9  A    between atoms: C_20  and  C_21
REMARK   10  A    between atoms: C_21  and  C_22
REMARK   11  A    between atoms: C_22  and  C_23
REMARK   12  A    between atoms: C_23  and  C_26
REMARK   13  A    between atoms: N_25  and  O_28
REMARK                            x       y       z     vdW  Elec       q    Type
REMARK                         _______ _______ _______ _____ _____    ______ ____
ROOT
ATOM      1  N   UNL     1       0.120   2.069   0.864  0.00  0.00    -0.262 N 
ATOM      2  N   UNL     1       0.755   1.912  -1.260  0.00  0.00    -0.394 NA
ATOM      3  C   UNL     1      -0.126   2.427  -0.432  0.00  0.00    +0.163 C 
ATOM      4  C   UNL     1       1.234   1.270   0.873  0.00  0.00    +0.079 C 
ATOM      5  C   UNL     1       1.611   1.187  -0.464  0.00  0.00    +0.129 C 
ATOM      6  C   UNL     1       3.448  -0.223   0.209  0.00  0.00    +0.032 C 
ATOM      7  C   UNL     1       2.741   0.426  -0.811  0.00  0.00    +0.101 C 
ATOM      8  C   UNL     1       1.922   0.631   1.905  0.00  0.00    +0.018 C 
ATOM      9  C   UNL     1       3.044  -0.121   1.542  0.00  0.00    +0.012 C 
ATOM     10  C   UNL     1      -0.654   2.461   2.021  0.00  0.00    +0.119 C 
ENDROOT
BRANCH   6  11
ATOM     11  N   UNL     1       4.587  -0.993  -0.118  0.00  0.00    -0.308 N 
BRANCH  11  12
ATOM     12  C   UNL     1       5.332  -1.673   0.920  0.00  0.00    +0.108 C 
BRANCH  12  14
ATOM     13 CL   UNL     1       7.186  -1.537   2.923  0.00  0.00    -0.112 Cl
ATOM     14  C   UNL     1       6.270  -0.714   1.636  0.00  0.00    +0.116 C 
ENDBRANCH  12  14
ENDBRANCH  11  12
BRANCH  11  15
ATOM     15  C   UNL     1       5.016  -1.116  -1.496  0.00  0.00    +0.108 C 
BRANCH  15  17
ATOM     16 CL   UNL     1       4.697  -2.307  -3.934  0.00  0.00    -0.112 Cl
ATOM     17  C   UNL     1       4.186  -2.154  -2.235  0.00  0.00    +0.116 C 
ENDBRANCH  15  17
ENDBRANCH  11  15
ENDBRANCH   6  11
BRANCH   3  18
ATOM     18  C   UNL     1      -1.286   3.312  -0.815  0.00  0.00    +0.075 C 
BRANCH  18  19
ATOM     19  C   UNL     1      -2.461   2.554  -1.445  0.00  0.00    +0.009 C 
BRANCH  19  20
ATOM     20  C   UNL     1      -3.104   1.544  -0.490  0.00  0.00    +0.000 C 
BRANCH  20  21
ATOM     21  C   UNL     1      -4.285   0.830  -1.151  0.00  0.00    +0.001 C 
BRANCH  21  22
ATOM     22  C   UNL     1      -4.908  -0.202  -0.208  0.00  0.00    +0.010 C 
BRANCH  22  23
ATOM     23  C   UNL     1      -6.072  -0.954  -0.852  0.00  0.00    +0.087 C 
BRANCH  23  26
ATOM     24  O   UNL     1      -6.353  -3.098   0.188  0.00  0.00    -0.273 OA
ATOM     25  N   UNL     1      -7.758  -1.373   0.816  0.00  0.00    -0.197 N 
ATOM     26  C   UNL     1      -6.730  -1.932   0.100  0.00  0.00    +0.244 C 
ATOM     27  H   UNL     1      -8.020  -0.430   0.705  0.00  0.00    +0.182 HD
BRANCH  25  28
ATOM     28  O   UNL     1      -8.411  -2.226   1.714  0.00  0.00    -0.295 OA
ATOM     29  H   UNL     1      -9.116  -1.739   2.168  0.00  0.00    +0.241 HD
ENDBRANCH  25  28
ENDBRANCH  23  26
ENDBRANCH  22  23
ENDBRANCH  21  22
ENDBRANCH  20  21
ENDBRANCH  19  20
ENDBRANCH  18  19
ENDBRANCH   3  18
TORSDOF 13
