REMARK  Name = 89808643
REMARK  6 active torsions:
REMARK  status: ('A' for Active; 'I' for Inactive)
REMARK    1  A    between atoms: C_1  and  N_2
REMARK    2  A    between atoms: C_1  and  C_20
REMARK    3  A    between atoms: C_1  and  C_30
REMARK    4  A    between atoms: C_9  and  C_16
REMARK    5  A    between atoms: C_23  and  C_29
REMARK    6  A    between atoms: C_30  and  N_31
REMARK                            x       y       z     vdW  Elec       q    Type
REMARK                         _______ _______ _______ _____ _____    ______ ____
ROOT
ATOM      1  C   UNL     1      -1.009  -1.544   0.077  0.00  0.00    +0.072 C 
ENDROOT
BRANCH   1   2
ATOM      2  N   UNL     1       0.343  -1.525  -0.378  0.00  0.00    -0.318 N 
ATOM      3  N   UNL     1       0.929   0.135   1.184  0.00  0.00    -0.230 NA
ATOM      4  N   UNL     1       3.183   0.979   1.293  0.00  0.00    -0.248 NA
ATOM      5  C   UNL     1       1.327  -0.673   0.184  0.00  0.00    +0.127 C 
ATOM      6  C   UNL     1       2.627  -0.712  -0.313  0.00  0.00    +0.045 C 
ATOM      7  C   UNL     1       3.547   0.160   0.292  0.00  0.00    +0.071 C 
ATOM      8  C   UNL     1       3.019  -1.565  -1.359  0.00  0.00    +0.004 C 
ATOM      9  C   UNL     1       4.858   0.149  -0.178  0.00  0.00    +0.138 C 
ATOM     10  C   UNL     1       1.894   0.923   1.685  0.00  0.00    +0.252 C 
ATOM     11  C   UNL     1       4.335  -1.554  -1.810  0.00  0.00    -0.004 C 
ATOM     12  C   UNL     1       5.256  -0.696  -1.218  0.00  0.00    -0.011 C 
ATOM     13  H   UNL     1       0.603  -2.128  -1.111  0.00  0.00    +0.148 HD
BRANCH   9  16
ATOM     14  O   UNL     1       6.046   2.178  -0.030  0.00  0.00    -0.275 OA
ATOM     15  N   UNL     1       6.593   0.546   1.486  0.00  0.00    -0.328 N 
ATOM     16  C   UNL     1       5.862   1.031   0.407  0.00  0.00    +0.229 C 
ATOM     17  H   UNL     1       7.280   1.110   1.908  0.00  0.00    +0.145 HD
ATOM     18  H   UNL     1       6.424  -0.362   1.827  0.00  0.00    +0.145 HD
ENDBRANCH   9  16
ENDBRANCH   1   2
BRANCH   1  20
ATOM     19 CL   UNL     1      -3.952   3.188  -2.231  0.00  0.00    -0.082 Cl
ATOM     20  C   UNL     1      -1.750  -0.351  -0.494  0.00  0.00    -0.007 C 
ATOM     21  C   UNL     1      -2.273   0.620   0.360  0.00  0.00    +0.002 C 
ATOM     22  C   UNL     1      -1.911  -0.225  -1.874  0.00  0.00    -0.002 C 
ATOM     23  C   UNL     1      -2.955   1.717  -0.165  0.00  0.00    +0.082 C 
ATOM     24  C   UNL     1      -2.593   0.872  -2.399  0.00  0.00    +0.011 C 
ATOM     25  C   UNL     1      -3.115   1.843  -1.545  0.00  0.00    +0.062 C 
BRANCH  23  29
ATOM     26  F   UNL     1      -3.236   2.429   2.086  0.00  0.00    -0.166 F 
ATOM     27  F   UNL     1      -2.990   3.987   0.590  0.00  0.00    -0.166 F 
ATOM     28  F   UNL     1      -4.853   2.884   0.706  0.00  0.00    -0.166 F 
ATOM     29  C   UNL     1      -3.499   2.736   0.784  0.00  0.00    +0.419 C 
ENDBRANCH  23  29
ENDBRANCH   1  20
BRANCH   1  30
ATOM     30  C   UNL     1      -1.683  -2.873  -0.297  0.00  0.00    -0.053 C 
BRANCH  30  31
ATOM     31  N   UNL     1      -3.049  -2.929   0.208  0.00  0.00    +0.388 N 
ATOM     32  C   UNL     1      -3.656  -4.258  -0.066  0.00  0.00    -0.079 C 
ATOM     33  C   UNL     1      -3.059  -3.263   1.656  0.00  0.00    -0.079 C 
ATOM     34  C   UNL     1      -4.239  -4.208   1.359  0.00  0.00    -0.046 C 
ATOM     35  H   UNL     1      -3.466  -2.067  -0.145  0.00  0.00    -0.080 HD
ENDBRANCH  30  31
ENDBRANCH   1  30
TORSDOF 6
