REMARK  Name = 23167
REMARK  10 active torsions:
REMARK  status: ('A' for Active; 'I' for Inactive)
REMARK    1  A    between atoms: C_1  and  O_2
REMARK    2  A    between atoms: C_1  and  C_9
REMARK    3  A    between atoms: O_2  and  C_4
REMARK    4  A    between atoms: C_4  and  C_5
REMARK    5  A    between atoms: C_5  and  C_8
REMARK    6  A    between atoms: C_9  and  C_10
REMARK    7  A    between atoms: C_10  and  C_11
REMARK    8  A    between atoms: C_11  and  C_12
REMARK    9  A    between atoms: C_12  and  C_13
REMARK   10  A    between atoms: C_13  and  C_14
REMARK                            x       y       z     vdW  Elec       q    Type
REMARK                         _______ _______ _______ _____ _____    ______ ____
ROOT
ATOM      1  C   UNL     1      -0.945  -0.896   0.012  0.00  0.00    +0.209 C 
ENDROOT
BRANCH   1   2
ATOM      2  O   UNL     1      -2.142  -0.132   0.005  0.00  0.00    -0.445 OA
BRANCH   2   4
ATOM      3  O   UNL     1      -3.396  -2.063  -0.023  0.00  0.00    -0.244 OA
ATOM      4  C   UNL     1      -3.309  -0.843  -0.013  0.00  0.00    +0.351 C 
BRANCH   4   5
ATOM      5  C   UNL     1      -4.472   0.087  -0.020  0.00  0.00    +0.144 C 
ATOM      6  C   UNL     1      -5.700  -0.450  -0.040  0.00  0.00    +0.018 C 
BRANCH   5   8
ATOM      7  N   UNL     1      -4.176   2.655   0.002  0.00  0.00    -0.191 NA
ATOM      8  C   UNL     1      -4.310   1.502  -0.007  0.00  0.00    +0.107 C 
ENDBRANCH   5   8
ENDBRANCH   4   5
ENDBRANCH   2   4
ENDBRANCH   1   2
BRANCH   1   9
ATOM      9  C   UNL     1       0.245   0.053   0.032  0.00  0.00    +0.047 C 
BRANCH   9  10
ATOM     10  C   UNL     1       1.572  -0.705   0.024  0.00  0.00    +0.004 C 
BRANCH  10  11
ATOM     11  C   UNL     1       2.760   0.257   0.086  0.00  0.00    +0.000 C 
BRANCH  11  12
ATOM     12  C   UNL     1       4.118  -0.450   0.058  0.00  0.00    +0.000 C 
BRANCH  12  13
ATOM     13  C   UNL     1       5.306   0.515   0.046  0.00  0.00    +0.000 C 
BRANCH  13  14
ATOM     14  C   UNL     1       6.632  -0.242  -0.056  0.00  0.00    +0.000 C 
ATOM     15  C   UNL     1       7.815   0.712  -0.107  0.00  0.00    +0.000 C 
ENDBRANCH  13  14
ENDBRANCH  12  13
ENDBRANCH  11  12
ENDBRANCH  10  11
ENDBRANCH   9  10
ENDBRANCH   1   9
TORSDOF 10
