REMARK  Name = 9604654
REMARK  6 active torsions:
REMARK  status: ('A' for Active; 'I' for Inactive)
REMARK    1  A    between atoms: O_1  and  C_2
REMARK    2  A    between atoms: O_1  and  C_17
REMARK    3  A    between atoms: C_2  and  P_3
REMARK    4  A    between atoms: C_7  and  C_11
REMARK    5  A    between atoms: C_17  and  C_18
REMARK    6  A    between atoms: C_18  and  N_19
REMARK                            x       y       z     vdW  Elec       q    Type
REMARK                         _______ _______ _______ _____ _____    ______ ____
ROOT
ATOM      1  O   UNL     1       0.737   2.574   0.442  0.00  0.00    -0.340 OA
ENDROOT
BRANCH   1   2
ATOM      2  C   UNL     1       2.116   2.401   0.732  0.00  0.00    +0.258 C 
BRANCH   2   3
ATOM      3  P   UNL     1       2.767   1.607  -0.724  0.00  0.00    +0.373 P 
ATOM      4  O   UNL     1       2.014   0.178  -0.795  0.00  0.00    -0.290 OA
ATOM      5  O   UNL     1       4.296   1.239  -0.360  0.00  0.00    -0.292 OA
ATOM      6  O   UNL     1       2.613   2.439  -1.964  0.00  0.00    -0.255 OA
ATOM      7  C   UNL     1       2.673  -1.002  -0.337  0.00  0.00    +0.149 C 
ATOM      8  C   UNL     1       3.499  -0.717   0.918  0.00  0.00    +0.067 C 
ATOM      9  C   UNL     1       4.608   0.301   0.659  0.00  0.00    +0.154 C 
BRANCH   7  11
ATOM     10 CL   UNL     1      -1.498  -2.652   2.329  0.00  0.00    -0.082 Cl
ATOM     11  C   UNL     1       1.634  -2.072  -0.092  0.00  0.00    +0.006 C 
ATOM     12  C   UNL     1       0.660  -1.890   0.892  0.00  0.00    +0.009 C 
ATOM     13  C   UNL     1       1.645  -3.243  -0.851  0.00  0.00    -0.002 C 
ATOM     14  C   UNL     1      -0.299  -2.877   1.116  0.00  0.00    +0.057 C 
ATOM     15  C   UNL     1       0.686  -4.231  -0.627  0.00  0.00    +0.001 C 
ATOM     16  C   UNL     1      -0.286  -4.048   0.357  0.00  0.00    +0.011 C 
ENDBRANCH   7  11
ENDBRANCH   2   3
ENDBRANCH   1   2
BRANCH   1  17
ATOM     17  C   UNL     1       0.047   3.173   1.530  0.00  0.00    +0.164 C 
BRANCH  17  18
ATOM     18  C   UNL     1      -1.424   3.338   1.175  0.00  0.00    +0.126 C 
BRANCH  18  19
ATOM     19  N   UNL     1      -2.086   2.061   0.918  0.00  0.00    -0.269 N 
ATOM     20  N   UNL     1      -3.212   0.200   1.321  0.00  0.00    -0.242 NA
ATOM     21  N   UNL     1      -1.709   1.841  -1.468  0.00  0.00    -0.228 NA
ATOM     22  N   UNL     1      -2.690  -0.227  -2.315  0.00  0.00    -0.229 NA
ATOM     23  C   UNL     1      -2.184   1.437  -0.280  0.00  0.00    +0.151 C 
ATOM     24  C   UNL     1      -2.891   0.276  -0.011  0.00  0.00    +0.140 C 
ATOM     25  C   UNL     1      -2.709   1.295   1.852  0.00  0.00    +0.221 C 
ATOM     26  C   UNL     1      -3.141  -0.572  -1.085  0.00  0.00    +0.143 C 
ATOM     27  C   UNL     1      -2.012   0.941  -2.428  0.00  0.00    +0.253 C 
ATOM     28  N   UNL     1      -3.853  -1.770  -0.904  0.00  0.00    -0.342 N 
ATOM     29  H   UNL     1      -4.024  -2.362  -1.672  0.00  0.00    +0.144 HD
ATOM     30  H   UNL     1      -4.180  -2.018  -0.009  0.00  0.00    +0.144 HD
ENDBRANCH  18  19
ENDBRANCH  17  18
ENDBRANCH   1  17
TORSDOF 6
