REMARK  Name = 46186778
REMARK  2 active torsions:
REMARK  status: ('A' for Active; 'I' for Inactive)
REMARK    1  A    between atoms: C_4  and  C_11
REMARK    2  A    between atoms: C_14  and  N_17
REMARK                            x       y       z     vdW  Elec       q    Type
REMARK                         _______ _______ _______ _____ _____    ______ ____
ROOT
ATOM      1  S   UNL     1       0.924  -1.506   0.216  0.00  0.00    -0.071 S 
ATOM      2  F   UNL     1       6.040  -0.636   0.203  0.00  0.00    -0.204 F 
ATOM      3  N   UNL     1       0.787   1.036  -0.199  0.00  0.00    -0.399 NA
ATOM      4  C   UNL     1       0.065  -0.050  -0.042  0.00  0.00    +0.157 C 
ATOM      5  C   UNL     1       2.410  -0.637   0.112  0.00  0.00    +0.130 C 
ATOM      6  C   UNL     1       2.134   0.715  -0.114  0.00  0.00    +0.124 C 
ATOM      7  C   UNL     1       3.724  -1.117   0.223  0.00  0.00    +0.021 C 
ATOM      8  C   UNL     1       3.214   1.616  -0.233  0.00  0.00    +0.031 C 
ATOM      9  C   UNL     1       4.775  -0.204   0.101  0.00  0.00    +0.137 C 
ATOM     10  C   UNL     1       4.526   1.145  -0.124  0.00  0.00    +0.032 C 
ENDROOT
BRANCH   4  11
ATOM     11  C   UNL     1      -1.377  -0.093  -0.071  0.00  0.00    +0.036 C 
ATOM     12  C   UNL     1      -2.034  -1.300  -0.312  0.00  0.00    +0.004 C 
ATOM     13  C   UNL     1      -2.115   1.072   0.141  0.00  0.00    +0.004 C 
ATOM     14  C   UNL     1      -4.165  -0.177  -0.128  0.00  0.00    +0.045 C 
ATOM     15  C   UNL     1      -3.428  -1.342  -0.340  0.00  0.00    +0.014 C 
ATOM     16  C   UNL     1      -3.509   1.030   0.113  0.00  0.00    +0.014 C 
BRANCH  14  17
ATOM     17  N   UNL     1      -5.575  -0.219  -0.157  0.00  0.00    -0.331 N 
ATOM     18  C   UNL     1      -6.395   0.666   0.611  0.00  0.00    +0.109 C 
ATOM     19  H   UNL     1      -6.013  -0.887  -0.733  0.00  0.00    +0.147 HD
ENDBRANCH  14  17
ENDBRANCH   4  11
TORSDOF 2
