REMARK  Name = 67409219
REMARK  7 active torsions:
REMARK  status: ('A' for Active; 'I' for Inactive)
REMARK    1  A    between atoms: C_3  and  C_24
REMARK    2  A    between atoms: C_5  and  O_33
REMARK    3  A    between atoms: C_8  and  O_35
REMARK    4  A    between atoms: C_10  and  C_13
REMARK    5  A    between atoms: C_18  and  C_22
REMARK    6  A    between atoms: C_25  and  C_30
REMARK    7  A    between atoms: C_30  and  O_31
REMARK                            x       y       z     vdW  Elec       q    Type
REMARK                         _______ _______ _______ _____ _____    ______ ____
ROOT
ATOM      1  O   UNL     1       0.651   0.287  -0.241  0.00  0.00    -0.453 OA
ATOM      2  O   UNL     1       2.104   4.044   0.372  0.00  0.00    -0.286 OA
ATOM      3  C   UNL     1       2.828  -0.596  -0.485  0.00  0.00    +0.044 C 
ATOM      4  C   UNL     1       2.005   0.508  -0.257  0.00  0.00    +0.150 C 
ATOM      5  C   UNL     1       4.213  -0.434  -0.513  0.00  0.00    +0.135 C 
ATOM      6  C   UNL     1       2.569   1.767  -0.057  0.00  0.00    +0.107 C 
ATOM      7  C   UNL     1       4.775   0.827  -0.313  0.00  0.00    +0.073 C 
ATOM      8  C   UNL     1       3.955   1.933  -0.084  0.00  0.00    +0.143 C 
ATOM      9  C   UNL     1       1.678   2.913   0.184  0.00  0.00    +0.205 C 
ATOM     10  C   UNL     1      -0.191   1.367  -0.025  0.00  0.00    +0.149 C 
ATOM     11  C   UNL     1       0.230   2.624   0.188  0.00  0.00    +0.080 C 
ENDROOT
BRANCH  10  13
ATOM     12 CL   UNL     1      -1.493   0.529   2.665  0.00  0.00    -0.082 Cl
ATOM     13  C   UNL     1      -1.626   1.018  -0.024  0.00  0.00    +0.045 C 
ATOM     14  C   UNL     1      -2.296   0.628   1.136  0.00  0.00    +0.061 C 
ATOM     15  C   UNL     1      -2.313   1.088  -1.236  0.00  0.00    +0.004 C 
ATOM     16  C   UNL     1      -3.653   0.308   1.084  0.00  0.00    +0.015 C 
ATOM     17  C   UNL     1      -3.670   0.767  -1.288  0.00  0.00    +0.004 C 
ATOM     18  C   UNL     1      -4.340   0.378  -0.128  0.00  0.00    +0.072 C 
BRANCH  18  22
ATOM     19  F   UNL     1      -6.309   0.162  -1.443  0.00  0.00    -0.166 F 
ATOM     20  F   UNL     1      -6.071  -1.240   0.203  0.00  0.00    -0.166 F 
ATOM     21  F   UNL     1      -6.569   0.831   0.610  0.00  0.00    -0.166 F 
ATOM     22  C   UNL     1      -5.791   0.040  -0.186  0.00  0.00    +0.419 C 
ENDBRANCH  18  22
ENDBRANCH  10  13
BRANCH   3  24
ATOM     23  N   UNL     1       0.327  -3.262  -0.173  0.00  0.00    +0.389 N 
ATOM     24  C   UNL     1       2.226  -1.968  -0.703  0.00  0.00    +0.010 C 
ATOM     25  C   UNL     1       1.357  -2.442   0.485  0.00  0.00    -0.024 C 
ATOM     26  C   UNL     1       1.302  -2.062  -1.928  0.00  0.00    -0.020 C 
ATOM     27  C   UNL     1      -0.041  -2.510  -1.376  0.00  0.00    -0.077 C 
ATOM     28  C   UNL     1      -0.835  -3.516   0.670  0.00  0.00    -0.100 C 
ATOM     29  H   UNL     1       0.689  -4.192  -0.387  0.00  0.00    -0.080 HD
BRANCH  25  30
ATOM     30  C   UNL     1       2.175  -3.231   1.504  0.00  0.00    +0.117 C 
BRANCH  30  31
ATOM     31  O   UNL     1       3.213  -2.400   1.990  0.00  0.00    -0.384 OA
ATOM     32  H   UNL     1       3.742  -2.889   2.639  0.00  0.00    +0.210 HD
ENDBRANCH  30  31
ENDBRANCH  25  30
ENDBRANCH   3  24
BRANCH   5  33
ATOM     33  O   UNL     1       5.035  -1.498  -0.738  0.00  0.00    -0.506 OA
ATOM     34  H   UNL     1       4.671  -2.350  -0.874  0.00  0.00    +0.292 HD
ENDBRANCH   5  33
BRANCH   8  35
ATOM     35  O   UNL     1       4.554   3.141   0.106  0.00  0.00    -0.505 OA
ATOM     36  H   UNL     1       4.031   3.903   0.262  0.00  0.00    +0.292 HD
ENDBRANCH   8  35
TORSDOF 7
