REMARK  Name = 9950244
REMARK  6 active torsions:
REMARK  status: ('A' for Active; 'I' for Inactive)
REMARK    1  A    between atoms: C_4  and  C_13
REMARK    2  A    between atoms: C_7  and  C_10
REMARK    3  A    between atoms: C_8  and  S_17
REMARK    4  A    between atoms: C_10  and  O_11
REMARK    5  A    between atoms: C_13  and  O_15
REMARK    6  A    between atoms: S_17  and  C_20
REMARK                            x       y       z     vdW  Elec       q    Type
REMARK                         _______ _______ _______ _____ _____    ______ ____
ROOT
ATOM      1  S   UNL     1       0.409   1.407  -1.113  0.00  0.00    -0.086 S 
ATOM      2  O   UNL     1       3.451  -1.788  -0.252  0.00  0.00    -0.274 OA
ATOM      3  N   UNL     1       1.613  -0.424   0.335  0.00  0.00    -0.244 N 
ATOM      4  C   UNL     1       3.135   0.742  -0.468  0.00  0.00    +0.133 C 
ATOM      5  C   UNL     1       1.730   1.023   0.094  0.00  0.00    +0.143 C 
ATOM      6  C   UNL     1       2.868  -0.738  -0.102  0.00  0.00    +0.235 C 
ATOM      7  C   UNL     1       0.450  -0.982  -0.136  0.00  0.00    +0.142 C 
ATOM      8  C   UNL     1      -0.323  -0.170  -0.876  0.00  0.00    +0.072 C 
ENDROOT
BRANCH   7  10
ATOM      9  O   UNL     1      -0.416  -3.150  -0.584  0.00  0.00    -0.244 OA
ATOM     10  C   UNL     1       0.186  -2.393   0.156  0.00  0.00    +0.353 C 
BRANCH  10  11
ATOM     11  O   UNL     1       0.709  -2.712   1.359  0.00  0.00    -0.476 OA
ATOM     12  H   UNL     1       1.158  -2.062   1.862  0.00  0.00    +0.295 HD
ENDBRANCH  10  11
ENDBRANCH   7  10
BRANCH   4  13
ATOM     13  C   UNL     1       4.357   1.339   0.192  0.00  0.00    +0.122 C 
ATOM     14  C   UNL     1       4.527   2.805  -0.188  0.00  0.00    +0.032 C 
BRANCH  13  15
ATOM     15  O   UNL     1       4.227   1.235   1.609  0.00  0.00    -0.384 OA
ATOM     16  H   UNL     1       4.119   0.304   1.857  0.00  0.00    +0.210 HD
ENDBRANCH  13  15
ENDBRANCH   4  13
BRANCH   8  17
ATOM     17  S   UNL     1      -1.822  -0.577  -1.619  0.00  0.00    -0.106 S 
BRANCH  17  20
ATOM     18  S   UNL     1      -4.464   1.249   1.316  0.00  0.00    +0.043 S 
ATOM     19  O   UNL     1      -5.278   0.206   2.024  0.00  0.00    -0.256 OA
ATOM     20  C   UNL     1      -2.913   0.623  -0.807  0.00  0.00    +0.067 C 
ATOM     21  C   UNL     1      -4.356   0.475  -1.268  0.00  0.00    +0.026 C 
ATOM     22  C   UNL     1      -2.944   0.417   0.701  0.00  0.00    +0.103 C 
ATOM     23  C   UNL     1      -5.147   1.415  -0.374  0.00  0.00    +0.093 C 
ENDBRANCH  17  20
ENDBRANCH   8  17
TORSDOF 6
