REMARK  Name = 60195662
REMARK  7 active torsions:
REMARK  status: ('A' for Active; 'I' for Inactive)
REMARK    1  A    between atoms: N_2  and  C_14
REMARK    2  A    between atoms: N_2  and  C_23
REMARK    3  A    between atoms: C_3  and  C_5
REMARK    4  A    between atoms: C_14  and  C_17
REMARK    5  A    between atoms: C_23  and  C_24
REMARK    6  A    between atoms: C_27  and  C_31
REMARK    7  A    between atoms: C_31  and  O_32
REMARK                            x       y       z     vdW  Elec       q    Type
REMARK                         _______ _______ _______ _____ _____    ______ ____
ROOT
ATOM      1  O   UNL     1       1.244  -1.321  -1.640  0.00  0.00    -0.270 OA
ATOM      2  N   UNL     1       1.022   0.174   0.144  0.00  0.00    -0.270 N 
ATOM      3  C   UNL     1       0.640  -0.942  -0.626  0.00  0.00    +0.251 C 
ENDROOT
BRANCH   3   5
ATOM      4  N   UNL     1      -1.497  -3.513   1.034  0.00  0.00    -0.248 NA
ATOM      5  C   UNL     1      -0.536  -1.699  -0.236  0.00  0.00    +0.072 C 
ATOM      6  C   UNL     1      -1.794  -1.375  -0.722  0.00  0.00    +0.003 C 
ATOM      7  C   UNL     1      -2.914  -2.121  -0.330  0.00  0.00    -0.004 C 
ATOM      8  C   UNL     1      -0.442  -2.768   0.631  0.00  0.00    +0.103 C 
ATOM      9  C   UNL     1      -2.717  -3.196   0.561  0.00  0.00    +0.060 C 
ATOM     10  C   UNL     1      -4.202  -1.818  -0.804  0.00  0.00    +0.053 C 
ATOM     11  C   UNL     1      -3.830  -3.937   0.949  0.00  0.00    +0.071 C 
ATOM     12  C   UNL     1      -5.298  -2.576  -0.399  0.00  0.00    -0.026 C 
ATOM     13  C   UNL     1      -5.111  -3.637   0.479  0.00  0.00    -0.024 C 
ENDBRANCH   3   5
BRANCH   2  14
ATOM     14  C   UNL     1       2.184   0.993  -0.195  0.00  0.00    +0.099 C 
ATOM     15  C   UNL     1       1.969   1.678  -1.543  0.00  0.00    +0.026 C 
BRANCH  14  17
ATOM     16  F   UNL     1       6.954  -2.017  -0.035  0.00  0.00    -0.204 F 
ATOM     17  C   UNL     1       3.463   0.185  -0.152  0.00  0.00    -0.004 C 
ATOM     18  C   UNL     1       4.145   0.022   1.054  0.00  0.00    -0.000 C 
ATOM     19  C   UNL     1       3.961  -0.396  -1.319  0.00  0.00    -0.000 C 
ATOM     20  C   UNL     1       5.324  -0.722   1.094  0.00  0.00    +0.029 C 
ATOM     21  C   UNL     1       5.140  -1.140  -1.279  0.00  0.00    +0.029 C 
ATOM     22  C   UNL     1       5.822  -1.303  -0.073  0.00  0.00    +0.140 C 
ENDBRANCH  14  17
ENDBRANCH   2  14
BRANCH   2  23
ATOM     23  C   UNL     1       0.284   0.586   1.329  0.00  0.00    +0.121 C 
BRANCH  23  24
ATOM     24  C   UNL     1      -0.295   1.964   1.180  0.00  0.00    -0.002 C 
ATOM     25  C   UNL     1      -1.196   2.233   0.150  0.00  0.00    +0.004 C 
ATOM     26  C   UNL     1       0.067   2.973   2.072  0.00  0.00    -0.003 C 
ATOM     27  C   UNL     1      -1.735   3.513   0.012  0.00  0.00    +0.075 C 
ATOM     28  C   UNL     1      -0.472   4.252   1.934  0.00  0.00    -0.000 C 
ATOM     29  C   UNL     1      -1.373   4.522   0.904  0.00  0.00    +0.006 C 
BRANCH  27  31
ATOM     30  O   UNL     1      -3.212   4.886  -1.275  0.00  0.00    -0.245 OA
ATOM     31  C   UNL     1      -2.675   3.794  -1.061  0.00  0.00    +0.338 C 
BRANCH  31  32
ATOM     32  O   UNL     1      -2.919   2.704  -1.839  0.00  0.00    -0.477 OA
ATOM     33  H   UNL     1      -2.496   1.889  -1.650  0.00  0.00    +0.295 HD
ENDBRANCH  31  32
ENDBRANCH  27  31
ENDBRANCH  23  24
ENDBRANCH   2  23
TORSDOF 7
