REMARK  Name = 9951059
REMARK  5 active torsions:
REMARK  status: ('A' for Active; 'I' for Inactive)
REMARK    1  A    between atoms: C_1  and  C_8
REMARK    2  A    between atoms: C_1  and  N_11
REMARK    3  A    between atoms: C_1  and  C_22
REMARK    4  A    between atoms: C_12  and  C_17
REMARK    5  A    between atoms: C_22  and  C_25
REMARK                            x       y       z     vdW  Elec       q    Type
REMARK                         _______ _______ _______ _____ _____    ______ ____
ROOT
ATOM      1  C   UNL     1      -0.928  -0.365   0.332  0.00  0.00    +0.154 C 
ENDROOT
BRANCH   1   8
ATOM      2  O   UNL     1      -0.723   1.596   1.665  0.00  0.00    -0.273 OA
ATOM      3  N   UNL     1      -2.216   1.671  -0.101  0.00  0.00    -0.280 N 
ATOM      4  C   UNL     1      -2.591   3.078   0.058  0.00  0.00    +0.075 C 
ATOM      5  C   UNL     1      -3.287   3.420  -1.262  0.00  0.00    +0.022 C 
ATOM      6  C   UNL     1      -3.923   2.100  -1.678  0.00  0.00    +0.023 C 
ATOM      7  C   UNL     1      -2.888   1.071  -1.250  0.00  0.00    +0.093 C 
ATOM      8  C   UNL     1      -1.269   1.056   0.702  0.00  0.00    +0.244 C 
ATOM      9  C   UNL     1      -3.510   3.278   1.262  0.00  0.00    +0.022 C 
ENDBRANCH   1   8
BRANCH   1  11
ATOM     10  O   UNL     1       1.303   0.398  -1.361  0.00  0.00    -0.273 OA
ATOM     11  N   UNL     1       0.471  -0.465   0.636  0.00  0.00    -0.297 N 
ATOM     12  C   UNL     1       1.476  -0.073  -0.240  0.00  0.00    +0.244 C 
ATOM     13  H   UNL     1       0.732  -0.830   1.512  0.00  0.00    +0.150 HD
BRANCH  12  17
ATOM     14  O   UNL     1       4.863   0.908   0.545  0.00  0.00    -0.436 OA
ATOM     15  O   UNL     1       5.968  -0.054  -1.217  0.00  0.00    -0.226 OA
ATOM     16  N   UNL     1       3.755  -0.570  -0.719  0.00  0.00    -0.261 N 
ATOM     17  C   UNL     1       2.844  -0.260   0.335  0.00  0.00    +0.192 C 
ATOM     18  C   UNL     1       3.485   0.956   0.984  0.00  0.00    +0.197 C 
ATOM     19  C   UNL     1       2.923   2.314   0.581  0.00  0.00    +0.050 C 
ATOM     20  C   UNL     1       4.957   0.077  -0.542  0.00  0.00    +0.402 C 
ATOM     21  H   UNL     1       3.551  -1.168  -1.474  0.00  0.00    +0.153 HD
ENDBRANCH  12  17
ENDBRANCH   1  11
BRANCH   1  22
ATOM     22  C   UNL     1      -1.789  -1.340   1.126  0.00  0.00    +0.071 C 
BRANCH  22  25
ATOM     23  S   UNL     1      -2.555  -4.869  -0.550  0.00  0.00    -0.108 S 
ATOM     24  N   UNL     1      -0.647  -3.358   0.320  0.00  0.00    -0.266 NA
ATOM     25  C   UNL     1      -1.837  -2.705   0.502  0.00  0.00    +0.046 C 
ATOM     26  C   UNL     1      -2.977  -3.341   0.104  0.00  0.00    +0.100 C 
ATOM     27  C   UNL     1      -0.905  -4.522  -0.234  0.00  0.00    +0.183 C 
ENDBRANCH  22  25
ENDBRANCH   1  22
TORSDOF 5
