REMARK  Name = 23633673
REMARK  5 active torsions:
REMARK  status: ('A' for Active; 'I' for Inactive)
REMARK    1  A    between atoms: N_2  and  C_5
REMARK    2  A    between atoms: C_3  and  C_17
REMARK    3  A    between atoms: C_5  and  C_8
REMARK    4  A    between atoms: C_7  and  C_13
REMARK    5  A    between atoms: C_17  and  N_20
REMARK                            x       y       z     vdW  Elec       q    Type
REMARK                         _______ _______ _______ _____ _____    ______ ____
ROOT
ATOM      1  O   UNL     1      -0.956   2.281  -1.355  0.00  0.00    -0.274 OA
ATOM      2  N   UNL     1      -0.016   2.652   0.737  0.00  0.00    -0.301 N 
ATOM      3  C   UNL     1      -1.049   2.329  -0.131  0.00  0.00    +0.239 C 
ATOM      4  H   UNL     1      -0.199   2.661   1.704  0.00  0.00    +0.150 HD
ENDROOT
BRANCH   2   5
ATOM      5  C   UNL     1       1.317   2.977   0.283  0.00  0.00    +0.094 C 
ATOM      6  C   UNL     1       1.972   3.989   1.221  0.00  0.00    +0.026 C 
BRANCH   5   8
ATOM      7  C   UNL     1       3.697  -0.570  -0.236  0.00  0.00    -0.023 C 
ATOM      8  C   UNL     1       2.154   1.729   0.101  0.00  0.00    -0.005 C 
ATOM      9  C   UNL     1       3.385   0.228  -1.337  0.00  0.00    -0.005 C 
ATOM     10  C   UNL     1       3.237  -0.218   1.033  0.00  0.00    -0.005 C 
ATOM     11  C   UNL     1       2.614   1.377  -1.169  0.00  0.00    -0.003 C 
ATOM     12  C   UNL     1       2.466   0.932   1.201  0.00  0.00    -0.003 C 
BRANCH   7  13
ATOM     13  C   UNL     1       4.522  -1.800  -0.416  0.00  0.00    +0.019 C 
ATOM     14  C   UNL     1       5.926  -1.458  -1.005  0.00  0.00    +0.004 C 
ATOM     15  C   UNL     1       3.834  -2.805  -1.391  0.00  0.00    +0.004 C 
ATOM     16  C   UNL     1       4.806  -2.615   0.890  0.00  0.00    +0.004 C 
ENDBRANCH   7  13
ENDBRANCH   5   8
ENDBRANCH   2   5
BRANCH   3  17
ATOM     17  C   UNL     1      -2.330   2.038   0.620  0.00  0.00    +0.160 C 
BRANCH  17  20
ATOM     18  F   UNL     1      -1.418  -0.657   1.721  0.00  0.00    -0.205 F 
ATOM     19  F   UNL     1      -1.896  -3.352   1.544  0.00  0.00    -0.202 F 
ATOM     20  N   UNL     1      -3.168   1.075  -0.055  0.00  0.00    -0.235 NA
ATOM     21  N   UNL     1      -4.738   0.292  -1.420  0.00  0.00    -0.255 NA
ATOM     22  C   UNL     1      -3.143  -0.287   0.101  0.00  0.00    +0.153 C 
ATOM     23  C   UNL     1      -4.131  -0.753  -0.761  0.00  0.00    +0.077 C 
ATOM     24  C   UNL     1      -4.137   1.372  -0.973  0.00  0.00    +0.201 C 
ATOM     25  C   UNL     1      -2.363  -1.126   0.898  0.00  0.00    +0.165 C 
ATOM     26  C   UNL     1      -4.370  -2.135  -0.846  0.00  0.00    +0.018 C 
ATOM     27  C   UNL     1      -2.615  -2.498   0.801  0.00  0.00    +0.165 C 
ATOM     28  C   UNL     1      -3.599  -2.996  -0.055  0.00  0.00    +0.033 C 
ENDBRANCH  17  20
ENDBRANCH   3  17
TORSDOF 5
