REMARK  Name = 5488186
REMARK  2 active torsions:
REMARK  status: ('A' for Active; 'I' for Inactive)
REMARK    1  A    between atoms: C_13  and  O_16
REMARK    2  A    between atoms: C_15  and  O_18
REMARK                            x       y       z     vdW  Elec       q    Type
REMARK                         _______ _______ _______ _____ _____    ______ ____
ROOT
ATOM      1  O   UNL     1      -0.706   1.895  -0.001  0.00  0.00    -0.421 OA
ATOM      2  O   UNL     1       1.298   2.983   0.001  0.00  0.00    -0.244 OA
ATOM      3  C   UNL     1       0.641  -0.591   0.000  0.00  0.00    +0.009 A 
ATOM      4  C   UNL     1      -0.827  -0.544   0.000  0.00  0.00    +0.035 A 
ATOM      5  C   UNL     1       1.369   0.611   0.000  0.00  0.00    +0.079 A 
ATOM      6  C   UNL     1      -1.458   0.701   0.000  0.00  0.00    +0.152 A 
ATOM      7  C   UNL     1       1.376  -1.792   0.000  0.00  0.00    +0.003 C 
ATOM      8  C   UNL     1      -1.663  -1.673   0.000  0.00  0.00    +0.006 C 
ATOM      9  C   UNL     1       2.773   0.610   0.000  0.00  0.00    +0.043 C 
ATOM     10  C   UNL     1       0.682   1.925   0.000  0.00  0.00    +0.346 A 
ATOM     11  C   UNL     1      -2.848   0.849   0.000  0.00  0.00    +0.074 C 
ATOM     12  C   UNL     1       2.774  -1.794   0.000  0.00  0.00    +0.037 C 
ATOM     13  C   UNL     1       3.472  -0.594   0.000  0.00  0.00    +0.134 C 
ATOM     14  C   UNL     1      -3.059  -1.544   0.000  0.00  0.00    +0.037 C 
ATOM     15  C   UNL     1      -3.650  -0.284   0.000  0.00  0.00    +0.137 C 
ENDROOT
BRANCH  13  16
ATOM     16  O   UNL     1       4.833  -0.594   0.000  0.00  0.00    -0.506 OA
ATOM     17  H   UNL     1       5.302   0.217   0.000  0.00  0.00    +0.292 HD
ENDBRANCH  13  16
BRANCH  15  18
ATOM     18  O   UNL     1      -5.005  -0.165   0.000  0.00  0.00    -0.505 OA
ATOM     19  H   UNL     1      -5.401   0.684   0.000  0.00  0.00    +0.292 HD
ENDBRANCH  15  18
TORSDOF 2
