REMARK  Name = 4696
REMARK  1 active torsions:
REMARK  status: ('A' for Active; 'I' for Inactive)
REMARK    1  A    between atoms: C_5  and  O_11
REMARK                            x       y       z     vdW  Elec       q    Type
REMARK                         _______ _______ _______ _____ _____    ______ ____
ROOT
ATOM      1  O   UNL     1      -2.244  -0.046  -0.780  0.00  0.00    -0.322 OA
ATOM      2  O   UNL     1       1.541   1.111   0.249  0.00  0.00    -0.421 OA
ATOM      3  O   UNL     1       3.376  -0.247  -0.049  0.00  0.00    -0.244 OA
ATOM      4  C   UNL     1       0.009  -0.566  -0.155  0.00  0.00    +0.074 C 
ATOM      5  C   UNL     1      -1.382  -1.084  -0.282  0.00  0.00    +0.260 C 
ATOM      6  C   UNL     1       0.204   0.810   0.128  0.00  0.00    +0.148 C 
ATOM      7  C   UNL     1      -2.220   1.167  -0.004  0.00  0.00    +0.174 C 
ATOM      8  C   UNL     1      -0.820   1.663   0.234  0.00  0.00    +0.043 C 
ATOM      9  C   UNL     1       1.189  -1.150  -0.295  0.00  0.00    +0.086 C 
ATOM     10  C   UNL     1       2.166  -0.084  -0.029  0.00  0.00    +0.346 C 
ENDROOT
BRANCH   5  11
ATOM     11  O   UNL     1      -1.818  -1.575   0.982  0.00  0.00    -0.357 OA
ATOM     12  H   UNL     1      -2.724  -1.914   0.903  0.00  0.00    +0.213 HD
ENDBRANCH   5  11
TORSDOF 1
