REMARK  Name = 118023034
REMARK  4 active torsions:
REMARK  status: ('A' for Active; 'I' for Inactive)
REMARK    1  A    between atoms: C_15  and  C_28
REMARK    2  A    between atoms: C_17  and  C_24
REMARK    3  A    between atoms: C_28  and  C_31
REMARK    4  A    between atoms: C_28  and  N_37
REMARK                            x       y       z     vdW  Elec       q    Type
REMARK                         _______ _______ _______ _____ _____    ______ ____
ROOT
ATOM      1  N   UNL     1       2.184   2.015   0.167  0.00  0.00    -0.289 N 
ATOM      2  N   UNL     1      -0.613   1.495  -0.281  0.00  0.00    -0.250 N 
ATOM      3  N   UNL     1       5.808   1.548   0.550  0.00  0.00    -0.185 N 
ATOM      4  N   UNL     1       3.924   3.469   0.643  0.00  0.00    -0.206 NA
ATOM      5  N   UNL     1      -2.302   0.766  -1.710  0.00  0.00    -0.181 NA
ATOM      6  N   UNL     1      -2.797   1.507   0.529  0.00  0.00    -0.203 NA
ATOM      7  N   UNL     1       6.233   2.805   0.823  0.00  0.00    -0.151 NA
ATOM      8  C   UNL     1       1.745   0.937  -0.716  0.00  0.00    +0.114 C 
ATOM      9  C   UNL     1       1.150   2.820   0.813  0.00  0.00    +0.114 C 
ATOM     10  C   UNL     1       0.379   1.245  -1.329  0.00  0.00    +0.123 C 
ATOM     11  C   UNL     1      -0.138   2.018   1.002  0.00  0.00    +0.123 C 
ATOM     12  C   UNL     1       3.499   2.258   0.377  0.00  0.00    +0.149 C 
ATOM     13  C   UNL     1      -1.965   1.245  -0.497  0.00  0.00    +0.090 C 
ATOM     14  C   UNL     1       4.497   1.217   0.324  0.00  0.00    +0.106 C 
ATOM     15  C   UNL     1      -4.573   0.761  -0.914  0.00  0.00    -0.014 C 
ATOM     16  C   UNL     1       4.433  -0.137   0.081  0.00  0.00    +0.021 C 
ATOM     17  C   UNL     1       5.756  -0.639   0.163  0.00  0.00    +0.021 C 
ATOM     18  C   UNL     1       6.585   0.423   0.454  0.00  0.00    +0.090 C 
ATOM     19  C   UNL     1      -3.619   0.534  -1.885  0.00  0.00    +0.102 C 
ATOM     20  C   UNL     1      -4.100   1.253   0.285  0.00  0.00    +0.160 C 
ATOM     21  C   UNL     1       5.273   3.685   0.853  0.00  0.00    +0.219 C 
ENDROOT
BRANCH  17  24
ATOM     22  N   UNL     1       6.272  -4.113  -0.643  0.00  0.00    -0.208 N 
ATOM     23  N   UNL     1       7.306  -3.966   0.202  0.00  0.00    -0.176 NA
ATOM     24  C   UNL     1       6.129  -2.022  -0.029  0.00  0.00    +0.038 C 
ATOM     25  C   UNL     1       5.536  -2.978  -0.816  0.00  0.00    +0.086 C 
ATOM     26  C   UNL     1       7.214  -2.686   0.574  0.00  0.00    +0.119 C 
ATOM     27  C   UNL     1       6.034  -5.393  -1.267  0.00  0.00    +0.140 C 
ENDBRANCH  17  24
BRANCH  15  28
ATOM     28  C   UNL     1      -6.014   0.493  -1.145  0.00  0.00    -0.010 C 
ATOM     29  C   UNL     1      -6.824   1.839  -1.101  0.00  0.00    -0.014 C 
BRANCH  28  31
ATOM     30  F   UNL     1      -8.092  -3.350   2.505  0.00  0.00    -0.204 F 
ATOM     31  C   UNL     1      -6.585  -0.562  -0.142  0.00  0.00    -0.037 C 
ATOM     32  C   UNL     1      -6.046  -1.849  -0.103  0.00  0.00    -0.004 C 
ATOM     33  C   UNL     1      -7.632  -0.218   0.712  0.00  0.00    -0.004 C 
ATOM     34  C   UNL     1      -6.555  -2.791   0.791  0.00  0.00    +0.029 C 
ATOM     35  C   UNL     1      -8.141  -1.160   1.606  0.00  0.00    +0.029 C 
ATOM     36  C   UNL     1      -7.603  -2.446   1.646  0.00  0.00    +0.140 C 
ENDBRANCH  28  31
BRANCH  28  37
ATOM     37  N   UNL     1      -6.357  -0.021  -2.520  0.00  0.00    +0.388 N 
ATOM     38  H   UNL     1      -5.884  -0.911  -2.679  0.00  0.00    -0.088 HD
ATOM     39  H   UNL     1      -6.055   0.654  -3.222  0.00  0.00    -0.088 HD
ATOM     40  H   UNL     1      -7.366  -0.156  -2.591  0.00  0.00    -0.088 HD
ENDBRANCH  28  37
ENDBRANCH  15  28
TORSDOF 4
