REMARK  Name = 59868
REMARK  3 active torsions:
REMARK  status: ('A' for Active; 'I' for Inactive)
REMARK    1  A    between atoms: C_4  and  N_13
REMARK    2  A    between atoms: N_13  and  C_16
REMARK    3  A    between atoms: C_16  and  C_17
REMARK                            x       y       z     vdW  Elec       q    Type
REMARK                         _______ _______ _______ _____ _____    ______ ____
ROOT
ATOM      1  S   UNL     1       2.142  -1.791  -0.227  0.00  0.00    -0.062 S 
ATOM      2  N   UNL     1       3.163   0.553   0.195  0.00  0.00    -0.389 NA
ATOM      3  N   UNL     1       4.723  -1.222   0.094  0.00  0.00    -0.328 N 
ATOM      4  C   UNL     1      -1.063   0.748   0.199  0.00  0.00    -0.060 C 
ATOM      5  C   UNL     1      -0.307   2.008  -0.283  0.00  0.00    -0.014 C 
ATOM      6  C   UNL     1      -0.394  -0.549  -0.313  0.00  0.00    -0.003 C 
ATOM      7  C   UNL     1       1.146   2.034   0.229  0.00  0.00    +0.053 C 
ATOM      8  C   UNL     1       1.085  -0.461  -0.138  0.00  0.00    +0.101 C 
ATOM      9  C   UNL     1       1.796   0.702   0.083  0.00  0.00    +0.099 C 
ATOM     10  C   UNL     1       3.460  -0.720   0.045  0.00  0.00    +0.204 C 
ATOM     11  H   UNL     1       4.874  -2.188  -0.026  0.00  0.00    +0.145 HD
ATOM     12  H   UNL     1       5.486  -0.620   0.250  0.00  0.00    +0.145 HD
ENDROOT
BRANCH   4  13
ATOM     13  N   UNL     1      -2.452   0.793  -0.253  0.00  0.00    +0.385 N 
ATOM     14  H   UNL     1      -2.473   0.787  -1.273  0.00  0.00    -0.084 HD
ATOM     15  H   UNL     1      -2.886   1.644   0.105  0.00  0.00    -0.084 HD
BRANCH  13  16
ATOM     16  C   UNL     1      -3.193  -0.355   0.246  0.00  0.00    -0.082 C 
BRANCH  16  17
ATOM     17  C   UNL     1      -4.651  -0.281  -0.203  0.00  0.00    -0.023 C 
ATOM     18  C   UNL     1      -5.453  -1.460   0.325  0.00  0.00    -0.002 C 
ENDBRANCH  16  17
ENDBRANCH  13  16
ENDBRANCH   4  13
TORSDOF 3
