REMARK  Name = 69362
REMARK  4 active torsions:
REMARK  status: ('A' for Active; 'I' for Inactive)
REMARK    1  A    between atoms: C_1  and  O_4
REMARK    2  A    between atoms: C_1  and  C_6
REMARK    3  A    between atoms: C_6  and  C_8
REMARK    4  A    between atoms: C_8  and  O_9
REMARK                            x       y       z     vdW  Elec       q    Type
REMARK                         _______ _______ _______ _____ _____    ______ ____
ROOT
ATOM      1  C   UNL     1      -1.087  -0.032  -0.011  0.00  0.00    +0.099 C 
ATOM      2  C   UNL     1      -2.349  -0.445   0.753  0.00  0.00    +0.030 C 
ATOM      3  C   UNL     1      -1.045  -0.735  -1.370  0.00  0.00    +0.030 C 
ENDROOT
BRANCH   1   4
ATOM      4  O   UNL     1      -1.154   1.379  -0.226  0.00  0.00    -0.386 OA
ATOM      5  H   UNL     1      -1.181   1.835   0.630  0.00  0.00    +0.210 HD
ENDBRANCH   1   4
BRANCH   1   6
ATOM      6  C   UNL     1       0.152  -0.338   0.844  0.00  0.00    +0.136 C 
BRANCH   6   8
ATOM      7  O   UNL     1       1.772   1.179  -0.116  0.00  0.00    -0.250 OA
ATOM      8  C   UNL     1       1.458   0.033   0.180  0.00  0.00    +0.316 C 
BRANCH   8   9
ATOM      9  O   UNL     1       2.252  -1.041  -0.053  0.00  0.00    -0.480 OA
ATOM     10  H   UNL     1       1.964  -1.898   0.193  0.00  0.00    +0.295 HD
ENDBRANCH   8   9
ENDBRANCH   6   8
ENDBRANCH   1   6
TORSDOF 4
