REMARK  Name = 3034656
REMARK  8 active torsions:
REMARK  status: ('A' for Active; 'I' for Inactive)
REMARK    1  A    between atoms: C_1  and  O_2
REMARK    2  A    between atoms: C_1  and  C_4
REMARK    3  A    between atoms: C_1  and  C_11
REMARK    4  A    between atoms: C_4  and  O_5
REMARK    5  A    between atoms: C_4  and  C_7
REMARK    6  A    between atoms: C_7  and  O_9
REMARK    7  A    between atoms: C_11  and  O_12
REMARK    8  A    between atoms: C_11  and  C_15
REMARK                            x       y       z     vdW  Elec       q    Type
REMARK                         _______ _______ _______ _____ _____    ______ ____
ROOT
ATOM      1  C   UNL     1       0.280  -0.399   0.164  0.00  0.00    +0.174 C 
ENDROOT
BRANCH   1   2
ATOM      2  O   UNL     1       0.521  -1.349  -0.874  0.00  0.00    -0.379 OA
ATOM      3  H   UNL     1      -0.261  -1.912  -0.986  0.00  0.00    +0.211 HD
ENDBRANCH   1   2
BRANCH   1   4
ATOM      4  C   UNL     1      -0.994   0.410  -0.168  0.00  0.00    +0.167 C 
BRANCH   4   5
ATOM      5  O   UNL     1      -1.212   1.403   0.838  0.00  0.00    -0.379 OA
ATOM      6  H   UNL     1      -0.405   1.930   0.953  0.00  0.00    +0.211 HD
ENDBRANCH   4   5
BRANCH   4   7
ATOM      7  C   UNL     1      -2.294  -0.403  -0.319  0.00  0.00    +0.140 C 
ATOM      8  C   UNL     1      -3.510   0.470  -0.593  0.00  0.00    +0.034 C 
BRANCH   7   9
ATOM      9  O   UNL     1      -2.567  -1.176   0.847  0.00  0.00    -0.382 OA
ATOM     10  H   UNL     1      -1.805  -1.743   1.044  0.00  0.00    +0.210 HD
ENDBRANCH   7   9
ENDBRANCH   4   7
ENDBRANCH   1   4
BRANCH   1  11
ATOM     11  C   UNL     1       1.520   0.493   0.340  0.00  0.00    +0.205 C 
BRANCH  11  12
ATOM     12  O   UNL     1       1.758   1.271  -0.818  0.00  0.00    -0.375 OA
ATOM     13  H   UNL     1       0.975   1.811  -1.010  0.00  0.00    +0.211 HD
ENDBRANCH  11  12
BRANCH  11  15
ATOM     14  O   UNL     1       3.754  -0.372  -0.057  0.00  0.00    -0.286 OA
ATOM     15  C   UNL     1       2.744  -0.349   0.640  0.00  0.00    +0.239 C 
ENDBRANCH  11  15
ENDBRANCH   1  11
TORSDOF 8
