REMARK  Name = 51041322
REMARK  7 active torsions:
REMARK  status: ('A' for Active; 'I' for Inactive)
REMARK    1  A    between atoms: N_3  and  C_14
REMARK    2  A    between atoms: C_14  and  C_15
REMARK    3  A    between atoms: C_15  and  C_16
REMARK    4  A    between atoms: C_16  and  C_17
REMARK    5  A    between atoms: C_17  and  C_20
REMARK    6  A    between atoms: C_20  and  C_21
REMARK    7  A    between atoms: C_20  and  O_25
REMARK                            x       y       z     vdW  Elec       q    Type
REMARK                         _______ _______ _______ _____ _____    ______ ____
ROOT
ATOM      1  O   UNL     1       1.070  -2.196  -1.133  0.00  0.00    -0.272 OA
ATOM      2  O   UNL     1      -0.355   2.270  -1.346  0.00  0.00    -0.252 OA
ATOM      3  N   UNL     1       0.322   0.024  -1.270  0.00  0.00    -0.212 N 
ATOM      4  N   UNL     1       1.452   1.761   0.021  0.00  0.00    -0.228 N 
ATOM      5  N   UNL     1       3.155  -1.205   0.779  0.00  0.00    -0.239 NA
ATOM      6  N   UNL     1       3.332   0.935   1.378  0.00  0.00    -0.240 NA
ATOM      7  C   UNL     1       2.166  -0.539   0.114  0.00  0.00    +0.192 C 
ATOM      8  C   UNL     1       1.177  -1.020  -0.795  0.00  0.00    +0.254 C 
ATOM      9  C   UNL     1       2.297   0.768   0.498  0.00  0.00    +0.136 C 
ATOM     10  C   UNL     1       0.422   1.422  -0.891  0.00  0.00    +0.318 C 
ATOM     11  C   UNL     1       3.830  -0.275   1.528  0.00  0.00    +0.203 C 
ATOM     12  C   UNL     1       1.631   3.139   0.462  0.00  0.00    +0.123 C 
ATOM     13  C   UNL     1       3.454  -2.615   0.724  0.00  0.00    +0.092 C 
ENDROOT
BRANCH   3  14
ATOM     14  C   UNL     1      -0.708  -0.364  -2.192  0.00  0.00    +0.102 C 
BRANCH  14  15
ATOM     15  C   UNL     1      -1.871  -1.072  -1.504  0.00  0.00    +0.021 C 
BRANCH  15  16
ATOM     16  C   UNL     1      -2.564  -0.187  -0.461  0.00  0.00    -0.004 C 
BRANCH  16  17
ATOM     17  C   UNL     1      -3.717  -0.937   0.218  0.00  0.00    +0.046 C 
BRANCH  17  18
ATOM     18  C   UNL     1      -4.474  -0.113   1.267  0.00  0.00    +0.092 C 
ATOM     19  C   UNL     1      -5.621  -0.869   1.921  0.00  0.00    +0.044 C 
BRANCH  18  20
ATOM     20  O   UNL     1      -4.999   1.074   0.679  0.00  0.00    -0.386 OA
ATOM     21  H   UNL     1      -4.281   1.571   0.257  0.00  0.00    +0.210 HD
ENDBRANCH  18  20
ENDBRANCH  17  18
ENDBRANCH  16  17
ENDBRANCH  15  16
ENDBRANCH  14  15
ENDBRANCH   3  14
TORSDOF 6
