REMARK  Name = 10021692
REMARK  10 active torsions:
REMARK  status: ('A' for Active; 'I' for Inactive)
REMARK    1  A    between atoms: N_2  and  C_19
REMARK    2  A    between atoms: C_3  and  C_5
REMARK    3  A    between atoms: C_7  and  C_15
REMARK    4  A    between atoms: C_8  and  O_11
REMARK    5  A    between atoms: C_9  and  O_13
REMARK    6  A    between atoms: C_15  and  C_16
REMARK    7  A    between atoms: C_16  and  C_18
REMARK    8  A    between atoms: C_19  and  C_21
REMARK    9  A    between atoms: N_20  and  C_26
REMARK   10  A    between atoms: C_26  and  C_27
REMARK                            x       y       z     vdW  Elec       q    Type
REMARK                         _______ _______ _______ _____ _____    ______ ____
ROOT
ATOM      1  O   UNL     1       0.831  -1.994   0.155  0.00  0.00    -0.270 OA
ATOM      2  N   UNL     1       0.989   0.095  -0.843  0.00  0.00    -0.303 N 
ATOM      3  C   UNL     1       0.311  -0.941  -0.205  0.00  0.00    +0.249 C 
ATOM      4  H   UNL     1       0.486   0.902  -1.095  0.00  0.00    +0.150 HD
ENDROOT
BRANCH   3   5
ATOM      5  C   UNL     1      -1.143  -0.737   0.016  0.00  0.00    +0.090 C 
ATOM      6  C   UNL     1      -1.598   0.555   0.193  0.00  0.00    +0.003 C 
ATOM      7  C   UNL     1      -2.960   0.769   0.403  0.00  0.00    -0.019 C 
ATOM      8  C   UNL     1      -1.994  -1.823   0.042  0.00  0.00    +0.177 C 
ATOM      9  C   UNL     1      -3.357  -1.610   0.252  0.00  0.00    +0.172 C 
ATOM     10  C   UNL     1      -3.840  -0.314   0.432  0.00  0.00    +0.036 C 
BRANCH   8  11
ATOM     11  O   UNL     1      -1.529  -3.094  -0.134  0.00  0.00    -0.468 OA
ATOM     12  C   UNL     1      -1.747  -4.015   0.932  0.00  0.00    +0.253 C 
ENDBRANCH   8  11
BRANCH   9  13
ATOM     13  O   UNL     1      -4.226  -2.658   0.284  0.00  0.00    -0.468 OA
ATOM     14  C   UNL     1      -4.816  -3.049  -0.954  0.00  0.00    +0.253 C 
ENDBRANCH   9  13
BRANCH   7  15
ATOM     15  C   UNL     1      -3.477   2.155   0.594  0.00  0.00    +0.029 C 
BRANCH  15  16
ATOM     16  C   UNL     1      -3.874   2.816  -0.735  0.00  0.00    +0.043 C 
BRANCH  16  18
ATOM     17  F   UNL     1      -5.541   4.137   0.261  0.00  0.00    -0.234 F 
ATOM     18  C   UNL     1      -4.438   4.212  -0.530  0.00  0.00    +0.194 C 
ENDBRANCH  16  18
ENDBRANCH  15  16
ENDBRANCH   7  15
ENDBRANCH   3   5
BRANCH   2  19
ATOM     19  C   UNL     1       2.388   0.036  -1.149  0.00  0.00    +0.069 C 
BRANCH  19  21
ATOM     20  N   UNL     1       4.662   0.649  -0.306  0.00  0.00    +0.392 N 
ATOM     21  C   UNL     1       3.225   0.593  -0.004  0.00  0.00    -0.038 C 
ATOM     22  C   UNL     1       2.885   2.057   0.287  0.00  0.00    -0.021 C 
ATOM     23  C   UNL     1       4.196   2.694   0.733  0.00  0.00    -0.025 C 
ATOM     24  C   UNL     1       5.220   1.572   0.685  0.00  0.00    -0.077 C 
ATOM     25  H   UNL     1       4.817   0.962  -1.264  0.00  0.00    -0.079 HD
BRANCH  20  26
ATOM     26  C   UNL     1       5.315  -0.653  -0.249  0.00  0.00    -0.050 C 
BRANCH  26  27
ATOM     27  C   UNL     1       6.784  -0.546  -0.517  0.00  0.00    -0.049 C 
ATOM     28  C   UNL     1       7.732  -0.905   0.357  0.00  0.00    -0.007 C 
ENDBRANCH  26  27
ENDBRANCH  20  26
ENDBRANCH  19  21
ENDBRANCH   2  19
TORSDOF 10
