REMARK  Name = 72734520
REMARK  6 active torsions:
REMARK  status: ('A' for Active; 'I' for Inactive)
REMARK    1  A    between atoms: N_1  and  C_19
REMARK    2  A    between atoms: C_8  and  O_28
REMARK    3  A    between atoms: C_14  and  N_20
REMARK    4  A    between atoms: O_28  and  C_29
REMARK    5  A    between atoms: C_32  and  N_36
REMARK    6  A    between atoms: C_37  and  C_39
REMARK                            x       y       z     vdW  Elec       q    Type
REMARK                         _______ _______ _______ _____ _____    ______ ____
ROOT
ATOM      1  N   UNL     1      -1.980   2.574   0.656  0.00  0.00    -0.238 N 
ATOM      2  N   UNL     1      -4.290   2.248   0.724  0.00  0.00    -0.316 NA
ATOM      3  N   UNL     1      -2.787   0.502  -0.063  0.00  0.00    -0.294 NA
ATOM      4  N   UNL     1      -6.609   1.590   0.664  0.00  0.00    -0.289 N 
ATOM      5  C   UNL     1      -3.082   1.727   0.427  0.00  0.00    +0.207 C 
ATOM      6  C   UNL     1      -5.122   0.079  -0.032  0.00  0.00    +0.181 C 
ATOM      7  C   UNL     1      -5.272   1.366   0.469  0.00  0.00    +0.188 C 
ATOM      8  C   UNL     1      -3.819  -0.340  -0.298  0.00  0.00    +0.281 C 
ATOM      9  C   UNL     1      -6.422  -0.478  -0.137  0.00  0.00    +0.008 C 
ATOM     10  C   UNL     1      -7.318   0.475   0.298  0.00  0.00    +0.060 C 
ATOM     11  H   UNL     1      -2.227   3.458   1.012  0.00  0.00    +0.166 HD
ATOM     12  H   UNL     1      -7.001   2.423   1.013  0.00  0.00    +0.154 HD
ENDROOT
BRANCH   1  19
ATOM     13  F   UNL     1       1.886  -0.257   0.544  0.00  0.00    -0.203 F 
ATOM     14  C   UNL     1       2.156   2.065   0.124  0.00  0.00    +0.076 C 
ATOM     15  C   UNL     1       1.351   0.966   0.423  0.00  0.00    +0.155 C 
ATOM     16  C   UNL     1       1.587   3.333   0.003  0.00  0.00    +0.018 C 
ATOM     17  C   UNL     1      -0.023   1.135   0.599  0.00  0.00    +0.046 C 
ATOM     18  C   UNL     1       0.214   3.502   0.179  0.00  0.00    +0.017 C 
ATOM     19  C   UNL     1      -0.591   2.403   0.477  0.00  0.00    +0.061 C 
BRANCH  14  20
ATOM     20  N   UNL     1       3.534   1.899  -0.052  0.00  0.00    -0.310 N 
ATOM     21  N   UNL     1       6.319   1.673  -0.644  0.00  0.00    +0.388 N 
ATOM     22  C   UNL     1       3.989   0.999  -1.119  0.00  0.00    +0.068 C 
ATOM     23  C   UNL     1       4.448   2.994   0.287  0.00  0.00    +0.068 C 
ATOM     24  C   UNL     1       5.421   0.530  -0.852  0.00  0.00    -0.056 C 
ATOM     25  C   UNL     1       5.866   2.461   0.508  0.00  0.00    -0.056 C 
ATOM     26  C   UNL     1       7.694   1.215  -0.444  0.00  0.00    -0.101 C 
ATOM     27  H   UNL     1       6.298   2.263  -1.475  0.00  0.00    -0.080 HD
ENDBRANCH  14  20
ENDBRANCH   1  19
BRANCH   8  28
ATOM     28  O   UNL     1      -3.536  -1.588  -0.794  0.00  0.00    -0.429 OA
BRANCH  28  29
ATOM     29  C   UNL     1      -2.209  -1.893  -1.019  0.00  0.00    +0.149 C 
ATOM     30  C   UNL     1      -1.447  -2.476  -0.006  0.00  0.00    +0.052 C 
ATOM     31  C   UNL     1      -1.630  -1.620  -2.258  0.00  0.00    +0.038 C 
ATOM     32  C   UNL     1      -0.106  -2.786  -0.233  0.00  0.00    +0.054 C 
ATOM     33  C   UNL     1       0.473  -2.513  -1.472  0.00  0.00    +0.015 C 
ATOM     34  C   UNL     1      -0.289  -1.931  -2.485  0.00  0.00    +0.004 C 
BRANCH  32  36
ATOM     35  O   UNL     1       2.774  -3.635  -0.210  0.00  0.00    -0.270 OA
ATOM     36  N   UNL     1       0.656  -3.370   0.780  0.00  0.00    -0.280 N 
ATOM     37  C   UNL     1       2.005  -3.748   0.737  0.00  0.00    +0.250 C 
ATOM     38  H   UNL     1       0.188  -3.536   1.630  0.00  0.00    +0.155 HD
BRANCH  37  39
ATOM     39  C   UNL     1       2.452  -4.340   2.031  0.00  0.00    +0.058 C 
ATOM     40  C   UNL     1       3.710  -4.763   2.186  0.00  0.00    +0.005 C 
ENDBRANCH  37  39
ENDBRANCH  32  36
ENDBRANCH  28  29
ENDBRANCH   8  28
TORSDOF 6
