REMARK  Name = 9547481
REMARK  10 active torsions:
REMARK  status: ('A' for Active; 'I' for Inactive)
REMARK    1  A    between atoms: C_2  and  C_24
REMARK    2  A    between atoms: C_11  and  C_12
REMARK    3  A    between atoms: C_16  and  O_20
REMARK    4  A    between atoms: C_17  and  O_22
REMARK    5  A    between atoms: C_24  and  C_26
REMARK    6  A    between atoms: C_26  and  C_27
REMARK    7  A    between atoms: C_27  and  C_28
REMARK    8  A    between atoms: C_28  and  C_29
REMARK    9  A    between atoms: C_29  and  C_30
REMARK   10  A    between atoms: C_30  and  O_33
REMARK                            x       y       z     vdW  Elec       q    Type
REMARK                         _______ _______ _______ _____ _____    ______ ____
ROOT
ATOM      1  C   UNL     1      -0.610   1.750  -0.266  0.00  0.00    +0.003 C 
ATOM      2  C   UNL     1      -1.929   0.980  -0.528  0.00  0.00    +0.000 C 
ATOM      3  C   UNL     1       0.300   0.566   0.144  0.00  0.00    +0.018 C 
ATOM      4  C   UNL     1      -1.479  -0.296  -1.270  0.00  0.00    +0.000 C 
ATOM      5  C   UNL     1       0.002  -0.503  -0.912  0.00  0.00    +0.004 C 
ATOM      6  C   UNL     1      -0.699   2.770   0.895  0.00  0.00    +0.001 C 
ATOM      7  C   UNL     1       1.713   1.010   0.418  0.00  0.00    -0.045 C 
ATOM      8  C   UNL     1      -0.119   2.479  -1.544  0.00  0.00    +0.000 C 
ATOM      9  C   UNL     1       0.512   2.728   1.847  0.00  0.00    +0.004 C 
ATOM     10  C   UNL     1       1.829   2.317   1.176  0.00  0.00    +0.022 C 
ATOM     11  C   UNL     1       2.806   0.327   0.046  0.00  0.00    -0.009 C 
ENDROOT
BRANCH  11  12
ATOM     12  C   UNL     1       4.149   0.768   0.331  0.00  0.00    -0.005 C 
ATOM     13  C   UNL     1       5.243   0.085  -0.040  0.00  0.00    -0.021 C 
ATOM     14  C   UNL     1       6.637   0.556   0.309  0.00  0.00    +0.055 C 
ATOM     15  C   UNL     1       5.178  -1.179  -0.773  0.00  0.00    +0.000 C 
ATOM     16  C   UNL     1       7.488  -0.549   0.945  0.00  0.00    +0.118 C 
ATOM     17  C   UNL     1       5.998  -2.292  -0.147  0.00  0.00    +0.135 C 
ATOM     18  C   UNL     1       7.438  -1.838   0.124  0.00  0.00    +0.063 C 
ATOM     19  C   UNL     1       4.475  -1.299  -1.912  0.00  0.00    -0.003 C 
BRANCH  16  20
ATOM     20  O   UNL     1       7.023  -0.820   2.266  0.00  0.00    -0.384 OA
ATOM     21  H   UNL     1       7.052  -0.006   2.792  0.00  0.00    +0.210 HD
ENDBRANCH  16  20
BRANCH  17  22
ATOM     22  O   UNL     1       6.063  -3.455  -0.969  0.00  0.00    -0.380 OA
ATOM     23  H   UNL     1       5.165  -3.768  -1.159  0.00  0.00    +0.211 HD
ENDBRANCH  17  22
ENDBRANCH  11  12
BRANCH   2  24
ATOM     24  C   UNL     1      -3.023   1.739  -1.265  0.00  0.00    +0.000 C 
ATOM     25  C   UNL     1      -3.369   3.017  -0.501  0.00  0.00    +0.000 C 
BRANCH  24  26
ATOM     26  C   UNL     1      -4.246   0.823  -1.464  0.00  0.00    +0.000 C 
BRANCH  26  27
ATOM     27  C   UNL     1      -4.925   0.324  -0.183  0.00  0.00    +0.000 C 
BRANCH  27  28
ATOM     28  C   UNL     1      -6.172  -0.527  -0.443  0.00  0.00    +0.002 C 
BRANCH  28  29
ATOM     29  C   UNL     1      -6.822  -0.964   0.873  0.00  0.00    +0.027 C 
BRANCH  29  30
ATOM     30  C   UNL     1      -8.050  -1.886   0.732  0.00  0.00    +0.088 C 
ATOM     31  C   UNL     1      -7.703  -3.213   0.055  0.00  0.00    +0.029 C 
ATOM     32  C   UNL     1      -9.212  -1.208   0.003  0.00  0.00    +0.029 C 
BRANCH  30  33
ATOM     33  O   UNL     1      -8.497  -2.208   2.056  0.00  0.00    -0.387 OA
ATOM     34  H   UNL     1      -7.779  -2.641   2.543  0.00  0.00    +0.210 HD
ENDBRANCH  30  33
ENDBRANCH  29  30
ENDBRANCH  28  29
ENDBRANCH  27  28
ENDBRANCH  26  27
ENDBRANCH  24  26
ENDBRANCH   2  24
TORSDOF 10
