REMARK  6 active torsions:
REMARK  status: ('A' for Active; 'I' for Inactive)
REMARK    1  A    between atoms: C_9  and  N_13 
REMARK       I    between atoms: N_13  and  C_14 
REMARK    2  A    between atoms: C_14  and  C_17 
REMARK    3  A    between atoms: C_17  and  N_18 
REMARK    4  A    between atoms: C_20  and  C_23 
REMARK    5  A    between atoms: C_23  and  C_25 
REMARK    6  A    between atoms: C_25  and  C_26 
ROOT
HETATM    1  N   UNK     0       0.056  -1.422  -2.551  0.00  0.00    -0.205 NA
HETATM    2  C   UNK     0      -0.357  -2.648  -2.114  0.00  0.00     0.281 C 
HETATM    3  O   UNK     0      -0.137  -3.608  -2.887  0.00  0.00    -0.268 OA
ENDROOT
BRANCH   1   4
HETATM    4  C   UNK     0      -0.084  -0.271  -1.886  0.00  0.00     0.146 C 
HETATM    5  C   UNK     0       1.018   0.388  -1.455  0.00  0.00     0.162 C 
HETATM    6  C   UNK     0       0.891   1.528  -0.644  0.00  0.00     0.217 C 
HETATM    7  N   UNK     0       2.233  -0.065  -1.763  0.00  0.00    -0.143 N 
HETATM    8  C   UNK     0      -0.391   1.888  -0.111  0.00  0.00     0.044 A 
HETATM    9  O   UNK     0       1.909   2.198  -0.342  0.00  0.00    -0.285 OA
HETATM   10  C   UNK     0      -0.545   2.869   0.901  0.00  0.00     0.003 A 
HETATM   11  C   UNK     0      -1.543   1.207  -0.597  0.00  0.00     0.044 A 
HETATM   12  C   UNK     0      -1.811   3.135   1.451  0.00  0.00     0.000 A 
HETATM   13  C   UNK     0      -2.942   2.442   0.987  0.00  0.00     0.000 A 
HETATM   14  C   UNK     0      -2.813   1.489  -0.039  0.00  0.00     0.003 A 
HETATM   15  C   UNK     0      -1.368   0.226  -1.615  0.00  0.00     0.215 C 
HETATM   16  O   UNK     0      -2.353  -0.212  -2.257  0.00  0.00    -0.285 OA
ENDBRANCH   1   4
BRANCH   2  17
HETATM   17  C   UNK     0      -1.008  -2.954  -0.813  0.00  0.00     0.219 C 
BRANCH  17  18
HETATM   18  N   UNK     0      -0.136  -3.686   0.049  0.00  0.00    -0.221 N 
HETATM   19  C   UNK     0       0.946  -3.209   0.688  0.00  0.00     0.114 A 
HETATM   20  C   UNK     0       1.482  -4.274   1.397  0.00  0.00     0.101 A 
HETATM   21  N   UNK     0       0.675  -5.320   1.154  0.00  0.00    -0.133 NA
HETATM   22  N   UNK     0      -0.274  -4.939   0.356  0.00  0.00    -0.064 NA
BRANCH  20  23
HETATM   23  C   UNK     0       2.715  -4.286   2.227  0.00  0.00     0.044 C 
HETATM   24  C   UNK     0       2.379  -4.697   3.687  0.00  0.00     0.006 C 
BRANCH  23  25
HETATM   25  C   UNK     0       3.817  -5.211   1.619  0.00  0.00     0.006 C 
BRANCH  25  26
HETATM   26  C   UNK     0       4.291  -4.764   0.207  0.00  0.00     0.000 C 
HETATM   27  C   UNK     0       5.314  -5.729  -0.429  0.00  0.00     0.000 C 
ENDBRANCH  25  26
ENDBRANCH  23  25
ENDBRANCH  20  23
ENDBRANCH  17  18
ENDBRANCH   2  17
TORSDOF 6
