REMARK  4 active torsions:
REMARK  status: ('A' for Active; 'I' for Inactive)
REMARK    1  A    between atoms: C_9  and  N_13 
REMARK       I    between atoms: N_13  and  C_14 
REMARK    2  A    between atoms: C_14  and  C_17 
REMARK    3  A    between atoms: C_17  and  N_18 
REMARK    4  A    between atoms: C_20  and  C_23 
ROOT
HETATM    1  C   UNK     0      -3.308   7.342  -4.320  0.00  0.00     0.003 A 
HETATM    2  C   UNK     0      -2.614   8.563  -4.299  0.00  0.00     0.000 A 
HETATM    3  C   UNK     0      -1.232   8.580  -4.054  0.00  0.00     0.000 A 
HETATM    4  C   UNK     0      -0.542   7.376  -3.830  0.00  0.00     0.003 A 
HETATM    5  C   UNK     0      -1.227   6.137  -3.834  0.00  0.00     0.044 A 
HETATM    6  C   UNK     0      -2.628   6.122  -4.087  0.00  0.00     0.044 A 
HETATM    7  C   UNK     0      -0.565   4.893  -3.585  0.00  0.00     0.217 C 
HETATM    8  C   UNK     0      -1.306   3.708  -3.460  0.00  0.00     0.162 C 
HETATM    9  C   UNK     0      -2.644   3.700  -3.667  0.00  0.00     0.146 C 
HETATM   10  C   UNK     0      -3.301   4.866  -4.091  0.00  0.00     0.215 C 
HETATM   11  O   UNK     0      -4.479   4.791  -4.519  0.00  0.00    -0.285 OA
HETATM   12  O   UNK     0       0.685   4.863  -3.473  0.00  0.00    -0.285 OA
HETATM   13  N   UNK     0      -0.675   2.591  -3.114  0.00  0.00    -0.143 N 
ENDROOT
BRANCH   9  14
HETATM   14  N   UNK     0      -3.342   2.569  -3.480  0.00  0.00    -0.205 NA
HETATM   15  C   UNK     0      -4.411   2.422  -2.638  0.00  0.00     0.281 C 
HETATM   16  O   UNK     0      -4.778   3.348  -1.874  0.00  0.00    -0.268 OA
BRANCH  15  17
HETATM   17  C   UNK     0      -5.156   1.147  -2.626  0.00  0.00     0.219 C 
BRANCH  17  18
HETATM   18  N   UNK     0      -4.305   0.057  -2.269  0.00  0.00    -0.221 N 
HETATM   19  C   UNK     0      -3.897  -0.266  -1.033  0.00  0.00     0.114 A 
HETATM   20  C   UNK     0      -3.067  -1.365  -1.180  0.00  0.00     0.101 A 
HETATM   21  N   UNK     0      -3.036  -1.647  -2.490  0.00  0.00    -0.133 NA
HETATM   22  N   UNK     0      -3.785  -0.786  -3.109  0.00  0.00    -0.064 NA
BRANCH  20  23
HETATM   23  C   UNK     0      -2.380  -2.115  -0.115  0.00  0.00     0.044 A 
HETATM   24  C   UNK     0      -0.851  -2.274  -0.206  0.00  0.00     0.006 A 
HETATM   25  C   UNK     0      -1.460  -1.326   0.832  0.00  0.00     0.006 A 
ENDBRANCH  20  23
ENDBRANCH  17  18
ENDBRANCH  15  17
ENDBRANCH   9  14
TORSDOF 4
