REMARK  5 active torsions:
REMARK  status: ('A' for Active; 'I' for Inactive)
REMARK    1  A    between atoms: C_9  and  N_13 
REMARK       I    between atoms: N_13  and  C_14 
REMARK    2  A    between atoms: C_14  and  C_17 
REMARK    3  A    between atoms: C_17  and  N_18 
REMARK    4  A    between atoms: C_20  and  C_23 
REMARK    5  A    between atoms: C_23  and  C_24 
ROOT
HETATM    1  C   UNK     0      -0.351  -2.043  -6.269  0.00  0.00     0.003 A 
HETATM    2  C   UNK     0       0.557  -1.388  -7.120  0.00  0.00     0.000 A 
HETATM    3  C   UNK     0       1.896  -1.222  -6.730  0.00  0.00     0.000 A 
HETATM    4  C   UNK     0       2.337  -1.726  -5.495  0.00  0.00     0.003 A 
HETATM    5  C   UNK     0       1.435  -2.387  -4.627  0.00  0.00     0.044 A 
HETATM    6  C   UNK     0       0.068  -2.526  -5.007  0.00  0.00     0.044 A 
HETATM    7  C   UNK     0       1.847  -2.904  -3.363  0.00  0.00     0.217 C 
HETATM    8  C   UNK     0       0.889  -3.327  -2.435  0.00  0.00     0.162 C 
HETATM    9  C   UNK     0      -0.421  -3.418  -2.773  0.00  0.00     0.146 C 
HETATM   10  C   UNK     0      -0.839  -3.131  -4.083  0.00  0.00     0.215 C 
HETATM   11  O   UNK     0      -2.017  -3.392  -4.430  0.00  0.00    -0.285 OA
HETATM   12  O   UNK     0       3.069  -2.969  -3.078  0.00  0.00    -0.285 OA
HETATM   13  N   UNK     0       1.298  -3.608  -1.203  0.00  0.00    -0.143 N 
ENDROOT
BRANCH   9  14
HETATM   14  N   UNK     0      -1.307  -3.793  -1.842  0.00  0.00    -0.205 NA
HETATM   15  C   UNK     0      -2.313  -3.032  -1.320  0.00  0.00     0.281 C 
HETATM   16  O   UNK     0      -3.003  -3.580  -0.430  0.00  0.00    -0.268 OA
BRANCH  15  17
HETATM   17  C   UNK     0      -2.632  -1.624  -1.670  0.00  0.00     0.219 C 
BRANCH  17  18
HETATM   18  N   UNK     0      -2.275  -0.731  -0.609  0.00  0.00    -0.221 N 
HETATM   19  C   UNK     0      -1.054  -0.234  -0.341  0.00  0.00     0.114 A 
HETATM   20  C   UNK     0      -1.210   0.608   0.752  0.00  0.00     0.102 A 
HETATM   21  N   UNK     0      -2.508   0.545   1.088  0.00  0.00    -0.133 NA
HETATM   22  N   UNK     0      -3.111  -0.251   0.260  0.00  0.00    -0.064 NA
BRANCH  20  23
HETATM   23  C   UNK     0      -0.185   1.434   1.432  0.00  0.00     0.062 C 
BRANCH  23  24
HETATM   24  C   UNK     0      -0.423   2.956   1.432  0.00  0.00     0.074 C 
HETATM   25 Br   UNK     0      -1.859   3.511   1.432  0.00  0.00    -0.081 Br
ENDBRANCH  23  24
ENDBRANCH  20  23
ENDBRANCH  17  18
ENDBRANCH  15  17
ENDBRANCH   9  14
TORSDOF 5
