REMARK  3 active torsions:
REMARK  status: ('A' for Active; 'I' for Inactive)
REMARK    1  A    between atoms: C_9  and  N_13 
REMARK       I    between atoms: N_13  and  C_14 
REMARK    2  A    between atoms: C_14  and  C_17 
REMARK    3  A    between atoms: C_17  and  N_18 
ROOT
HETATM    1  N   UNK     0      -3.684   3.396  -1.281  0.00  0.00    -0.205 NA
HETATM    2  C   UNK     0      -4.550   3.112  -2.298  0.00  0.00     0.281 C 
HETATM    3  O   UNK     0      -4.546   1.999  -2.878  0.00  0.00    -0.268 OA
ENDROOT
BRANCH   1   4
HETATM    4  C   UNK     0      -2.779   2.555  -0.752  0.00  0.00     0.146 A 
HETATM    5  C   UNK     0      -1.484   2.949  -0.665  0.00  0.00     0.162 A 
HETATM    6  C   UNK     0      -0.499   2.103  -0.136  0.00  0.00     0.217 A 
HETATM    7  N   UNK     0      -1.113   4.148  -1.098  0.00  0.00    -0.143 N 
HETATM    8  C   UNK     0      -0.827   0.769   0.248  0.00  0.00     0.044 A 
HETATM    9  O   UNK     0       0.677   2.522  -0.001  0.00  0.00    -0.285 OA
HETATM   10  C   UNK     0       0.162  -0.153   0.672  0.00  0.00     0.003 A 
HETATM   11  C   UNK     0      -2.188   0.358   0.197  0.00  0.00     0.044 A 
HETATM   12  C   UNK     0      -0.193  -1.459   1.050  0.00  0.00     0.000 A 
HETATM   13  C   UNK     0      -1.538  -1.858   1.021  0.00  0.00     0.000 A 
HETATM   14  C   UNK     0      -2.531  -0.956   0.602  0.00  0.00     0.003 A 
HETATM   15  C   UNK     0      -3.167   1.292  -0.265  0.00  0.00     0.215 A 
HETATM   16  O   UNK     0      -4.385   0.994  -0.204  0.00  0.00    -0.285 OA
ENDBRANCH   1   4
BRANCH   2  17
HETATM   17  C   UNK     0      -5.531   4.127  -2.731  0.00  0.00     0.219 C 
BRANCH  17  18
HETATM   18  N   UNK     0      -4.949   5.354  -3.185  0.00  0.00    -0.221 N 
HETATM   19  C   UNK     0      -4.110   5.528  -4.221  0.00  0.00     0.118 A 
HETATM   20  C   UNK     0      -3.934   6.900  -4.356  0.00  0.00     0.123 A 
HETATM   21  N   UNK     0      -4.644   7.459  -3.362  0.00  0.00    -0.129 NA
HETATM   22  C   UNK     0      -3.204   7.602  -5.346  0.00  0.00     0.021 A 
HETATM   23  N   UNK     0      -5.226   6.520  -2.686  0.00  0.00    -0.063 NA
HETATM   24  C   UNK     0      -3.666   8.856  -5.817  0.00  0.00     0.002 A 
HETATM   25  C   UNK     0      -2.010   7.073  -5.893  0.00  0.00     0.002 A 
HETATM   26  C   UNK     0      -2.958   9.558  -6.811  0.00  0.00     0.000 A 
HETATM   27  C   UNK     0      -1.769   9.024  -7.337  0.00  0.00     0.000 A 
HETATM   28  C   UNK     0      -1.296   7.781  -6.878  0.00  0.00     0.000 A 
ENDBRANCH  17  18
ENDBRANCH   2  17
TORSDOF 3
