1000980
  -OEChem-03292013313D

 51 54  0     1  0  0  0  0  0999 V2000
   -1.8737   -1.2780    4.0698 Cl  0  0  0  0  0  0  0  0  0  0  0  0
   -3.1717   -0.0415   -1.5781 S   0  0  0  0  0  0  0  0  0  0  0  0
   -3.9629   -1.2253   -1.2952 O   0  0  0  0  0  0  0  0  0  0  0  0
   -3.1234    0.4724   -2.9347 O   0  0  0  0  0  0  0  0  0  0  0  0
   -0.8639   -2.9663   -1.4646 O   0  0  0  0  0  0  0  0  0  0  0  0
    5.9129   -0.7999   -0.7267 O   0  0  0  0  0  0  0  0  0  0  0  0
    7.0177    0.9136    0.5583 O   0  0  0  0  0  0  0  0  0  0  0  0
    1.1218   -0.5865   -1.4835 O   0  0  0  0  0  0  0  0  0  0  0  0
   -1.5624   -0.2777   -0.9607 N   0  0  1  0  0  0  0  0  0  0  0  0
    1.5851    1.3264   -0.1945 N   0  0  0  0  0  0  0  0  0  0  0  0
   -0.6746    0.8930   -0.8888 C   0  0  0  0  0  0  0  0  0  0  0  0
   -1.4460   -1.2558    0.1126 C   0  0  0  0  0  0  0  0  0  0  0  0
   -3.8032    1.2599   -0.5534 C   0  0  0  0  0  0  0  0  0  0  0  0
    0.7653    0.4363   -0.9076 C   0  0  0  0  0  0  0  0  0  0  0  0
   -1.0997   -2.5596   -0.1854 C   0  0  0  0  0  0  0  0  0  0  0  0
   -1.6880   -0.8413    1.4084 C   0  0  0  0  0  0  0  0  0  0  0  0
    2.9629    1.2515    0.0155 C   0  0  0  0  0  0  0  0  0  0  0  0
   -3.6219    2.5717   -0.9476 C   0  0  0  0  0  0  0  0  0  0  0  0
   -4.4622    0.9327    0.6161 C   0  0  0  0  0  0  0  0  0  0  0  0
   -0.9908   -3.4849    0.8528 C   0  0  0  0  0  0  0  0  0  0  0  0
    5.0485    0.1552   -0.2876 C   0  0  0  0  0  0  0  0  0  0  0  0
    3.6890    0.1857   -0.5213 C   0  0  0  0  0  0  0  0  0  0  0  0
   -1.5792   -1.7669    2.4464 C   0  0  0  0  0  0  0  0  0  0  0  0
    5.6794    1.1335    0.4463 C   0  0  0  0  0  0  0  0  0  0  0  0
    3.6074    2.2511    0.7654 C   0  0  0  0  0  0  0  0  0  0  0  0
   -1.2304   -3.0886    2.1686 C   0  0  0  0  0  0  0  0  0  0  0  0
    4.9855    2.1964    0.9871 C   0  0  0  0  0  0  0  0  0  0  0  0
   -4.1191    3.5958   -0.1413 C   0  0  0  0  0  0  0  0  0  0  0  0
   -4.9593    1.9568    1.4223 C   0  0  0  0  0  0  0  0  0  0  0  0
   -4.7881    3.2885    1.0435 C   0  0  0  0  0  0  0  0  0  0  0  0
    7.1588   -0.3126   -0.1876 C   0  0  0  0  0  0  0  0  0  0  0  0
   -0.5136   -4.3355   -1.6546 C   0  0  0  0  0  0  0  0  0  0  0  0
   -0.8082    1.5228   -1.7752 H   0  0  0  0  0  0  0  0  0  0  0  0
   -0.8876    1.4960   -0.0009 H   0  0  0  0  0  0  0  0  0  0  0  0
   -1.9401    0.1894    1.6362 H   0  0  0  0  0  0  0  0  0  0  0  0
    1.1321    2.1362    0.2234 H   0  0  0  0  0  0  0  0  0  0  0  0
   -3.1004    2.8312   -1.8634 H   0  0  0  0  0  0  0  0  0  0  0  0
   -4.6098   -0.0963    0.9279 H   0  0  0  0  0  0  0  0  0  0  0  0
   -0.7250   -4.5272    0.7143 H   0  0  0  0  0  0  0  0  0  0  0  0
    3.2705   -0.6191   -1.1058 H   0  0  0  0  0  0  0  0  0  0  0  0
    3.0390    3.0796    1.1819 H   0  0  0  0  0  0  0  0  0  0  0  0
   -1.1420   -3.8196    2.9683 H   0  0  0  0  0  0  0  0  0  0  0  0
    5.4862    2.9648    1.5650 H   0  0  0  0  0  0  0  0  0  0  0  0
   -3.9843    4.6326   -0.4354 H   0  0  0  0  0  0  0  0  0  0  0  0
   -5.4801    1.7174    2.3449 H   0  0  0  0  0  0  0  0  0  0  0  0
   -5.1750    4.0858    1.6714 H   0  0  0  0  0  0  0  0  0  0  0  0
    7.5787   -1.0793    0.4736 H   0  0  0  0  0  0  0  0  0  0  0  0
    7.8564   -0.1414   -1.0155 H   0  0  0  0  0  0  0  0  0  0  0  0
   -1.3264   -5.0060   -1.3551 H   0  0  0  0  0  0  0  0  0  0  0  0
   -0.3616   -4.4822   -2.7291 H   0  0  0  0  0  0  0  0  0  0  0  0
    0.4343   -4.5819   -1.1642 H   0  0  0  0  0  0  0  0  0  0  0  0
  1 23  1  0  0  0  0
  2  3  2  0  0  0  0
  2  4  2  0  0  0  0
  2  9  1  0  0  0  0
  2 13  1  0  0  0  0
  5 15  1  0  0  0  0
  5 32  1  0  0  0  0
  6 21  1  0  0  0  0
  6 31  1  0  0  0  0
  7 24  1  0  0  0  0
  7 31  1  0  0  0  0
  8 14  2  0  0  0  0
  9 11  1  0  0  0  0
  9 12  1  0  0  0  0
 10 14  1  0  0  0  0
 10 17  1  0  0  0  0
 10 36  1  0  0  0  0
 11 14  1  0  0  0  0
 11 33  1  0  0  0  0
 11 34  1  0  0  0  0
 12 15  2  0  0  0  0
 12 16  1  0  0  0  0
 13 18  2  0  0  0  0
 13 19  1  0  0  0  0
 15 20  1  0  0  0  0
 16 23  2  0  0  0  0
 16 35  1  0  0  0  0
 17 22  2  0  0  0  0
 17 25  1  0  0  0  0
 18 28  1  0  0  0  0
 18 37  1  0  0  0  0
 19 29  2  0  0  0  0
 19 38  1  0  0  0  0
 20 26  2  0  0  0  0
 20 39  1  0  0  0  0
 21 22  1  0  0  0  0
 21 24  2  0  0  0  0
 22 40  1  0  0  0  0
 23 26  1  0  0  0  0
 24 27  1  0  0  0  0
 25 27  2  0  0  0  0
 25 41  1  0  0  0  0
 26 42  1  0  0  0  0
 27 43  1  0  0  0  0
 28 30  2  0  0  0  0
 28 44  1  0  0  0  0
 29 30  1  0  0  0  0
 29 45  1  0  0  0  0
 30 46  1  0  0  0  0
 31 47  1  0  0  0  0
 31 48  1  0  0  0  0
 32 49  1  0  0  0  0
 32 50  1  0  0  0  0
 32 51  1  0  0  0  0
M  END
> <PUBCHEM_COMPOUND_CID>
1000980

> <PUBCHEM_CONFORMER_RMSD>
1

> <PUBCHEM_CONFORMER_DIVERSEORDER>
7
55
22
87
76
30
34
98
35
21
14
93
66
70
88
86
51
28
4
59
36
29
82
96
38
19
89
16
26
37
77
75
61
20
73
40
95
84
48
79
43
57
72
49
44
92
41
27
90
12
74
60
81
17
5
24
11
58
65
15
23
83
78
85
50
2
33
53
9
47
91
69
67
64
8
32
31
97
52
63
45
71
62
56
94
10
13
25
1
46
80
18
68
6
39
42
3
54

> <PUBCHEM_MMFF94_PARTIAL_CHARGES>
44
1 -0.18
10 -0.55
11 0.42
12 0.2
13 -0.01
14 0.57
15 0.08
16 -0.15
17 0.12
18 -0.15
19 -0.15
2 1.45
20 -0.15
21 0.08
22 -0.15
23 0.18
24 0.08
25 -0.15
26 -0.15
27 -0.15
28 -0.15
29 -0.15
3 -0.65
30 -0.15
31 0.56
32 0.28
35 0.15
36 0.37
37 0.15
38 0.15
39 0.15
4 -0.65
40 0.15
41 0.15
42 0.15
43 0.15
44 0.15
45 0.15
46 0.15
5 -0.36
6 -0.36
7 -0.36
8 -0.57
9 -0.69

> <PUBCHEM_EFFECTIVE_ROTOR_COUNT>
8.6

> <PUBCHEM_PHARMACOPHORE_FEATURES>
11
1 10 donor
1 3 acceptor
1 4 acceptor
1 5 acceptor
1 6 acceptor
1 7 acceptor
1 8 acceptor
5 6 7 21 24 31 rings
6 12 15 16 20 23 26 rings
6 13 18 19 28 29 30 rings
6 17 21 22 24 25 27 rings

> <PUBCHEM_HEAVY_ATOM_COUNT>
32

> <PUBCHEM_ATOM_DEF_STEREO_COUNT>
0

> <PUBCHEM_ATOM_UDEF_STEREO_COUNT>
0

> <PUBCHEM_BOND_DEF_STEREO_COUNT>
0

> <PUBCHEM_BOND_UDEF_STEREO_COUNT>
0

> <PUBCHEM_ISOTOPIC_ATOM_COUNT>
0

> <PUBCHEM_COMPONENT_COUNT>
1

> <PUBCHEM_CACTVS_TAUTO_COUNT>
2

> <PUBCHEM_CONFORMER_ID>
000F461400000007

> <PUBCHEM_MMFF94_ENERGY>
100.8139

> <PUBCHEM_FEATURE_SELFOVERLAP>
56

> <PUBCHEM_SHAPE_FINGERPRINT>
10119406 146 18188777124575634410
10165383 225 16486977276863633365
11115154 58 17691385826902379151
11370993 144 18410577314468614776
11405975 8 18260826055648623968
11445158 3 12974186098052763954
13135754 10 17168722945019080402
133893 2 17609182708271633039
13583140 156 17629476660642013232
14020679 6 18040722467609182408
14713325 29 18340769334117035631
14856354 85 16878234133861875938
15183329 4 18337943524756030636
15361156 5 18115027528334711588
15444296 121 18041294213766895772
21033648 29 18201430385623278912
244849 19 18126033518794775983
3380486 145 17764312034582157271
3383291 50 18188205532531049899
3411729 13 17975133146054069693
4015057 19 18199453540925851636
4073 2 18335136545064856072
4408954 64 16230595495385461611
484985 159 15936967577998473043
5104073 3 18115017645652250544
57527452 28 15575001719490709113
58260988 114 16081659987950542377
59755656 520 18334574624832771977
7226269 152 18130787815605393072
7288768 16 18114749226980142921
9981440 41 18341619200401044395

> <PUBCHEM_SHAPE_MULTIPOLES>
619.09
13.66
4.42
2.5
26.18
2.54
-1.63
-11.57
-1.27
-4.79
-0.38
-2.96
1.85
1.02

> <PUBCHEM_SHAPE_SELFOVERLAP>
1329.663

> <PUBCHEM_SHAPE_VOLUME>
343.9

> <PUBCHEM_COORDINATE_TYPE>
2
5
10

$$$$
