REMARK  Name = 100092
REMARK  5 active torsions:
REMARK  status: ('A' for Active; 'I' for Inactive)
REMARK    1  A    between atoms: C_2  and  C_18
REMARK    2  A    between atoms: C_3  and  O_16
REMARK    3  A    between atoms: C_5  and  N_8
REMARK    4  A    between atoms: C_18  and  N_20
REMARK    5  A    between atoms: C_21  and  C_24
REMARK                            x       y       z     vdW  Elec       q    Type
REMARK                         _______ _______ _______ _____ _____    ______ ____
ROOT
ATOM      1  O   UNL     1       0.659   0.787   0.579  0.00  0.00    -0.335 OA
ATOM      2  C   UNL     1       1.670   1.160  -0.376  0.00  0.00    +0.163 C 
ATOM      3  C   UNL     1       1.207   2.480  -0.979  0.00  0.00    +0.143 C 
ATOM      4  C   UNL     1      -0.292   2.284  -1.011  0.00  0.00    +0.083 C 
ATOM      5  C   UNL     1      -0.542   1.515   0.278  0.00  0.00    +0.202 C 
ENDROOT
BRANCH   5   8
ATOM      6  O   UNL     1      -3.233   2.091   1.019  0.00  0.00    -0.252 OA
ATOM      7  O   UNL     1      -4.644  -2.123  -0.165  0.00  0.00    -0.270 OA
ATOM      8  N   UNL     1      -1.643   0.601   0.181  0.00  0.00    -0.219 N 
ATOM      9  N   UNL     1      -3.923  -0.015   0.425  0.00  0.00    -0.236 N 
ATOM     10  C   UNL     1      -1.405  -0.679  -0.311  0.00  0.00    +0.071 C 
ATOM     11  C   UNL     1      -2.947   0.977   0.574  0.00  0.00    +0.315 C 
ATOM     12  C   UNL     1      -2.341  -1.625  -0.452  0.00  0.00    +0.047 C 
ATOM     13  C   UNL     1      -3.739  -1.301  -0.059  0.00  0.00    +0.250 C 
ATOM     14  C   UNL     1      -2.061  -2.994  -0.984  0.00  0.00    +0.037 C 
ATOM     15  H   UNL     1      -4.839   0.227   0.694  0.00  0.00    +0.159 HD
ENDBRANCH   5   8
BRANCH   3  16
ATOM     16  O   UNL     1       1.503   3.584  -0.133  0.00  0.00    -0.382 OA
ATOM     17  H   UNL     1       2.463   3.721  -0.103  0.00  0.00    +0.210 HD
ENDBRANCH   3  16
BRANCH   2  18
ATOM     18  C   UNL     1       3.022   1.186   0.312  0.00  0.00    +0.122 C 
BRANCH  18  20
ATOM     19  O   UNL     1       4.434  -0.912  -1.072  0.00  0.00    -0.274 OA
ATOM     20  N   UNL     1       3.344  -0.123   0.823  0.00  0.00    -0.301 N 
ATOM     21  C   UNL     1       4.030  -1.071   0.079  0.00  0.00    +0.234 C 
ATOM     22  H   UNL     1       3.065  -0.354   1.738  0.00  0.00    +0.150 HD
BRANCH  21  24
ATOM     23 BR   UNL     1       2.671  -3.458   0.453  0.00  0.00    -0.070 Br
ATOM     24  C   UNL     1       4.230  -2.366   0.819  0.00  0.00    +0.152 C 
ENDBRANCH  21  24
ENDBRANCH  18  20
ENDBRANCH   2  18
TORSDOF 5
