REMARK  Name = 100022
REMARK  7 active torsions:
REMARK  status: ('A' for Active; 'I' for Inactive)
REMARK    1  A    between atoms: N_1  and  C1*_20
REMARK    2  A    between atoms: C_9  and  C_10
REMARK    3  A    between atoms: C_15  and  O_16
REMARK    4  A    between atoms: C2*_19  and  O2*_23
REMARK    5  A    between atoms: C3*_21  and  O3*_25
REMARK    6  A    between atoms: C4*_22  and  C5*_27
REMARK    7  A    between atoms: C5*_27  and  O5*_28
REMARK                            x       y       z     vdW  Elec       q    Type
REMARK                         _______ _______ _______ _____ _____    ______ ____
ROOT
ATOM      1  N   UNL     1      -2.493   1.129  -0.250  0.00  0.00    -0.236 N 
ATOM      2  N   UNL     1      -2.339   3.351  -0.126  0.00  0.00    -0.240 NA
ATOM      3  N   UNL     1      -0.136   0.546  -0.196  0.00  0.00    -0.323 NA
ATOM      4  N   UNL     1       1.268   2.536  -0.040  0.00  0.00    -0.323 NA
ATOM      5  C   UNL     1      -1.158   1.414  -0.187  0.00  0.00    +0.220 C 
ATOM      6  C   UNL     1      -3.161   2.326  -0.211  0.00  0.00    +0.224 C 
ATOM      7  C   UNL     1      -1.084   2.796  -0.110  0.00  0.00    +0.167 C 
ATOM      8  C   UNL     1       0.188   3.354  -0.035  0.00  0.00    +0.211 C 
ATOM      9  C   UNL     1       1.042   1.203  -0.119  0.00  0.00    +0.141 C 
ATOM     10  N   UNL     1       0.357   4.747   0.046  0.00  0.00    -0.331 N 
ATOM     11  H   UNL     1       1.262   5.131   0.099  0.00  0.00    +0.145 HD
ATOM     12  H   UNL     1      -0.430   5.339   0.049  0.00  0.00    +0.145 HD
ENDROOT
BRANCH   9  13
ATOM     13  C   UNL     1       2.221   0.372  -0.122  0.00  0.00    +0.086 C 
ATOM     14  C   UNL     1       2.215  -0.854  -0.792  0.00  0.00    +0.015 C 
ATOM     15  C   UNL     1       3.375   0.788   0.548  0.00  0.00    +0.015 C 
ATOM     16  C   UNL     1       3.355  -1.657  -0.794  0.00  0.00    +0.038 C 
ATOM     17  C   UNL     1       4.514  -0.015   0.547  0.00  0.00    +0.038 C 
ATOM     18  C   UNL     1       4.505  -1.238  -0.124  0.00  0.00    +0.139 C 
BRANCH  18  19
ATOM     19  O   UNL     1       5.617  -2.023  -0.124  0.00  0.00    -0.471 OA
ATOM     20  C   UNL     1       6.757  -1.534   0.580  0.00  0.00    +0.252 C 
ENDBRANCH  18  19
ENDBRANCH   9  13
BRANCH   1  23
ATOM     21  O4* UNL     1      -2.257  -1.061  -1.119  0.00  0.00    -0.333 OA
ATOM     22  C2* UNL     1      -3.341  -0.856   1.016  0.00  0.00    +0.187 C 
ATOM     23  C1* UNL     1      -3.106  -0.198  -0.343  0.00  0.00    +0.226 C 
ATOM     24  C3* UNL     1      -2.369  -2.019   1.041  0.00  0.00    +0.171 C 
ATOM     25  C4* UNL     1      -2.103  -2.312  -0.429  0.00  0.00    +0.175 C 
BRANCH  22  26
ATOM     26  O2* UNL     1      -4.680  -1.340   1.058  0.00  0.00    -0.378 OA
ATOM     27  H2* UNL     1      -5.296  -0.591   1.042  0.00  0.00    +0.211 HD
ENDBRANCH  22  26
BRANCH  24  28
ATOM     28  O3* UNL     1      -1.146  -1.595   1.639  0.00  0.00    -0.379 OA
ATOM     29  H3* UNL     1      -1.295  -1.402   2.578  0.00  0.00    +0.211 HD
ENDBRANCH  24  28
BRANCH  25  30
ATOM     30  C5* UNL     1      -3.077  -3.318  -1.030  0.00  0.00    +0.169 C 
BRANCH  30  31
ATOM     31  O5* UNL     1      -2.965  -4.543  -0.324  0.00  0.00    -0.379 OA
ATOM     32  H5* UNL     1      -3.582  -5.190  -0.700  0.00  0.00    +0.211 HD
ENDBRANCH  30  31
ENDBRANCH  25  30
ENDBRANCH   1  23
TORSDOF 7
