REMARK  Name = 100083
REMARK  10 active torsions:
REMARK  status: ('A' for Active; 'I' for Inactive)
REMARK    1  A    between atoms: CA_1  and  C_4
REMARK    2  A    between atoms: CA_1  and  N_12
REMARK    3  A    between atoms: CA_1  and  CB_20
REMARK    4  A    between atoms: N_3  and  CA_6
REMARK    5  A    between atoms: CA_6  and  C_8
REMARK    6  A    between atoms: C_8  and  O_9
REMARK    7  A    between atoms: C_13  and  CA_15
REMARK    8  A    between atoms: CA_15  and  N_16
REMARK    9  A    between atoms: CB_20  and  CG_21
REMARK   10  A    between atoms: CZ_26  and  OH_27
REMARK                            x       y       z     vdW  Elec       q    Type
REMARK                         _______ _______ _______ _____ _____    ______ ____
ROOT
ATOM      1  CA  TYR A   2      -0.238  -0.100   0.465  0.00  0.00    +0.153 C 
ENDROOT
BRANCH   1   4
ATOM      2  O   TYR A   2      -2.249  -0.071   1.818  0.00  0.00    -0.273 OA
ATOM      3  N   GLY A   3      -2.113  -1.563   0.044  0.00  0.00    -0.294 N 
ATOM      4  C   TYR A   2      -1.629  -0.566   0.879  0.00  0.00    +0.241 C 
ATOM      5  H   GLY A   3      -1.531  -1.889  -0.681  0.00  0.00    +0.150 HD
BRANCH   3   6
ATOM      6  CA  GLY A   3      -3.427  -2.148   0.184  0.00  0.00    +0.200 C 
BRANCH   6   8
ATOM      7  OXT GLY A   3      -5.660  -1.750  -0.621  0.00  0.00    -0.248 OA
ATOM      8  C   GLY A   3      -4.481  -1.420  -0.611  0.00  0.00    +0.334 C 
BRANCH   8   9
ATOM      9  O   GLY A   3      -3.998  -0.368  -1.313  0.00  0.00    -0.479 OA
ATOM     10  H   GLY A   3      -3.087  -0.156  -1.272  0.00  0.00    +0.295 HD
ENDBRANCH   8   9
ENDBRANCH   6   8
ENDBRANCH   3   6
ENDBRANCH   1   4
BRANCH   1  12
ATOM     11  O   GLY A   1      -1.051   1.993  -1.359  0.00  0.00    -0.277 OA
ATOM     12  N   TYR A   2      -0.181   1.323   0.688  0.00  0.00    -0.300 N 
ATOM     13  C   GLY A   1      -0.596   2.261  -0.250  0.00  0.00    +0.201 C 
ATOM     14  H   TYR A   2       0.170   1.647   1.549  0.00  0.00    +0.150 HD
BRANCH  13  15
ATOM     15  CA  GLY A   1      -0.393   3.681   0.238  0.00  0.00    +0.001 C 
BRANCH  15  16
ATOM     16  N   GLY A   1      -1.392   4.537  -0.384  0.00  0.00    +0.386 N 
ATOM     17  H1  GLY A   1      -1.266   5.497  -0.063  0.00  0.00    -0.089 HD
ATOM     18  H2  GLY A   1      -2.325   4.213  -0.128  0.00  0.00    -0.089 HD
ATOM     19  H3  GLY A   1      -1.286   4.502  -1.398  0.00  0.00    -0.089 HD
ENDBRANCH  15  16
ENDBRANCH  13  15
ENDBRANCH   1  12
BRANCH   1  20
ATOM     20  CB  TYR A   2       0.835  -0.853   1.260  0.00  0.00    +0.055 C 
BRANCH  20  21
ATOM     21  CG  TYR A   2       2.196  -0.786   0.612  0.00  0.00    -0.020 C 
ATOM     22  CD1 TYR A   2       2.563  -1.763  -0.300  0.00  0.00    -0.001 C 
ATOM     23  CD2 TYR A   2       3.055   0.250   0.942  0.00  0.00    -0.001 C 
ATOM     24  CE1 TYR A   2       3.822  -1.702  -0.898  0.00  0.00    +0.036 C 
ATOM     25  CE2 TYR A   2       4.314   0.311   0.343  0.00  0.00    +0.036 C 
ATOM     26  CZ  TYR A   2       4.697  -0.664  -0.577  0.00  0.00    +0.134 C 
BRANCH  26  27
ATOM     27  OH  TYR A   2       5.925  -0.605  -1.162  0.00  0.00    -0.506 OA
ATOM     28  HH  TYR A   2       6.181  -1.260  -1.780  0.00  0.00    +0.292 HD
ENDBRANCH  26  27
ENDBRANCH  20  21
ENDBRANCH   1  20
TORSDOF 10
