REMARK  Name = 100084
REMARK  9 active torsions:
REMARK  status: ('A' for Active; 'I' for Inactive)
REMARK    1  A    between atoms: N_2  and  CA_18
REMARK    2  A    between atoms: C_3  and  CA_5
REMARK    3  A    between atoms: CA_5  and  N_8
REMARK    4  A    between atoms: C_9  and  CA_11
REMARK    5  A    between atoms: CA_11  and  N_14
REMARK    6  A    between atoms: CA_18  and  C_22
REMARK    7  A    between atoms: N_21  and  CA_24
REMARK    8  A    between atoms: CA_24  and  C_27
REMARK    9  A    between atoms: C_27  and  O_28
REMARK                            x       y       z     vdW  Elec       q    Type
REMARK                         _______ _______ _______ _____ _____    ______ ____
ROOT
ATOM      1  O   ALA A   1      -0.233  -0.251   1.014  0.00  0.00    -0.273 OA
ATOM      2  N   ALA A   1      -0.945   1.212  -0.641  0.00  0.00    -0.297 N 
ATOM      3  C   ALA A   1      -0.027   0.374  -0.025  0.00  0.00    +0.241 C 
ATOM      4  H   ALA A   1      -0.683   1.669  -1.473  0.00  0.00    +0.150 HD
ENDROOT
BRANCH   3   5
ATOM      5  CA  ALA A   1       1.273   0.271  -0.812  0.00  0.00    +0.149 C 
ATOM      6  CB  ALA A   1       1.212  -0.869  -1.816  0.00  0.00    +0.031 C 
BRANCH   5   8
ATOM      7  O   ALA A   1       3.978   1.212  -1.080  0.00  0.00    -0.273 OA
ATOM      8  N   ALA A   1       2.351   0.083   0.131  0.00  0.00    -0.297 N 
ATOM      9  C   ALA A   1       3.630   0.577  -0.086  0.00  0.00    +0.241 C 
ATOM     10  H   ALA A   1       2.172  -0.415   0.961  0.00  0.00    +0.150 HD
BRANCH   9  11
ATOM     11  CA  ALA A   1       4.563   0.283   1.081  0.00  0.00    +0.149 C 
ATOM     12  CB  ALA A   1       4.523   1.406   2.105  0.00  0.00    +0.031 C 
BRANCH  11  14
ATOM     13  O   UNK A   0       5.753  -2.179   0.105  0.00  0.00    -0.275 OA
ATOM     14  N   ALA A   1       5.891   0.102   0.554  0.00  0.00    -0.298 N 
ATOM     15  C   UNK A   0       6.375  -1.120   0.109  0.00  0.00    +0.223 C 
ATOM     16  C   UNK A   0       7.783  -1.024  -0.414  0.00  0.00    +0.095 C 
ATOM     17  H   ALA A   1       6.485   0.885   0.508  0.00  0.00    +0.150 HD
ENDBRANCH  11  14
ENDBRANCH   9  11
ENDBRANCH   5   8
ENDBRANCH   3   5
BRANCH   2  18
ATOM     18  CA  ALA A   1      -2.269   1.441  -0.112  0.00  0.00    +0.149 C 
ATOM     19  CB  ALA A   1      -2.777   2.828  -0.473  0.00  0.00    +0.031 C 
BRANCH  18  22
ATOM     20  O   ALA A   1      -3.063  -0.114  -1.793  0.00  0.00    -0.273 OA
ATOM     21  N   ALA A   2      -4.197   0.025   0.227  0.00  0.00    -0.295 N 
ATOM     22  C   ALA A   1      -3.191   0.362  -0.667  0.00  0.00    +0.241 C 
ATOM     23  H   ALA A   2      -4.212   0.464   1.108  0.00  0.00    +0.150 HD
BRANCH  21  24
ATOM     24  CA  ALA A   2      -5.222  -0.944  -0.083  0.00  0.00    +0.171 C 
ATOM     25  CB  ALA A   2      -4.780  -2.341   0.327  0.00  0.00    +0.033 C 
BRANCH  24  27
ATOM     26  OXT ALA A   2      -7.573  -1.238   0.397  0.00  0.00    -0.248 OA
ATOM     27  C   ALA A   2      -6.546  -0.593   0.577  0.00  0.00    +0.332 C 
BRANCH  27  28
ATOM     28  O   ALA A   2      -6.508   0.500   1.376  0.00  0.00    -0.479 OA
ATOM     29  H   ALA A   2      -5.705   0.969   1.490  0.00  0.00    +0.295 HD
ENDBRANCH  27  28
ENDBRANCH  24  27
ENDBRANCH  21  24
ENDBRANCH  18  22
ENDBRANCH   2  18
TORSDOF 9
