REMARK  Name = 100097
REMARK  9 active torsions:
REMARK  status: ('A' for Active; 'I' for Inactive)
REMARK    1  A    between atoms: N_2  and  CA_5
REMARK    2  A    between atoms: C_3  and  CA_18
REMARK    3  A    between atoms: CA_5  and  C_7
REMARK    4  A    between atoms: CA_5  and  CB_10
REMARK    5  A    between atoms: C_7  and  O_8
REMARK    6  A    between atoms: CB_10  and  CG_13
REMARK    7  A    between atoms: CA_18  and  N_20
REMARK    8  A    between atoms: C_21  and  CA_23
REMARK    9  A    between atoms: CA_23  and  N_24
REMARK                            x       y       z     vdW  Elec       q    Type
REMARK                         _______ _______ _______ _____ _____    ______ ____
ROOT
ATOM      1  O   GLY A   2       0.116  -1.407  -1.526  0.00  0.00    -0.273 OA
ATOM      2  N   HIS A   3      -1.097  -0.999   0.411  0.00  0.00    -0.295 N 
ATOM      3  C   GLY A   2       0.004  -1.448  -0.303  0.00  0.00    +0.243 C 
ATOM      4  H   HIS A   3      -1.083  -1.079   1.392  0.00  0.00    +0.150 HD
ENDROOT
BRANCH   2   5
ATOM      5  CA  HIS A   3      -2.264  -0.418  -0.213  0.00  0.00    +0.177 C 
BRANCH   5   7
ATOM      6  OXT HIS A   3      -4.588  -1.034  -0.482  0.00  0.00    -0.248 OA
ATOM      7  C   HIS A   3      -3.497  -1.280   0.020  0.00  0.00    +0.332 C 
BRANCH   7   8
ATOM      8  O   HIS A   3      -3.300  -2.344   0.834  0.00  0.00    -0.479 OA
ATOM      9  H   HIS A   3      -2.453  -2.504   1.201  0.00  0.00    +0.295 HD
ENDBRANCH   7   8
ENDBRANCH   5   7
BRANCH   5  10
ATOM     10  CB  HIS A   3      -2.517   1.007   0.298  0.00  0.00    +0.073 C 
BRANCH  10  13
ATOM     11  ND1 HIS A   3      -0.733   2.563   1.074  0.00  0.00    -0.319 N 
ATOM     12  NE2 HIS A   3       0.317   3.143  -0.795  0.00  0.00    -0.315 N 
ATOM     13  CG  HIS A   3      -1.340   1.925   0.058  0.00  0.00    +0.040 C 
ATOM     14  CD2 HIS A   3      -0.706   2.274  -1.079  0.00  0.00    +0.069 C 
ATOM     15  CE1 HIS A   3       0.274   3.296   0.510  0.00  0.00    +0.182 C 
ATOM     16  HD1 HIS A   3      -0.965   2.512   2.029  0.00  0.00    +0.148 HD
ATOM     17  HE2 HIS A   3       0.946   3.560  -1.428  0.00  0.00    +0.148 HD
ENDBRANCH  10  13
ENDBRANCH   5  10
ENDBRANCH   2   5
BRANCH   3  18
ATOM     18  CA  GLY A   2       1.064  -2.037   0.604  0.00  0.00    +0.176 C 
BRANCH  18  20
ATOM     19  O   GLY A   1       2.855   0.213   0.912  0.00  0.00    -0.277 OA
ATOM     20  N   GLY A   2       2.357  -1.857  -0.014  0.00  0.00    -0.298 N 
ATOM     21  C   GLY A   1       3.151  -0.738   0.193  0.00  0.00    +0.201 C 
ATOM     22  H   GLY A   2       2.692  -2.564  -0.613  0.00  0.00    +0.150 HD
BRANCH  21  23
ATOM     23  CA  GLY A   1       4.437  -0.802  -0.605  0.00  0.00    +0.001 C 
BRANCH  23  24
ATOM     24  N   GLY A   1       5.466  -0.056   0.106  0.00  0.00    +0.386 N 
ATOM     25  H1  GLY A   1       6.338  -0.092  -0.423  0.00  0.00    -0.089 HD
ATOM     26  H2  GLY A   1       5.610  -0.469   1.027  0.00  0.00    -0.089 HD
ATOM     27  H3  GLY A   1       5.172   0.915   0.210  0.00  0.00    -0.089 HD
ENDBRANCH  23  24
ENDBRANCH  21  23
ENDBRANCH  18  20
ENDBRANCH   3  18
TORSDOF 9
