REMARK  Name = 100059
REMARK  10 active torsions:
REMARK  status: ('A' for Active; 'I' for Inactive)
REMARK    1  A    between atoms: C_3  and  O_17
REMARK    2  A    between atoms: C_6  and  C_19
REMARK    3  A    between atoms: C_7  and  C_11
REMARK    4  A    between atoms: C_8  and  C_28
REMARK    5  A    between atoms: C_19  and  O_20
REMARK    6  A    between atoms: O_20  and  C_23
REMARK    7  A    between atoms: N_22  and  C_25
REMARK    8  A    between atoms: C_28  and  O_29
REMARK    9  A    between atoms: O_29  and  C_32
REMARK   10  A    between atoms: N_31  and  C_34
REMARK                            x       y       z     vdW  Elec       q    Type
REMARK                         _______ _______ _______ _____ _____    ______ ____
ROOT
ATOM      1  N   UNL     1      -2.149   2.146  -0.032  0.00  0.00    -0.328 N 
ATOM      2  C   UNL     1      -1.027   2.918   0.020  0.00  0.00    +0.039 A 
ATOM      3  C   UNL     1      -2.679   4.117  -1.148  0.00  0.00    +0.139 C 
ATOM      4  C   UNL     1      -1.303   4.293  -0.451  0.00  0.00    +0.075 C 
ATOM      5  C   UNL     1      -3.315   2.852  -0.537  0.00  0.00    +0.135 C 
ATOM      6  C   UNL     1      -0.005   2.143   0.500  0.00  0.00    +0.034 A 
ATOM      7  C   UNL     1      -1.910   0.887   0.387  0.00  0.00    +0.059 A 
ATOM      8  C   UNL     1      -0.568   0.849   0.734  0.00  0.00    +0.038 A 
ENDROOT
BRANCH   7  11
ATOM      9 CL   UNL     1      -4.311  -2.956  -2.024  0.00  0.00    -0.081 Cl
ATOM     10 CL   UNL     1      -6.095  -3.349   0.647  0.00  0.00    -0.081 Cl
ATOM     11  C   UNL     1      -2.921  -0.143   0.435  0.00  0.00    +0.016 C 
ATOM     12  C   UNL     1      -3.126  -0.969  -0.669  0.00  0.00    +0.014 C 
ATOM     13  C   UNL     1      -3.689  -0.311   1.586  0.00  0.00    +0.002 C 
ATOM     14  C   UNL     1      -4.102  -1.964  -0.623  0.00  0.00    +0.068 C 
ATOM     15  C   UNL     1      -4.665  -1.307   1.633  0.00  0.00    +0.012 C 
ATOM     16  C   UNL     1      -4.871  -2.134   0.528  0.00  0.00    +0.068 C 
ENDBRANCH   7  11
BRANCH   3  17
ATOM     17  O   UNL     1      -2.485   3.926  -2.549  0.00  0.00    -0.382 OA
ATOM     18  H   UNL     1      -2.085   4.723  -2.931  0.00  0.00    +0.210 HD
ENDBRANCH   3  17
BRANCH   6  19
ATOM     19  C   UNL     1       1.391   2.561   0.725  0.00  0.00    +0.238 C 
BRANCH  19  20
ATOM     20  O   UNL     1       2.286   1.571   0.216  0.00  0.00    -0.430 OA
BRANCH  20  23
ATOM     21  O   UNL     1       4.073   2.847   0.889  0.00  0.00    -0.226 OA
ATOM     22  N   UNL     1       4.363   0.804  -0.170  0.00  0.00    -0.272 N 
ATOM     23  C   UNL     1       3.620   1.836   0.362  0.00  0.00    +0.402 C 
ATOM     24  H   UNL     1       3.882   0.042  -0.567  0.00  0.00    +0.153 HD
BRANCH  22  25
ATOM     25  C   UNL     1       5.808   0.776  -0.176  0.00  0.00    +0.075 C 
ATOM     26  C   UNL     1       6.318   0.033  -1.404  0.00  0.00    +0.021 C 
ATOM     27  C   UNL     1       6.336   0.148   1.108  0.00  0.00    +0.021 C 
ENDBRANCH  22  25
ENDBRANCH  20  23
ENDBRANCH  19  20
ENDBRANCH   6  19
BRANCH   8  28
ATOM     28  C   UNL     1       0.163  -0.327   1.254  0.00  0.00    +0.238 C 
BRANCH  28  29
ATOM     29  O   UNL     1       0.713  -1.073   0.171  0.00  0.00    -0.430 OA
BRANCH  29  32
ATOM     30  O   UNL     1       1.599  -2.578   1.663  0.00  0.00    -0.226 OA
ATOM     31  N   UNL     1       1.893  -2.815  -0.627  0.00  0.00    -0.272 N 
ATOM     32  C   UNL     1       1.421  -2.195   0.511  0.00  0.00    +0.402 C 
ATOM     33  H   UNL     1       1.682  -2.409  -1.498  0.00  0.00    +0.153 HD
BRANCH  31  34
ATOM     34  C   UNL     1       2.678  -4.028  -0.612  0.00  0.00    +0.075 C 
ATOM     35  C   UNL     1       4.160  -3.697  -0.491  0.00  0.00    +0.021 C 
ATOM     36  C   UNL     1       2.398  -4.862  -1.856  0.00  0.00    +0.021 C 
ENDBRANCH  31  34
ENDBRANCH  29  32
ENDBRANCH  28  29
ENDBRANCH   8  28
TORSDOF 10
