REMARK  Name = 100098
REMARK  9 active torsions:
REMARK  status: ('A' for Active; 'I' for Inactive)
REMARK    1  A    between atoms: CA_1  and  C_4
REMARK    2  A    between atoms: CA_1  and  N_12
REMARK    3  A    between atoms: CA_1  and  CB_16
REMARK    4  A    between atoms: N_3  and  CA_6
REMARK    5  A    between atoms: CA_6  and  C_9
REMARK    6  A    between atoms: C_9  and  O_10
REMARK    7  A    between atoms: CB_16  and  CG_17
REMARK    8  A    between atoms: CG_17  and  CD_19
REMARK    9  A    between atoms: CD_19  and  OE1_20
REMARK                            x       y       z     vdW  Elec       q    Type
REMARK                         _______ _______ _______ _____ _____    ______ ____
ROOT
ATOM      1  CA  GLU A   1       1.447   1.239  -0.525  0.00  0.00    +0.013 C 
ENDROOT
BRANCH   1   4
ATOM      2  O   GLU A   1      -0.026   2.038   1.221  0.00  0.00    -0.277 OA
ATOM      3  N   ALA A   2      -0.856   0.516  -0.325  0.00  0.00    -0.298 N 
ATOM      4  C   GLU A   1       0.127   1.317   0.237  0.00  0.00    +0.202 C 
ATOM      5  H   ALA A   2      -0.625  -0.023  -1.116  0.00  0.00    +0.150 HD
BRANCH   3   6
ATOM      6  CA  ALA A   2      -2.203   0.435   0.193  0.00  0.00    +0.171 C 
ATOM      7  CB  ALA A   2      -3.091   1.484  -0.459  0.00  0.00    +0.033 C 
BRANCH   6   9
ATOM      8  OXT ALA A   2      -3.901  -1.269   0.428  0.00  0.00    -0.248 OA
ATOM      9  C   ALA A   2      -2.796  -0.952   0.003  0.00  0.00    +0.332 C 
BRANCH   9  10
ATOM     10  O   ALA A   2      -2.000  -1.821  -0.665  0.00  0.00    -0.479 OA
ATOM     11  H   ALA A   2      -1.161  -1.544  -0.976  0.00  0.00    +0.295 HD
ENDBRANCH   9  10
ENDBRANCH   6   9
ENDBRANCH   3   6
ENDBRANCH   1   4
BRANCH   1  12
ATOM     12  N   GLU A   1       1.694   2.578  -1.063  0.00  0.00    +0.387 N 
ATOM     13  H1  GLU A   1       2.570   2.579  -1.584  0.00  0.00    -0.089 HD
ATOM     14  H2  GLU A   1       1.755   3.247  -0.295  0.00  0.00    -0.089 HD
ATOM     15  H3  GLU A   1       0.929   2.842  -1.684  0.00  0.00    -0.089 HD
ENDBRANCH   1  12
BRANCH   1  16
ATOM     16  CB  GLU A   1       2.619   0.831   0.379  0.00  0.00    -0.001 C 
BRANCH  16  17
ATOM     17  CG  GLU A   1       2.418  -0.517   1.071  0.00  0.00    +0.108 C 
BRANCH  17  19
ATOM     18  OE2 GLU A   1       3.169  -1.946  -0.725  0.00  0.00    -0.250 OA
ATOM     19  CD  GLU A   1       2.296  -1.647   0.080  0.00  0.00    +0.314 C 
BRANCH  19  20
ATOM     20  OE1 GLU A   1       1.102  -2.287   0.153  0.00  0.00    -0.480 OA
ATOM     21  HE1 GLU A   1       0.466  -2.020   0.787  0.00  0.00    +0.295 HD
ENDBRANCH  19  20
ENDBRANCH  17  19
ENDBRANCH  16  17
ENDBRANCH   1  16
TORSDOF 9
