REMARK  Name = 100082
REMARK  11 active torsions:
REMARK  status: ('A' for Active; 'I' for Inactive)
REMARK    1  A    between atoms: CA_1  and  C_4
REMARK    2  A    between atoms: CA_1  and  N_17
REMARK    3  A    between atoms: CA_1  and  CB_25
REMARK    4  A    between atoms: N_3  and  CA_6
REMARK    5  A    between atoms: CA_6  and  C_9
REMARK    6  A    between atoms: N_8  and  CA_11
REMARK    7  A    between atoms: CA_11  and  C_13
REMARK    8  A    between atoms: C_13  and  O_14
REMARK    9  A    between atoms: C_18  and  CA_20
REMARK   10  A    between atoms: CA_20  and  N_21
REMARK   11  A    between atoms: CB_25  and  CG_26
REMARK                            x       y       z     vdW  Elec       q    Type
REMARK                         _______ _______ _______ _____ _____    ______ ____
ROOT
ATOM      1  CA  LEU A   2      -1.971   0.641  -0.083  0.00  0.00    +0.148 C 
ENDROOT
BRANCH   1   4
ATOM      2  O   LEU A   2      -0.115   0.431  -1.630  0.00  0.00    -0.273 OA
ATOM      3  N   GLY A   3       0.122   1.813   0.222  0.00  0.00    -0.295 N 
ATOM      4  C   LEU A   2      -0.560   0.919  -0.593  0.00  0.00    +0.241 C 
ATOM      5  H   GLY A   3      -0.328   2.143   1.033  0.00  0.00    +0.150 HD
BRANCH   3   6
ATOM      6  CA  GLY A   3       1.458   2.283  -0.062  0.00  0.00    +0.176 C 
BRANCH   6   9
ATOM      7  O   GLY A   3       2.244   0.732   1.616  0.00  0.00    -0.273 OA
ATOM      8  N   GLY A   4       3.670   1.355  -0.111  0.00  0.00    -0.294 N 
ATOM      9  C   GLY A   3       2.469   1.358   0.583  0.00  0.00    +0.243 C 
ATOM     10  H   GLY A   4       3.738   1.895  -0.931  0.00  0.00    +0.150 HD
BRANCH   8  11
ATOM     11  CA  GLY A   4       4.827   0.597   0.311  0.00  0.00    +0.200 C 
BRANCH  11  13
ATOM     12  OXT GLY A   4       5.752  -1.599  -0.029  0.00  0.00    -0.248 OA
ATOM     13  C   GLY A   4       4.861  -0.793  -0.269  0.00  0.00    +0.334 C 
BRANCH  13  14
ATOM     14  O   GLY A   4       3.813  -1.067  -1.080  0.00  0.00    -0.479 OA
ATOM     15  H   GLY A   4       3.156  -0.417  -1.233  0.00  0.00    +0.295 HD
ENDBRANCH  13  14
ENDBRANCH  11  13
ENDBRANCH   8  11
ENDBRANCH   6   9
ENDBRANCH   3   6
ENDBRANCH   1   4
BRANCH   1  17
ATOM     16  O   GLY A   1      -1.364  -1.747   1.440  0.00  0.00    -0.277 OA
ATOM     17  N   LEU A   2      -2.287  -0.720  -0.430  0.00  0.00    -0.300 N 
ATOM     18  C   GLY A   1      -1.956  -1.811   0.365  0.00  0.00    +0.201 C 
ATOM     19  H   LEU A   2      -2.763  -0.887  -1.276  0.00  0.00    +0.150 HD
BRANCH  18  20
ATOM     20  CA  GLY A   1      -2.463  -3.109  -0.225  0.00  0.00    +0.001 C 
BRANCH  20  21
ATOM     21  N   GLY A   1      -1.619  -4.189   0.193  0.00  0.00    +0.386 N 
ATOM     22  H1  GLY A   1      -1.962  -5.062  -0.206  0.00  0.00    -0.089 HD
ATOM     23  H2  GLY A   1      -1.628  -4.253   1.210  0.00  0.00    -0.089 HD
ATOM     24  H3  GLY A   1      -0.666  -4.019  -0.129  0.00  0.00    -0.089 HD
ENDBRANCH  20  21
ENDBRANCH  18  20
ENDBRANCH   1  17
BRANCH   1  25
ATOM     25  CB  LEU A   2      -2.961   1.642  -0.693  0.00  0.00    +0.029 C 
BRANCH  25  26
ATOM     26  CG  LEU A   2      -4.417   1.487  -0.210  0.00  0.00    +0.002 C 
ATOM     27  CD1 LEU A   2      -5.030   0.149  -0.627  0.00  0.00    +0.000 C 
ATOM     28  CD2 LEU A   2      -4.474   1.627   1.313  0.00  0.00    +0.000 C 
ENDBRANCH  25  26
ENDBRANCH   1  25
TORSDOF 11
