100090
  -OEChem-03292013323D

 56 57  0     1  0  0  0  0  0999 V2000
   -6.7912   -0.5265    1.6695 S   0  0  0  0  0  0  0  0  0  0  0  0
   -1.0398   -1.6209    1.4211 O   0  0  0  0  0  0  0  0  0  0  0  0
    2.8486   -0.5135   -0.1027 O   0  0  0  0  0  0  0  0  0  0  0  0
   -3.6076   -2.0896   -2.5007 O   0  0  0  0  0  0  0  0  0  0  0  0
   -4.6983   -3.7792   -1.4671 O   0  0  0  0  0  0  0  0  0  0  0  0
    1.2609   -0.8359   -1.7305 O   0  0  0  0  0  0  0  0  0  0  0  0
   -2.5258   -1.1333   -0.2959 N   0  0  0  0  0  0  0  0  0  0  0  0
    0.7375    0.1399    0.3088 N   0  0  0  0  0  0  0  0  0  0  0  0
   -0.6678    0.3637    0.0802 C   0  0  2  0  0  0  0  0  0  0  0  0
   -1.2013    1.5590    0.8783 C   0  0  0  0  0  0  0  0  0  0  0  0
   -3.4256   -2.2457   -0.0919 C   0  0  1  0  0  0  0  0  0  0  0  0
   -1.3990   -0.9116    0.4836 C   0  0  0  0  0  0  0  0  0  0  0  0
   -4.5287   -1.9038    0.9191 C   0  0  0  0  0  0  0  0  0  0  0  0
   -0.8663    2.8842    0.2385 C   0  0  0  0  0  0  0  0  0  0  0  0
   -5.5336   -0.8709    0.4040 C   0  0  0  0  0  0  0  0  0  0  0  0
   -3.9920   -2.7790   -1.3997 C   0  0  0  0  0  0  0  0  0  0  0  0
   -1.7432    3.4549   -0.6841 C   0  0  0  0  0  0  0  0  0  0  0  0
    0.3206    3.5383    0.5694 C   0  0  0  0  0  0  0  0  0  0  0  0
    1.5839   -0.4409   -0.6150 C   0  0  0  0  0  0  0  0  0  0  0  0
   -1.4333    4.6796   -1.2756 C   0  0  0  0  0  0  0  0  0  0  0  0
    0.6303    4.7630   -0.0219 C   0  0  0  0  0  0  0  0  0  0  0  0
   -0.2464    5.3336   -0.9445 C   0  0  0  0  0  0  0  0  0  0  0  0
    3.8366   -1.0980   -0.9588 C   0  0  0  0  0  0  0  0  0  0  0  0
    5.1590   -1.1012   -0.2499 C   0  0  0  0  0  0  0  0  0  0  0  0
   -5.8484    0.6557    2.6593 C   0  0  0  0  0  0  0  0  0  0  0  0
    6.0216   -0.0124   -0.3778 C   0  0  0  0  0  0  0  0  0  0  0  0
    5.5258   -2.1927    0.5376 C   0  0  0  0  0  0  0  0  0  0  0  0
    7.2509   -0.0151    0.2813 C   0  0  0  0  0  0  0  0  0  0  0  0
    6.7551   -2.1952    1.1968 C   0  0  0  0  0  0  0  0  0  0  0  0
    7.6175   -1.1064    1.0686 C   0  0  0  0  0  0  0  0  0  0  0  0
   -0.8128    0.5233   -0.9962 H   0  0  0  0  0  0  0  0  0  0  0  0
   -0.8221    1.5406    1.9091 H   0  0  0  0  0  0  0  0  0  0  0  0
   -2.2935    1.4908    0.9766 H   0  0  0  0  0  0  0  0  0  0  0  0
   -2.8223   -3.0641    0.3221 H   0  0  0  0  0  0  0  0  0  0  0  0
   -4.0572   -1.5500    1.8441 H   0  0  0  0  0  0  0  0  0  0  0  0
   -5.0658   -2.8284    1.1699 H   0  0  0  0  0  0  0  0  0  0  0  0
   -2.7576   -0.4699   -1.0296 H   0  0  0  0  0  0  0  0  0  0  0  0
    1.1250    0.3761    1.2176 H   0  0  0  0  0  0  0  0  0  0  0  0
   -5.0426    0.0605    0.1047 H   0  0  0  0  0  0  0  0  0  0  0  0
   -6.0594   -1.2595   -0.4738 H   0  0  0  0  0  0  0  0  0  0  0  0
   -2.6696    2.9536   -0.9519 H   0  0  0  0  0  0  0  0  0  0  0  0
    1.0121    3.1046    1.2869 H   0  0  0  0  0  0  0  0  0  0  0  0
   -2.1156    5.1237   -1.9945 H   0  0  0  0  0  0  0  0  0  0  0  0
    1.5544    5.2721    0.2357 H   0  0  0  0  0  0  0  0  0  0  0  0
   -0.0051    6.2870   -1.4052 H   0  0  0  0  0  0  0  0  0  0  0  0
    3.9075   -0.5216   -1.8896 H   0  0  0  0  0  0  0  0  0  0  0  0
    3.5431   -2.1232   -1.2168 H   0  0  0  0  0  0  0  0  0  0  0  0
   -3.9735   -2.4788   -3.3233 H   0  0  0  0  0  0  0  0  0  0  0  0
   -4.9721    0.1815    3.1075 H   0  0  0  0  0  0  0  0  0  0  0  0
   -5.5355    1.5063    2.0479 H   0  0  0  0  0  0  0  0  0  0  0  0
   -6.4837    1.0296    3.4669 H   0  0  0  0  0  0  0  0  0  0  0  0
    5.7461    0.8447   -0.9866 H   0  0  0  0  0  0  0  0  0  0  0  0
    4.8615   -3.0459    0.6470 H   0  0  0  0  0  0  0  0  0  0  0  0
    7.9223    0.8329    0.1822 H   0  0  0  0  0  0  0  0  0  0  0  0
    7.0406   -3.0446    1.8104 H   0  0  0  0  0  0  0  0  0  0  0  0
    8.5745   -1.1083    1.5822 H   0  0  0  0  0  0  0  0  0  0  0  0
  1 15  1  0  0  0  0
  1 25  1  0  0  0  0
  2 12  2  0  0  0  0
  3 19  1  0  0  0  0
  3 23  1  0  0  0  0
  4 16  1  0  0  0  0
  4 48  1  0  0  0  0
  5 16  2  0  0  0  0
  6 19  2  0  0  0  0
  7 11  1  0  0  0  0
  7 12  1  0  0  0  0
  7 37  1  0  0  0  0
  8  9  1  0  0  0  0
  8 19  1  0  0  0  0
  8 38  1  0  0  0  0
  9 10  1  0  0  0  0
  9 12  1  0  0  0  0
  9 31  1  0  0  0  0
 10 14  1  0  0  0  0
 10 32  1  0  0  0  0
 10 33  1  0  0  0  0
 11 13  1  0  0  0  0
 11 16  1  0  0  0  0
 11 34  1  0  0  0  0
 13 15  1  0  0  0  0
 13 35  1  0  0  0  0
 13 36  1  0  0  0  0
 14 17  2  0  0  0  0
 14 18  1  0  0  0  0
 15 39  1  0  0  0  0
 15 40  1  0  0  0  0
 17 20  1  0  0  0  0
 17 41  1  0  0  0  0
 18 21  2  0  0  0  0
 18 42  1  0  0  0  0
 20 22  2  0  0  0  0
 20 43  1  0  0  0  0
 21 22  1  0  0  0  0
 21 44  1  0  0  0  0
 22 45  1  0  0  0  0
 23 24  1  0  0  0  0
 23 46  1  0  0  0  0
 23 47  1  0  0  0  0
 24 26  2  0  0  0  0
 24 27  1  0  0  0  0
 25 49  1  0  0  0  0
 25 50  1  0  0  0  0
 25 51  1  0  0  0  0
 26 28  1  0  0  0  0
 26 52  1  0  0  0  0
 27 29  2  0  0  0  0
 27 53  1  0  0  0  0
 28 30  2  0  0  0  0
 28 54  1  0  0  0  0
 29 30  1  0  0  0  0
 29 55  1  0  0  0  0
 30 56  1  0  0  0  0
M  END
> <PUBCHEM_COMPOUND_CID>
100090

> <PUBCHEM_CONFORMER_RMSD>
1.2

> <PUBCHEM_CONFORMER_DIVERSEORDER>
1
15
85
27
130
41
159
165
11
136
51
164
89
61
26
76
13
14
57
112
69
46
84
114
101
161
22
142
64
110
132
40
39
87
33
102
158
31
148
117
67
66
74
155
144
34
104
168
62
99
106
149
38
58
21
16
97
167
135
90
150
88
60
128
44
154
36
47
73
29
92
108
6
133
122
98
131
79
163
95
81
100
137
93
68
96
151
113
7
49
83
125
134
71
86
143
52
91
111
63
141
123
156
20
94
162
80
145
75
24
19
30
118
120
9
157
105
146
54
77
119
53
18
160
45
138
5
116
139
127
147
2
59
37
152
103
126
166
107
23
42
50
10
35
8
129
78
4
82
121
48
109
32
17
28
55
140
56
25
70
153
124
72
65
3
115
12
43

> <PUBCHEM_MMFF94_PARTIAL_CHARGES>
42
1 -0.46
10 0.14
11 0.36
12 0.57
14 -0.14
15 0.23
16 0.66
17 -0.15
18 -0.15
19 0.78
2 -0.57
20 -0.15
21 -0.15
22 -0.15
23 0.42
24 -0.14
25 0.23
26 -0.15
27 -0.15
28 -0.15
29 -0.15
3 -0.43
30 -0.15
37 0.37
38 0.37
4 -0.65
41 0.15
42 0.15
43 0.15
44 0.15
45 0.15
48 0.5
5 -0.57
52 0.15
53 0.15
54 0.15
55 0.15
56 0.15
6 -0.57
7 -0.73
8 -0.73
9 0.36

> <PUBCHEM_EFFECTIVE_ROTOR_COUNT>
14

> <PUBCHEM_PHARMACOPHORE_FEATURES>
10
1 2 acceptor
1 25 hydrophobe
1 4 acceptor
1 5 acceptor
1 6 acceptor
1 7 donor
1 8 donor
3 4 5 16 anion
6 14 17 18 20 21 22 rings
6 24 26 27 28 29 30 rings

> <PUBCHEM_HEAVY_ATOM_COUNT>
30

> <PUBCHEM_ATOM_DEF_STEREO_COUNT>
0

> <PUBCHEM_ATOM_UDEF_STEREO_COUNT>
2

> <PUBCHEM_BOND_DEF_STEREO_COUNT>
0

> <PUBCHEM_BOND_UDEF_STEREO_COUNT>
0

> <PUBCHEM_ISOTOPIC_ATOM_COUNT>
0

> <PUBCHEM_COMPONENT_COUNT>
1

> <PUBCHEM_CACTVS_TAUTO_COUNT>
4

> <PUBCHEM_CONFORMER_ID>
000186FA00000001

> <PUBCHEM_MMFF94_ENERGY>
64.8866

> <PUBCHEM_FEATURE_SELFOVERLAP>
50.807

> <PUBCHEM_SHAPE_FINGERPRINT>
10940486 97 18059296594973461047
12107183 9 18271257092506892307
12633046 712 17825118244908678115
12788726 201 18188200984081036043
13540713 5 17842004574884817283
13590594 115 18335991921787390865
14028597 1 17749111041219451202
14394314 77 18410857667836973451
14508225 48 18339348764481727373
15021287 119 18340215180409461747
15183329 4 15574699297373815846
15664458 14 17833817284929997637
16087824 20 18264489478480468549
21304303 282 17903619805391316565
23929065 36 18265592331048780736
255183 313 18197794197627886545
3504750 166 18265322920667359330
4280585 95 18412255155979559141
4409770 3 18191016812428525397
5080951 261 18267574715568424833
5219985 9 18410575110538410289
5969126 39 18412534414879667742
6700243 42 17986701232623236980
9981440 41 17541666006683169440

> <PUBCHEM_SHAPE_MULTIPOLES>
581.93
17.68
6.16
1.72
23.12
11.17
-0.04
-18.25
7.9
-4.82
-2.58
-2.62
-0.8
-1.91

> <PUBCHEM_SHAPE_SELFOVERLAP>
1186.418

> <PUBCHEM_SHAPE_VOLUME>
337.5

> <PUBCHEM_COORDINATE_TYPE>
2
5
10

$$$$
