REMARK  Name = 100064
REMARK  6 active torsions:
REMARK  status: ('A' for Active; 'I' for Inactive)
REMARK    1  A    between atoms: C_2  and  N_19
REMARK    2  A    between atoms: C_9  and  C_32
REMARK    3  A    between atoms: C_10  and  O_23
REMARK    4  A    between atoms: C_12  and  O_25
REMARK    5  A    between atoms: C_14  and  O_27
REMARK    6  A    between atoms: C_17  and  O_29
REMARK                            x       y       z     vdW  Elec       q    Type
REMARK                         _______ _______ _______ _____ _____    ______ ____
ROOT
ATOM      1  O   UNL     1      -4.959  -0.290  -1.432  0.00  0.00    -0.283 OA
ATOM      2  C   UNL     1      -0.902  -2.122   0.256  0.00  0.00    +0.094 C 
ATOM      3  C   UNL     1      -0.189  -2.299   1.615  0.00  0.00    +0.029 C 
ATOM      4  C   UNL     1       0.449  -1.060   2.258  0.00  0.00    +0.029 C 
ATOM      5  C   UNL     1       1.119  -0.142   1.270  0.00  0.00    -0.013 A 
ATOM      6  C   UNL     1      -1.776  -0.873   0.103  0.00  0.00    -0.001 C 
ATOM      7  C   UNL     1       0.343   0.581   0.341  0.00  0.00    +0.033 A 
ATOM      8  C   UNL     1      -1.143   0.434   0.345  0.00  0.00    +0.000 C 
ATOM      9  C   UNL     1       2.514  -0.016   1.251  0.00  0.00    +0.075 A 
ATOM     10  C   UNL     1       0.980   1.406  -0.600  0.00  0.00    +0.175 A 
ATOM     11  C   UNL     1      -3.039  -1.055  -0.322  0.00  0.00    +0.043 C 
ATOM     12  C   UNL     1       3.135   0.815   0.318  0.00  0.00    +0.178 A 
ATOM     13  C   UNL     1      -1.800   1.561   0.679  0.00  0.00    +0.003 C 
ATOM     14  C   UNL     1       2.370   1.523  -0.606  0.00  0.00    +0.206 A 
ATOM     15  C   UNL     1      -4.107  -0.060  -0.575  0.00  0.00    +0.229 C 
ATOM     16  C   UNL     1      -3.211   1.773   0.864  0.00  0.00    +0.040 C 
ATOM     17  C   UNL     1      -4.236   1.127   0.303  0.00  0.00    +0.177 C 
ENDROOT
BRANCH   2  19
ATOM     18  O   UNL     1       0.176  -4.509  -0.996  0.00  0.00    -0.275 OA
ATOM     19  N   UNL     1       0.025  -2.191  -0.858  0.00  0.00    -0.302 N 
ATOM     20  C   UNL     1       0.481  -3.384  -1.383  0.00  0.00    +0.223 C 
ATOM     21  C   UNL     1       1.412  -3.170  -2.547  0.00  0.00    +0.095 C 
ATOM     22  H   UNL     1       0.344  -1.349  -1.257  0.00  0.00    +0.150 HD
ENDBRANCH   2  19
BRANCH  10  23
ATOM     23  O   UNL     1       0.258   2.084  -1.540  0.00  0.00    -0.468 OA
ATOM     24  C   UNL     1       0.024   1.417  -2.777  0.00  0.00    +0.253 C 
ENDBRANCH  10  23
BRANCH  12  25
ATOM     25  O   UNL     1       4.494   0.938   0.297  0.00  0.00    -0.468 OA
ATOM     26  C   UNL     1       5.212   0.024  -0.529  0.00  0.00    +0.253 C 
ENDBRANCH  12  25
BRANCH  14  27
ATOM     27  O   UNL     1       2.982   2.326  -1.523  0.00  0.00    -0.465 OA
ATOM     28  C   UNL     1       3.193   3.686  -1.152  0.00  0.00    +0.253 C 
ENDBRANCH  14  27
BRANCH  17  29
ATOM     29  O   UNL     1      -5.522   1.595   0.522  0.00  0.00    -0.468 OA
ATOM     30  C   UNL     1      -6.090   0.971   1.654  0.00  0.00    +0.253 C 
ENDBRANCH  17  29
BRANCH   9  32
ATOM     31  O   UNL     1       4.445  -0.333   2.581  0.00  0.00    -0.283 OA
ATOM     32  C   UNL     1       3.361  -0.757   2.182  0.00  0.00    +0.237 C 
ENDBRANCH   9  32
TORSDOF 6
