REMARK  Name = 100090
REMARK  13 active torsions:
REMARK  status: ('A' for Active; 'I' for Inactive)
REMARK    1  A    between atoms: CA_1  and  C_4
REMARK    2  A    between atoms: CA_1  and  N_16
REMARK    3  A    between atoms: CA_1  and  CB_27
REMARK    4  A    between atoms: N_3  and  CA_6
REMARK    5  A    between atoms: CA_6  and  C_8
REMARK    6  A    between atoms: CA_6  and  CB_11
REMARK    7  A    between atoms: C_8  and  O_9
REMARK    8  A    between atoms: CB_11  and  CG_12
REMARK    9  A    between atoms: CG_12  and  SD_13
REMARK   10  A    between atoms: C_17  and  O_19
REMARK   11  A    between atoms: O_19  and  C_20
REMARK   12  A    between atoms: C_20  and  C_21
REMARK   13  A    between atoms: CB_27  and  CG_28
REMARK                            x       y       z     vdW  Elec       q    Type
REMARK                         _______ _______ _______ _____ _____    ______ ____
ROOT
ATOM      1  CA  UNL     1      -0.668   0.364   0.080  0.00  0.00    +0.155 C 
ENDROOT
BRANCH   1   4
ATOM      2  O   UNL     1      -1.040  -1.621   1.421  0.00  0.00    -0.273 OA
ATOM      3  N   UNL     1      -2.526  -1.133  -0.296  0.00  0.00    -0.295 N 
ATOM      4  C   UNL     1      -1.399  -0.912   0.484  0.00  0.00    +0.241 C 
ATOM      5  H   UNL     1      -2.722  -0.501  -1.024  0.00  0.00    +0.150 HD
BRANCH   3   6
ATOM      6  CA  UNL     1      -3.426  -2.246  -0.092  0.00  0.00    +0.172 C 
BRANCH   6   8
ATOM      7  OXT UNL     1      -4.698  -3.779  -1.467  0.00  0.00    -0.248 OA
ATOM      8  C   UNL     1      -3.992  -2.779  -1.400  0.00  0.00    +0.332 C 
BRANCH   8   9
ATOM      9  O   UNL     1      -3.608  -2.090  -2.501  0.00  0.00    -0.479 OA
ATOM     10  H   UNL     1      -3.067  -1.329  -2.412  0.00  0.00    +0.295 HD
ENDBRANCH   8   9
ENDBRANCH   6   8
BRANCH   6  11
ATOM     11  CB  UNL     1      -4.529  -1.904   0.919  0.00  0.00    +0.043 C 
BRANCH  11  12
ATOM     12  CG  UNL     1      -5.534  -0.871   0.404  0.00  0.00    +0.060 C 
BRANCH  12  13
ATOM     13  SD  UNL     1      -6.791  -0.526   1.669  0.00  0.00    -0.139 S 
ATOM     14  CE  UNL     1      -5.848   0.656   2.659  0.00  0.00    +0.069 C 
ENDBRANCH  12  13
ENDBRANCH  11  12
ENDBRANCH   6  11
ENDBRANCH   3   6
ENDBRANCH   1   4
BRANCH   1  16
ATOM     15  O   UNL     1       1.261  -0.836  -1.730  0.00  0.00    -0.226 OA
ATOM     16  N   UNL     1       0.738   0.140   0.309  0.00  0.00    -0.264 N 
ATOM     17  C   ACE A   0       1.584  -0.441  -0.615  0.00  0.00    +0.402 C 
ATOM     18  H   UNL     1       1.116   0.417   1.174  0.00  0.00    +0.153 HD
BRANCH  17  19
ATOM     19  O   UNL     1       2.849  -0.513  -0.103  0.00  0.00    -0.430 OA
BRANCH  19  20
ATOM     20  C   UNL     1       3.837  -1.098  -0.959  0.00  0.00    +0.237 C 
BRANCH  20  21
ATOM     21  C   UNL     1       5.159  -1.101  -0.250  0.00  0.00    +0.021 C 
ATOM     22  C   UNL     1       6.022  -0.012  -0.378  0.00  0.00    -0.001 C 
ATOM     23  C   UNL     1       5.526  -2.193   0.538  0.00  0.00    -0.001 C 
ATOM     24  C   UNL     1       7.251  -0.015   0.281  0.00  0.00    -0.000 C 
ATOM     25  C   UNL     1       6.755  -2.195   1.197  0.00  0.00    -0.000 C 
ATOM     26  C   UNL     1       7.617  -1.106   1.069  0.00  0.00    -0.000 C 
ENDBRANCH  20  21
ENDBRANCH  19  20
ENDBRANCH  17  19
ENDBRANCH   1  16
BRANCH   1  27
ATOM     27  CB  UNL     1      -1.201   1.559   0.878  0.00  0.00    +0.055 C 
BRANCH  27  28
ATOM     28  CG  UNL     1      -0.866   2.884   0.238  0.00  0.00    -0.020 C 
ATOM     29  CD1 UNL     1      -1.743   3.455  -0.684  0.00  0.00    -0.004 C 
ATOM     30  CD2 UNL     1       0.321   3.538   0.569  0.00  0.00    -0.004 C 
ATOM     31  CE1 UNL     1      -1.433   4.680  -1.276  0.00  0.00    -0.000 C 
ATOM     32  CE2 UNL     1       0.630   4.763  -0.022  0.00  0.00    -0.000 C 
ATOM     33  CZ  UNL     1      -0.246   5.334  -0.945  0.00  0.00    -0.000 C 
ENDBRANCH  27  28
ENDBRANCH   1  27
TORSDOF 13
