REMARK  Name = 100096
REMARK  9 active torsions:
REMARK  status: ('A' for Active; 'I' for Inactive)
REMARK    1  A    between atoms: N_2  and  CA_16
REMARK    2  A    between atoms: C_3  and  CA_5
REMARK    3  A    between atoms: CA_5  and  N_8
REMARK    4  A    between atoms: C_9  and  CA_11
REMARK    5  A    between atoms: CA_11  and  N_12
REMARK    6  A    between atoms: CA_16  and  C_18
REMARK    7  A    between atoms: CA_16  and  CB_21
REMARK    8  A    between atoms: C_18  and  O_19
REMARK    9  A    between atoms: CB_21  and  CG_22
REMARK                            x       y       z     vdW  Elec       q    Type
REMARK                         _______ _______ _______ _____ _____    ______ ____
ROOT
ATOM      1  O   ALA A   2      -0.034  -1.299   1.637  0.00  0.00    -0.273 OA
ATOM      2  N   PHE A   3      -1.221  -0.977  -0.330  0.00  0.00    -0.295 N 
ATOM      3  C   ALA A   2      -0.159  -1.454   0.424  0.00  0.00    +0.241 C 
ATOM      4  H   PHE A   3      -1.229  -1.154  -1.299  0.00  0.00    +0.150 HD
ENDROOT
BRANCH   3   5
ATOM      5  CA  ALA A   2       0.833  -2.246  -0.418  0.00  0.00    +0.149 C 
ATOM      6  CB  ALA A   2       0.460  -3.720  -0.454  0.00  0.00    +0.031 C 
BRANCH   5   8
ATOM      7  O   GLY A   1       2.701  -0.124  -1.033  0.00  0.00    -0.277 OA
ATOM      8  N   ALA A   2       2.145  -2.051   0.140  0.00  0.00    -0.300 N 
ATOM      9  C   GLY A   1       2.981  -0.997  -0.215  0.00  0.00    +0.201 C 
ATOM     10  H   ALA A   2       2.469  -2.698   0.807  0.00  0.00    +0.150 HD
BRANCH   9  11
ATOM     11  CA  GLY A   1       4.313  -1.059   0.504  0.00  0.00    +0.001 C 
BRANCH  11  12
ATOM     12  N   GLY A   1       4.827   0.295   0.654  0.00  0.00    +0.386 N 
ATOM     13  H1  GLY A   1       5.724   0.267   1.138  0.00  0.00    -0.089 HD
ATOM     14  H2  GLY A   1       4.166   0.852   1.196  0.00  0.00    -0.089 HD
ATOM     15  H3  GLY A   1       4.950   0.716  -0.267  0.00  0.00    -0.089 HD
ENDBRANCH  11  12
ENDBRANCH   9  11
ENDBRANCH   5   8
ENDBRANCH   3   5
BRANCH   2  16
ATOM     16  CA  PHE A   3      -2.315  -0.232   0.247  0.00  0.00    +0.176 C 
BRANCH  16  18
ATOM     17  OXT PHE A   3      -4.681  -0.593   0.599  0.00  0.00    -0.248 OA
ATOM     18  C   PHE A   3      -3.628  -0.990   0.111  0.00  0.00    +0.332 C 
BRANCH  18  19
ATOM     19  O   PHE A   3      -3.549  -2.140  -0.599  0.00  0.00    -0.479 OA
ATOM     20  H   PHE A   3      -2.728  -2.414  -0.958  0.00  0.00    +0.295 HD
ENDBRANCH  18  19
ENDBRANCH  16  18
BRANCH  16  21
ATOM     21  CB  PHE A   3      -2.442   1.155  -0.398  0.00  0.00    +0.057 C 
BRANCH  21  22
ATOM     22  CG  PHE A   3      -1.186   1.982  -0.266  0.00  0.00    -0.020 C 
ATOM     23  CD1 PHE A   3      -1.027   2.804   0.839  0.00  0.00    -0.004 C 
ATOM     24  CD2 PHE A   3      -0.215   1.905  -1.252  0.00  0.00    -0.004 C 
ATOM     25  CE1 PHE A   3       0.133   3.568   0.961  0.00  0.00    -0.000 C 
ATOM     26  CE2 PHE A   3       0.945   2.670  -1.129  0.00  0.00    -0.000 C 
ATOM     27  CZ  PHE A   3       1.119   3.502  -0.022  0.00  0.00    -0.000 C 
ENDBRANCH  21  22
ENDBRANCH  16  21
ENDBRANCH   2  16
TORSDOF 9
