REMARK  Name = 1000980
REMARK  7 active torsions:
REMARK  status: ('A' for Active; 'I' for Inactive)
REMARK    1  A    between atoms: N_1  and  C_3
REMARK    2  A    between atoms: N_1  and  S_11
REMARK    3  A    between atoms: N_1  and  C_20
REMARK    4  A    between atoms: C_4  and  O_9
REMARK    5  A    between atoms: S_11  and  C_14
REMARK    6  A    between atoms: C_20  and  C_23
REMARK    7  A    between atoms: N_22  and  C_27
REMARK                            x       y       z     vdW  Elec       q    Type
REMARK                         _______ _______ _______ _____ _____    ______ ____
ROOT
ATOM      1  N   UNL     1      -1.562  -0.278  -0.961  0.00  0.00    -0.178 N 
ENDROOT
BRANCH   1   3
ATOM      2 CL   UNL     1      -1.874  -1.278   4.070  0.00  0.00    -0.082 Cl
ATOM      3  C   UNL     1      -1.446  -1.256   0.113  0.00  0.00    +0.104 C 
ATOM      4  C   UNL     1      -1.100  -2.560  -0.185  0.00  0.00    +0.154 C 
ATOM      5  C   UNL     1      -1.688  -0.841   1.408  0.00  0.00    +0.031 C 
ATOM      6  C   UNL     1      -0.991  -3.485   0.853  0.00  0.00    +0.039 C 
ATOM      7  C   UNL     1      -1.579  -1.767   2.446  0.00  0.00    +0.059 C 
ATOM      8  C   UNL     1      -1.230  -3.089   2.169  0.00  0.00    +0.015 C 
BRANCH   4   9
ATOM      9  O   UNL     1      -0.864  -2.966  -1.465  0.00  0.00    -0.470 OA
ATOM     10  C   UNL     1      -0.514  -4.335  -1.655  0.00  0.00    +0.253 C 
ENDBRANCH   4   9
ENDBRANCH   1   3
BRANCH   1  11
ATOM     11  S   UNL     1      -3.172  -0.042  -1.578  0.00  0.00    +0.077 S 
ATOM     12  O   UNL     1      -3.963  -1.225  -1.295  0.00  0.00    -0.150 OA
ATOM     13  O   UNL     1      -3.123   0.472  -2.935  0.00  0.00    -0.150 OA
BRANCH  11  14
ATOM     14  C   UNL     1      -3.803   1.260  -0.553  0.00  0.00    +0.125 C 
ATOM     15  C   UNL     1      -3.622   2.572  -0.948  0.00  0.00    +0.020 C 
ATOM     16  C   UNL     1      -4.462   0.933   0.616  0.00  0.00    +0.020 C 
ATOM     17  C   UNL     1      -4.119   3.596  -0.141  0.00  0.00    +0.001 C 
ATOM     18  C   UNL     1      -4.959   1.957   1.422  0.00  0.00    +0.001 C 
ATOM     19  C   UNL     1      -4.788   3.288   1.044  0.00  0.00    +0.000 C 
ENDBRANCH  11  14
ENDBRANCH   1  11
BRANCH   1  20
ATOM     20  C   UNL     1      -0.675   0.893  -0.889  0.00  0.00    +0.201 C 
BRANCH  20  23
ATOM     21  O   UNL     1       1.122  -0.587  -1.484  0.00  0.00    -0.273 OA
ATOM     22  N   UNL     1       1.585   1.326  -0.195  0.00  0.00    -0.282 N 
ATOM     23  C   UNL     1       0.765   0.436  -0.908  0.00  0.00    +0.248 C 
ATOM     24  H   UNL     1       1.130   2.101   0.208  0.00  0.00    +0.155 HD
BRANCH  22  27
ATOM     25  O   UNL     1       5.913  -0.800  -0.727  0.00  0.00    -0.435 OA
ATOM     26  O   UNL     1       7.018   0.914   0.558  0.00  0.00    -0.435 OA
ATOM     27  C   UNL     1       2.963   1.252   0.015  0.00  0.00    +0.054 C 
ATOM     28  C   UNL     1       5.048   0.155  -0.288  0.00  0.00    +0.178 C 
ATOM     29  C   UNL     1       3.689   0.186  -0.521  0.00  0.00    +0.055 C 
ATOM     30  C   UNL     1       5.679   1.133   0.446  0.00  0.00    +0.177 C 
ATOM     31  C   UNL     1       3.607   2.251   0.765  0.00  0.00    +0.018 C 
ATOM     32  C   UNL     1       4.986   2.196   0.987  0.00  0.00    +0.041 C 
ATOM     33  C   UNL     1       7.159  -0.313  -0.188  0.00  0.00    +0.429 C 
ENDBRANCH  22  27
ENDBRANCH  20  23
ENDBRANCH   1  20
TORSDOF 7
