REMARK  Name = 100050
REMARK  11 active torsions:
REMARK  status: ('A' for Active; 'I' for Inactive)
REMARK    1  A    between atoms: CA_1  and  C_4
REMARK    2  A    between atoms: CA_1  and  N_15
REMARK    3  A    between atoms: CA_1  and  CB_26
REMARK    4  A    between atoms: N_3  and  CA_6
REMARK    5  A    between atoms: CA_6  and  CB_7
REMARK    6  A    between atoms: CA_6  and  C_11
REMARK    7  A    between atoms: C_11  and  O_12
REMARK    8  A    between atoms: C_16  and  O_18
REMARK    9  A    between atoms: O_18  and  C_19
REMARK   10  A    between atoms: C_19  and  C_20
REMARK   11  A    between atoms: CB_26  and  CG_27
REMARK                            x       y       z     vdW  Elec       q    Type
REMARK                         _______ _______ _______ _____ _____    ______ ____
ROOT
ATOM      1  CA  UNL     1      -0.984   0.478   0.299  0.00  0.00    +0.155 C 
ENDROOT
BRANCH   1   4
ATOM      2  O   UNL     1      -1.308  -1.498   1.665  0.00  0.00    -0.273 OA
ATOM      3  N   UNL     1      -2.889  -0.985   0.044  0.00  0.00    -0.295 N 
ATOM      4  C   UNL     1      -1.712  -0.783   0.750  0.00  0.00    +0.241 C 
ATOM      5  H   UNL     1      -3.119  -0.350  -0.673  0.00  0.00    +0.150 HD
BRANCH   3   6
ATOM      6  CA  UNL     1      -3.795  -2.080   0.306  0.00  0.00    +0.171 C 
BRANCH   6   7
ATOM      7  CB  UNL     1      -3.902  -2.978  -0.945  0.00  0.00    +0.029 C 
ATOM      8  CG1 UNL     1      -2.541  -3.528  -1.381  0.00  0.00    +0.002 C 
ATOM      9  CG2 UNL     1      -4.597  -2.290  -2.124  0.00  0.00    +0.002 C 
ENDBRANCH   6   7
BRANCH   6  11
ATOM     10  OXT UNL     1      -6.027  -2.305   1.237  0.00  0.00    -0.248 OA
ATOM     11  C   UNL     1      -5.133  -1.570   0.834  0.00  0.00    +0.332 C 
BRANCH  11  12
ATOM     12  O   UNL     1      -5.286  -0.224   0.777  0.00  0.00    -0.479 OA
ATOM     13  H   UNL     1      -4.585   0.314   0.465  0.00  0.00    +0.295 HD
ENDBRANCH  11  12
ENDBRANCH   6  11
ENDBRANCH   3   6
ENDBRANCH   1   4
BRANCH   1  15
ATOM     14  O   UNL     1       0.805  -0.760  -1.626  0.00  0.00    -0.226 OA
ATOM     15  N   UNL     1       0.429   0.228   0.439  0.00  0.00    -0.264 N 
ATOM     16  C   ACE A   0       1.205  -0.370  -0.534  0.00  0.00    +0.402 C 
ATOM     17  H   UNL     1       0.866   0.499   1.278  0.00  0.00    +0.153 HD
BRANCH  16  18
ATOM     18  O   UNL     1       2.497  -0.465  -0.102  0.00  0.00    -0.430 OA
BRANCH  18  19
ATOM     19  C   UNL     1       3.419  -1.069  -1.017  0.00  0.00    +0.237 C 
BRANCH  19  20
ATOM     20  C   UNL     1       4.783  -1.096  -0.392  0.00  0.00    +0.021 C 
ATOM     21  C   UNL     1       5.648  -0.024  -0.581  0.00  0.00    -0.001 C 
ATOM     22  C   UNL     1       5.170  -2.193   0.370  0.00  0.00    -0.001 C 
ATOM     23  C   UNL     1       6.916  -0.050   0.000  0.00  0.00    -0.000 C 
ATOM     24  C   UNL     1       6.438  -2.218   0.951  0.00  0.00    -0.000 C 
ATOM     25  C   UNL     1       7.311  -1.147   0.766  0.00  0.00    -0.000 C 
ENDBRANCH  19  20
ENDBRANCH  18  19
ENDBRANCH  16  18
ENDBRANCH   1  15
BRANCH   1  26
ATOM     26  CB  UNL     1      -1.444   1.684   1.125  0.00  0.00    +0.055 C 
BRANCH  26  27
ATOM     27  CG  UNL     1      -1.125   3.002   0.462  0.00  0.00    -0.020 C 
ATOM     28  CD1 UNL     1       0.088   3.619   0.725  0.00  0.00    -0.004 C 
ATOM     29  CD2 UNL     1      -2.051   3.572  -0.397  0.00  0.00    -0.004 C 
ATOM     30  CE1 UNL     1       0.382   4.837   0.112  0.00  0.00    -0.000 C 
ATOM     31  CE2 UNL     1      -1.756   4.790  -1.010  0.00  0.00    -0.000 C 
ATOM     32  CZ  UNL     1      -0.540   5.423  -0.755  0.00  0.00    -0.000 C 
ENDBRANCH  26  27
ENDBRANCH   1  26
TORSDOF 11
