REMARK  Name = 100048
REMARK  10 active torsions:
REMARK  status: ('A' for Active; 'I' for Inactive)
REMARK    1  A    between atoms: N_2  and  CA_5
REMARK    2  A    between atoms: C_3  and  CA_17
REMARK    3  A    between atoms: CA_5  and  C_7
REMARK    4  A    between atoms: CA_5  and  CB_10
REMARK    5  A    between atoms: C_7  and  O_8
REMARK    6  A    between atoms: CB_10  and  CG_11
REMARK    7  A    between atoms: CA_17  and  N_18
REMARK    8  A    between atoms: CA_17  and  CB_22
REMARK    9  A    between atoms: CB_22  and  CG_23
REMARK   10  A    between atoms: CG_23  and  SD_24
REMARK                            x       y       z     vdW  Elec       q    Type
REMARK                         _______ _______ _______ _____ _____    ______ ____
ROOT
ATOM      1  O   MET A   1       0.574  -0.740  -1.609  0.00  0.00    -0.277 OA
ATOM      2  N   PHE A   2       0.239   0.384   0.394  0.00  0.00    -0.298 N 
ATOM      3  C   MET A   1       0.690  -0.672  -0.387  0.00  0.00    +0.202 C 
ATOM      4  H   PHE A   2       0.382   0.340   1.367  0.00  0.00    +0.150 HD
ENDROOT
BRANCH   2   5
ATOM      5  CA  PHE A   2      -0.428   1.544  -0.151  0.00  0.00    +0.176 C 
BRANCH   5   7
ATOM      6  OXT PHE A   2       0.068   3.901  -0.372  0.00  0.00    -0.248 OA
ATOM      7  C   PHE A   2       0.392   2.805   0.074  0.00  0.00    +0.332 C 
BRANCH   7   8
ATOM      8  O   PHE A   2       1.513   2.630   0.815  0.00  0.00    -0.479 OA
ATOM      9  H   PHE A   2       1.732   1.779   1.140  0.00  0.00    +0.295 HD
ENDBRANCH   7   8
ENDBRANCH   5   7
BRANCH   5  10
ATOM     10  CB  PHE A   2      -1.827   1.714   0.457  0.00  0.00    +0.057 C 
BRANCH  10  11
ATOM     11  CG  PHE A   2      -2.715   0.512   0.237  0.00  0.00    -0.020 C 
ATOM     12  CD1 PHE A   2      -3.506   0.452  -0.900  0.00  0.00    -0.004 C 
ATOM     13  CD2 PHE A   2      -2.722  -0.508   1.174  0.00  0.00    -0.004 C 
ATOM     14  CE1 PHE A   2      -4.326  -0.658  -1.103  0.00  0.00    -0.000 C 
ATOM     15  CE2 PHE A   2      -3.542  -1.618   0.971  0.00  0.00    -0.000 C 
ATOM     16  CZ  PHE A   2      -4.343  -1.693  -0.169  0.00  0.00    -0.000 C 
ENDBRANCH  10  11
ENDBRANCH   5  10
ENDBRANCH   2   5
BRANCH   3  17
ATOM     17  CA  MET A   1       1.349  -1.764   0.451  0.00  0.00    +0.014 C 
BRANCH  17  18
ATOM     18  N   MET A   1       0.559  -2.987   0.322  0.00  0.00    +0.387 N 
ATOM     19  H1  MET A   1       0.987  -3.729   0.876  0.00  0.00    -0.089 HD
ATOM     20  H2  MET A   1       0.527  -3.270  -0.658  0.00  0.00    -0.089 HD
ATOM     21  H3  MET A   1      -0.389  -2.816   0.657  0.00  0.00    -0.089 HD
ENDBRANCH  17  18
BRANCH  17  22
ATOM     22  CB  MET A   1       2.817  -1.988   0.049  0.00  0.00    -0.001 C 
BRANCH  22  23
ATOM     23  CG  MET A   1       3.692  -0.736   0.157  0.00  0.00    +0.056 C 
BRANCH  23  24
ATOM     24  SD  MET A   1       5.398  -1.105  -0.351  0.00  0.00    -0.139 S 
ATOM     25  CE  MET A   1       6.115   0.528  -0.059  0.00  0.00    +0.069 C 
ENDBRANCH  23  24
ENDBRANCH  22  23
ENDBRANCH  17  22
ENDBRANCH   3  17
TORSDOF 10
