REMARK  Name = 100036
REMARK  4 active torsions:
REMARK  status: ('A' for Active; 'I' for Inactive)
REMARK    1  A    between atoms: C_6  and  C_26
REMARK    2  A    between atoms: C_9  and  O_22
REMARK    3  A    between atoms: C_18  and  O_24
REMARK    4  A    between atoms: C_26  and  C_29
REMARK                            x       y       z     vdW  Elec       q    Type
REMARK                         _______ _______ _______ _____ _____    ______ ____
ROOT
ATOM      1  O   UNL     1      -3.914  -0.475   0.964  0.00  0.00    -0.447 OA
ATOM      2  O   UNL     1       1.851   2.298   0.552  0.00  0.00    -0.286 OA
ATOM      3  O   UNL     1       2.408  -2.882  -0.638  0.00  0.00    -0.287 OA
ATOM      4  O   UNL     1      -4.736  -2.575   0.985  0.00  0.00    -0.250 OA
ATOM      5  C   UNL     1      -1.616  -0.041   0.242  0.00  0.00    +0.048 C 
ATOM      6  C   UNL     1      -3.002   0.510   0.414  0.00  0.00    +0.203 C 
ATOM      7  C   UNL     1      -1.471  -1.396  -0.060  0.00  0.00    -0.009 C 
ATOM      8  C   UNL     1       0.793   0.238   0.158  0.00  0.00    +0.076 C 
ATOM      9  C   UNL     1      -0.484   0.777   0.351  0.00  0.00    +0.136 C 
ATOM     10  C   UNL     1       0.938  -1.115  -0.152  0.00  0.00    +0.045 C 
ATOM     11  C   UNL     1      -2.702  -2.236  -0.220  0.00  0.00    +0.136 C 
ATOM     12  C   UNL     1      -0.194  -1.930  -0.269  0.00  0.00    -0.000 C 
ATOM     13  C   UNL     1       1.979   1.111   0.279  0.00  0.00    +0.202 C 
ATOM     14  C   UNL     1       2.280  -1.694  -0.366  0.00  0.00    +0.196 C 
ATOM     15  C   UNL     1      -3.861  -1.789   0.631  0.00  0.00    +0.322 C 
ATOM     16  C   UNL     1       3.321   0.531   0.065  0.00  0.00    +0.076 C 
ATOM     17  C   UNL     1       3.466  -0.822  -0.247  0.00  0.00    +0.045 C 
ATOM     18  C   UNL     1       4.452   1.348   0.175  0.00  0.00    +0.137 C 
ATOM     19  C   UNL     1       4.743  -1.359  -0.448  0.00  0.00    +0.003 C 
ATOM     20  C   UNL     1       5.723   0.809  -0.026  0.00  0.00    +0.037 C 
ATOM     21  C   UNL     1       5.868  -0.542  -0.337  0.00  0.00    +0.003 C 
ENDROOT
BRANCH   9  22
ATOM     22  O   UNL     1      -0.670   2.099   0.636  0.00  0.00    -0.506 OA
ATOM     23  H   UNL     1      -1.536   2.435   0.761  0.00  0.00    +0.292 HD
ENDBRANCH   9  22
BRANCH  18  24
ATOM     24  O   UNL     1       4.385   2.676   0.475  0.00  0.00    -0.505 OA
ATOM     25  H   UNL     1       3.552   3.083   0.618  0.00  0.00    +0.292 HD
ENDBRANCH  18  24
BRANCH   6  26
ATOM     26  C   UNL     1      -3.581   1.051  -0.889  0.00  0.00    +0.133 C 
BRANCH  26  29
ATOM     27  O   UNL     1      -5.570   1.673   0.347  0.00  0.00    -0.275 OA
ATOM     28  N   UNL     1      -5.453   2.107  -1.909  0.00  0.00    -0.329 N 
ATOM     29  C   UNL     1      -4.956   1.627  -0.716  0.00  0.00    +0.223 C 
ATOM     30  H   UNL     1      -6.349   2.513  -1.941  0.00  0.00    +0.145 HD
ATOM     31  H   UNL     1      -4.912   2.043  -2.728  0.00  0.00    +0.145 HD
ENDBRANCH  26  29
ENDBRANCH   6  26
TORSDOF 4
