100082
  -OEChem-03292013323D

 43 42  0     1  0  0  0  0  0999 V2000
   -0.1151    0.4314   -1.6298 O   0  0  0  0  0  0  0  0  0  0  0  0
   -1.3641   -1.7468    1.4401 O   0  0  0  0  0  0  0  0  0  0  0  0
    2.2443    0.7322    1.6158 O   0  0  0  0  0  0  0  0  0  0  0  0
    3.8135   -1.0672   -1.0803 O   0  0  0  0  0  0  0  0  0  0  0  0
    5.7522   -1.5988   -0.0285 O   0  0  0  0  0  0  0  0  0  0  0  0
   -2.2870   -0.7196   -0.4302 N   0  0  0  0  0  0  0  0  0  0  0  0
    0.1216    1.8127    0.2218 N   0  0  0  0  0  0  0  0  0  0  0  0
    3.6702    1.3545   -0.1108 N   0  0  0  0  0  0  0  0  0  0  0  0
   -1.6191   -4.1886    0.1925 N   0  0  0  0  0  0  0  0  0  0  0  0
   -2.9608    1.6418   -0.6932 C   0  0  0  0  0  0  0  0  0  0  0  0
   -4.4173    1.4867   -0.2104 C   0  0  0  0  0  0  0  0  0  0  0  0
   -1.9707    0.6415   -0.0830 C   0  0  2  0  0  0  0  0  0  0  0  0
   -5.0303    0.1493   -0.6275 C   0  0  0  0  0  0  0  0  0  0  0  0
   -4.4737    1.6270    1.3133 C   0  0  0  0  0  0  0  0  0  0  0  0
   -0.5597    0.9186   -0.5925 C   0  0  0  0  0  0  0  0  0  0  0  0
   -1.9556   -1.8106    0.3653 C   0  0  0  0  0  0  0  0  0  0  0  0
    1.4584    2.2828   -0.0620 C   0  0  0  0  0  0  0  0  0  0  0  0
   -2.4634   -3.1087   -0.2254 C   0  0  0  0  0  0  0  0  0  0  0  0
    2.4686    1.3577    0.5825 C   0  0  0  0  0  0  0  0  0  0  0  0
    4.8270    0.5974    0.3107 C   0  0  0  0  0  0  0  0  0  0  0  0
    4.8610   -0.7934   -0.2685 C   0  0  0  0  0  0  0  0  0  0  0  0
   -2.9413    1.5590   -1.7886 H   0  0  0  0  0  0  0  0  0  0  0  0
   -2.6233    2.6621   -0.4669 H   0  0  0  0  0  0  0  0  0  0  0  0
   -5.0054    2.2948   -0.6628 H   0  0  0  0  0  0  0  0  0  0  0  0
   -1.9575    0.7216    1.0094 H   0  0  0  0  0  0  0  0  0  0  0  0
   -4.8182   -0.0816   -1.6762 H   0  0  0  0  0  0  0  0  0  0  0  0
   -6.1210    0.2062   -0.5278 H   0  0  0  0  0  0  0  0  0  0  0  0
   -4.7169   -0.6860    0.0037 H   0  0  0  0  0  0  0  0  0  0  0  0
   -4.0219    0.7756    1.8318 H   0  0  0  0  0  0  0  0  0  0  0  0
   -3.9703    2.5417    1.6438 H   0  0  0  0  0  0  0  0  0  0  0  0
   -5.5166    1.6874    1.6445 H   0  0  0  0  0  0  0  0  0  0  0  0
   -2.6774   -0.8916   -1.3522 H   0  0  0  0  0  0  0  0  0  0  0  0
   -0.3294    2.1651    1.0610 H   0  0  0  0  0  0  0  0  0  0  0  0
    1.6022    2.3307   -1.1458 H   0  0  0  0  0  0  0  0  0  0  0  0
    1.5689    3.2835    0.3655 H   0  0  0  0  0  0  0  0  0  0  0  0
   -2.4672   -3.0509   -1.3186 H   0  0  0  0  0  0  0  0  0  0  0  0
   -3.4933   -3.2615    0.1132 H   0  0  0  0  0  0  0  0  0  0  0  0
    3.7565    1.9051   -0.9600 H   0  0  0  0  0  0  0  0  0  0  0  0
   -1.6623   -4.2967    1.2052 H   0  0  0  0  0  0  0  0  0  0  0  0
   -1.9613   -5.0657   -0.1978 H   0  0  0  0  0  0  0  0  0  0  0  0
    5.7124    1.1406   -0.0309 H   0  0  0  0  0  0  0  0  0  0  0  0
    4.8272    0.5203    1.4020 H   0  0  0  0  0  0  0  0  0  0  0  0
    3.8587   -1.9770   -1.4443 H   0  0  0  0  0  0  0  0  0  0  0  0
  1 15  2  0  0  0  0
  2 16  2  0  0  0  0
  3 19  2  0  0  0  0
  4 21  1  0  0  0  0
  4 43  1  0  0  0  0
  5 21  2  0  0  0  0
  6 12  1  0  0  0  0
  6 16  1  0  0  0  0
  6 32  1  0  0  0  0
  7 15  1  0  0  0  0
  7 17  1  0  0  0  0
  7 33  1  0  0  0  0
  8 19  1  0  0  0  0
  8 20  1  0  0  0  0
  8 38  1  0  0  0  0
  9 18  1  0  0  0  0
  9 39  1  0  0  0  0
  9 40  1  0  0  0  0
 10 11  1  0  0  0  0
 10 12  1  0  0  0  0
 10 22  1  0  0  0  0
 10 23  1  0  0  0  0
 11 13  1  0  0  0  0
 11 14  1  0  0  0  0
 11 24  1  0  0  0  0
 12 15  1  0  0  0  0
 12 25  1  0  0  0  0
 13 26  1  0  0  0  0
 13 27  1  0  0  0  0
 13 28  1  0  0  0  0
 14 29  1  0  0  0  0
 14 30  1  0  0  0  0
 14 31  1  0  0  0  0
 16 18  1  0  0  0  0
 17 19  1  0  0  0  0
 17 34  1  0  0  0  0
 17 35  1  0  0  0  0
 18 36  1  0  0  0  0
 18 37  1  0  0  0  0
 20 21  1  0  0  0  0
 20 41  1  0  0  0  0
 20 42  1  0  0  0  0
M  END
> <PUBCHEM_COMPOUND_CID>
100082

> <PUBCHEM_CONFORMER_RMSD>
1

> <PUBCHEM_CONFORMER_DIVERSEORDER>
1
37
35
21
61
62
5
29
45
54
14
53
6
59
22
48
11
56
16
34
52
26
9
51
24
42
10
60
50
7
39
25
58
57
19
27
44
55
12
33
2
32
47
49
28
46
30
8
36
43
15
17
31
18
3
23
13
40
20
4
38
41

> <PUBCHEM_MMFF94_PARTIAL_CHARGES>
23
1 -0.57
12 0.36
15 0.57
16 0.57
17 0.36
18 0.33
19 0.57
2 -0.57
20 0.36
21 0.66
3 -0.57
32 0.37
33 0.37
38 0.37
39 0.36
4 -0.65
40 0.36
43 0.5
5 -0.57
6 -0.73
7 -0.73
8 -0.73
9 -0.99

> <PUBCHEM_EFFECTIVE_ROTOR_COUNT>
12

> <PUBCHEM_PHARMACOPHORE_FEATURES>
12
1 1 acceptor
1 2 acceptor
1 3 acceptor
1 4 acceptor
1 5 acceptor
1 6 donor
1 7 donor
1 8 donor
1 9 cation
1 9 donor
3 11 13 14 hydrophobe
3 4 5 21 anion

> <PUBCHEM_HEAVY_ATOM_COUNT>
21

> <PUBCHEM_ATOM_DEF_STEREO_COUNT>
0

> <PUBCHEM_ATOM_UDEF_STEREO_COUNT>
1

> <PUBCHEM_BOND_DEF_STEREO_COUNT>
0

> <PUBCHEM_BOND_UDEF_STEREO_COUNT>
0

> <PUBCHEM_ISOTOPIC_ATOM_COUNT>
0

> <PUBCHEM_COMPONENT_COUNT>
1

> <PUBCHEM_CACTVS_TAUTO_COUNT>
8

> <PUBCHEM_CONFORMER_ID>
000186F200000001

> <PUBCHEM_MMFF94_ENERGY>
34.272

> <PUBCHEM_FEATURE_SELFOVERLAP>
60.957

> <PUBCHEM_SHAPE_FINGERPRINT>
10670039 82 10303530671830826970
11036077 3 18338803299793686065
11405975 8 18341894134206204728
11759241 127 7781512624722384840
12549972 3 17774148136469893256
12555020 224 18410002235253152437
12596602 18 14189275064157149782
12633257 1 18336537236283074946
12643181 29 18409731721518868622
13135754 10 17242196714808527795
13402501 40 18341895147902824238
13583140 156 17415837144180240344
14866123 147 18410292540857476363
15042514 8 18191026897312189083
15295992 7 17561080349692618185
15537594 2 17748825190251184250
17859628 97 18334575690085180738
19141452 34 18408886243656773084
192875 21 12463566313690919416
19930381 70 17978791203469253447
20286276 3 18193843858291270152
20681677 155 18333446547636207288
21478907 32 18050004691005944575
21618674 57 17917711275235616376
23402539 116 18273207591617378317
23559900 14 18268985552480929464
4325135 7 12252192865351592752
532947 4 18196375818990608783
5385378 56 17978798909453043889
59755656 215 18335413518646802445
59755656 520 18412539900122876845
6913067 236 10881689064837987696
9709674 26 18267579294029741117

> <PUBCHEM_SHAPE_MULTIPOLES>
382.9
11.19
3.4
1.11
9.85
4.08
-0.15
-0.32
0.13
-2.26
-0.35
-0.27
-0.12
0.4

> <PUBCHEM_SHAPE_SELFOVERLAP>
743.586

> <PUBCHEM_SHAPE_VOLUME>
229.2

> <PUBCHEM_COORDINATE_TYPE>
2
5
10

$$$$
