100136
  -OEChem-03292013323D

 38 37  0     1  0  0  0  0  0999 V2000
    2.6799   -3.3187    0.2106 S   0  0  0  0  0  0  0  0  0  0  0  0
    0.2941    1.3091    1.6665 O   0  0  0  0  0  0  0  0  0  0  0  0
   -1.9800   -1.8417   -0.9468 O   0  0  0  0  0  0  0  0  0  0  0  0
   -3.8150   -1.4050    0.2922 O   0  0  0  0  0  0  0  0  0  0  0  0
    4.0225    2.2387   -1.2005 O   0  0  0  0  0  0  0  0  0  0  0  0
   -0.6588    0.2711   -0.1765 N   0  0  0  0  0  0  0  0  0  0  0  0
    2.7346    1.3951    0.5603 N   0  0  0  0  0  0  0  0  0  0  0  0
   -2.7662    1.5136   -0.0238 C   0  0  0  0  0  0  0  0  0  0  0  0
   -2.0079    0.2178    0.3359 C   0  0  1  0  0  0  0  0  0  0  0  0
    1.7186    0.7201   -0.2053 C   0  0  1  0  0  0  0  0  0  0  0  0
    2.1082   -0.7274   -0.5347 C   0  0  0  0  0  0  0  0  0  0  0  0
    0.3928    0.8202    0.5429 C   0  0  0  0  0  0  0  0  0  0  0  0
   -4.1218    1.6062    0.6820 C   0  0  0  0  0  0  0  0  0  0  0  0
   -2.9400    1.7118   -1.5328 C   0  0  0  0  0  0  0  0  0  0  0  0
   -2.7068   -1.0648   -0.1063 C   0  0  0  0  0  0  0  0  0  0  0  0
    2.2275   -1.6270    0.6977 C   0  0  0  0  0  0  0  0  0  0  0  0
    3.7838    2.0862   -0.0094 C   0  0  0  0  0  0  0  0  0  0  0  0
    1.0345   -3.9053   -0.2520 C   0  0  0  0  0  0  0  0  0  0  0  0
   -2.1661    2.3596    0.3397 H   0  0  0  0  0  0  0  0  0  0  0  0
   -1.9283    0.1442    1.4286 H   0  0  0  0  0  0  0  0  0  0  0  0
    1.5980    1.2661   -1.1502 H   0  0  0  0  0  0  0  0  0  0  0  0
   -0.4957   -0.0724   -1.1182 H   0  0  0  0  0  0  0  0  0  0  0  0
    3.0690   -0.7167   -1.0673 H   0  0  0  0  0  0  0  0  0  0  0  0
    1.3756   -1.1462   -1.2339 H   0  0  0  0  0  0  0  0  0  0  0  0
   -4.8494    0.9004    0.2706 H   0  0  0  0  0  0  0  0  0  0  0  0
   -4.5430    2.6108    0.5634 H   0  0  0  0  0  0  0  0  0  0  0  0
   -4.0201    1.4154    1.7552 H   0  0  0  0  0  0  0  0  0  0  0  0
   -3.5404    0.9104   -1.9759 H   0  0  0  0  0  0  0  0  0  0  0  0
   -3.4456    2.6612   -1.7403 H   0  0  0  0  0  0  0  0  0  0  0  0
   -1.9734    1.7366   -2.0457 H   0  0  0  0  0  0  0  0  0  0  0  0
    1.3033   -1.6509    1.2829 H   0  0  0  0  0  0  0  0  0  0  0  0
    3.0200   -1.2555    1.3554 H   0  0  0  0  0  0  0  0  0  0  0  0
    2.6884    1.3470    1.5744 H   0  0  0  0  0  0  0  0  0  0  0  0
    4.4333    2.5149    0.7714 H   0  0  0  0  0  0  0  0  0  0  0  0
   -2.4542   -2.6663   -1.1864 H   0  0  0  0  0  0  0  0  0  0  0  0
    0.3384   -3.8020    0.5845 H   0  0  0  0  0  0  0  0  0  0  0  0
    0.6543   -3.3596   -1.1186 H   0  0  0  0  0  0  0  0  0  0  0  0
    1.0963   -4.9643   -0.5173 H   0  0  0  0  0  0  0  0  0  0  0  0
  1 16  1  0  0  0  0
  1 18  1  0  0  0  0
  2 12  2  0  0  0  0
  3 15  1  0  0  0  0
  3 35  1  0  0  0  0
  4 15  2  0  0  0  0
  5 17  2  0  0  0  0
  6  9  1  0  0  0  0
  6 12  1  0  0  0  0
  6 22  1  0  0  0  0
  7 10  1  0  0  0  0
  7 17  1  0  0  0  0
  7 33  1  0  0  0  0
  8  9  1  0  0  0  0
  8 13  1  0  0  0  0
  8 14  1  0  0  0  0
  8 19  1  0  0  0  0
  9 15  1  0  0  0  0
  9 20  1  0  0  0  0
 10 11  1  0  0  0  0
 10 12  1  0  0  0  0
 10 21  1  0  0  0  0
 11 16  1  0  0  0  0
 11 23  1  0  0  0  0
 11 24  1  0  0  0  0
 13 25  1  0  0  0  0
 13 26  1  0  0  0  0
 13 27  1  0  0  0  0
 14 28  1  0  0  0  0
 14 29  1  0  0  0  0
 14 30  1  0  0  0  0
 16 31  1  0  0  0  0
 16 32  1  0  0  0  0
 17 34  1  0  0  0  0
 18 36  1  0  0  0  0
 18 37  1  0  0  0  0
 18 38  1  0  0  0  0
M  END
> <PUBCHEM_COMPOUND_CID>
100136

> <PUBCHEM_CONFORMER_RMSD>
0.8

> <PUBCHEM_CONFORMER_DIVERSEORDER>
1
79
190
200
231
318
10
282
59
264
72
366
360
76
103
234
186
169
268
414
203
161
393
208
358
95
303
401
323
158
354
206
35
179
369
244
56
404
361
362
317
364
281
348
247
351
160
312
336
338
300
88
236
403
285
235
370
216
26
295
398
399
202
298
320
195
154
417
254
224
62
150
279
256
64
304
232
388
237
110
198
33
349
355
211
175
63
291
168
405
382
289
394
181
182
184
418
220
391
375
29
397
379
73
146
214
383
290
205
252
44
406
275
309
262
138
368
384
71
221
373
191
74
91
112
371
97
411
322
356
81
253
212
215
409
129
352
222
335
94
99
192
249
307
294
194
326
240
419
306
104
311
152
413
114
259
45
390
283
288
395
269
38
233
165
173
101
86
70
127
343
380
128
246
359
155
144
131
162
315
280
407
85
302
396
258
185
299
365
120
9
218
400
341
210
121
257
410
305
331
52
105
156
87
372
30
219
408
187
46
170
176
402
337
109
319
339
199
250
136
292
19
230
123
177
78
20
77
313
130
321
53
248
196
284
251
49
301
217
40
5
167
113
347
15
310
225
172
267
68
265
27
255
117
241
238
374
180
58
36
69
287
293
266
243
142
98
193
148
277
327
37
139
286
209
229
213
325
333
171
93
48
18
381
334
132
143
42
147
111
125
39
389
386
346
377
141
22
332
328
183
350
145
387
367
82
66
124
330
416
340
296
188
51
159
204
378
34
119
41
31
140
11
122
392
201
271
316
357
17
189
43
108
14
344
84
89
228
197
102
178
135
385
345
151
342
16
32
164
7
28
174
12
363
276
92
226
80
25
134
166
96
8
308
75
314
260
60
415
274
116
153
106
23
54
61
297
353
90
65
57
118
163
6
261
273
223
263
157
227
24
278
21
67
50
376
13
239
107
149
4
242
100
324
329
272
3
126
137
2
207
245
55
115
133
270
83
412
47

> <PUBCHEM_MMFF94_PARTIAL_CHARGES>
18
1 -0.46
10 0.36
12 0.57
15 0.66
16 0.23
17 0.57
18 0.23
2 -0.57
22 0.37
3 -0.65
33 0.37
34 0.06
35 0.5
4 -0.57
5 -0.57
6 -0.73
7 -0.73
9 0.36

> <PUBCHEM_EFFECTIVE_ROTOR_COUNT>
10

> <PUBCHEM_PHARMACOPHORE_FEATURES>
9
1 18 hydrophobe
1 2 acceptor
1 3 acceptor
1 4 acceptor
1 5 acceptor
1 6 donor
1 7 donor
3 3 4 15 anion
3 8 13 14 hydrophobe

> <PUBCHEM_HEAVY_ATOM_COUNT>
18

> <PUBCHEM_ATOM_DEF_STEREO_COUNT>
0

> <PUBCHEM_ATOM_UDEF_STEREO_COUNT>
2

> <PUBCHEM_BOND_DEF_STEREO_COUNT>
0

> <PUBCHEM_BOND_UDEF_STEREO_COUNT>
0

> <PUBCHEM_ISOTOPIC_ATOM_COUNT>
0

> <PUBCHEM_COMPONENT_COUNT>
1

> <PUBCHEM_CACTVS_TAUTO_COUNT>
4

> <PUBCHEM_CONFORMER_ID>
0001872800000001

> <PUBCHEM_MMFF94_ENERGY>
29.4607

> <PUBCHEM_FEATURE_SELFOVERLAP>
45.734

> <PUBCHEM_SHAPE_FINGERPRINT>
10922523 26 17969503714806498493
12553582 1 17907862803852267278
13004483 165 17470716711897190394
13380535 21 18411138034854195481
13533116 47 18271518720402739451
16945 1 18195244403970782681
18186145 218 18410014299542298228
18785283 64 18194697968625524465
20600515 1 17768245713629550274
20645477 70 18335696092502027259
20671657 53 17906171750694463810
21501502 16 18413101754184144223
21524375 3 18042965570272504360
21618674 54 18408884044575384745
2255824 54 18338239258892282142
23366157 5 18113901520510464634
23419403 2 16761078743186836256
23559900 14 18268420244642567178
2871803 45 18127402578179778799
314173 41 18050856515721700366
45790113 53 18049161073102045541
58051976 100 18337113363116850687
58051976 378 18267302221531620084
7364860 26 18338516322916363954
74978 22 18266455408541603569

> <PUBCHEM_SHAPE_MULTIPOLES>
340.84
7.41
3.92
1.08
3.08
2.7
-0.06
-2.02
-0.42
-4.44
-0.52
0.25
-0.43
-0.42

> <PUBCHEM_SHAPE_SELFOVERLAP>
640.464

> <PUBCHEM_SHAPE_VOLUME>
213.2

> <PUBCHEM_COORDINATE_TYPE>
2
5
10

$$$$
