REMARK  Name = 10018390
REMARK  6 active torsions:
REMARK  status: ('A' for Active; 'I' for Inactive)
REMARK    1  A    between atoms: C_6  and  C_22
REMARK    2  A    between atoms: C_9  and  O_16
REMARK    3  A    between atoms: C_14  and  O_18
REMARK    4  A    between atoms: C_15  and  O_20
REMARK    5  A    between atoms: C_23  and  C_25
REMARK    6  A    between atoms: C_25  and  O_26
REMARK                            x       y       z     vdW  Elec       q    Type
REMARK                         _______ _______ _______ _____ _____    ______ ____
ROOT
ATOM      1  O   UNL     1       1.393   1.415   0.961  0.00  0.00    -0.450 OA
ATOM      2  C   UNL     1      -0.901   0.662   0.610  0.00  0.00    +0.038 C 
ATOM      3  C   UNL     1       0.137   1.587   0.425  0.00  0.00    +0.179 C 
ATOM      4  C   UNL     1       1.644  -1.000   0.727  0.00  0.00    +0.038 C 
ATOM      5  C   UNL     1       2.086   0.313   0.514  0.00  0.00    +0.149 C 
ATOM      6  C   UNL     1      -2.170   0.972   0.099  0.00  0.00    +0.003 C 
ATOM      7  C   UNL     1      -0.735  -0.587   1.362  0.00  0.00    +0.003 C 
ATOM      8  C   UNL     1       0.387  -1.319   1.413  0.00  0.00    +0.003 C 
ATOM      9  C   UNL     1      -0.089   2.792  -0.248  0.00  0.00    +0.168 C 
ATOM     10  C   UNL     1      -2.391   2.166  -0.591  0.00  0.00    +0.003 C 
ATOM     11  C   UNL     1       2.467  -2.058   0.311  0.00  0.00    +0.043 C 
ATOM     12  C   UNL     1       3.322   0.563  -0.092  0.00  0.00    +0.077 C 
ATOM     13  C   UNL     1      -1.351   3.076  -0.764  0.00  0.00    +0.040 C 
ATOM     14  C   UNL     1       3.691  -1.808  -0.313  0.00  0.00    +0.168 C 
ATOM     15  C   UNL     1       4.119  -0.498  -0.514  0.00  0.00    +0.171 C 
ENDROOT
BRANCH   9  16
ATOM     16  O   UNL     1       0.914   3.700  -0.410  0.00  0.00    -0.503 OA
ATOM     17  H   UNL     1       1.768   3.521  -0.067  0.00  0.00    +0.292 HD
ENDBRANCH   9  16
BRANCH  14  18
ATOM     18  O   UNL     1       4.464  -2.857  -0.711  0.00  0.00    -0.503 OA
ATOM     19  H   UNL     1       4.169  -3.736  -0.572  0.00  0.00    +0.292 HD
ENDBRANCH  14  18
BRANCH  15  20
ATOM     20  O   UNL     1       5.315  -0.242  -1.111  0.00  0.00    -0.503 OA
ATOM     21  H   UNL     1       5.594   0.643  -1.242  0.00  0.00    +0.292 HD
ENDBRANCH  15  20
BRANCH   6  22
ATOM     22  C   UNL     1      -3.321   0.079   0.224  0.00  0.00    +0.007 C 
ATOM     23  C   UNL     1      -3.637  -0.903  -0.643  0.00  0.00    +0.082 C 
BRANCH  23  25
ATOM     24  O   UNL     1      -5.599  -1.650   0.539  0.00  0.00    -0.245 OA
ATOM     25  C   UNL     1      -4.824  -1.746  -0.397  0.00  0.00    +0.338 C 
BRANCH  25  26
ATOM     26  O   UNL     1      -4.921  -2.658  -1.392  0.00  0.00    -0.477 OA
ATOM     27  H   UNL     1      -4.286  -2.671  -2.080  0.00  0.00    +0.295 HD
ENDBRANCH  25  26
ENDBRANCH  23  25
ENDBRANCH   6  22
TORSDOF 6
