REMARK  Name = 10014835
REMARK  8 active torsions:
REMARK  status: ('A' for Active; 'I' for Inactive)
REMARK    1  A    between atoms: C_1  and  P_2
REMARK    2  A    between atoms: C_1  and  O_8
REMARK    3  A    between atoms: C_1  and  C_11
REMARK    4  A    between atoms: C_1  and  C_14
REMARK    5  A    between atoms: P_2  and  O_4
REMARK    6  A    between atoms: P_2  and  O_6
REMARK    7  A    between atoms: C_11  and  O_12
REMARK    8  A    between atoms: C_14  and  C_16
REMARK                            x       y       z     vdW  Elec       q    Type
REMARK                         _______ _______ _______ _____ _____    ______ ____
ROOT
ATOM      1  C   UNL     1      -1.019  -0.092  -0.206  0.00  0.00    +0.275 C 
ENDROOT
BRANCH   1   2
ATOM      2  P   UNL     1      -2.714  -0.496   0.302  0.00  0.00    +0.371 P 
ATOM      3  O   UNL     1      -3.164   0.177   1.565  0.00  0.00    -0.255 OA
BRANCH   2   4
ATOM      4  O   UNL     1      -2.735  -2.112   0.349  0.00  0.00    -0.322 OA
ATOM      5  H   UNL     1      -3.617  -2.416   0.615  0.00  0.00    +0.220 HD
ENDBRANCH   2   4
BRANCH   2   6
ATOM      6  O   UNL     1      -3.599  -0.151  -1.007  0.00  0.00    -0.322 OA
ATOM      7  H   UNL     1      -4.533  -0.340  -0.824  0.00  0.00    +0.220 HD
ENDBRANCH   2   6
ENDBRANCH   1   2
BRANCH   1   8
ATOM      8  O   UNL     1      -0.844  -0.816  -1.413  0.00  0.00    -0.367 OA
ATOM      9  H   UNL     1      -0.950  -1.764  -1.240  0.00  0.00    +0.212 HD
ENDBRANCH   1   8
BRANCH   1  11
ATOM     10  O   UNL     1      -0.582   1.890  -1.540  0.00  0.00    -0.247 OA
ATOM     11  C   UNL     1      -0.858   1.404  -0.451  0.00  0.00    +0.350 C 
BRANCH  11  12
ATOM     12  O   UNL     1      -1.074   2.155   0.658  0.00  0.00    -0.478 OA
ATOM     13  H   UNL     1      -1.283   1.740   1.472  0.00  0.00    +0.295 HD
ENDBRANCH  11  12
ENDBRANCH   1  11
BRANCH   1  14
ATOM     14  C   UNL     1      -0.006  -0.587   0.844  0.00  0.00    +0.078 C 
BRANCH  14  16
ATOM     15  N   UNL     1       3.433  -1.243  -0.548  0.00  0.00    -0.243 NA
ATOM     16  C   UNL     1       1.448  -0.386   0.487  0.00  0.00    +0.001 C 
ATOM     17  C   UNL     1       2.095   0.778   0.845  0.00  0.00    -0.001 C 
ATOM     18  C   UNL     1       2.133  -1.360  -0.197  0.00  0.00    +0.095 C 
ATOM     19  C   UNL     1       3.434   0.935   0.501  0.00  0.00    +0.020 C 
ATOM     20  C   UNL     1       4.052  -0.096  -0.189  0.00  0.00    +0.099 C 
ENDBRANCH  14  16
ENDBRANCH   1  14
TORSDOF 8
