REMARK  Name = 10017261
REMARK  5 active torsions:
REMARK  status: ('A' for Active; 'I' for Inactive)
REMARK    1  A    between atoms: C2*_2  and  O2*_15
REMARK    2  A    between atoms: C1*_3  and  N_6
REMARK    3  A    between atoms: C3*_4  and  O3*_17
REMARK    4  A    between atoms: C4*_5  and  C5*_19
REMARK    5  A    between atoms: C5*_19  and  O5*_20
REMARK                            x       y       z     vdW  Elec       q    Type
REMARK                         _______ _______ _______ _____ _____    ______ ____
ROOT
ATOM      1  O4* UNL     1       2.239  -0.215  -0.997  0.00  0.00    -0.333 OA
ATOM      2  C2* UNL     1       2.489   1.095   0.972  0.00  0.00    +0.187 C 
ATOM      3  C1* UNL     1       1.834   1.032  -0.405  0.00  0.00    +0.225 C 
ATOM      4  C3* UNL     1       3.799   0.378   0.716  0.00  0.00    +0.171 C 
ATOM      5  C4* UNL     1       3.436  -0.673  -0.336  0.00  0.00    +0.175 C 
ENDROOT
BRANCH   3   6
ATOM      6  N   UNL     1       0.381   1.157  -0.418  0.00  0.00    -0.247 N 
ATOM      7  N   UNL     1      -1.634   2.115  -0.549  0.00  0.00    -0.247 NA
ATOM      8  N   UNL     1      -0.287  -1.156  -0.086  0.00  0.00    -0.208 NA
ATOM      9  N   UNL     1      -2.717  -1.385  -0.047  0.00  0.00    -0.243 NA
ATOM     10  C   UNL     1      -0.535   0.149  -0.272  0.00  0.00    +0.152 C 
ATOM     11  C   UNL     1      -0.333   2.319  -0.581  0.00  0.00    +0.223 C 
ATOM     12  C   UNL     1      -1.774   0.764  -0.356  0.00  0.00    +0.112 C 
ATOM     13  C   UNL     1      -2.892  -0.056  -0.236  0.00  0.00    +0.175 C 
ATOM     14  C   UNL     1      -1.444  -1.846   0.015  0.00  0.00    +0.196 C 
ENDBRANCH   3   6
BRANCH   2  15
ATOM     15  O2* UNL     1       1.735   0.370   1.935  0.00  0.00    -0.378 OA
ATOM     16  H2* UNL     1       0.896   0.829   2.100  0.00  0.00    +0.211 HD
ENDBRANCH   2  15
BRANCH   4  17
ATOM     17  O3* UNL     1       4.717   1.311   0.150  0.00  0.00    -0.379 OA
ATOM     18  H3* UNL     1       4.950   1.979   0.814  0.00  0.00    +0.211 HD
ENDBRANCH   4  17
BRANCH   5  19
ATOM     19  C5* UNL     1       3.144  -2.044   0.259  0.00  0.00    +0.169 C 
BRANCH  19  20
ATOM     20  O5* UNL     1       2.810  -2.933  -0.792  0.00  0.00    -0.379 OA
ATOM     21  H5* UNL     1       2.622  -3.811  -0.426  0.00  0.00    +0.211 HD
ENDBRANCH  19  20
ENDBRANCH   5  19
TORSDOF 5
REMARK  Name = 10017261
REMARK  5 active torsions:
REMARK  status: ('A' for Active; 'I' for Inactive)
REMARK    1  A    between atoms: C2*_2  and  O2*_15
REMARK    2  A    between atoms: C1*_3  and  N_6
REMARK    3  A    between atoms: C3*_4  and  O3*_17
REMARK    4  A    between atoms: C4*_5  and  C5*_19
REMARK    5  A    between atoms: C5*_19  and  O5*_20
REMARK                            x       y       z     vdW  Elec       q    Type
REMARK                         _______ _______ _______ _____ _____    ______ ____
ROOT
ATOM      1  N   UNL     1      -5.015  -0.146   0.363  0.00  0.00    +0.000 NA
ATOM      2  N   UNL     1      -5.785  -0.723   0.978  0.00  0.00    +0.000 NA
ENDROOT
TORSDOF 0
