REMARK  Name = 100156
REMARK  15 active torsions:
REMARK  status: ('A' for Active; 'I' for Inactive)
REMARK    1  A    between atoms: C_1  and  C_3
REMARK    2  A    between atoms: C_1  and  O_5
REMARK    3  A    between atoms: C_1  and  C_14
REMARK    4  A    between atoms: O_5  and  C_7
REMARK    5  A    between atoms: C_7  and  C_8
REMARK    6  A    between atoms: C_8  and  C_9
REMARK    7  A    between atoms: C_9  and  C_11
REMARK    8  A    between atoms: C_11  and  O_12
REMARK    9  A    between atoms: C_14  and  C_16
REMARK   10  A    between atoms: C_14  and  O_18
REMARK   11  A    between atoms: O_18  and  C_20
REMARK   12  A    between atoms: C_20  and  C_21
REMARK   13  A    between atoms: C_21  and  C_22
REMARK   14  A    between atoms: C_22  and  C_24
REMARK   15  A    between atoms: C_24  and  O_25
REMARK                            x       y       z     vdW  Elec       q    Type
REMARK                         _______ _______ _______ _____ _____    ______ ____
ROOT
ATOM      1  C   UNL     1      -0.337  -0.938   0.683  0.00  0.00    +0.240 C 
ENDROOT
BRANCH   1   3
ATOM      2  O   UNL     1       0.048  -2.023   2.869  0.00  0.00    -0.347 OA
ATOM      3  C   UNL     1       0.034  -2.178   1.444  0.00  0.00    +0.188 C 
ATOM      4  C   UNL     1       1.310  -2.255   2.230  0.00  0.00    +0.176 C 
ENDBRANCH   1   3
BRANCH   1   5
ATOM      5  O   UNL     1      -1.759  -0.888   0.524  0.00  0.00    -0.446 OA
BRANCH   5   7
ATOM      6  O   UNL     1      -1.689   1.415   0.602  0.00  0.00    -0.250 OA
ATOM      7  C   UNL     1      -2.306   0.364   0.500  0.00  0.00    +0.318 C 
BRANCH   7   8
ATOM      8  C   UNL     1      -3.804   0.238   0.329  0.00  0.00    +0.121 C 
BRANCH   8   9
ATOM      9  C   UNL     1      -4.508   1.584   0.203  0.00  0.00    +0.121 C 
BRANCH   9  11
ATOM     10  O   UNL     1      -6.549   0.322  -0.073  0.00  0.00    -0.250 OA
ATOM     11  C   UNL     1      -5.989   1.409  -0.020  0.00  0.00    +0.314 C 
BRANCH  11  12
ATOM     12  O   UNL     1      -6.644   2.591  -0.136  0.00  0.00    -0.480 OA
ATOM     13  H   UNL     1      -6.168   3.396  -0.088  0.00  0.00    +0.295 HD
ENDBRANCH  11  12
ENDBRANCH   9  11
ENDBRANCH   8   9
ENDBRANCH   7   8
ENDBRANCH   5   7
ENDBRANCH   1   5
BRANCH   1  14
ATOM     14  C   UNL     1       0.333  -0.887  -0.698  0.00  0.00    +0.240 C 
BRANCH  14  16
ATOM     15  O   UNL     1      -0.056  -1.782  -2.968  0.00  0.00    -0.347 OA
ATOM     16  C   UNL     1      -0.048  -2.056  -1.561  0.00  0.00    +0.188 C 
ATOM     17  C   UNL     1      -1.322  -2.055  -2.354  0.00  0.00    +0.176 C 
ENDBRANCH  14  16
BRANCH  14  18
ATOM     18  O   UNL     1       1.752  -0.850  -0.560  0.00  0.00    -0.446 OA
BRANCH  18  20
ATOM     19  O   UNL     1       1.690   1.454  -0.478  0.00  0.00    -0.250 OA
ATOM     20  C   UNL     1       2.306   0.398  -0.459  0.00  0.00    +0.318 C 
BRANCH  20  21
ATOM     21  C   UNL     1       3.807   0.259  -0.323  0.00  0.00    +0.121 C 
BRANCH  21  22
ATOM     22  C   UNL     1       4.515   1.593  -0.117  0.00  0.00    +0.121 C 
BRANCH  22  24
ATOM     23  O   UNL     1       6.558   0.313   0.038  0.00  0.00    -0.250 OA
ATOM     24  C   UNL     1       6.000   1.402   0.070  0.00  0.00    +0.314 C 
BRANCH  24  25
ATOM     25  O   UNL     1       6.658   2.573   0.255  0.00  0.00    -0.480 OA
ATOM     26  H   UNL     1       6.183   3.380   0.271  0.00  0.00    +0.295 HD
ENDBRANCH  24  25
ENDBRANCH  22  24
ENDBRANCH  21  22
ENDBRANCH  20  21
ENDBRANCH  18  20
ENDBRANCH  14  18
ENDBRANCH   1  14
TORSDOF 15
