REMARK  Name = 10015554
REMARK  8 active torsions:
REMARK  status: ('A' for Active; 'I' for Inactive)
REMARK    1  A    between atoms: CA_1  and  N_2
REMARK    2  A    between atoms: CA_1  and  C_11
REMARK    3  A    between atoms: CA_1  and  CB_14
REMARK    4  A    between atoms: N_2  and  C_5
REMARK    5  A    between atoms: C_5  and  C_7
REMARK    6  A    between atoms: C_7  and  O_8
REMARK    7  A    between atoms: C_11  and  O_12
REMARK    8  A    between atoms: CB_14  and  CG_16
REMARK                            x       y       z     vdW  Elec       q    Type
REMARK                         _______ _______ _______ _____ _____    ______ ____
ROOT
ATOM      1  CA  TRP A   1      -1.165  -0.036  -0.035  0.00  0.00    +0.045 C 
ENDROOT
BRANCH   1   2
ATOM      2  N   TRP A   1      -2.472   0.398  -0.536  0.00  0.00    +0.400 N 
ATOM      3  H1  TRP A   1      -2.785  -0.250  -1.259  0.00  0.00    -0.083 HD
ATOM      4  H2  TRP A   1      -2.380   1.338  -0.921  0.00  0.00    -0.083 HD
BRANCH   2   5
ATOM      5  C   UNK A   0      -3.450   0.424   0.538  0.00  0.00    +0.031 C 
BRANCH   5   7
ATOM      6  O   UNK A   0      -4.946   1.166  -1.201  0.00  0.00    -0.253 OA
ATOM      7  C   UNK A   0      -4.770   0.875  -0.025  0.00  0.00    +0.292 C 
BRANCH   7   8
ATOM      8  O   UNK A   0      -5.743   0.967   0.917  0.00  0.00    -0.482 OA
ATOM      9  H   UNK A   0      -5.559   0.732   1.806  0.00  0.00    +0.295 HD
ENDBRANCH   7   8
ENDBRANCH   5   7
ENDBRANCH   2   5
ENDBRANCH   1   2
BRANCH   1  11
ATOM     10  OXT TRP A   1      -1.696  -2.417  -0.091  0.00  0.00    -0.253 OA
ATOM     11  C   TRP A   1      -1.360  -1.427   0.547  0.00  0.00    +0.294 C 
BRANCH  11  12
ATOM     12  O   TRP A   1      -1.091  -1.470   1.878  0.00  0.00    -0.482 OA
ATOM     13  H   TRP A   1      -0.837  -0.689   2.330  0.00  0.00    +0.295 HD
ENDBRANCH  11  12
ENDBRANCH   1  11
BRANCH   1  14
ATOM     14  CB  TRP A   1      -0.128  -0.057  -1.181  0.00  0.00    +0.017 C 
BRANCH  14  16
ATOM     15  NE1 TRP A   1       3.000  -1.729  -0.311  0.00  0.00    -0.312 N 
ATOM     16  CG  TRP A   1       1.228  -0.471  -0.767  0.00  0.00    -0.008 C 
ATOM     17  CD2 TRP A   1       2.272   0.380  -0.308  0.00  0.00    +0.011 C 
ATOM     18  CE2 TRP A   1       3.372  -0.433  -0.029  0.00  0.00    +0.048 C 
ATOM     19  CD1 TRP A   1       1.706  -1.762  -0.758  0.00  0.00    +0.058 C 
ATOM     20  CE3 TRP A   1       2.387   1.770  -0.103  0.00  0.00    +0.001 C 
ATOM     21  CZ2 TRP A   1       4.586   0.075   0.447  0.00  0.00    +0.015 C 
ATOM     22  CZ3 TRP A   1       3.595   2.292   0.373  0.00  0.00    +0.000 C 
ATOM     23  CH2 TRP A   1       4.676   1.456   0.643  0.00  0.00    +0.001 C 
ATOM     24  HE1 TRP A   1       3.580  -2.517  -0.206  0.00  0.00    +0.152 HD
ENDBRANCH  14  16
ENDBRANCH   1  14
TORSDOF 8
