REMARK  Name = 100145
REMARK  4 active torsions:
REMARK  status: ('A' for Active; 'I' for Inactive)
REMARK    1  A    between atoms: C_2  and  C_17
REMARK    2  A    between atoms: C_3  and  N_9
REMARK    3  A    between atoms: C_4  and  O_15
REMARK    4  A    between atoms: C_17  and  O_18
REMARK                            x       y       z     vdW  Elec       q    Type
REMARK                         _______ _______ _______ _____ _____    ______ ____
ROOT
ATOM      1  O   UNL     1       1.219  -0.534  -0.395  0.00  0.00    -0.331 OA
ATOM      2  C   UNL     1       2.449   0.153  -0.657  0.00  0.00    +0.177 C 
ATOM      3  C   UNL     1       0.115   0.365  -0.211  0.00  0.00    +0.222 C 
ATOM      4  C   UNL     1       2.847   0.977   0.581  0.00  0.00    +0.162 C 
ATOM      5  C   UNL     1       0.435   1.521   0.700  0.00  0.00    +0.022 C 
ATOM      6  C   UNL     1       1.691   1.787   1.082  0.00  0.00    +0.005 C 
ENDROOT
BRANCH   3   9
ATOM      7  O   UNL     1      -3.925   0.593  -1.402  0.00  0.00    -0.123 OA
ATOM      8  O   UNL     1      -2.222   1.879  -0.869  0.00  0.00    -0.123 OA
ATOM      9  N   UNL     1      -1.010  -0.427   0.304  0.00  0.00    -0.224 N 
ATOM     10  N   UNL     1      -3.089  -1.113   0.668  0.00  0.00    -0.207 NA
ATOM     11  N   UNL     1      -2.847   0.784  -0.771  0.00  0.00    +0.091 N 
ATOM     12  C   UNL     1      -2.337  -0.230   0.048  0.00  0.00    +0.286 C 
ATOM     13  C   UNL     1      -0.906  -1.502   1.139  0.00  0.00    +0.091 C 
ATOM     14  C   UNL     1      -2.203  -1.908   1.351  0.00  0.00    +0.118 C 
ENDBRANCH   3   9
BRANCH   4  15
ATOM     15  O   UNL     1       3.274   0.142   1.653  0.00  0.00    -0.377 OA
ATOM     16  H   UNL     1       4.025  -0.399   1.362  0.00  0.00    +0.211 HD
ENDBRANCH   4  15
BRANCH   2  17
ATOM     17  C   UNL     1       3.488  -0.891  -1.042  0.00  0.00    +0.170 C 
BRANCH  17  18
ATOM     18  O   UNL     1       3.022  -1.596  -2.179  0.00  0.00    -0.379 OA
ATOM     19  H   UNL     1       3.675  -2.265  -2.436  0.00  0.00    +0.211 HD
ENDBRANCH  17  18
ENDBRANCH   2  17
TORSDOF 4
