100132
  -OEChem-03292013323D

 55 57  0     1  0  0  0  0  0999 V2000
    0.5125   -2.0050   -1.5841 O   0  0  0  0  0  0  0  0  0  0  0  0
    3.2043   -2.4191   -1.3257 O   0  0  0  0  0  0  0  0  0  0  0  0
    4.5586   -1.4399    0.8763 O   0  0  0  0  0  0  0  0  0  0  0  0
   -5.4246   -1.4805   -0.1490 O   0  0  0  0  0  0  0  0  0  0  0  0
   -4.4844    0.6038   -1.7358 O   0  0  0  0  0  0  0  0  0  0  0  0
    0.5119    4.4914    0.2046 O   0  0  0  0  0  0  0  0  0  0  0  0
    2.4184    4.7788   -1.6739 O   0  0  0  0  0  0  0  0  0  0  0  0
    0.3453    2.2043   -0.1819 N   0  0  0  0  0  0  0  0  0  0  0  0
   -0.6772    1.9184    0.8047 C   0  0  2  0  0  0  0  0  0  0  0  0
   -0.0862    1.8068    2.2278 C   0  0  0  0  0  0  0  0  0  0  0  0
    0.4126    0.4368    2.7011 C   0  0  0  0  0  0  0  0  0  0  0  0
   -1.5554    0.7650    0.3115 C   0  0  0  0  0  0  0  0  0  0  0  0
    1.1497   -0.3371    1.6418 C   0  0  0  0  0  0  0  0  0  0  0  0
    0.4518   -0.8433    0.5263 C   0  0  0  0  0  0  0  0  0  0  0  0
   -1.0144   -0.6008    0.3986 C   0  0  0  0  0  0  0  0  0  0  0  0
    1.1533   -1.5395   -0.4708 C   0  0  0  0  0  0  0  0  0  0  0  0
    2.5310   -0.5473    1.7458 C   0  0  0  0  0  0  0  0  0  0  0  0
   -2.7393    1.0886   -0.2418 C   0  0  0  0  0  0  0  0  0  0  0  0
   -1.7582   -1.7222    0.4643 C   0  0  0  0  0  0  0  0  0  0  0  0
    2.5281   -1.7429   -0.3532 C   0  0  0  0  0  0  0  0  0  0  0  0
    3.2150   -1.2491    0.7534 C   0  0  0  0  0  0  0  0  0  0  0  0
   -3.7890    0.2064   -0.8032 C   0  0  0  0  0  0  0  0  0  0  0  0
    0.8513    3.4746   -0.3944 C   0  0  0  0  0  0  0  0  0  0  0  0
   -3.1902   -1.8655    0.4492 C   0  0  0  0  0  0  0  0  0  0  0  0
   -4.0988   -1.0783   -0.1331 C   0  0  0  0  0  0  0  0  0  0  0  0
    1.9051    3.4779   -1.4811 C   0  0  0  0  0  0  0  0  0  0  0  0
    0.4505   -1.1286   -2.7053 C   0  0  0  0  0  0  0  0  0  0  0  0
    3.3182   -3.8317   -1.1710 C   0  0  0  0  0  0  0  0  0  0  0  0
    5.4086   -0.4406    0.3173 C   0  0  0  0  0  0  0  0  0  0  0  0
   -6.1082   -0.9815    0.9816 C   0  0  0  0  0  0  0  0  0  0  0  0
   -1.2940    2.8284    0.8418 H   0  0  0  0  0  0  0  0  0  0  0  0
    0.7379    2.5258    2.3306 H   0  0  0  0  0  0  0  0  0  0  0  0
   -0.8509    2.1323    2.9463 H   0  0  0  0  0  0  0  0  0  0  0  0
    1.0500    0.5788    3.5832 H   0  0  0  0  0  0  0  0  0  0  0  0
   -0.4320   -0.1662    3.0599 H   0  0  0  0  0  0  0  0  0  0  0  0
    0.7182    1.4401   -0.7376 H   0  0  0  0  0  0  0  0  0  0  0  0
    3.0781   -0.1593    2.6020 H   0  0  0  0  0  0  0  0  0  0  0  0
   -2.9969    2.1423   -0.3460 H   0  0  0  0  0  0  0  0  0  0  0  0
   -1.2606   -2.6857    0.5870 H   0  0  0  0  0  0  0  0  0  0  0  0
   -3.5375   -2.7944    0.9010 H   0  0  0  0  0  0  0  0  0  0  0  0
    1.4762    3.1162   -2.4207 H   0  0  0  0  0  0  0  0  0  0  0  0
    2.7285    2.8195   -1.1874 H   0  0  0  0  0  0  0  0  0  0  0  0
   -0.0693   -1.6471   -3.5156 H   0  0  0  0  0  0  0  0  0  0  0  0
   -0.1082   -0.2202   -2.4608 H   0  0  0  0  0  0  0  0  0  0  0  0
    1.4561   -0.8667   -3.0490 H   0  0  0  0  0  0  0  0  0  0  0  0
    2.3283   -4.2987   -1.1551 H   0  0  0  0  0  0  0  0  0  0  0  0
    3.8633   -4.0763   -0.2540 H   0  0  0  0  0  0  0  0  0  0  0  0
    3.8764   -4.2257   -2.0247 H   0  0  0  0  0  0  0  0  0  0  0  0
    5.2367    0.5249    0.8037 H   0  0  0  0  0  0  0  0  0  0  0  0
    5.2429   -0.3525   -0.7611 H   0  0  0  0  0  0  0  0  0  0  0  0
    6.4465   -0.7387    0.4884 H   0  0  0  0  0  0  0  0  0  0  0  0
    1.6954    5.3305   -2.0181 H   0  0  0  0  0  0  0  0  0  0  0  0
   -7.1510   -1.3078    0.9215 H   0  0  0  0  0  0  0  0  0  0  0  0
   -5.6860   -1.3773    1.9120 H   0  0  0  0  0  0  0  0  0  0  0  0
   -6.0999    0.1140    1.0019 H   0  0  0  0  0  0  0  0  0  0  0  0
  1 16  1  0  0  0  0
  1 27  1  0  0  0  0
  2 20  1  0  0  0  0
  2 28  1  0  0  0  0
  3 21  1  0  0  0  0
  3 29  1  0  0  0  0
  4 25  1  0  0  0  0
  4 30  1  0  0  0  0
  5 22  2  0  0  0  0
  6 23  2  0  0  0  0
  7 26  1  0  0  0  0
  7 52  1  0  0  0  0
  8  9  1  0  0  0  0
  8 23  1  0  0  0  0
  8 36  1  0  0  0  0
  9 10  1  0  0  0  0
  9 12  1  0  0  0  0
  9 31  1  0  0  0  0
 10 11  1  0  0  0  0
 10 32  1  0  0  0  0
 10 33  1  0  0  0  0
 11 13  1  0  0  0  0
 11 34  1  0  0  0  0
 11 35  1  0  0  0  0
 12 15  1  0  0  0  0
 12 18  2  0  0  0  0
 13 14  1  0  0  0  0
 13 17  2  0  0  0  0
 14 15  1  0  0  0  0
 14 16  2  0  0  0  0
 15 19  2  0  0  0  0
 16 20  1  0  0  0  0
 17 21  1  0  0  0  0
 17 37  1  0  0  0  0
 18 22  1  0  0  0  0
 18 38  1  0  0  0  0
 19 24  1  0  0  0  0
 19 39  1  0  0  0  0
 20 21  2  0  0  0  0
 22 25  1  0  0  0  0
 23 26  1  0  0  0  0
 24 25  2  0  0  0  0
 24 40  1  0  0  0  0
 26 41  1  0  0  0  0
 26 42  1  0  0  0  0
 27 43  1  0  0  0  0
 27 44  1  0  0  0  0
 27 45  1  0  0  0  0
 28 46  1  0  0  0  0
 28 47  1  0  0  0  0
 28 48  1  0  0  0  0
 29 49  1  0  0  0  0
 29 50  1  0  0  0  0
 29 51  1  0  0  0  0
 30 53  1  0  0  0  0
 30 54  1  0  0  0  0
 30 55  1  0  0  0  0
M  END
> <PUBCHEM_COMPOUND_CID>
100132

> <PUBCHEM_CONFORMER_RMSD>
1

> <PUBCHEM_CONFORMER_DIVERSEORDER>
2
11
8
13
7
17
6
21
12
16
19
9
5
10
3
14
18
4
20
15
1

> <PUBCHEM_MMFF94_PARTIAL_CHARGES>
35
1 -0.36
11 0.14
12 -0.14
13 -0.14
14 0.03
15 -0.03
16 0.08
17 -0.15
18 -0.14
19 -0.15
2 -0.36
20 0.08
21 0.08
22 0.54
23 0.57
24 -0.15
25 0.09
26 0.34
27 0.28
28 0.28
29 0.28
3 -0.36
30 0.28
36 0.37
37 0.15
38 0.15
39 0.15
4 -0.36
40 0.15
5 -0.57
52 0.4
6 -0.57
7 -0.68
8 -0.73
9 0.44

> <PUBCHEM_EFFECTIVE_ROTOR_COUNT>
7.6

> <PUBCHEM_PHARMACOPHORE_FEATURES>
12
1 1 acceptor
1 2 acceptor
1 3 acceptor
1 4 acceptor
1 5 acceptor
1 6 acceptor
1 7 acceptor
1 7 donor
1 8 donor
6 13 14 16 17 20 21 rings
7 12 15 18 19 22 24 25 rings
7 9 10 11 12 13 14 15 rings

> <PUBCHEM_HEAVY_ATOM_COUNT>
30

> <PUBCHEM_ATOM_DEF_STEREO_COUNT>
0

> <PUBCHEM_ATOM_UDEF_STEREO_COUNT>
1

> <PUBCHEM_BOND_DEF_STEREO_COUNT>
0

> <PUBCHEM_BOND_UDEF_STEREO_COUNT>
0

> <PUBCHEM_ISOTOPIC_ATOM_COUNT>
0

> <PUBCHEM_COMPONENT_COUNT>
1

> <PUBCHEM_CACTVS_TAUTO_COUNT>
2

> <PUBCHEM_CONFORMER_ID>
0001872400000002

> <PUBCHEM_MMFF94_ENERGY>
132.3813

> <PUBCHEM_FEATURE_SELFOVERLAP>
60.938

> <PUBCHEM_SHAPE_FINGERPRINT>
10675989 125 16676665847099783861
11421498 54 16806159939769970657
11488393 25 18117856609610937633
11578080 2 16300879478298953615
11763715 3 17901130545805564726
12156800 1 16485042118037503473
12236239 1 16805599231484074739
13134695 92 17774994700731698323
133893 2 18190482595305349257
13544653 18 17845928533524621971
13965767 371 11495457518409081614
140371 6 18413114965334936899
15238133 3 17632313284883047137
15664445 248 18334859402813439418
16114785 44 14943295648888572642
17357779 13 18130209463919652067
1813 80 18411706448063773563
20600515 1 18119226394978132841
20642791 178 18124032596520795274
21033648 29 17845069840992695211
21285901 2 18056744443258155414
23557571 272 18194669376732978824
23559900 14 18337940299225022499
25019877 29 17561075935125445902
3298306 158 17974857477614895076
3411729 13 18044378455599117825
46194498 28 18262234534159177623
6669772 16 17974856378082194356
81228 2 17983036456766215643

> <PUBCHEM_SHAPE_MULTIPOLES>
571.32
8.75
4.59
2.07
7.35
5.81
-0.03
-6.22
0.21
-4.41
2.53
-0.77
0.34
0.07

> <PUBCHEM_SHAPE_SELFOVERLAP>
1219.158

> <PUBCHEM_SHAPE_VOLUME>
313.5

> <PUBCHEM_COORDINATE_TYPE>
2
5
10

$$$$
