REMARK  Name = 10017108
REMARK  1 active torsions:
REMARK  status: ('A' for Active; 'I' for Inactive)
REMARK    1  A    between atoms: N_3  and  C_15
REMARK                            x       y       z     vdW  Elec       q    Type
REMARK                         _______ _______ _______ _____ _____    ______ ____
ROOT
ATOM      1  S   UNL     1      -0.892   2.998   0.024  0.00  0.00    -0.034 S 
ATOM      2  O   UNL     1      -0.081  -1.987  -0.246  0.00  0.00    -0.270 OA
ATOM      3  N   UNL     1      -0.100   0.369  -0.129  0.00  0.00    -0.242 N 
ATOM      4  C   UNL     1      -1.083   1.344  -0.050  0.00  0.00    +0.091 C 
ATOM      5  C   UNL     1      -0.633  -0.904  -0.174  0.00  0.00    +0.253 C 
ATOM      6  C   UNL     1      -2.362   0.623  -0.044  0.00  0.00    +0.025 C 
ATOM      7  C   UNL     1      -2.082  -0.735  -0.119  0.00  0.00    +0.056 C 
ATOM      8  C   UNL     1      -3.668   1.076   0.021  0.00  0.00    +0.002 C 
ATOM      9  C   UNL     1      -3.073  -1.697  -0.134  0.00  0.00    +0.005 C 
ATOM     10  C   UNL     1      -4.690   0.120   0.008  0.00  0.00    +0.000 C 
ATOM     11  C   UNL     1      -4.395  -1.253  -0.069  0.00  0.00    +0.000 C 
ENDROOT
BRANCH   3  15
ATOM     12  S   UNL     1       5.699  -0.628  -0.134  0.00  0.00    -0.039 S 
ATOM     13  O   UNL     1       1.333  -0.054   2.152  0.00  0.00    -0.273 OA
ATOM     14  N   UNL     1       3.289  -0.279   0.963  0.00  0.00    -0.281 N 
ATOM     15  C   UNL     1       1.312   0.651  -0.161  0.00  0.00    +0.157 C 
ATOM     16  C   UNL     1       1.954   0.096  -1.424  0.00  0.00    +0.036 C 
ATOM     17  C   UNL     1       3.446   0.388  -1.407  0.00  0.00    +0.051 C 
ATOM     18  C   UNL     1       1.942   0.055   1.088  0.00  0.00    +0.245 C 
ATOM     19  C   UNL     1       4.086  -0.184  -0.164  0.00  0.00    +0.064 C 
ATOM     20  H   UNL     1       3.726  -0.625   1.774  0.00  0.00    +0.155 HD
ENDBRANCH   3  15
TORSDOF 1
