100145
  -OEChem-03292013323D

 28 29  0     1  0  0  0  0  0999 V2000
    1.2186   -0.5339   -0.3952 O   0  0  0  0  0  0  0  0  0  0  0  0
    3.2741    0.1422    1.6528 O   0  0  0  0  0  0  0  0  0  0  0  0
    3.0215   -1.5961   -2.1793 O   0  0  0  0  0  0  0  0  0  0  0  0
   -3.9252    0.5932   -1.4020 O   0  5  0  0  0  0  0  0  0  0  0  0
   -2.2221    1.8787   -0.8685 O   0  0  0  0  0  0  0  0  0  0  0  0
   -1.0102   -0.4273    0.3037 N   0  0  0  0  0  0  0  0  0  0  0  0
   -3.0888   -1.1126    0.6685 N   0  0  0  0  0  0  0  0  0  0  0  0
   -2.8468    0.7841   -0.7709 N   0  3  0  0  0  0  0  0  0  0  0  0
    2.4489    0.1532   -0.6567 C   0  0  1  0  0  0  0  0  0  0  0  0
    0.1147    0.3653   -0.2113 C   0  0  1  0  0  0  0  0  0  0  0  0
    2.8471    0.9770    0.5811 C   0  0  1  0  0  0  0  0  0  0  0  0
    0.4352    1.5206    0.6996 C   0  0  0  0  0  0  0  0  0  0  0  0
    1.6910    1.7870    1.0822 C   0  0  0  0  0  0  0  0  0  0  0  0
    3.4881   -0.8914   -1.0425 C   0  0  0  0  0  0  0  0  0  0  0  0
   -2.3374   -0.2303    0.0480 C   0  0  0  0  0  0  0  0  0  0  0  0
   -0.9061   -1.5018    1.1394 C   0  0  0  0  0  0  0  0  0  0  0  0
   -2.2027   -1.9079    1.3511 C   0  0  0  0  0  0  0  0  0  0  0  0
    2.2814    0.8139   -1.5190 H   0  0  0  0  0  0  0  0  0  0  0  0
   -0.1587    0.7219   -1.2091 H   0  0  0  0  0  0  0  0  0  0  0  0
    3.6810    1.6390    0.3247 H   0  0  0  0  0  0  0  0  0  0  0  0
   -0.3706    2.1471    1.0699 H   0  0  0  0  0  0  0  0  0  0  0  0
    1.8874    2.6091    1.7631 H   0  0  0  0  0  0  0  0  0  0  0  0
    3.6317   -1.6245   -0.2423 H   0  0  0  0  0  0  0  0  0  0  0  0
    4.4475   -0.4223   -1.2812 H   0  0  0  0  0  0  0  0  0  0  0  0
    0.0388   -1.8741    1.5104 H   0  0  0  0  0  0  0  0  0  0  0  0
    2.5803   -0.5213    1.8111 H   0  0  0  0  0  0  0  0  0  0  0  0
   -2.5432   -2.7313    1.9618 H   0  0  0  0  0  0  0  0  0  0  0  0
    3.7007   -2.2533   -2.4083 H   0  0  0  0  0  0  0  0  0  0  0  0
  1  9  1  0  0  0  0
  1 10  1  0  0  0  0
  2 11  1  0  0  0  0
  2 26  1  0  0  0  0
  3 14  1  0  0  0  0
  3 28  1  0  0  0  0
  4  8  1  0  0  0  0
  5  8  2  0  0  0  0
  6 10  1  0  0  0  0
  6 15  1  0  0  0  0
  6 16  1  0  0  0  0
  7 15  2  0  0  0  0
  7 17  1  0  0  0  0
  8 15  1  0  0  0  0
  9 11  1  0  0  0  0
  9 14  1  0  0  0  0
  9 18  1  0  0  0  0
 10 12  1  0  0  0  0
 10 19  1  0  0  0  0
 11 13  1  0  0  0  0
 11 20  1  0  0  0  0
 12 13  2  0  0  0  0
 12 21  1  0  0  0  0
 13 22  1  0  0  0  0
 14 23  1  0  0  0  0
 14 24  1  0  0  0  0
 16 17  2  0  0  0  0
 16 25  1  0  0  0  0
 17 27  1  0  0  0  0
M  CHG  2   4  -1   8   1
M  END
> <PUBCHEM_COMPOUND_CID>
100145

> <PUBCHEM_CONFORMER_RMSD>
0.6

> <PUBCHEM_CONFORMER_DIVERSEORDER>
1
55
102
5
74
42
103
18
117
120
101
16
129
32
48
54
108
58
12
112
38
104
68
61
40
106
76
87
27
121
73
88
92
29
65
56
45
3
113
20
62
128
86
91
79
118
70
14
53
84
77
49
96
19
9
126
46
36
4
8
10
89
2
52
127
94
69
26
111
71
15
35
78
67
66
44
115
43
50
21
114
125
41
17
109
6
72
105
34
116
99
57
95
23
93
47
25
80
107
33
37
124
28
122
7
31
51
75
39
59
22
11
85
24
63
64
30
123
100
83
110
13
81
60
119
90
82
97
98

> <PUBCHEM_MMFF94_PARTIAL_CHARGES>
23
1 -0.56
10 0.67
11 0.42
12 -0.29
13 -0.29
14 0.28
15 0.27
16 -0.3
17 0.08
2 -0.68
21 0.15
22 0.15
25 0.15
26 0.4
27 0.15
28 0.4
3 -0.68
4 -0.52
5 -0.52
6 0.05
7 -0.57
8 0.96
9 0.28

> <PUBCHEM_EFFECTIVE_ROTOR_COUNT>
3.8

> <PUBCHEM_PHARMACOPHORE_FEATURES>
10
1 1 acceptor
1 2 acceptor
1 2 donor
1 3 acceptor
1 3 donor
1 4 acceptor
1 5 acceptor
4 6 7 8 15 cation
5 6 7 15 16 17 rings
6 1 9 10 11 12 13 rings

> <PUBCHEM_HEAVY_ATOM_COUNT>
17

> <PUBCHEM_ATOM_DEF_STEREO_COUNT>
0

> <PUBCHEM_ATOM_UDEF_STEREO_COUNT>
3

> <PUBCHEM_BOND_DEF_STEREO_COUNT>
0

> <PUBCHEM_BOND_UDEF_STEREO_COUNT>
0

> <PUBCHEM_ISOTOPIC_ATOM_COUNT>
0

> <PUBCHEM_COMPONENT_COUNT>
1

> <PUBCHEM_CACTVS_TAUTO_COUNT>
1

> <PUBCHEM_CONFORMER_ID>
0001873100000001

> <PUBCHEM_MMFF94_ENERGY>
33.2499

> <PUBCHEM_FEATURE_SELFOVERLAP>
50.834

> <PUBCHEM_SHAPE_FINGERPRINT>
11137873 295 17988655042566944623
11582403 64 16829171704016129769
12186901 62 17603878792727716423
12363563 72 17844540911512174630
124424 183 18337656586190536120
12932764 1 17749116620402917560
13296908 3 18342747329211349154
13538477 17 17167576102846277461
14115302 16 17677042452407817866
15219456 202 18341050817018691928
15375358 24 18342166791736044656
16752209 62 17386278909040697051
16945 1 18187649076419843473
18186145 218 18410012096350500465
18522853 266 17749100106406703842
19049666 15 18410857633418556570
19868273 293 17458060460871273853
20201158 50 18343297080698562976
20279233 1 18342172297556920866
20645476 183 16732708250560483067
20645477 70 18060701688833461950
20715346 28 18340771549702436298
21069387 34 17203611475613087951
21524375 3 17823398424006931299
21639500 275 17417241186111019696
22112679 90 16443338810242368412
22802520 49 18411142449969844893
23402539 116 18117534380100992053
23526113 38 18342734087953685296
23557571 272 18042410299219519828
23559900 14 18334859390545507830
23598291 2 15719386226826023374
2748010 2 18338239378618395675
3082319 5 16443350900854998066
474 4 15696291109960258056
6049 1 18337403736922822801
74978 22 17676482890803986117
7615 1 16081363115568913142
77492 1 15626232337466340537
81228 2 17896885559244104019
88987 49 17749103430505454454

> <PUBCHEM_SHAPE_MULTIPOLES>
305.56
6.26
1.89
1.57
0.32
0.05
0.23
-0.75
1.55
0.24
-0.14
-0.56
-0.37
2.22

> <PUBCHEM_SHAPE_SELFOVERLAP>
644.208

> <PUBCHEM_SHAPE_VOLUME>
170.5

> <PUBCHEM_COORDINATE_TYPE>
2
5
10

$$$$
