REMARK  Name = 100187
REMARK  1 active torsions:
REMARK  status: ('A' for Active; 'I' for Inactive)
REMARK    1  A    between atoms: C_11  and  N_16
REMARK                            x       y       z     vdW  Elec       q    Type
REMARK                         _______ _______ _______ _____ _____    ______ ____
ROOT
ATOM      1  S   UNL     1      -1.886  -1.422   0.000  0.00  0.00    +0.076 S 
ATOM      2  O   UNL     1      -1.951  -2.102   1.275  0.00  0.00    -0.150 OA
ATOM      3  O   UNL     1      -1.949  -2.104  -1.274  0.00  0.00    -0.150 OA
ATOM      4  O   UNL     1      -2.808   2.300   0.004  0.00  0.00    -0.269 OA
ATOM      5  N   UNL     1      -2.926  -0.061  -0.002  0.00  0.00    -0.181 N 
ATOM      6  C   UNL     1      -0.477  -0.395   0.000  0.00  0.00    +0.131 C 
ATOM      7  C   UNL     1      -0.817   0.958  -0.001  0.00  0.00    +0.074 C 
ATOM      8  C   UNL     1      -2.271   1.208   0.000  0.00  0.00    +0.266 C 
ATOM      9  C   UNL     1       0.829  -0.837   0.001  0.00  0.00    +0.044 C 
ATOM     10  C   UNL     1       0.171   1.928  -0.002  0.00  0.00    +0.008 C 
ATOM     11  C   UNL     1       1.830   0.136   0.000  0.00  0.00    +0.144 C 
ATOM     12  C   UNL     1       1.504   1.506  -0.002  0.00  0.00    +0.024 C 
ATOM     13  H   UNL     1      -3.907  -0.148  -0.004  0.00  0.00    +0.177 HD
ENDROOT
BRANCH  11  16
ATOM     14  O   UNL     1       4.083   0.627   0.000  0.00  0.00    -0.126 OA
ATOM     15  O   UNL     1       3.473  -1.482   0.002  0.00  0.00    -0.126 OA
ATOM     16  N   UNL     1       3.195  -0.259   0.001  0.00  0.00    +0.058 N 
ENDBRANCH  11  16
TORSDOF 1
