REMARK  Name = 100136
REMARK  9 active torsions:
REMARK  status: ('A' for Active; 'I' for Inactive)
REMARK    1  A    between atoms: N_2  and  CA_5
REMARK    2  A    between atoms: C_3  and  CA_13
REMARK    3  A    between atoms: CA_5  and  CB_6
REMARK    4  A    between atoms: CA_5  and  C_10
REMARK    5  A    between atoms: C_10  and  O_11
REMARK    6  A    between atoms: CA_13  and  N_15
REMARK    7  A    between atoms: CA_13  and  CB_18
REMARK    8  A    between atoms: CB_18  and  CG_19
REMARK    9  A    between atoms: CG_19  and  SD_20
REMARK                            x       y       z     vdW  Elec       q    Type
REMARK                         _______ _______ _______ _____ _____    ______ ____
ROOT
ATOM      1  O   UNL     1       0.294   1.309   1.667  0.00  0.00    -0.273 OA
ATOM      2  N   UNL     1      -0.659   0.271  -0.176  0.00  0.00    -0.295 N 
ATOM      3  C   UNL     1       0.393   0.820   0.543  0.00  0.00    +0.241 C 
ATOM      4  H   UNL     1      -0.478  -0.097  -1.072  0.00  0.00    +0.150 HD
ENDROOT
BRANCH   2   5
ATOM      5  CA  UNL     1      -2.008   0.218   0.336  0.00  0.00    +0.171 C 
BRANCH   5   6
ATOM      6  CB  UNL     1      -2.766   1.514  -0.024  0.00  0.00    +0.029 C 
ATOM      7  CG1 UNL     1      -4.122   1.606   0.682  0.00  0.00    +0.002 C 
ATOM      8  CG2 UNL     1      -2.940   1.712  -1.533  0.00  0.00    +0.002 C 
ENDBRANCH   5   6
BRANCH   5  10
ATOM      9  OXT UNL     1      -3.815  -1.405   0.292  0.00  0.00    -0.248 OA
ATOM     10  C   UNL     1      -2.707  -1.065  -0.106  0.00  0.00    +0.332 C 
BRANCH  10  11
ATOM     11  O   UNL     1      -1.980  -1.842  -0.947  0.00  0.00    -0.479 OA
ATOM     12  H   UNL     1      -1.135  -1.557  -1.236  0.00  0.00    +0.295 HD
ENDBRANCH  10  11
ENDBRANCH   5  10
ENDBRANCH   2   5
BRANCH   3  13
ATOM     13  CA  UNL     1       1.719   0.720  -0.205  0.00  0.00    +0.150 C 
BRANCH  13  15
ATOM     14  O   UNL     1       4.022   2.239  -1.200  0.00  0.00    -0.265 OA
ATOM     15  N   UNL     1       2.735   1.395   0.560  0.00  0.00    -0.291 N 
ATOM     16  C   ACE A   0       3.784   2.086  -0.009  0.00  0.00    +0.300 C 
ATOM     17  H   UNL     1       2.677   1.362   1.543  0.00  0.00    +0.150 HD
ENDBRANCH  13  15
BRANCH  13  18
ATOM     18  CB  UNL     1       2.108  -0.727  -0.535  0.00  0.00    +0.041 C 
BRANCH  18  19
ATOM     19  CG  UNL     1       2.228  -1.627   0.698  0.00  0.00    +0.060 C 
BRANCH  19  20
ATOM     20  SD  UNL     1       2.680  -3.319   0.211  0.00  0.00    -0.139 S 
ATOM     21  CE  UNL     1       1.034  -3.905  -0.252  0.00  0.00    +0.069 C 
ENDBRANCH  19  20
ENDBRANCH  18  19
ENDBRANCH  13  18
ENDBRANCH   3  13
TORSDOF 9
