REMARK  Name = 100100
REMARK  11 active torsions:
REMARK  status: ('A' for Active; 'I' for Inactive)
REMARK    1  A    between atoms: N_2  and  C_16
REMARK    2  A    between atoms: C_3  and  C_5
REMARK    3  A    between atoms: C_5  and  C_6
REMARK    4  A    between atoms: C_6  and  CA_7
REMARK    5  A    between atoms: CA_7  and  N_8
REMARK    6  A    between atoms: CA_7  and  C_13
REMARK    7  A    between atoms: C_13  and  O_14
REMARK    8  A    between atoms: C_16  and  C_19
REMARK    9  A    between atoms: N_18  and  C_21
REMARK   10  A    between atoms: C_21  and  C_23
REMARK   11  A    between atoms: C_23  and  O_24
REMARK                            x       y       z     vdW  Elec       q    Type
REMARK                         _______ _______ _______ _____ _____    ______ ____
ROOT
ATOM      1  O   UNL     1       0.148  -0.458   1.316  0.00  0.00    -0.275 OA
ATOM      2  N   UNL     1      -0.169   1.546   0.183  0.00  0.00    -0.297 N 
ATOM      3  C   UNL     1       0.539   0.405   0.534  0.00  0.00    +0.223 C 
ATOM      4  H   UNL     1       0.238   2.175  -0.455  0.00  0.00    +0.150 HD
ENDROOT
BRANCH   3   5
ATOM      5  C   UNL     1       1.887   0.347  -0.165  0.00  0.00    +0.083 C 
BRANCH   5   6
ATOM      6  C   UNL     1       2.685  -0.904   0.208  0.00  0.00    -0.001 C 
BRANCH   6   7
ATOM      7  CA  UNL     1       4.014  -1.009  -0.547  0.00  0.00    +0.036 C 
BRANCH   7   8
ATOM      8  N   UNL     1       4.716  -2.227  -0.136  0.00  0.00    +0.389 N 
ATOM      9  H1  UNL     1       4.134  -3.040  -0.341  0.00  0.00    -0.088 HD
ATOM     10  H2  UNL     1       4.905  -2.189   0.866  0.00  0.00    -0.088 HD
ATOM     11  H3  UNL     1       5.596  -2.302  -0.646  0.00  0.00    -0.088 HD
ENDBRANCH   7   8
BRANCH   7  13
ATOM     12  OXT UNL     1       5.699   0.195   0.738  0.00  0.00    -0.253 OA
ATOM     13  C   UNL     1       4.931   0.154  -0.215  0.00  0.00    +0.293 C 
BRANCH  13  14
ATOM     14  O   UNL     1       4.792   1.185  -1.089  0.00  0.00    -0.482 OA
ATOM     15  H   UNL     1       4.192   1.114  -1.806  0.00  0.00    +0.295 HD
ENDBRANCH  13  14
ENDBRANCH   7  13
ENDBRANCH   6   7
ENDBRANCH   5   6
ENDBRANCH   3   5
BRANCH   2  16
ATOM     16  C   UNL     1      -1.478   1.849   0.714  0.00  0.00    +0.176 C 
BRANCH  16  19
ATOM     17  O   UNL     1      -2.410   1.140  -1.399  0.00  0.00    -0.273 OA
ATOM     18  N   UNL     1      -3.671   0.893   0.538  0.00  0.00    -0.294 N 
ATOM     19  C   UNL     1      -2.540   1.248  -0.182  0.00  0.00    +0.243 C 
ATOM     20  H   UNL     1      -3.665   1.023   1.514  0.00  0.00    +0.150 HD
BRANCH  18  21
ATOM     21  C   UNL     1      -4.859   0.341  -0.073  0.00  0.00    +0.200 C 
BRANCH  21  23
ATOM     22  O   UNL     1      -5.739  -1.826  -0.644  0.00  0.00    -0.248 OA
ATOM     23  C   UNL     1      -4.832  -1.164  -0.153  0.00  0.00    +0.334 C 
BRANCH  23  24
ATOM     24  O   UNL     1      -3.712  -1.714   0.371  0.00  0.00    -0.479 OA
ATOM     25  H   UNL     1      -3.047  -1.164   0.735  0.00  0.00    +0.295 HD
ENDBRANCH  23  24
ENDBRANCH  21  23
ENDBRANCH  18  21
ENDBRANCH  16  19
ENDBRANCH   2  16
TORSDOF 11
