REMARK  Name = 100114
REMARK  9 active torsions:
REMARK  status: ('A' for Active; 'I' for Inactive)
REMARK    1  A    between atoms: N_2  and  CA_20
REMARK    2  A    between atoms: C_3  and  O_5
REMARK    3  A    between atoms: O_5  and  C_6
REMARK    4  A    between atoms: C_6  and  C_7
REMARK    5  A    between atoms: CA_20  and  C_22
REMARK    6  A    between atoms: CA_20  and  CB_25
REMARK    7  A    between atoms: C_22  and  O_23
REMARK    8  A    between atoms: CB_25  and  CG_26
REMARK    9  A    between atoms: CG_26  and  CD_29
REMARK                            x       y       z     vdW  Elec       q    Type
REMARK                         _______ _______ _______ _____ _____    ______ ____
ROOT
ATOM      1  O   UNL     1      -1.228  -1.026   2.640  0.00  0.00    -0.226 OA
ATOM      2  N   UNL     1      -1.683  -1.012   0.365  0.00  0.00    -0.262 N 
ATOM      3  C   ACE A   0      -0.881  -0.855   1.476  0.00  0.00    +0.402 C 
ATOM      4  H   UNL     1      -1.287  -0.844  -0.521  0.00  0.00    +0.153 HD
ENDROOT
BRANCH   3   5
ATOM      5  O   UNL     1       0.384  -0.474   1.100  0.00  0.00    -0.434 OA
BRANCH   5   6
ATOM      6  C   UNL     1       1.319  -0.276   2.145  0.00  0.00    +0.219 C 
BRANCH   6   7
ATOM      7  C   UNL     1       2.652   0.138   1.533  0.00  0.00    +0.088 C 
ATOM      8  C   UNL     1       2.551   1.421   0.720  0.00  0.00    -0.015 C 
ATOM      9  C   UNL     1       3.150  -0.848   0.486  0.00  0.00    -0.015 C 
ATOM     10  C   UNL     1       2.956   1.191  -0.615  0.00  0.00    -0.004 C 
ATOM     11  C   UNL     1       3.324  -0.201  -0.758  0.00  0.00    -0.004 C 
ATOM     12  C   UNL     1       2.150   2.678   1.143  0.00  0.00    -0.004 C 
ATOM     13  C   UNL     1       3.436  -2.195   0.642  0.00  0.00    -0.004 C 
ATOM     14  C   UNL     1       2.954   2.223  -1.539  0.00  0.00    -0.000 C 
ATOM     15  C   UNL     1       3.779  -0.904  -1.861  0.00  0.00    -0.000 C 
ATOM     16  C   UNL     1       2.148   3.717   0.211  0.00  0.00    -0.000 C 
ATOM     17  C   UNL     1       3.895  -2.903  -0.470  0.00  0.00    -0.000 C 
ATOM     18  C   UNL     1       2.545   3.491  -1.118  0.00  0.00    -0.000 C 
ATOM     19  C   UNL     1       4.064  -2.264  -1.710  0.00  0.00    -0.000 C 
ENDBRANCH   6   7
ENDBRANCH   5   6
ENDBRANCH   3   5
BRANCH   2  20
ATOM     20  CA  UNL     1      -3.071  -1.407   0.427  0.00  0.00    +0.174 C 
BRANCH  20  22
ATOM     21  OXT UNL     1      -4.600  -2.775  -0.851  0.00  0.00    -0.248 OA
ATOM     22  C   UNL     1      -3.488  -2.266  -0.756  0.00  0.00    +0.332 C 
BRANCH  22  23
ATOM     23  O   UNL     1      -2.518  -2.468  -1.679  0.00  0.00    -0.479 OA
ATOM     24  H   UNL     1      -1.680  -2.063  -1.574  0.00  0.00    +0.295 HD
ENDBRANCH  22  23
ENDBRANCH  20  22
BRANCH  20  25
ATOM     25  CB  UNL     1      -3.994  -0.191   0.575  0.00  0.00    +0.041 C 
BRANCH  25  26
ATOM     26  CG  UNL     1      -4.050   0.699  -0.670  0.00  0.00    +0.087 C 
BRANCH  26  29
ATOM     27  OE1 UNL     1      -5.648   1.991   0.581  0.00  0.00    -0.275 OA
ATOM     28  NE2 UNL     1      -5.122   2.679  -1.551  0.00  0.00    -0.329 N 
ATOM     29  CD  UNL     1      -5.024   1.839  -0.466  0.00  0.00    +0.219 C 
ATOM     30 HE21 UNL     1      -5.729   3.453  -1.521  0.00  0.00    +0.145 HD
ATOM     31 HE22 UNL     1      -4.584   2.506  -2.358  0.00  0.00    +0.145 HD
ENDBRANCH  26  29
ENDBRANCH  25  26
ENDBRANCH  20  25
ENDBRANCH   2  20
TORSDOF 9
