REMARK  Name = 100111
REMARK  9 active torsions:
REMARK  status: ('A' for Active; 'I' for Inactive)
REMARK    1  A    between atoms: O_1  and  C_4
REMARK    2  A    between atoms: O_1  and  C_17
REMARK    3  A    between atoms: N_3  and  C_6
REMARK    4  A    between atoms: C_6  and  C_8
REMARK    5  A    between atoms: C_6  and  C_11
REMARK    6  A    between atoms: C_8  and  O_9
REMARK    7  A    between atoms: C_11  and  S_12
REMARK    8  A    between atoms: S_12  and  C_13
REMARK    9  A    between atoms: C_17  and  C_18
REMARK                            x       y       z     vdW  Elec       q    Type
REMARK                         _______ _______ _______ _____ _____    ______ ____
ROOT
ATOM      1  O   UNK A   0      -0.625   0.518   1.088  0.00  0.00    -0.434 OA
ENDROOT
BRANCH   1   4
ATOM      2  O   UNK A   0       0.960   1.153   2.625  0.00  0.00    -0.226 OA
ATOM      3  N   UNK A   1       1.390   1.216   0.346  0.00  0.00    -0.262 N 
ATOM      4  C   UNK A   0       0.614   0.981   1.461  0.00  0.00    +0.402 C 
ATOM      5  H   UNK A   1       0.998   1.038  -0.540  0.00  0.00    +0.153 HD
BRANCH   3   6
ATOM      6  C   UNK A   1       2.747   1.709   0.403  0.00  0.00    +0.185 C 
BRANCH   6   8
ATOM      7  O   UNK A   1       4.113   3.261  -0.864  0.00  0.00    -0.248 OA
ATOM      8  C   UNK A   1       3.062   2.641  -0.755  0.00  0.00    +0.333 C 
BRANCH   8   9
ATOM      9  O   UNK A   1       2.055   2.735  -1.656  0.00  0.00    -0.479 OA
ATOM     10  H   UNK A   1       1.268   2.241  -1.532  0.00  0.00    +0.295 HD
ENDBRANCH   8   9
ENDBRANCH   6   8
BRANCH   6  11
ATOM     11  C   UNK A   1       3.765   0.572   0.529  0.00  0.00    +0.089 C 
BRANCH  11  12
ATOM     12  S   UNK A   1       3.868  -0.488  -0.952  0.00  0.00    -0.140 S 
BRANCH  12  13
ATOM     13  C   UNK A   1       5.137  -1.629  -0.359  0.00  0.00    +0.039 C 
ATOM     14  C   UNK A   1       6.407  -0.833  -0.047  0.00  0.00    +0.011 C 
ATOM     15  C   UNK A   1       5.412  -2.659  -1.459  0.00  0.00    +0.011 C 
ATOM     16  C   UNK A   1       4.620  -2.325   0.903  0.00  0.00    +0.011 C 
ENDBRANCH  12  13
ENDBRANCH  11  12
ENDBRANCH   6  11
ENDBRANCH   3   6
ENDBRANCH   1   4
BRANCH   1  17
ATOM     17  C   UNK A   0      -1.532   0.232   2.138  0.00  0.00    +0.219 C 
BRANCH  17  18
ATOM     18  C   UNK A   0      -2.838  -0.265   1.530  0.00  0.00    +0.088 C 
ATOM     19  C   UNK A   0      -3.416   0.704   0.508  0.00  0.00    -0.015 C 
ATOM     20  C   UNK A   0      -2.654  -1.520   0.689  0.00  0.00    -0.015 C 
ATOM     21  C   UNK A   0      -3.557   0.071  -0.747  0.00  0.00    -0.004 C 
ATOM     22  C   UNK A   0      -3.089  -1.294  -0.636  0.00  0.00    -0.004 C 
ATOM     23  C   UNK A   0      -3.797   2.023   0.694  0.00  0.00    -0.004 C 
ATOM     24  C   UNK A   0      -2.160  -2.753   1.083  0.00  0.00    -0.004 C 
ATOM     25  C   UNK A   0      -4.073   0.761  -1.832  0.00  0.00    -0.000 C 
ATOM     26  C   UNK A   0      -3.023  -2.304  -1.582  0.00  0.00    -0.000 C 
ATOM     27  C   UNK A   0      -4.317   2.719  -0.399  0.00  0.00    -0.000 C 
ATOM     28  C   UNK A   0      -2.093  -3.771   0.130  0.00  0.00    -0.000 C 
ATOM     29  C   UNK A   0      -4.453   2.094  -1.650  0.00  0.00    -0.000 C 
ATOM     30  C   UNK A   0      -2.520  -3.548  -1.190  0.00  0.00    -0.000 C 
ENDBRANCH  17  18
ENDBRANCH   1  17
TORSDOF 9
