REMARK  Name = 100132
REMARK  7 active torsions:
REMARK  status: ('A' for Active; 'I' for Inactive)
REMARK    1  A    between atoms: C_2  and  N_19
REMARK    2  A    between atoms: C_9  and  O_25
REMARK    3  A    between atoms: C_13  and  O_27
REMARK    4  A    between atoms: C_14  and  O_29
REMARK    5  A    between atoms: C_17  and  O_31
REMARK    6  A    between atoms: C_20  and  C_22
REMARK    7  A    between atoms: C_22  and  O_23
REMARK                            x       y       z     vdW  Elec       q    Type
REMARK                         _______ _______ _______ _____ _____    ______ ____
ROOT
ATOM      1  O   UNL     1      -4.484   0.604  -1.736  0.00  0.00    -0.283 OA
ATOM      2  C   UNL     1      -0.677   1.918   0.805  0.00  0.00    +0.095 C 
ATOM      3  C   UNL     1      -0.086   1.807   2.228  0.00  0.00    +0.029 C 
ATOM      4  C   UNL     1       0.413   0.437   2.701  0.00  0.00    +0.029 C 
ATOM      5  C   UNL     1      -1.555   0.765   0.311  0.00  0.00    -0.001 C 
ATOM      6  C   UNL     1       1.150  -0.337   1.642  0.00  0.00    -0.016 C 
ATOM      7  C   UNL     1       0.452  -0.843   0.526  0.00  0.00    +0.033 C 
ATOM      8  C   UNL     1      -1.014  -0.601   0.399  0.00  0.00    +0.000 C 
ATOM      9  C   UNL     1       1.153  -1.540  -0.471  0.00  0.00    +0.175 C 
ATOM     10  C   UNL     1       2.531  -0.547   1.746  0.00  0.00    +0.036 C 
ATOM     11  C   UNL     1      -2.739   1.089  -0.242  0.00  0.00    +0.043 C 
ATOM     12  C   UNL     1      -1.758  -1.722   0.464  0.00  0.00    +0.003 C 
ATOM     13  C   UNL     1       2.528  -1.743  -0.353  0.00  0.00    +0.206 C 
ATOM     14  C   UNL     1       3.215  -1.249   0.753  0.00  0.00    +0.175 C 
ATOM     15  C   UNL     1      -3.789   0.206  -0.803  0.00  0.00    +0.229 C 
ATOM     16  C   UNL     1      -3.190  -1.865   0.449  0.00  0.00    +0.040 C 
ATOM     17  C   UNL     1      -4.099  -1.078  -0.133  0.00  0.00    +0.177 C 
ENDROOT
BRANCH   2  19
ATOM     18  O   UNL     1       0.512   4.491   0.205  0.00  0.00    -0.272 OA
ATOM     19  N   UNL     1       0.345   2.204  -0.182  0.00  0.00    -0.300 N 
ATOM     20  C   UNL     1       0.851   3.475  -0.394  0.00  0.00    +0.253 C 
ATOM     21  H   UNL     1       0.695   1.462  -0.725  0.00  0.00    +0.150 HD
BRANCH  20  22
ATOM     22  C   UNL     1       1.905   3.478  -1.481  0.00  0.00    +0.223 C 
BRANCH  22  23
ATOM     23  O   UNL     1       2.418   4.779  -1.674  0.00  0.00    -0.374 OA
ATOM     24  H   UNL     1       3.091   4.761  -2.373  0.00  0.00    +0.211 HD
ENDBRANCH  22  23
ENDBRANCH  20  22
ENDBRANCH   2  19
BRANCH   9  25
ATOM     25  O   UNL     1       0.512  -2.005  -1.584  0.00  0.00    -0.468 OA
ATOM     26  C   UNL     1       0.451  -1.129  -2.705  0.00  0.00    +0.253 C 
ENDBRANCH   9  25
BRANCH  13  27
ATOM     27  O   UNL     1       3.204  -2.419  -1.326  0.00  0.00    -0.465 OA
ATOM     28  C   UNL     1       3.318  -3.832  -1.171  0.00  0.00    +0.253 C 
ENDBRANCH  13  27
BRANCH  14  29
ATOM     29  O   UNL     1       4.559  -1.440   0.876  0.00  0.00    -0.468 OA
ATOM     30  C   UNL     1       5.409  -0.441   0.317  0.00  0.00    +0.253 C 
ENDBRANCH  14  29
BRANCH  17  31
ATOM     31  O   UNL     1      -5.425  -1.480  -0.149  0.00  0.00    -0.468 OA
ATOM     32  C   UNL     1      -6.108  -0.982   0.982  0.00  0.00    +0.253 C 
ENDBRANCH  17  31
TORSDOF 7
