REMARK  Name = 10014883
REMARK  6 active torsions:
REMARK  status: ('A' for Active; 'I' for Inactive)
REMARK    1  A    between atoms: C_4  and  C_14
REMARK    2  A    between atoms: C_5  and  C_8
REMARK    3  A    between atoms: C_14  and  CA_15
REMARK    4  A    between atoms: CA_15  and  N_16
REMARK    5  A    between atoms: CA_15  and  C_21
REMARK    6  A    between atoms: C_21  and  O_22
REMARK                            x       y       z     vdW  Elec       q    Type
REMARK                         _______ _______ _______ _____ _____    ______ ____
ROOT
ATOM      1  O   UNL     1       0.723  -2.328  -0.548  0.00  0.00    -0.376 OA
ATOM      2  O   UNL     1      -2.557  -1.980   0.552  0.00  0.00    -0.265 OA
ATOM      3  N   UNL     1      -0.585  -2.821  -0.366  0.00  0.00    -0.184 N 
ATOM      4  C   UNL     1      -0.541  -0.699   0.488  0.00  0.00    +0.072 A 
ATOM      5  C   UNL     1       0.651  -1.054   0.001  0.00  0.00    +0.173 A 
ATOM      6  C   UNL     1      -1.379  -1.884   0.249  0.00  0.00    +0.284 A 
ATOM      7  H   UNL     1      -0.888  -3.716  -0.642  0.00  0.00    +0.211 HD
ENDROOT
BRANCH   5   8
ATOM      8  C   UNL     1       1.884  -0.263  -0.041  0.00  0.00    +0.037 C 
ATOM      9  C   UNL     1       2.794  -0.313   1.022  0.00  0.00    +0.003 C 
ATOM     10  C   UNL     1       2.165   0.549  -1.145  0.00  0.00    +0.003 C 
ATOM     11  C   UNL     1       3.968   0.438   0.980  0.00  0.00    +0.000 C 
ATOM     12  C   UNL     1       3.340   1.300  -1.187  0.00  0.00    +0.000 C 
ATOM     13  C   UNL     1       4.242   1.245  -0.124  0.00  0.00    +0.000 C 
ENDBRANCH   5   8
BRANCH   4  14
ATOM     14  C   UNL     1      -1.065   0.546   1.095  0.00  0.00    +0.023 C 
BRANCH  14  15
ATOM     15  CA  UNL     1      -1.657   1.498   0.048  0.00  0.00    +0.040 C 
BRANCH  15  16
ATOM     16  N   UNL     1      -1.737   2.855   0.585  0.00  0.00    +0.389 N 
ATOM     17  H1  UNL     1      -0.808   3.161   0.877  0.00  0.00    -0.088 HD
ATOM     18  H2  UNL     1      -2.366   2.867   1.388  0.00  0.00    -0.088 HD
ATOM     19  H3  UNL     1      -2.091   3.486  -0.134  0.00  0.00    -0.088 HD
ENDBRANCH  15  16
BRANCH  15  21
ATOM     20  OXT UNL     1      -4.093   1.500   0.193  0.00  0.00    -0.253 OA
ATOM     21  C   UNL     1      -3.071   1.119  -0.362  0.00  0.00    +0.293 C 
BRANCH  21  22
ATOM     22  O   UNL     1      -3.084   0.292  -1.441  0.00  0.00    -0.482 OA
ATOM     23  H   UNL     1      -2.278   0.023  -1.836  0.00  0.00    +0.295 HD
ENDBRANCH  21  22
ENDBRANCH  15  21
ENDBRANCH  14  15
ENDBRANCH   4  14
TORSDOF 6
