REMARK  Name = 10015450
REMARK  4 active torsions:
REMARK  status: ('A' for Active; 'I' for Inactive)
REMARK    1  A    between atoms: C_8  and  O_16
REMARK    2  A    between atoms: C_9  and  O_18
REMARK    3  A    between atoms: C_12  and  O_20
REMARK    4  A    between atoms: C_13  and  O_22
REMARK                            x       y       z     vdW  Elec       q    Type
REMARK                         _______ _______ _______ _____ _____    ______ ____
ROOT
ATOM      1  O   UNL     1       0.000  -1.054   0.001  0.00  0.00    -0.447 OA
ATOM      2  O   UNL     1       0.000   3.038  -0.001  0.00  0.00    -0.286 OA
ATOM      3  C   UNL     1      -1.252   1.044   0.000  0.00  0.00    +0.077 A 
ATOM      4  C   UNL     1       1.252   1.043   0.000  0.00  0.00    +0.077 A 
ATOM      5  C   UNL     1      -1.179  -0.349   0.000  0.00  0.00    +0.185 A 
ATOM      6  C   UNL     1       1.179  -0.349   0.000  0.00  0.00    +0.185 A 
ATOM      7  C   UNL     1       0.000   1.816   0.001  0.00  0.00    +0.202 A 
ATOM      8  C   UNL     1      -2.354  -1.103   0.000  0.00  0.00    +0.203 C 
ATOM      9  C   UNL     1       2.354  -1.103   0.000  0.00  0.00    +0.203 C 
ATOM     10  C   UNL     1      -2.490   1.690   0.000  0.00  0.00    +0.010 C 
ATOM     11  C   UNL     1       2.490   1.690   0.000  0.00  0.00    +0.010 C 
ATOM     12  C   UNL     1      -3.594  -0.462   0.000  0.00  0.00    +0.171 C 
ATOM     13  C   UNL     1       3.594  -0.462   0.000  0.00  0.00    +0.171 C 
ATOM     14  C   UNL     1      -3.662   0.932   0.000  0.00  0.00    +0.040 C 
ATOM     15  C   UNL     1       3.662   0.931   0.000  0.00  0.00    +0.040 C 
ENDROOT
BRANCH   8  16
ATOM     16  O   UNL     1      -2.298  -2.466   0.000  0.00  0.00    -0.501 OA
ATOM     17  H   UNL     1      -1.468  -2.900   0.000  0.00  0.00    +0.292 HD
ENDBRANCH   8  16
BRANCH   9  18
ATOM     18  O   UNL     1       2.298  -2.466   0.000  0.00  0.00    -0.501 OA
ATOM     19  H   UNL     1       1.468  -2.900   0.000  0.00  0.00    +0.292 HD
ENDBRANCH   9  18
BRANCH  12  20
ATOM     20  O   UNL     1      -4.748  -1.186  -0.001  0.00  0.00    -0.503 OA
ATOM     21  H   UNL     1      -4.714  -2.122  -0.001  0.00  0.00    +0.292 HD
ENDBRANCH  12  20
BRANCH  13  22
ATOM     22  O   UNL     1       4.748  -1.186  -0.001  0.00  0.00    -0.503 OA
ATOM     23  H   UNL     1       4.714  -2.122  -0.001  0.00  0.00    +0.292 HD
ENDBRANCH  13  22
TORSDOF 4
