REMARK  Name = 10014039
REMARK  8 active torsions:
REMARK  status: ('A' for Active; 'I' for Inactive)
REMARK    1  A    between atoms: S_1  and  C_2
REMARK    2  A    between atoms: S_1  and  C_12
REMARK    3  A    between atoms: C_3  and  O_8
REMARK    4  A    between atoms: C_5  and  O_10
REMARK    5  A    between atoms: C_12  and  C_13
REMARK    6  A    between atoms: C_13  and  N_14
REMARK    7  A    between atoms: C_13  and  C_19
REMARK    8  A    between atoms: C_19  and  O_20
REMARK                            x       y       z     vdW  Elec       q    Type
REMARK                         _______ _______ _______ _____ _____    ______ ____
ROOT
ATOM      1  S   UNK     1       0.571  -0.323   0.975  0.00  0.00    -0.112 S 
ENDROOT
BRANCH   1   2
ATOM      2  C   UNK     1      -1.127  -0.265   0.419  0.00  0.00    +0.062 C 
ATOM      3  C   UNK     1      -1.772  -1.405  -0.059  0.00  0.00    +0.139 C 
ATOM      4  C   UNK     1      -1.807   0.952   0.471  0.00  0.00    +0.046 C 
ATOM      5  C   UNK     1      -3.133   1.028   0.044  0.00  0.00    +0.134 C 
ATOM      6  C   UNK     1      -3.098  -1.329  -0.485  0.00  0.00    +0.040 C 
ATOM      7  C   UNK     1      -3.779  -0.112  -0.434  0.00  0.00    +0.040 C 
BRANCH   3   8
ATOM      8  O   UNK     1      -1.138  -2.611  -0.123  0.00  0.00    -0.505 OA
ATOM      9  H   UNK     1      -0.248  -2.687   0.158  0.00  0.00    +0.292 HD
ENDBRANCH   3   8
BRANCH   5  10
ATOM     10  O   UNK     1      -3.797   2.215   0.095  0.00  0.00    -0.505 OA
ATOM     11  H   UNK     1      -3.364   2.981   0.416  0.00  0.00    +0.292 HD
ENDBRANCH   5  10
ENDBRANCH   1   2
BRANCH   1  12
ATOM     12  C   UNK     1       1.357   0.867  -0.159  0.00  0.00    +0.051 C 
BRANCH  12  13
ATOM     13  C   UNK     1       2.856   1.010   0.110  0.00  0.00    +0.047 C 
BRANCH  13  14
ATOM     14  N   UNK     1       3.447   1.955  -0.839  0.00  0.00    +0.389 N 
ATOM     15  H   UNK     1       2.971   2.854  -0.765  0.00  0.00    -0.088 HD
ATOM     16  H   UNK     1       3.346   1.594  -1.787  0.00  0.00    -0.088 HD
ATOM     17  H   UNK     1       4.438   2.076  -0.626  0.00  0.00    -0.088 HD
ENDBRANCH  13  14
BRANCH  13  19
ATOM     18  O   UNK     1       3.580  -0.977  -1.064  0.00  0.00    -0.253 OA
ATOM     19  C   UNK     1       3.594  -0.307  -0.037  0.00  0.00    +0.294 C 
BRANCH  19  20
ATOM     20  O   UNK     1       4.246  -0.698   1.087  0.00  0.00    -0.482 OA
ATOM     21  H   UNK     1       4.231  -0.155   1.850  0.00  0.00    +0.295 HD
ENDBRANCH  19  20
ENDBRANCH  13  19
ENDBRANCH  12  13
ENDBRANCH   1  12
TORSDOF 8
