REMARK  Name = 10018499
REMARK  5 active torsions:
REMARK  status: ('A' for Active; 'I' for Inactive)
REMARK    1  A    between atoms: C_3  and  C_13
REMARK    2  A    between atoms: C_3  and  O_19
REMARK    3  A    between atoms: C_8  and  O_21
REMARK    4  A    between atoms: C_9  and  C_26
REMARK    5  A    between atoms: C_11  and  O_23
REMARK                            x       y       z     vdW  Elec       q    Type
REMARK                         _______ _______ _______ _____ _____    ______ ____
ROOT
ATOM      1  O   UNL     1       0.532   0.591  -0.076  0.00  0.00    -0.454 OA
ATOM      2  O   UNL     1      -0.706  -3.303  -0.389  0.00  0.00    -0.291 OA
ATOM      3  C   UNL     1       1.411  -0.461   0.361  0.00  0.00    +0.253 C 
ATOM      4  C   UNL     1       1.129  -1.758  -0.408  0.00  0.00    +0.144 C 
ATOM      5  C   UNL     1      -1.283  -1.031  -0.144  0.00  0.00    +0.103 A 
ATOM      6  C   UNL     1      -0.799   0.274  -0.062  0.00  0.00    +0.153 A 
ATOM      7  C   UNL     1      -0.326  -2.142  -0.298  0.00  0.00    +0.185 C 
ATOM      8  C   UNL     1      -2.658  -1.278  -0.120  0.00  0.00    +0.138 A 
ATOM      9  C   UNL     1      -1.695   1.342   0.011  0.00  0.00    +0.110 A 
ATOM     10  C   UNL     1      -3.549  -0.209  -0.028  0.00  0.00    +0.046 A 
ATOM     11  C   UNL     1      -3.069   1.099   0.033  0.00  0.00    +0.139 A 
ATOM     12  C   UNL     1      -5.023  -0.462  -0.002  0.00  0.00    +0.037 C 
ENDROOT
BRANCH   3  13
ATOM     13  C   UNL     1       2.861  -0.042   0.103  0.00  0.00    +0.041 C 
ATOM     14  C   UNL     1       3.163   0.793  -0.971  0.00  0.00    +0.002 C 
ATOM     15  C   UNL     1       3.877  -0.496   0.944  0.00  0.00    +0.002 C 
ATOM     16  C   UNL     1       4.484   1.175  -1.206  0.00  0.00    -0.000 C 
ATOM     17  C   UNL     1       5.197  -0.114   0.709  0.00  0.00    -0.000 C 
ATOM     18  C   UNL     1       5.501   0.722  -0.366  0.00  0.00    -0.000 C 
ENDBRANCH   3  13
BRANCH   3  19
ATOM     19  O   UNL     1       1.222  -0.707   1.764  0.00  0.00    -0.351 OA
ATOM     20  H   UNL     1       0.303  -0.972   1.924  0.00  0.00    +0.214 HD
ENDBRANCH   3  19
BRANCH   8  21
ATOM     21  O   UNL     1      -3.164  -2.543  -0.192  0.00  0.00    -0.506 OA
ATOM     22  H   UNL     1      -2.585  -3.277  -0.254  0.00  0.00    +0.292 HD
ENDBRANCH   8  21
BRANCH  11  23
ATOM     23  O   UNL     1      -3.947   2.141   0.114  0.00  0.00    -0.506 OA
ATOM     24  H   UNL     1      -3.628   3.021   0.155  0.00  0.00    +0.292 HD
ENDBRANCH  11  23
BRANCH   9  26
ATOM     25  O   UNL     1      -1.954   3.690   0.144  0.00  0.00    -0.283 OA
ATOM     26  C   UNL     1      -1.204   2.715   0.080  0.00  0.00    +0.240 C 
ENDBRANCH   9  26
TORSDOF 5
