100173
  -OEChem-03292013323D

 48 50  0     1  0  0  0  0  0999 V2000
    0.7810   -2.1275   -1.5754 O   0  0  0  0  0  0  0  0  0  0  0  0
    3.4671   -2.6184   -1.4070 O   0  0  0  0  0  0  0  0  0  0  0  0
    4.9522   -1.5421    0.6617 O   0  0  0  0  0  0  0  0  0  0  0  0
   -5.0634   -1.2954    0.0770 O   0  0  0  0  0  0  0  0  0  0  0  0
   -4.1296    0.6421   -1.6895 O   0  0  0  0  0  0  0  0  0  0  0  0
    1.0803    4.4731   -0.2479 O   0  0  0  0  0  0  0  0  0  0  0  0
    0.8159    2.1707   -0.4619 N   0  0  0  0  0  0  0  0  0  0  0  0
   -0.1690    1.9888    0.5857 C   0  0  2  0  0  0  0  0  0  0  0  0
    0.4829    1.9526    1.9861 C   0  0  0  0  0  0  0  0  0  0  0  0
    0.9579    0.6008    2.5307 C   0  0  0  0  0  0  0  0  0  0  0  0
   -1.1060    0.8368    0.2122 C   0  0  0  0  0  0  0  0  0  0  0  0
    1.6200   -0.2687    1.4963 C   0  0  0  0  0  0  0  0  0  0  0  0
    0.8555   -0.8239    0.4499 C   0  0  0  0  0  0  0  0  0  0  0  0
   -0.6063   -0.5385    0.3697 C   0  0  0  0  0  0  0  0  0  0  0  0
    1.4874   -1.6105   -0.5264 C   0  0  0  0  0  0  0  0  0  0  0  0
    2.9970   -0.5205    1.5543 C   0  0  0  0  0  0  0  0  0  0  0  0
   -2.3029    1.1642   -0.3100 C   0  0  0  0  0  0  0  0  0  0  0  0
   -1.3825   -1.6256    0.5452 C   0  0  0  0  0  0  0  0  0  0  0  0
    2.8587   -1.8543   -0.4550 C   0  0  0  0  0  0  0  0  0  0  0  0
    3.6115   -1.3117    0.5839 C   0  0  0  0  0  0  0  0  0  0  0  0
   -3.4054    0.2841   -0.7629 C   0  0  0  0  0  0  0  0  0  0  0  0
    1.3532    3.4025   -0.7845 C   0  0  0  0  0  0  0  0  0  0  0  0
   -2.8176   -1.7184    0.6024 C   0  0  0  0  0  0  0  0  0  0  0  0
   -3.7258   -0.9405    0.0073 C   0  0  0  0  0  0  0  0  0  0  0  0
    2.3701    3.3046   -1.8900 C   0  0  0  0  0  0  0  0  0  0  0  0
    0.6954   -1.3275   -2.7508 C   0  0  0  0  0  0  0  0  0  0  0  0
   -5.6778   -0.6970    1.1991 C   0  0  0  0  0  0  0  0  0  0  0  0
   -0.7531    2.9208    0.5866 H   0  0  0  0  0  0  0  0  0  0  0  0
   -0.2370    2.3530    2.7130 H   0  0  0  0  0  0  0  0  0  0  0  0
    1.3337    2.6471    2.0030 H   0  0  0  0  0  0  0  0  0  0  0  0
    0.1115    0.0540    2.9667 H   0  0  0  0  0  0  0  0  0  0  0  0
    1.6394    0.7793    3.3723 H   0  0  0  0  0  0  0  0  0  0  0  0
    1.1424    1.3567   -0.9741 H   0  0  0  0  0  0  0  0  0  0  0  0
    3.5959   -0.0951    2.3562 H   0  0  0  0  0  0  0  0  0  0  0  0
   -2.5305    2.2170   -0.4755 H   0  0  0  0  0  0  0  0  0  0  0  0
   -0.9114   -2.5958    0.7124 H   0  0  0  0  0  0  0  0  0  0  0  0
   -3.1739   -2.6017    1.1320 H   0  0  0  0  0  0  0  0  0  0  0  0
    2.6514    4.3076   -2.2226 H   0  0  0  0  0  0  0  0  0  0  0  0
    3.2596    2.7847   -1.5232 H   0  0  0  0  0  0  0  0  0  0  0  0
    1.9523    2.7572   -2.7399 H   0  0  0  0  0  0  0  0  0  0  0  0
    4.2832   -3.0009   -1.0460 H   0  0  0  0  0  0  0  0  0  0  0  0
    5.2952   -1.7736   -0.2165 H   0  0  0  0  0  0  0  0  0  0  0  0
    0.1214   -1.8808   -3.4993 H   0  0  0  0  0  0  0  0  0  0  0  0
    0.1789   -0.3851   -2.5455 H   0  0  0  0  0  0  0  0  0  0  0  0
    1.6919   -1.1256   -3.1564 H   0  0  0  0  0  0  0  0  0  0  0  0
   -5.2264   -1.0438    2.1354 H   0  0  0  0  0  0  0  0  0  0  0  0
   -6.7322   -0.9891    1.2072 H   0  0  0  0  0  0  0  0  0  0  0  0
   -5.6327    0.3964    1.1432 H   0  0  0  0  0  0  0  0  0  0  0  0
  1 15  1  0  0  0  0
  1 26  1  0  0  0  0
  2 19  1  0  0  0  0
  2 41  1  0  0  0  0
  3 20  1  0  0  0  0
  3 42  1  0  0  0  0
  4 24  1  0  0  0  0
  4 27  1  0  0  0  0
  5 21  2  0  0  0  0
  6 22  2  0  0  0  0
  7  8  1  0  0  0  0
  7 22  1  0  0  0  0
  7 33  1  0  0  0  0
  8  9  1  0  0  0  0
  8 11  1  0  0  0  0
  8 28  1  0  0  0  0
  9 10  1  0  0  0  0
  9 29  1  0  0  0  0
  9 30  1  0  0  0  0
 10 12  1  0  0  0  0
 10 31  1  0  0  0  0
 10 32  1  0  0  0  0
 11 14  1  0  0  0  0
 11 17  2  0  0  0  0
 12 13  1  0  0  0  0
 12 16  2  0  0  0  0
 13 14  1  0  0  0  0
 13 15  2  0  0  0  0
 14 18  2  0  0  0  0
 15 19  1  0  0  0  0
 16 20  1  0  0  0  0
 16 34  1  0  0  0  0
 17 21  1  0  0  0  0
 17 35  1  0  0  0  0
 18 23  1  0  0  0  0
 18 36  1  0  0  0  0
 19 20  2  0  0  0  0
 21 24  1  0  0  0  0
 22 25  1  0  0  0  0
 23 24  2  0  0  0  0
 23 37  1  0  0  0  0
 25 38  1  0  0  0  0
 25 39  1  0  0  0  0
 25 40  1  0  0  0  0
 26 43  1  0  0  0  0
 26 44  1  0  0  0  0
 26 45  1  0  0  0  0
 27 46  1  0  0  0  0
 27 47  1  0  0  0  0
 27 48  1  0  0  0  0
M  END
> <PUBCHEM_COMPOUND_CID>
100173

> <PUBCHEM_CONFORMER_RMSD>
0.8

> <PUBCHEM_CONFORMER_DIVERSEORDER>
2
12
6
4
5
10
16
9
14
13
7
1
15
3
8
11

> <PUBCHEM_MMFF94_PARTIAL_CHARGES>
33
1 -0.36
10 0.14
11 -0.14
12 -0.14
13 0.03
14 -0.03
15 0.08
16 -0.15
17 -0.14
18 -0.15
19 0.08
2 -0.53
20 0.08
21 0.54
22 0.57
23 -0.15
24 0.09
25 0.06
26 0.28
27 0.28
3 -0.53
33 0.37
34 0.15
35 0.15
36 0.15
37 0.15
4 -0.36
41 0.45
42 0.45
5 -0.57
6 -0.57
7 -0.73
8 0.44

> <PUBCHEM_EFFECTIVE_ROTOR_COUNT>
4.6

> <PUBCHEM_PHARMACOPHORE_FEATURES>
10
1 1 acceptor
1 2 donor
1 3 donor
1 4 acceptor
1 5 acceptor
1 6 acceptor
1 7 donor
6 12 13 15 16 19 20 rings
7 11 14 17 18 21 23 24 rings
7 8 9 10 11 12 13 14 rings

> <PUBCHEM_HEAVY_ATOM_COUNT>
27

> <PUBCHEM_ATOM_DEF_STEREO_COUNT>
0

> <PUBCHEM_ATOM_UDEF_STEREO_COUNT>
1

> <PUBCHEM_BOND_DEF_STEREO_COUNT>
0

> <PUBCHEM_BOND_UDEF_STEREO_COUNT>
0

> <PUBCHEM_ISOTOPIC_ATOM_COUNT>
0

> <PUBCHEM_COMPONENT_COUNT>
1

> <PUBCHEM_CACTVS_TAUTO_COUNT>
120

> <PUBCHEM_CONFORMER_ID>
0001874D00000002

> <PUBCHEM_MMFF94_ENERGY>
109.3136

> <PUBCHEM_FEATURE_SELFOVERLAP>
50.772

> <PUBCHEM_SHAPE_FINGERPRINT>
11421498 54 16661203620814118145
11488393 25 18045239359817273864
11578080 2 16155640580659892324
11582403 64 14832719357040417696
12035758 1 18201144520820830883
12236239 1 16660644007750034026
12592029 89 18045790240939454008
13134695 92 17989197162034319577
133893 2 18117019816664214521
13544653 18 17917424272651631219
13681431 1 18340779199060464968
15210252 30 17898281702203298149
16945 1 18121212083113143786
17357779 13 18128803175430644499
17492 54 18189352289278668460
1813 80 18339089193785270859
18785283 64 18263649635425152097
20600515 1 18340775853254658666
20905425 154 18046917257579647263
21033648 29 17915718956245366883
21285901 2 17984406456643730398
23402539 116 18266451006216235314
23419403 2 18200007591469256312
23557571 272 18122613964633415356
23559900 14 18335408106676662379
3298306 158 18046354303653486588
46194498 28 18261954150009143239
6669772 16 17980209904724918332
7364860 26 18263923413488373417
7495541 125 18114187457915933067
81228 2 17909850746364956787
9981440 41 15290750599498413966

> <PUBCHEM_SHAPE_MULTIPOLES>
515.45
7.69
3.77
2.06
8.53
4.36
0.27
-4.49
-0.46
-3.68
1.56
-0.98
0.11
0.15

> <PUBCHEM_SHAPE_SELFOVERLAP>
1112.301

> <PUBCHEM_SHAPE_VOLUME>
278.8

> <PUBCHEM_COORDINATE_TYPE>
2
5
10

$$$$
