REMARK  Name = 100131
REMARK  9 active torsions:
REMARK  status: ('A' for Active; 'I' for Inactive)
REMARK    1  A    between atoms: N_2  and  CA_16
REMARK    2  A    between atoms: C_3  and  CA_5
REMARK    3  A    between atoms: CA_5  and  N_8
REMARK    4  A    between atoms: C_9  and  CA_11
REMARK    5  A    between atoms: CA_11  and  N_12
REMARK    6  A    between atoms: CA_16  and  C_18
REMARK    7  A    between atoms: CA_16  and  CB_21
REMARK    8  A    between atoms: C_18  and  O_19
REMARK    9  A    between atoms: CB_21  and  CG_22
REMARK                            x       y       z     vdW  Elec       q    Type
REMARK                         _______ _______ _______ _____ _____    ______ ____
ROOT
ATOM      1  O   ALA A   2      -0.678   1.077   1.663  0.00  0.00    -0.273 OA
ATOM      2  N   LEU A   3       0.794   0.663  -0.084  0.00  0.00    -0.295 N 
ATOM      3  C   ALA A   2      -0.438   1.011   0.459  0.00  0.00    +0.241 C 
ATOM      4  H   LEU A   3       0.887   0.639  -1.063  0.00  0.00    +0.150 HD
ENDROOT
BRANCH   3   5
ATOM      5  CA  ALA A   2      -1.463   1.355  -0.613  0.00  0.00    +0.149 C 
ATOM      6  CB  ALA A   2      -1.421   2.838  -0.950  0.00  0.00    +0.031 C 
BRANCH   5   8
ATOM      7  O   GLY A   1      -2.727  -1.234  -0.879  0.00  0.00    -0.277 OA
ATOM      8  N   ALA A   2      -2.761   0.965  -0.129  0.00  0.00    -0.300 N 
ATOM      9  C   GLY A   1      -3.293  -0.308  -0.302  0.00  0.00    +0.201 C 
ATOM     10  H   ALA A   2      -3.301   1.635   0.350  0.00  0.00    +0.150 HD
BRANCH   9  11
ATOM     11  CA  GLY A   1      -4.687  -0.427   0.281  0.00  0.00    +0.001 C 
BRANCH  11  12
ATOM     12  N   GLY A   1      -4.906  -1.807   0.691  0.00  0.00    +0.386 N 
ATOM     13  H1  GLY A   1      -5.842  -1.900   1.086  0.00  0.00    -0.089 HD
ATOM     14  H2  GLY A   1      -4.213  -2.068   1.393  0.00  0.00    -0.089 HD
ATOM     15  H3  GLY A   1      -4.816  -2.421  -0.119  0.00  0.00    -0.089 HD
ENDBRANCH  11  12
ENDBRANCH   9  11
ENDBRANCH   5   8
ENDBRANCH   3   5
BRANCH   2  16
ATOM     16  CA  LEU A   3       1.939   0.336   0.726  0.00  0.00    +0.171 C 
BRANCH  16  18
ATOM     17  OXT LEU A   3       4.323   0.748   0.720  0.00  0.00    -0.248 OA
ATOM     18  C   LEU A   3       3.251   0.820   0.129  0.00  0.00    +0.332 C 
BRANCH  18  19
ATOM     19  O   LEU A   3       3.136   1.392  -1.093  0.00  0.00    -0.479 OA
ATOM     20  H   LEU A   3       2.300   1.430  -1.516  0.00  0.00    +0.295 HD
ENDBRANCH  18  19
ENDBRANCH  16  18
BRANCH  16  21
ATOM     21  CB  LEU A   3       1.970  -1.149   1.117  0.00  0.00    +0.031 C 
BRANCH  21  22
ATOM     22  CG  LEU A   3       2.227  -2.182  -0.004  0.00  0.00    +0.002 C 
ATOM     23  CD1 LEU A   3       1.136  -2.047  -1.073  0.00  0.00    +0.000 C 
ATOM     24  CD2 LEU A   3       3.600  -2.052  -0.660  0.00  0.00    +0.000 C 
ENDBRANCH  21  22
ENDBRANCH  16  21
ENDBRANCH   2  16
TORSDOF 9
