REMARK  Name = 10019503
REMARK  9 active torsions:
REMARK  status: ('A' for Active; 'I' for Inactive)
REMARK    1  A    between atoms: C_1  and  C_7
REMARK    2  A    between atoms: C_2  and  C_22
REMARK    3  A    between atoms: C_3  and  C_26
REMARK    4  A    between atoms: C_10  and  C_14
REMARK    5  A    between atoms: C_11  and  C_18
REMARK    6  A    between atoms: C_14  and  O_15
REMARK    7  A    between atoms: C_18  and  O_19
REMARK    8  A    between atoms: C_22  and  O_23
REMARK    9  A    between atoms: C_26  and  O_27
REMARK                            x       y       z     vdW  Elec       q    Type
REMARK                         _______ _______ _______ _____ _____    ______ ____
ROOT
ATOM      1  C   UNL     1       1.153  -0.890  -0.421  0.00  0.00    +0.006 C 
ATOM      2  C   UNL     1       2.113   0.074  -0.105  0.00  0.00    +0.082 C 
ATOM      3  C   UNL     1       3.460  -0.279  -0.024  0.00  0.00    +0.082 C 
ATOM      4  C   UNL     1       1.546  -2.209  -0.654  0.00  0.00    +0.000 C 
ATOM      5  C   UNL     1       3.850  -1.598  -0.258  0.00  0.00    +0.007 C 
ATOM      6  C   UNL     1       2.893  -2.563  -0.573  0.00  0.00    +0.000 C 
ENDROOT
BRANCH   1   7
ATOM      7  C   UNL     1      -0.252  -0.556  -0.513  0.00  0.00    +0.000 C 
ATOM      8  C   UNL     1      -1.066  -0.642   0.617  0.00  0.00    +0.007 C 
ATOM      9  C   UNL     1      -0.792  -0.147  -1.732  0.00  0.00    +0.000 C 
ATOM     10  C   UNL     1      -2.420  -0.320   0.526  0.00  0.00    +0.082 C 
ATOM     11  C   UNL     1      -2.960   0.089  -0.693  0.00  0.00    +0.082 C 
ATOM     12  C   UNL     1      -2.146   0.175  -1.822  0.00  0.00    +0.007 C 
BRANCH  10  14
ATOM     13  O   UNL     1      -3.863  -1.429   2.080  0.00  0.00    -0.245 OA
ATOM     14  C   UNL     1      -3.246  -0.422   1.723  0.00  0.00    +0.338 C 
BRANCH  14  15
ATOM     15  O   UNL     1      -3.272   0.738   2.434  0.00  0.00    -0.477 OA
ATOM     16  H   UNL     1      -2.791   1.483   2.133  0.00  0.00    +0.295 HD
ENDBRANCH  14  15
ENDBRANCH  10  14
BRANCH  11  18
ATOM     17  O   UNL     1      -5.286  -0.054  -0.150  0.00  0.00    -0.245 OA
ATOM     18  C   UNL     1      -4.371   0.431  -0.821  0.00  0.00    +0.338 C 
BRANCH  18  19
ATOM     19  O   UNL     1      -4.591   1.368  -1.782  0.00  0.00    -0.477 OA
ATOM     20  H   UNL     1      -3.872   1.714  -2.272  0.00  0.00    +0.295 HD
ENDBRANCH  18  19
ENDBRANCH  11  18
ENDBRANCH   1   7
BRANCH   2  22
ATOM     21  O   UNL     1       1.636   2.338  -0.717  0.00  0.00    -0.245 OA
ATOM     22  C   UNL     1       1.715   1.459   0.142  0.00  0.00    +0.338 C 
BRANCH  22  23
ATOM     23  O   UNL     1       1.433   1.686   1.451  0.00  0.00    -0.477 OA
ATOM     24  H   UNL     1       1.506   0.990   2.073  0.00  0.00    +0.295 HD
ENDBRANCH  22  23
ENDBRANCH   2  22
BRANCH   3  26
ATOM     25  O   UNL     1       4.436   1.904   0.034  0.00  0.00    -0.245 OA
ATOM     26  C   UNL     1       4.487   0.702   0.303  0.00  0.00    +0.338 C 
BRANCH  26  27
ATOM     27  O   UNL     1       5.543   0.146   0.956  0.00  0.00    -0.477 OA
ATOM     28  H   UNL     1       5.548  -0.772   1.144  0.00  0.00    +0.295 HD
ENDBRANCH  26  27
ENDBRANCH   3  26
TORSDOF 9
