100138
  -OEChem-03292013323D

 31 31  0     1  0  0  0  0  0999 V2000
    0.1262   -1.2800   -0.3142 O   0  0  0  0  0  0  0  0  0  0  0  0
    5.2695   -1.3600    0.9991 O   0  0  0  0  0  0  0  0  0  0  0  0
    6.0800   -0.2182   -0.7848 O   0  0  0  0  0  0  0  0  0  0  0  0
   -6.3224   -0.5664   -0.1745 O   0  0  0  0  0  0  0  0  0  0  0  0
   -0.9466    0.7390    0.2181 N   0  0  0  0  0  0  0  0  0  0  0  0
    4.1723    1.6469   -0.6836 N   0  0  0  0  0  0  0  0  0  0  0  0
    2.7036   -0.1973    0.0204 C   0  0  0  0  0  0  0  0  0  0  0  0
    4.0227    0.5471    0.2742 C   0  0  1  0  0  0  0  0  0  0  0  0
    1.4511    0.6588    0.2249 C   0  0  0  0  0  0  0  0  0  0  0  0
    0.1461   -0.0988    0.0164 C   0  0  0  0  0  0  0  0  0  0  0  0
    5.2237   -0.3613    0.0790 C   0  0  0  0  0  0  0  0  0  0  0  0
   -2.3185    0.4065    0.1176 C   0  0  0  0  0  0  0  0  0  0  0  0
   -3.2717    1.3834    0.3518 C   0  0  0  0  0  0  0  0  0  0  0  0
   -2.6784   -0.8897   -0.2119 C   0  0  0  0  0  0  0  0  0  0  0  0
   -4.6238    1.0546    0.2541 C   0  0  0  0  0  0  0  0  0  0  0  0
   -4.0305   -1.2185   -0.3098 C   0  0  0  0  0  0  0  0  0  0  0  0
   -5.0033   -0.2462   -0.0769 C   0  0  0  0  0  0  0  0  0  0  0  0
    2.6480   -1.0651    0.6910 H   0  0  0  0  0  0  0  0  0  0  0  0
    2.6986   -0.6172   -0.9951 H   0  0  0  0  0  0  0  0  0  0  0  0
    4.0645    0.9541    1.2902 H   0  0  0  0  0  0  0  0  0  0  0  0
    1.4481    1.5022   -0.4752 H   0  0  0  0  0  0  0  0  0  0  0  0
    1.4485    1.0664    1.2431 H   0  0  0  0  0  0  0  0  0  0  0  0
   -0.7541    1.7060    0.4709 H   0  0  0  0  0  0  0  0  0  0  0  0
    3.4609    2.3558   -0.5135 H   0  0  0  0  0  0  0  0  0  0  0  0
    4.0143    1.3073   -1.6319 H   0  0  0  0  0  0  0  0  0  0  0  0
   -2.9870    2.3995    0.6102 H   0  0  0  0  0  0  0  0  0  0  0  0
   -1.9879   -1.6975   -0.4034 H   0  0  0  0  0  0  0  0  0  0  0  0
   -5.3769    1.8164    0.4364 H   0  0  0  0  0  0  0  0  0  0  0  0
   -4.3144   -2.2354   -0.5679 H   0  0  0  0  0  0  0  0  0  0  0  0
    6.0536   -1.9362    0.8743 H   0  0  0  0  0  0  0  0  0  0  0  0
   -6.4019   -1.5063   -0.4117 H   0  0  0  0  0  0  0  0  0  0  0  0
  1 10  2  0  0  0  0
  2 11  1  0  0  0  0
  2 30  1  0  0  0  0
  3 11  2  0  0  0  0
  4 17  1  0  0  0  0
  4 31  1  0  0  0  0
  5 10  1  0  0  0  0
  5 12  1  0  0  0  0
  5 23  1  0  0  0  0
  6  8  1  0  0  0  0
  6 24  1  0  0  0  0
  6 25  1  0  0  0  0
  7  8  1  0  0  0  0
  7  9  1  0  0  0  0
  7 18  1  0  0  0  0
  7 19  1  0  0  0  0
  8 11  1  0  0  0  0
  8 20  1  0  0  0  0
  9 10  1  0  0  0  0
  9 21  1  0  0  0  0
  9 22  1  0  0  0  0
 12 13  2  0  0  0  0
 12 14  1  0  0  0  0
 13 15  1  0  0  0  0
 13 26  1  0  0  0  0
 14 16  2  0  0  0  0
 14 27  1  0  0  0  0
 15 17  2  0  0  0  0
 15 28  1  0  0  0  0
 16 17  1  0  0  0  0
 16 29  1  0  0  0  0
M  END
> <PUBCHEM_COMPOUND_CID>
100138

> <PUBCHEM_CONFORMER_RMSD>
0.8

> <PUBCHEM_CONFORMER_DIVERSEORDER>
7
40
19
13
3
18
34
30
29
17
37
36
33
16
8
24
9
38
1
23
21
32
11
31
26
28
22
6
5
35
4
14
12
20
25
10
2
15
39
27

> <PUBCHEM_MMFF94_PARTIAL_CHARGES>
25
1 -0.57
10 0.57
11 0.66
12 0.12
13 -0.15
14 -0.15
15 -0.15
16 -0.15
17 0.08
2 -0.65
23 0.37
24 0.36
25 0.36
26 0.15
27 0.15
28 0.15
29 0.15
3 -0.57
30 0.5
31 0.45
4 -0.53
5 -0.55
6 -0.99
8 0.33
9 0.06

> <PUBCHEM_EFFECTIVE_ROTOR_COUNT>
6

> <PUBCHEM_PHARMACOPHORE_FEATURES>
9
1 1 acceptor
1 2 acceptor
1 3 acceptor
1 4 donor
1 5 donor
1 6 cation
1 6 donor
3 2 3 11 anion
6 12 13 14 15 16 17 rings

> <PUBCHEM_HEAVY_ATOM_COUNT>
17

> <PUBCHEM_ATOM_DEF_STEREO_COUNT>
0

> <PUBCHEM_ATOM_UDEF_STEREO_COUNT>
1

> <PUBCHEM_BOND_DEF_STEREO_COUNT>
0

> <PUBCHEM_BOND_UDEF_STEREO_COUNT>
0

> <PUBCHEM_ISOTOPIC_ATOM_COUNT>
0

> <PUBCHEM_COMPONENT_COUNT>
1

> <PUBCHEM_CACTVS_TAUTO_COUNT>
4

> <PUBCHEM_CONFORMER_ID>
0001872A00000007

> <PUBCHEM_MMFF94_ENERGY>
35.515

> <PUBCHEM_FEATURE_SELFOVERLAP>
45.73

> <PUBCHEM_SHAPE_FINGERPRINT>
10912923 1 18408606954881693888
11287383 113 14405177391700210670
11315181 36 18201441389181427777
12107183 9 17616529562731057984
12236239 1 18260266339108952017
13167823 11 18408319986573304690
13288520 33 18343582958770983029
13533116 47 17530956952543569490
13862211 1 18341889692803572114
1420 363 17275388702791626452
14251764 18 18408601466440743738
17834072 33 18335137600719280554
17834076 25 14056716850741876648
17844677 252 18272094902507503920
19489759 90 17989488502619565169
200 152 18344144791199483729
20281389 69 18410292506339267961
20645477 70 18342741759003101190
21150785 3 17968103053299564606
21267235 1 18341055198634218667
220451 1 18334018280697216634
2297311 6 18060145331591737465
23035841 295 18412545418601860083
23402539 116 18343295972971521149
23536379 177 18407759222583955896
23557571 272 17988370281893162796
23559900 14 18269829968488414961
3004659 81 18411421709455320948
34797466 226 17346327045696194532
3545911 37 18343303656541347943
4214541 1 18413108342537713593
42788 4 18412544314362631257
5104073 3 18341895229058485688
522135 26 17967251997293329096
542803 24 17240484701973247252
54446538 1 18409166614716281252
559249 180 18338230475494179883
57483677 66 18409445877953347258
59755656 215 18342741788608917030
9971528 1 17675925421809337052

> <PUBCHEM_SHAPE_MULTIPOLES>
316.41
15.36
1.34
0.72
7.19
0.1
0.02
-1.74
-0.51
-0.24
-0.01
0.49
-0.02
-0.8

> <PUBCHEM_SHAPE_SELFOVERLAP>
648.449

> <PUBCHEM_SHAPE_VOLUME>
181.5

> <PUBCHEM_COORDINATE_TYPE>
2
5
10

$$$$
