REMARK  Name = 100173
REMARK  5 active torsions:
REMARK  status: ('A' for Active; 'I' for Inactive)
REMARK    1  A    between atoms: C_2  and  N_19
REMARK    2  A    between atoms: C_9  and  O_23
REMARK    3  A    between atoms: C_13  and  O_25
REMARK    4  A    between atoms: C_14  and  O_27
REMARK    5  A    between atoms: C_17  and  O_29
REMARK                            x       y       z     vdW  Elec       q    Type
REMARK                         _______ _______ _______ _____ _____    ______ ____
ROOT
ATOM      1  O   UNL     1      -4.130   0.642  -1.690  0.00  0.00    -0.283 OA
ATOM      2  C   UNL     1      -0.169   1.989   0.586  0.00  0.00    +0.094 C 
ATOM      3  C   UNL     1       0.483   1.953   1.986  0.00  0.00    +0.029 C 
ATOM      4  C   UNL     1       0.958   0.601   2.531  0.00  0.00    +0.029 C 
ATOM      5  C   UNL     1      -1.106   0.837   0.212  0.00  0.00    -0.001 C 
ATOM      6  C   UNL     1       1.620  -0.269   1.496  0.00  0.00    -0.016 C 
ATOM      7  C   UNL     1       0.856  -0.824   0.450  0.00  0.00    +0.033 C 
ATOM      8  C   UNL     1      -0.606  -0.538   0.370  0.00  0.00    +0.000 C 
ATOM      9  C   UNL     1       1.487  -1.611  -0.526  0.00  0.00    +0.175 C 
ATOM     10  C   UNL     1       2.997  -0.520   1.554  0.00  0.00    +0.036 C 
ATOM     11  C   UNL     1      -2.303   1.164  -0.310  0.00  0.00    +0.043 C 
ATOM     12  C   UNL     1      -1.383  -1.626   0.545  0.00  0.00    +0.003 C 
ATOM     13  C   UNL     1       2.859  -1.854  -0.455  0.00  0.00    +0.202 C 
ATOM     14  C   UNL     1       3.611  -1.312   0.584  0.00  0.00    +0.170 C 
ATOM     15  C   UNL     1      -3.405   0.284  -0.763  0.00  0.00    +0.229 C 
ATOM     16  C   UNL     1      -2.818  -1.718   0.602  0.00  0.00    +0.040 C 
ATOM     17  C   UNL     1      -3.726  -0.941   0.007  0.00  0.00    +0.177 C 
ENDROOT
BRANCH   2  19
ATOM     18  O   UNL     1       1.080   4.473  -0.248  0.00  0.00    -0.275 OA
ATOM     19  N   UNL     1       0.816   2.171  -0.462  0.00  0.00    -0.302 N 
ATOM     20  C   UNL     1       1.353   3.402  -0.784  0.00  0.00    +0.223 C 
ATOM     21  C   UNL     1       2.370   3.305  -1.890  0.00  0.00    +0.095 C 
ATOM     22  H   UNL     1       1.116   1.381  -0.967  0.00  0.00    +0.150 HD
ENDBRANCH   2  19
BRANCH   9  23
ATOM     23  O   UNL     1       0.781  -2.127  -1.575  0.00  0.00    -0.468 OA
ATOM     24  C   UNL     1       0.695  -1.327  -2.751  0.00  0.00    +0.253 C 
ENDBRANCH   9  23
BRANCH  13  25
ATOM     25  O   UNL     1       3.467  -2.618  -1.407  0.00  0.00    -0.501 OA
ATOM     26  H   UNL     1       2.963  -2.984  -2.107  0.00  0.00    +0.292 HD
ENDBRANCH  13  25
BRANCH  14  27
ATOM     27  O   UNL     1       4.952  -1.542   0.662  0.00  0.00    -0.503 OA
ATOM     28  H   UNL     1       5.451  -1.173   1.364  0.00  0.00    +0.292 HD
ENDBRANCH  14  27
BRANCH  17  29
ATOM     29  O   UNL     1      -5.063  -1.295   0.077  0.00  0.00    -0.468 OA
ATOM     30  C   UNL     1      -5.678  -0.697   1.199  0.00  0.00    +0.253 C 
ENDBRANCH  17  29
TORSDOF 5
