REMARK  Name = 10013772
REMARK  7 active torsions:
REMARK  status: ('A' for Active; 'I' for Inactive)
REMARK    1  A    between atoms: N_1  and  C_3
REMARK    2  A    between atoms: N_1  and  C_14
REMARK    3  A    between atoms: C_3  and  N_6
REMARK    4  A    between atoms: N_6  and  C_9
REMARK    5  A    between atoms: C_14  and  C_15
REMARK    6  A    between atoms: C_15  and  C_16
REMARK    7  A    between atoms: C_21  and  O_22
REMARK                            x       y       z     vdW  Elec       q    Type
REMARK                         _______ _______ _______ _____ _____    ______ ____
ROOT
ATOM      1  N   UNL     1       3.201   1.542   0.966  0.00  0.00    -0.368 N 
ATOM      2  C   UNL     1       2.511   0.817   0.018  0.00  0.00    +0.220 C 
ATOM      3  H   UNL     1       2.782   2.328   1.385  0.00  0.00    +0.159 HD
ATOM      4  H   UNL     1       4.112   1.274   1.224  0.00  0.00    +0.159 HD
ENDROOT
BRANCH   2   5
ATOM      5  N   UNL     1       1.323   1.056  -0.439  0.00  0.00    -0.238 NA
BRANCH   5   6
ATOM      6  C   UNL     1       0.615   2.206   0.108  0.00  0.00    +0.133 C 
BRANCH   6   7
ATOM      7  C   UNL     1      -0.756   2.334  -0.550  0.00  0.00    +0.053 C 
BRANCH   7   8
ATOM      8  C   UNL     1      -1.638   1.133  -0.313  0.00  0.00    -0.020 C 
ATOM      9  C   UNL     1      -1.602   0.076  -1.210  0.00  0.00    -0.001 C 
ATOM     10  C   UNL     1      -2.468   1.108   0.796  0.00  0.00    -0.001 C 
ATOM     11  C   UNL     1      -2.418  -1.034  -0.991  0.00  0.00    +0.036 C 
ATOM     12  C   UNL     1      -3.284  -0.002   1.015  0.00  0.00    +0.036 C 
ATOM     13  C   UNL     1      -3.259  -1.073   0.122  0.00  0.00    +0.134 C 
BRANCH  13  14
ATOM     14  O   UNL     1      -4.054  -2.157   0.335  0.00  0.00    -0.506 OA
ATOM     15  H   UNL     1      -4.037  -2.876  -0.266  0.00  0.00    +0.292 HD
ENDBRANCH  13  14
ENDBRANCH   7   8
ENDBRANCH   6   7
ENDBRANCH   5   6
ENDBRANCH   2   5
BRANCH   2  16
ATOM     16  N   UNL     1       3.132  -0.279  -0.547  0.00  0.00    -0.180 NA
BRANCH  16  19
ATOM     17  N   UNL     1       3.546  -2.574  -0.483  0.00  0.00    -0.370 N 
ATOM     18  N   UNL     1       2.197  -1.710   1.145  0.00  0.00    -0.370 N 
ATOM     19  C   UNL     1       2.954  -1.442   0.025  0.00  0.00    +0.196 C 
ATOM     20  H   UNL     1       4.114  -2.514  -1.285  0.00  0.00    +0.159 HD
ATOM     21  H   UNL     1       3.402  -3.443  -0.045  0.00  0.00    +0.159 HD
ATOM     22  H   UNL     1       1.721  -0.980   1.603  0.00  0.00    +0.159 HD
ATOM     23  H   UNL     1       2.133  -2.630   1.488  0.00  0.00    +0.159 HD
ENDBRANCH  16  19
ENDBRANCH   2  16
TORSDOF 7
