10013772
  -OEChem-03292013303D

 31 31  0     0  0  0  0  0  0999 V2000
   -4.0541   -2.1571    0.3350 O   0  0  0  0  0  0  0  0  0  0  0  0
    1.3232    1.0560   -0.4385 N   0  0  0  0  0  0  0  0  0  0  0  0
    3.1324   -0.2792   -0.5467 N   0  0  0  0  0  0  0  0  0  0  0  0
    3.2007    1.5421    0.9659 N   0  0  0  0  0  0  0  0  0  0  0  0
    3.5459   -2.5735   -0.4827 N   0  0  0  0  0  0  0  0  0  0  0  0
    2.1973   -1.7096    1.1454 N   0  0  0  0  0  0  0  0  0  0  0  0
   -0.7559    2.3340   -0.5502 C   0  0  0  0  0  0  0  0  0  0  0  0
   -1.6377    1.1326   -0.3132 C   0  0  0  0  0  0  0  0  0  0  0  0
    0.6149    2.2057    0.1082 C   0  0  0  0  0  0  0  0  0  0  0  0
   -1.6023    0.0761   -1.2095 C   0  0  0  0  0  0  0  0  0  0  0  0
   -2.4682    1.1078    0.7963 C   0  0  0  0  0  0  0  0  0  0  0  0
   -2.4183   -1.0340   -0.9906 C   0  0  0  0  0  0  0  0  0  0  0  0
   -3.2839   -0.0023    1.0152 C   0  0  0  0  0  0  0  0  0  0  0  0
   -3.2591   -1.0732    0.1218 C   0  0  0  0  0  0  0  0  0  0  0  0
    2.5114    0.8169    0.0183 C   0  0  0  0  0  0  0  0  0  0  0  0
    2.9535   -1.4423    0.0255 C   0  0  0  0  0  0  0  0  0  0  0  0
   -0.6371    2.4876   -1.6309 H   0  0  0  0  0  0  0  0  0  0  0  0
   -1.2574    3.2358   -0.1764 H   0  0  0  0  0  0  0  0  0  0  0  0
    1.1767    3.1278   -0.0845 H   0  0  0  0  0  0  0  0  0  0  0  0
    0.4885    2.0968    1.1927 H   0  0  0  0  0  0  0  0  0  0  0  0
   -0.9536    0.0966   -2.0804 H   0  0  0  0  0  0  0  0  0  0  0  0
   -2.4930    1.9360    1.4987 H   0  0  0  0  0  0  0  0  0  0  0  0
   -2.3897   -1.8616   -1.6943 H   0  0  0  0  0  0  0  0  0  0  0  0
   -3.9362   -0.0274    1.8839 H   0  0  0  0  0  0  0  0  0  0  0  0
   -3.9081   -2.8005   -0.3797 H   0  0  0  0  0  0  0  0  0  0  0  0
    2.8079    2.3619    1.4144 H   0  0  0  0  0  0  0  0  0  0  0  0
    4.1366    1.2694    1.2466 H   0  0  0  0  0  0  0  0  0  0  0  0
    3.4153   -3.4809   -0.0490 H   0  0  0  0  0  0  0  0  0  0  0  0
    4.1334   -2.5315   -1.3084 H   0  0  0  0  0  0  0  0  0  0  0  0
    1.6922   -0.9810    1.6377 H   0  0  0  0  0  0  0  0  0  0  0  0
    2.1201   -2.6516    1.5133 H   0  0  0  0  0  0  0  0  0  0  0  0
  1 14  1  0  0  0  0
  1 25  1  0  0  0  0
  2  9  1  0  0  0  0
  2 15  2  0  0  0  0
  3 15  1  0  0  0  0
  3 16  2  0  0  0  0
  4 15  1  0  0  0  0
  4 26  1  0  0  0  0
  4 27  1  0  0  0  0
  5 16  1  0  0  0  0
  5 28  1  0  0  0  0
  5 29  1  0  0  0  0
  6 16  1  0  0  0  0
  6 30  1  0  0  0  0
  6 31  1  0  0  0  0
  7  8  1  0  0  0  0
  7  9  1  0  0  0  0
  7 17  1  0  0  0  0
  7 18  1  0  0  0  0
  8 10  2  0  0  0  0
  8 11  1  0  0  0  0
  9 19  1  0  0  0  0
  9 20  1  0  0  0  0
 10 12  1  0  0  0  0
 10 21  1  0  0  0  0
 11 13  2  0  0  0  0
 11 22  1  0  0  0  0
 12 14  2  0  0  0  0
 12 23  1  0  0  0  0
 13 14  1  0  0  0  0
 13 24  1  0  0  0  0
M  END
> <PUBCHEM_COMPOUND_CID>
10013772

> <PUBCHEM_CONFORMER_RMSD>
0.6

> <PUBCHEM_CONFORMER_DIVERSEORDER>
1
51
35
7
25
30
29
46
36
47
45
44
37
4
33
56
12
5
16
6
41
31
54
8
3
15
34
23
52
43
20
39
10
14
22
13
2
48
38
32
40
42
53
19
24
55
49
17
18
9
11
50
57
27
28
26
21

> <PUBCHEM_MMFF94_PARTIAL_CHARGES>
27
1 -0.53
10 -0.15
11 -0.15
12 -0.15
13 -0.15
14 0.08
15 0.71
16 0.55
2 -0.7
21 0.15
22 0.15
23 0.15
24 0.15
25 0.45
26 0.4
27 0.4
28 0.4
29 0.4
3 -0.66
30 0.4
31 0.4
4 -0.85
5 -0.85
6 -0.85
7 0.14
8 -0.14
9 0.25

> <PUBCHEM_EFFECTIVE_ROTOR_COUNT>
4

> <PUBCHEM_PHARMACOPHORE_FEATURES>
7
1 1 donor
1 4 donor
1 5 donor
1 6 donor
4 2 3 4 15 cation
4 3 5 6 16 cation
6 8 10 11 12 13 14 rings

> <PUBCHEM_HEAVY_ATOM_COUNT>
16

> <PUBCHEM_ATOM_DEF_STEREO_COUNT>
0

> <PUBCHEM_ATOM_UDEF_STEREO_COUNT>
0

> <PUBCHEM_BOND_DEF_STEREO_COUNT>
0

> <PUBCHEM_BOND_UDEF_STEREO_COUNT>
0

> <PUBCHEM_ISOTOPIC_ATOM_COUNT>
0

> <PUBCHEM_COMPONENT_COUNT>
1

> <PUBCHEM_CACTVS_TAUTO_COUNT>
10

> <PUBCHEM_CONFORMER_ID>
0098CC4C00000001

> <PUBCHEM_MMFF94_ENERGY>
46.5565

> <PUBCHEM_FEATURE_SELFOVERLAP>
35.623

> <PUBCHEM_SHAPE_FINGERPRINT>
10618630 7 18334013895329930972
12553582 1 18409730694161439228
12596599 1 18271257023007213443
13296908 3 18408881819692823668
14251705 54 18409729577449037966
14251731 5 18410299085838632218
14916288 52 18050568447938489902
15239191 94 18337115579145921462
15375462 189 18059293265941120752
15422964 175 18336261344489470981
18522851 12 18338536173828003252
19766037 51 17968957317451268530
20291156 8 18410296874004054966
20442098 301 18273491273562901734
20645477 70 18339346526792957021
22445834 79 18199753711926421581
2255824 54 17975700802632537549
23500284 5 18412547600192188241
27216 239 11239416229680967663
474229 33 18264763445521536360
5262128 65 15719399455267078709
7097593 13 18271535272663860169

> <PUBCHEM_SHAPE_MULTIPOLES>
298.5
7.18
2.72
1.06
1.27
0.29
-0.02
4.45
-1.08
0.98
-0.02
-0.29
0.05
0.22

> <PUBCHEM_SHAPE_SELFOVERLAP>
613.024

> <PUBCHEM_SHAPE_VOLUME>
170

> <PUBCHEM_COORDINATE_TYPE>
2
5
10

$$$$
