REMARK  Name = 10013538
REMARK  6 active torsions:
REMARK  status: ('A' for Active; 'I' for Inactive)
REMARK    1  A    between atoms: C_2  and  O_8
REMARK    2  A    between atoms: C_3  and  O_10
REMARK    3  A    between atoms: C_4  and  O_12
REMARK    4  A    between atoms: C_5  and  C_14
REMARK    5  A    between atoms: C_14  and  O_15
REMARK    6  A    between atoms: O_15  and  C_17
REMARK                            x       y       z     vdW  Elec       q    Type
REMARK                         _______ _______ _______ _____ _____    ______ ____
ROOT
ATOM      1  O   UNL     1      -2.862  -2.302  -0.076  0.00  0.00    -0.289 OA
ATOM      2  C   UNL     1      -1.886   1.132   0.212  0.00  0.00    +0.176 C 
ATOM      3  C   UNL     1      -0.359   0.994   0.192  0.00  0.00    +0.162 C 
ATOM      4  C   UNL     1      -2.563   0.035  -0.595  0.00  0.00    +0.202 C 
ATOM      5  C   UNL     1       0.123  -0.427   0.373  0.00  0.00    +0.031 C 
ATOM      6  C   UNL     1      -2.109  -1.330  -0.117  0.00  0.00    +0.202 C 
ATOM      7  C   UNL     1      -0.683  -1.494   0.256  0.00  0.00    +0.037 C 
ENDROOT
BRANCH   2   8
ATOM      8  O   UNL     1      -2.215   2.400  -0.362  0.00  0.00    -0.379 OA
ATOM      9  H   UNL     1      -1.787   3.106   0.147  0.00  0.00    +0.211 HD
ENDBRANCH   2   8
BRANCH   3  10
ATOM     10  O   UNL     1       0.165   1.808   1.244  0.00  0.00    -0.378 OA
ATOM     11  H   UNL     1      -0.143   2.721   1.130  0.00  0.00    +0.211 HD
ENDBRANCH   3  10
BRANCH   4  12
ATOM     12  O   UNL     1      -3.968   0.135  -0.422  0.00  0.00    -0.375 OA
ATOM     13  H   UNL     1      -4.269   1.006  -0.725  0.00  0.00    +0.211 HD
ENDBRANCH   4  12
BRANCH   5  14
ATOM     14  C   UNL     1       1.588  -0.611   0.665  0.00  0.00    +0.233 C 
BRANCH  14  15
ATOM     15  O   UNL     1       2.353  -0.043  -0.380  0.00  0.00    -0.444 OA
BRANCH  15  17
ATOM     16  O   UNL     1       4.309  -0.662   0.682  0.00  0.00    -0.250 OA
ATOM     17  C   UNL     1       3.715  -0.137  -0.249  0.00  0.00    +0.318 C 
ATOM     18  C   UNL     1       4.392   0.503  -1.423  0.00  0.00    +0.121 C 
ENDBRANCH  15  17
ENDBRANCH  14  15
ENDBRANCH   5  14
TORSDOF 6
