REMARK  Name = 100138
REMARK  8 active torsions:
REMARK  status: ('A' for Active; 'I' for Inactive)
REMARK    1  A    between atoms: N_2  and  C_5
REMARK    2  A    between atoms: C_3  and  C_13
REMARK    3  A    between atoms: C_10  and  O_11
REMARK    4  A    between atoms: C_13  and  C_14
REMARK    5  A    between atoms: C_14  and  CA_15
REMARK    6  A    between atoms: CA_15  and  N_16
REMARK    7  A    between atoms: CA_15  and  C_21
REMARK    8  A    between atoms: C_21  and  O_22
REMARK                            x       y       z     vdW  Elec       q    Type
REMARK                         _______ _______ _______ _____ _____    ______ ____
ROOT
ATOM      1  O   UNL     1       0.126  -1.280  -0.314  0.00  0.00    -0.275 OA
ATOM      2  N   UNL     1      -0.947   0.739   0.218  0.00  0.00    -0.284 N 
ATOM      3  C   UNL     1       0.146  -0.099   0.016  0.00  0.00    +0.226 C 
ATOM      4  H   UNL     1      -0.741   1.671   0.459  0.00  0.00    +0.155 HD
ENDROOT
BRANCH   2   5
ATOM      5  C   UNL     1      -2.318   0.406   0.118  0.00  0.00    +0.050 C 
ATOM      6  C   UNL     1      -3.272   1.383   0.352  0.00  0.00    +0.018 C 
ATOM      7  C   UNL     1      -2.678  -0.890  -0.212  0.00  0.00    +0.018 C 
ATOM      8  C   UNL     1      -4.624   1.055   0.254  0.00  0.00    +0.038 C 
ATOM      9  C   UNL     1      -4.030  -1.218  -0.310  0.00  0.00    +0.038 C 
ATOM     10  C   UNL     1      -5.003  -0.246  -0.077  0.00  0.00    +0.134 C 
BRANCH  10  11
ATOM     11  O   UNL     1      -6.322  -0.566  -0.174  0.00  0.00    -0.506 OA
ATOM     12  H   UNL     1      -6.976   0.087  -0.018  0.00  0.00    +0.292 HD
ENDBRANCH  10  11
ENDBRANCH   2   5
BRANCH   3  13
ATOM     13  C   UNL     1       1.451   0.659   0.225  0.00  0.00    +0.084 C 
BRANCH  13  14
ATOM     14  C   UNL     1       2.704  -0.197   0.020  0.00  0.00    -0.001 C 
BRANCH  14  15
ATOM     15  CA  UNL     1       4.023   0.547   0.274  0.00  0.00    +0.036 C 
BRANCH  15  16
ATOM     16  N   UNL     1       4.172   1.647  -0.684  0.00  0.00    +0.389 N 
ATOM     17  H1  UNL     1       3.385   2.288  -0.591  0.00  0.00    -0.088 HD
ATOM     18  H2  UNL     1       4.195   1.271  -1.632  0.00  0.00    -0.088 HD
ATOM     19  H3  UNL     1       5.041   2.146  -0.495  0.00  0.00    -0.088 HD
ENDBRANCH  15  16
BRANCH  15  21
ATOM     20  OXT UNL     1       6.080  -0.218  -0.785  0.00  0.00    -0.253 OA
ATOM     21  C   UNL     1       5.224  -0.361   0.079  0.00  0.00    +0.293 C 
BRANCH  21  22
ATOM     22  O   UNL     1       5.269  -1.360   0.999  0.00  0.00    -0.482 OA
ATOM     23  H   UNL     1       4.594  -1.434   1.644  0.00  0.00    +0.295 HD
ENDBRANCH  21  22
ENDBRANCH  15  21
ENDBRANCH  14  15
ENDBRANCH  13  14
ENDBRANCH   3  13
TORSDOF 8
