REMARK  Name = 10018576
REMARK  6 active torsions:
REMARK  status: ('A' for Active; 'I' for Inactive)
REMARK    1  A    between atoms: N_2  and  C_20
REMARK    2  A    between atoms: C_10  and  O_15
REMARK    3  A    between atoms: O_15  and  C_16
REMARK    4  A    between atoms: C_16  and  C_17
REMARK    5  A    between atoms: C_17  and  O_18
REMARK    6  A    between atoms: C_20  and  C_21
REMARK                            x       y       z     vdW  Elec       q    Type
REMARK                         _______ _______ _______ _____ _____    ______ ____
ROOT
ATOM      1  O   UNL     1       3.586  -2.096   0.555  0.00  0.00    -0.252 OA
ATOM      2  N   UNL     1       1.558  -0.873   0.782  0.00  0.00    -0.215 N 
ATOM      3  N   UNL     1       1.509  -2.887  -0.257  0.00  0.00    -0.276 N 
ATOM      4  N   UNL     1      -0.854  -0.369   0.565  0.00  0.00    -0.298 NA
ATOM      5  N   UNL     1      -2.096  -2.128  -0.579  0.00  0.00    -0.299 NA
ATOM      6  C   UNL     1       0.232  -1.129   0.390  0.00  0.00    +0.209 C 
ATOM      7  C   UNL     1       0.224  -2.358  -0.240  0.00  0.00    +0.210 C 
ATOM      8  C   UNL     1       2.382  -1.964   0.386  0.00  0.00    +0.310 C 
ATOM      9  C   UNL     1      -0.958  -2.841  -0.719  0.00  0.00    +0.196 C 
ATOM     10  C   UNL     1      -1.976  -0.930   0.057  0.00  0.00    +0.312 C 
ATOM     11  H   UNL     1       1.771  -3.752  -0.648  0.00  0.00    +0.152 HD
ATOM     12  N   UNL     1      -0.987  -4.093  -1.366  0.00  0.00    -0.334 N 
ATOM     13  H   UNL     1      -1.837  -4.448  -1.715  0.00  0.00    +0.144 HD
ATOM     14  H   UNL     1      -0.158  -4.613  -1.469  0.00  0.00    +0.144 HD
ENDROOT
BRANCH  10  15
ATOM     15  O   UNL     1      -3.135  -0.202   0.200  0.00  0.00    -0.397 OA
BRANCH  15  16
ATOM     16  C   UNL     1      -3.021   1.049   0.861  0.00  0.00    +0.254 C 
BRANCH  16  17
ATOM     17  C   UNL     1      -4.384   1.712   0.903  0.00  0.00    +0.191 C 
BRANCH  17  18
ATOM     18  O   UNL     1      -4.837   1.927  -0.428  0.00  0.00    -0.347 OA
ATOM     19  C   UNL     1      -6.124   2.528  -0.449  0.00  0.00    +0.174 C 
ENDBRANCH  17  18
ENDBRANCH  16  17
ENDBRANCH  15  16
ENDBRANCH  10  15
BRANCH   2  20
ATOM     20  C   UNL     1       2.011   0.306   1.474  0.00  0.00    +0.128 C 
BRANCH  20  21
ATOM     21  C   UNL     1       2.427   1.390   0.523  0.00  0.00    -0.002 C 
ATOM     22  C   UNL     1       1.490   2.320   0.087  0.00  0.00    -0.003 C 
ATOM     23  C   UNL     1       3.746   1.453   0.087  0.00  0.00    -0.003 C 
ATOM     24  C   UNL     1       1.877   3.327  -0.797  0.00  0.00    -0.000 C 
ATOM     25  C   UNL     1       4.133   2.461  -0.797  0.00  0.00    -0.000 C 
ATOM     26  C   UNL     1       3.199   3.397  -1.239  0.00  0.00    -0.000 C 
ENDBRANCH  20  21
ENDBRANCH   2  20
TORSDOF 6
