REMARK  Name = 10027910
REMARK  4 active torsions:
REMARK  status: ('A' for Active; 'I' for Inactive)
REMARK    1  A    between atoms: C_6  and  C_21
REMARK    2  A    between atoms: C_8  and  O_19
REMARK    3  A    between atoms: C_21  and  C_25
REMARK    4  A    between atoms: C_25  and  O_38
REMARK                            x       y       z     vdW  Elec       q    Type
REMARK                         _______ _______ _______ _____ _____    ______ ____
ROOT
ATOM      1  O   UNL     1       0.314  -2.457   2.319  0.00  0.00    -0.273 OA
ATOM      2  O   UNL     1      -0.988   2.075   0.898  0.00  0.00    -0.274 OA
ATOM      3  N   UNL     1      -1.696  -0.118   0.483  0.00  0.00    -0.227 N 
ATOM      4  N   UNL     1      -1.634  -2.764   1.149  0.00  0.00    -0.278 N 
ATOM      5  N   UNL     1      -3.850  -0.505  -0.439  0.00  0.00    -0.390 NA
ATOM      6  C   UNL     1      -0.393  -0.674   0.868  0.00  0.00    +0.161 C 
ATOM      7  C   UNL     1      -0.539  -2.026   1.544  0.00  0.00    +0.243 C 
ATOM      8  C   UNL     1      -2.426  -2.445  -0.024  0.00  0.00    +0.213 C 
ATOM      9  C   UNL     1      -2.710  -0.943  -0.001  0.00  0.00    +0.208 C 
ATOM     10  C   UNL     1      -1.846   1.278   0.528  0.00  0.00    +0.242 C 
ATOM     11  C   UNL     1      -3.716  -3.267  -0.011  0.00  0.00    +0.060 C 
ATOM     12  C   UNL     1      -3.154   1.786   0.066  0.00  0.00    +0.151 C 
ATOM     13  C   UNL     1      -4.099   0.872  -0.403  0.00  0.00    +0.123 C 
ATOM     14  C   UNL     1      -3.434   3.157   0.091  0.00  0.00    -0.010 C 
ATOM     15  C   UNL     1      -5.337   1.348  -0.849  0.00  0.00    +0.028 C 
ATOM     16  C   UNL     1      -4.672   3.617  -0.356  0.00  0.00    -0.004 C 
ATOM     17  C   UNL     1      -5.623   2.714  -0.825  0.00  0.00    +0.002 C 
ATOM     18  H   UNL     1      -1.891  -3.545   1.690  0.00  0.00    +0.152 HD
ENDROOT
BRANCH   8  19
ATOM     19  O   UNL     1      -1.721  -2.800  -1.197  0.00  0.00    -0.332 OA
ATOM     20  C   UNL     1      -2.458  -2.479  -2.372  0.00  0.00    +0.176 C 
ENDBRANCH   8  19
BRANCH   6  21
ATOM     21  C   UNL     1       0.603  -0.689  -0.287  0.00  0.00    +0.060 C 
BRANCH  21  25
ATOM     22  O   UNL     1       5.109   1.879  -1.699  0.00  0.00    -0.277 OA
ATOM     23  N   UNL     1       3.803   0.287  -0.569  0.00  0.00    -0.279 N 
ATOM     24  N   UNL     1       2.830  -0.771  -2.314  0.00  0.00    +0.405 N 
ATOM     25  C   UNL     1       1.996  -1.060   0.186  0.00  0.00    +0.109 C 
ATOM     26  C   UNL     1       3.110  -0.932  -0.887  0.00  0.00    +0.052 C 
ATOM     27  C   UNL     1       2.512  -0.091   1.240  0.00  0.00    +0.015 C 
ATOM     28  C   UNL     1       3.545   0.704   0.722  0.00  0.00    +0.050 C 
ATOM     29  C   UNL     1       4.001   0.001  -2.826  0.00  0.00    +0.020 C 
ATOM     30  C   UNL     1       4.418   0.876  -1.647  0.00  0.00    +0.208 C 
ATOM     31  C   UNL     1       2.044   0.127   2.525  0.00  0.00    -0.001 C 
ATOM     32  C   UNL     1       4.107   1.746   1.433  0.00  0.00    +0.015 C 
ATOM     33  C   UNL     1       3.639   0.822  -4.051  0.00  0.00    -0.014 C 
ATOM     34  C   UNL     1       2.621   1.157   3.274  0.00  0.00    -0.000 C 
ATOM     35  C   UNL     1       3.639   1.962   2.731  0.00  0.00    +0.001 C 
ATOM     36  H   UNL     1       1.963  -0.253  -2.457  0.00  0.00    -0.081 HD
ATOM     37  H   UNL     1       2.708  -1.663  -2.793  0.00  0.00    -0.081 HD
BRANCH  25  38
ATOM     38  O   UNL     1       2.001  -2.388   0.698  0.00  0.00    -0.383 OA
ATOM     39  H   UNL     1       1.670  -2.997   0.019  0.00  0.00    +0.211 HD
ENDBRANCH  25  38
ENDBRANCH  21  25
ENDBRANCH   6  21
TORSDOF 4
