REMARK  Name = 10023347
REMARK  4 active torsions:
REMARK  status: ('A' for Active; 'I' for Inactive)
REMARK    1  A    between atoms: C_8  and  O_27
REMARK    2  A    between atoms: C_8  and  C_29
REMARK    3  A    between atoms: C_15  and  C_31
REMARK    4  A    between atoms: C_22  and  N_24
REMARK                            x       y       z     vdW  Elec       q    Type
REMARK                         _______ _______ _______ _____ _____    ______ ____
ROOT
ATOM      1  O   UNL     1      -5.358  -0.836   0.394  0.00  0.00    -0.442 OA
ATOM      2  O   UNL     1      -2.014  -3.317  -0.360  0.00  0.00    -0.270 OA
ATOM      3  O   UNL     1      -6.002   1.122   1.284  0.00  0.00    -0.247 OA
ATOM      4  N   UNL     1      -0.570  -1.520  -0.178  0.00  0.00    -0.249 N 
ATOM      5  N   UNL     1       1.660   1.293   0.059  0.00  0.00    -0.405 NA
ATOM      6  C   UNL     1      -0.370  -0.155  -0.051  0.00  0.00    +0.084 C 
ATOM      7  C   UNL     1      -2.751   0.173   0.010  0.00  0.00    +0.017 C 
ATOM      8  C   UNL     1      -3.912   1.126   0.075  0.00  0.00    +0.196 C 
ATOM      9  C   UNL     1       0.718  -2.239  -0.262  0.00  0.00    +0.127 C 
ATOM     10  C   UNL     1       1.708  -1.125  -0.170  0.00  0.00    +0.025 C 
ATOM     11  C   UNL     1       1.064   0.097  -0.047  0.00  0.00    +0.142 C 
ATOM     12  C   UNL     1      -2.972  -1.147  -0.128  0.00  0.00    +0.074 C 
ATOM     13  C   UNL     1      -1.394   0.697   0.039  0.00  0.00    +0.016 C 
ATOM     14  C   UNL     1      -1.820  -2.111  -0.233  0.00  0.00    +0.252 C 
ATOM     15  C   UNL     1       3.082  -1.143  -0.190  0.00  0.00    -0.020 C 
ATOM     16  C   UNL     1      -4.357  -1.693  -0.198  0.00  0.00    +0.239 C 
ATOM     17  C   UNL     1       3.763   0.081  -0.083  0.00  0.00    +0.023 C 
ATOM     18  C   UNL     1      -5.167   0.480   0.651  0.00  0.00    +0.346 C 
ATOM     19  C   UNL     1       3.009   1.282   0.040  0.00  0.00    +0.113 C 
ATOM     20  C   UNL     1       5.166   0.129  -0.097  0.00  0.00    +0.016 C 
ATOM     21  C   UNL     1       3.705   2.482   0.144  0.00  0.00    +0.086 C 
ATOM     22  C   UNL     1       5.832   1.347   0.010  0.00  0.00    +0.038 C 
ATOM     23  C   UNL     1       5.102   2.523   0.130  0.00  0.00    -0.005 C 
ENDROOT
BRANCH  22  24
ATOM     24  N   UNL     1       7.241   1.388  -0.004  0.00  0.00    -0.357 N 
ATOM     25  H   UNL     1       7.757   0.554  -0.090  0.00  0.00    +0.142 HD
ATOM     26  H   UNL     1       7.709   2.251   0.071  0.00  0.00    +0.142 HD
ENDBRANCH  22  24
BRANCH   8  27
ATOM     27  O   UNL     1      -3.611   2.193   0.978  0.00  0.00    -0.373 OA
ATOM     28  H   UNL     1      -2.816   2.658   0.675  0.00  0.00    +0.211 HD
ENDBRANCH   8  27
BRANCH   8  29
ATOM     29  C   UNL     1      -4.235   1.716  -1.300  0.00  0.00    +0.042 C 
ATOM     30  C   UNL     1      -5.385   2.700  -1.220  0.00  0.00    +0.003 C 
ENDBRANCH   8  29
BRANCH  15  31
ATOM     31  C   UNL     1       3.788  -2.452  -0.323  0.00  0.00    +0.026 C 
ATOM     32  C   UNL     1       4.080  -3.092   1.031  0.00  0.00    +0.005 C 
ENDBRANCH  15  31
TORSDOF 4
