REMARK  Name = 100222
REMARK  5 active torsions:
REMARK  status: ('A' for Active; 'I' for Inactive)
REMARK    1  A    between atoms: C2*_2  and  O2*_16
REMARK    2  A    between atoms: C3*_3  and  O3*_18
REMARK    3  A    between atoms: C1*_4  and  N_8
REMARK    4  A    between atoms: C4*_5  and  C5*_20
REMARK    5  A    between atoms: C5*_20  and  O5*_21
REMARK                            x       y       z     vdW  Elec       q    Type
REMARK                         _______ _______ _______ _____ _____    ______ ____
ROOT
ATOM      1  O4* UNL     1      -1.917  -0.491   1.026  0.00  0.00    -0.333 OA
ATOM      2  C2* UNL     1      -1.818   0.997  -0.816  0.00  0.00    +0.187 C 
ATOM      3  C3* UNL     1      -3.271   0.700  -0.510  0.00  0.00    +0.171 C 
ATOM      4  C1* UNL     1      -1.133   0.579   0.474  0.00  0.00    +0.226 C 
ATOM      5  C4* UNL     1      -3.169  -0.578   0.311  0.00  0.00    +0.175 C 
ENDROOT
BRANCH   4   8
ATOM      6  S   UNL     1       4.254  -1.442  -0.435  0.00  0.00    -0.072 S 
ATOM      7  O   UNL     1       1.163   2.209   0.683  0.00  0.00    -0.274 OA
ATOM      8  N   UNL     1       0.207   0.112   0.257  0.00  0.00    -0.233 N 
ATOM      9  N   UNL     1       1.595  -1.784  -0.309  0.00  0.00    -0.245 NA
ATOM     10  C   UNL     1       1.284   1.023   0.391  0.00  0.00    +0.239 C 
ATOM     11  C   UNL     1       0.441  -1.231  -0.085  0.00  0.00    +0.224 C 
ATOM     12  C   UNL     1       2.583   0.415   0.142  0.00  0.00    +0.145 C 
ATOM     13  C   UNL     1       2.643  -0.927  -0.185  0.00  0.00    +0.097 C 
ATOM     14  C   UNL     1       3.870   1.021   0.187  0.00  0.00    -0.004 C 
ATOM     15  C   UNL     1       4.870   0.121  -0.108  0.00  0.00    +0.033 C 
ENDBRANCH   4   8
BRANCH   2  16
ATOM     16  O2* UNL     1      -1.603   2.358  -1.129  0.00  0.00    -0.378 OA
ATOM     17  H2* UNL     1      -2.058   2.575  -1.957  0.00  0.00    +0.211 HD
ENDBRANCH   2  16
BRANCH   3  18
ATOM     18  O3* UNL     1      -3.818   1.719   0.327  0.00  0.00    -0.379 OA
ATOM     19  H3* UNL     1      -3.893   2.545  -0.176  0.00  0.00    +0.211 HD
ENDBRANCH   3  18
BRANCH   5  20
ATOM     20  C5* UNL     1      -3.144  -1.840  -0.540  0.00  0.00    +0.169 C 
BRANCH  20  21
ATOM     21  O5* UNL     1      -3.038  -2.963   0.318  0.00  0.00    -0.379 OA
ATOM     22  H5* UNL     1      -3.020  -3.775  -0.213  0.00  0.00    +0.211 HD
ENDBRANCH  20  21
ENDBRANCH   5  20
TORSDOF 5
