REMARK  Name = 10023135
REMARK  7 active torsions:
REMARK  status: ('A' for Active; 'I' for Inactive)
REMARK    1  A    between atoms: C_3  and  C_17
REMARK    2  A    between atoms: C_3  and  O_23
REMARK    3  A    between atoms: C_10  and  O_25
REMARK    4  A    between atoms: C_11  and  O_27
REMARK    5  A    between atoms: C_13  and  O_31
REMARK    6  A    between atoms: C_14  and  O_29
REMARK    7  A    between atoms: C_17  and  C_21
REMARK                            x       y       z     vdW  Elec       q    Type
REMARK                         _______ _______ _______ _____ _____    ______ ____
ROOT
ATOM      1  O   UNL     1       1.486  -2.112   1.270  0.00  0.00    -0.288 OA
ATOM      2  O   UNL     1       2.159   2.432   1.185  0.00  0.00    -0.288 OA
ATOM      3  C   UNL     1       2.093   0.107   0.601  0.00  0.00    +0.204 C 
ATOM      4  C   UNL     1       1.120  -1.035   0.809  0.00  0.00    +0.207 C 
ATOM      5  C   UNL     1       1.496   1.490   0.762  0.00  0.00    +0.207 C 
ATOM      6  C   UNL     1      -0.742   0.523   0.210  0.00  0.00    +0.014 A 
ATOM      7  C   UNL     1      -0.289  -0.797   0.419  0.00  0.00    +0.075 A 
ATOM      8  C   UNL     1       0.078   1.660   0.371  0.00  0.00    +0.071 C 
ATOM      9  C   UNL     1      -2.095   0.718  -0.161  0.00  0.00    +0.033 A 
ATOM     10  C   UNL     1      -1.147  -1.892   0.271  0.00  0.00    +0.174 A 
ATOM     11  C   UNL     1      -0.423   2.951   0.176  0.00  0.00    +0.136 C 
ATOM     12  C   UNL     1      -2.581   2.019  -0.363  0.00  0.00    -0.016 C 
ATOM     13  C   UNL     1      -2.942  -0.392  -0.316  0.00  0.00    +0.170 A 
ATOM     14  C   UNL     1      -2.471  -1.685  -0.100  0.00  0.00    +0.206 A 
ATOM     15  C   UNL     1      -1.752   3.126  -0.195  0.00  0.00    +0.033 C 
ATOM     16  C   UNL     1      -3.990   2.338  -0.762  0.00  0.00    +0.031 C 
ENDROOT
BRANCH   3  17
ATOM     17  C   UNL     1       2.717  -0.002  -0.792  0.00  0.00    +0.087 C 
ATOM     18  C   UNL     1       1.627   0.199  -1.855  0.00  0.00    +0.011 C 
ATOM     19  C   UNL     1       3.797   1.082  -0.938  0.00  0.00    +0.011 C 
BRANCH  17  21
ATOM     20  O   UNL     1       2.952  -2.165  -1.872  0.00  0.00    -0.296 OA
ATOM     21  C   UNL     1       3.333  -1.406  -0.978  0.00  0.00    +0.153 C 
ATOM     22  C   UNL     1       4.443  -1.841  -0.051  0.00  0.00    +0.072 C 
ENDBRANCH  17  21
ENDBRANCH   3  17
BRANCH   3  23
ATOM     23  O   UNL     1       3.116  -0.013   1.577  0.00  0.00    -0.373 OA
ATOM     24  H   UNL     1       3.527  -0.889   1.509  0.00  0.00    +0.211 HD
ENDBRANCH   3  23
BRANCH  10  25
ATOM     25  O   UNL     1      -0.726  -3.176   0.455  0.00  0.00    -0.503 OA
ATOM     26  H   UNL     1       0.161  -3.347   0.705  0.00  0.00    +0.292 HD
ENDBRANCH  10  25
BRANCH  11  27
ATOM     27  O   UNL     1       0.343   4.070   0.311  0.00  0.00    -0.505 OA
ATOM     28  H   UNL     1       1.244   3.993   0.560  0.00  0.00    +0.292 HD
ENDBRANCH  11  27
BRANCH  14  29
ATOM     29  O   UNL     1      -3.308  -2.752  -0.255  0.00  0.00    -0.465 OA
ATOM     30  C   UNL     1      -4.037  -3.174   0.895  0.00  0.00    +0.253 C 
ENDBRANCH  14  29
BRANCH  13  31
ATOM     31  O   UNL     1      -4.256  -0.273  -0.676  0.00  0.00    -0.503 OA
ATOM     32  H   UNL     1      -4.624   0.574  -0.833  0.00  0.00    +0.292 HD
ENDBRANCH  13  31
TORSDOF 7
