REMARK  Name = 10029973
REMARK  5 active torsions:
REMARK  status: ('A' for Active; 'I' for Inactive)
REMARK    1  A    between atoms: N_2  and  C1*_15
REMARK    2  A    between atoms: C_7  and  C_21
REMARK    3  A    between atoms: C3*_12  and  O3*_16
REMARK    4  A    between atoms: C4*_14  and  C5*_18
REMARK    5  A    between atoms: C5*_18  and  O5*_19
REMARK                            x       y       z     vdW  Elec       q    Type
REMARK                         _______ _______ _______ _____ _____    ______ ____
ROOT
ATOM      1  O   UNL     1       0.458  -3.320   0.254  0.00  0.00    -0.193 OA
ATOM      2  N   UNL     1       0.268  -1.023   0.182  0.00  0.00    -0.180 N 
ATOM      3  N   UNL     1      -1.642  -2.483   0.071  0.00  0.00    -0.305 NA
ATOM      4  N   UNL     1      -3.798  -1.663  -0.115  0.00  0.00    -0.332 N 
ATOM      5  C   UNL     1      -0.582   0.068   0.088  0.00  0.00    +0.091 C 
ATOM      6  C   UNL     1      -0.272  -2.330   0.172  0.00  0.00    +0.275 C 
ATOM      7  C   UNL     1      -1.908  -0.050  -0.011  0.00  0.00    +0.102 C 
ATOM      8  C   UNL     1      -2.440  -1.449  -0.017  0.00  0.00    +0.200 C 
ATOM      9  H   UNL     1      -4.152  -2.582  -0.119  0.00  0.00    +0.145 HD
ATOM     10  H   UNL     1      -4.413  -0.898  -0.182  0.00  0.00    +0.145 HD
ENDROOT
BRANCH   2  15
ATOM     11  O4* UNL     1       1.904   0.432   1.008  0.00  0.00    -0.334 OA
ATOM     12  C3* UNL     1       3.458   0.348  -0.780  0.00  0.00    +0.144 C 
ATOM     13  C2* UNL     1       2.352  -0.640  -1.070  0.00  0.00    +0.084 C 
ATOM     14  C4* UNL     1       2.847   1.246   0.286  0.00  0.00    +0.173 C 
ATOM     15  C1* UNL     1       1.678  -0.786   0.285  0.00  0.00    +0.209 C 
BRANCH  12  16
ATOM     16  O3* UNL     1       4.588  -0.340  -0.246  0.00  0.00    -0.382 OA
ATOM     17  H3* UNL     1       4.972  -0.910  -0.930  0.00  0.00    +0.210 HD
ENDBRANCH  12  16
BRANCH  14  18
ATOM     18  C5* UNL     1       2.090   2.431  -0.300  0.00  0.00    +0.169 C 
BRANCH  18  19
ATOM     19  O5* UNL     1       1.550   3.201   0.761  0.00  0.00    -0.379 OA
ATOM     20  H5* UNL     1       1.066   3.958   0.398  0.00  0.00    +0.211 HD
ENDBRANCH  18  19
ENDBRANCH  14  18
ENDBRANCH   2  15
BRANCH   7  21
ATOM     21  C   UNL     1      -2.751   1.087  -0.104  0.00  0.00    -0.059 C 
ATOM     22  C   UNL     1      -3.465   2.050  -0.183  0.00  0.00    -0.085 C 
ATOM     23  C   UNL     1      -4.334   3.222  -0.279  0.00  0.00    +0.090 C 
ENDBRANCH   7  21
TORSDOF 5
