10029973
  -OEChem-03292013303D

 34 35  0     1  0  0  0  0  0999 V2000
    1.9037    0.4317    1.0082 O   0  0  0  0  0  0  0  0  0  0  0  0
    4.5876   -0.3396   -0.2463 O   0  0  0  0  0  0  0  0  0  0  0  0
    1.5502    3.2008    0.7615 O   0  0  0  0  0  0  0  0  0  0  0  0
    0.4579   -3.3201    0.2538 O   0  0  0  0  0  0  0  0  0  0  0  0
    0.2677   -1.0228    0.1818 N   0  0  0  0  0  0  0  0  0  0  0  0
   -1.6421   -2.4834    0.0709 N   0  0  0  0  0  0  0  0  0  0  0  0
   -3.7977   -1.6632   -0.1152 N   0  0  0  0  0  0  0  0  0  0  0  0
    3.4580    0.3476   -0.7801 C   0  0  1  0  0  0  0  0  0  0  0  0
    2.3515   -0.6400   -1.0701 C   0  0  0  0  0  0  0  0  0  0  0  0
    2.8471    1.2465    0.2858 C   0  0  1  0  0  0  0  0  0  0  0  0
    1.6780   -0.7864    0.2846 C   0  0  1  0  0  0  0  0  0  0  0  0
    2.0901    2.4311   -0.3005 C   0  0  0  0  0  0  0  0  0  0  0  0
   -0.5823    0.0678    0.0879 C   0  0  0  0  0  0  0  0  0  0  0  0
   -0.2718   -2.3305    0.1725 C   0  0  0  0  0  0  0  0  0  0  0  0
   -1.9081   -0.0502   -0.0113 C   0  0  0  0  0  0  0  0  0  0  0  0
   -2.4398   -1.4489   -0.0167 C   0  0  0  0  0  0  0  0  0  0  0  0
   -2.7514    1.0875   -0.1044 C   0  0  0  0  0  0  0  0  0  0  0  0
   -3.4648    2.0500   -0.1832 C   0  0  0  0  0  0  0  0  0  0  0  0
   -4.3337    3.2222   -0.2790 C   0  0  0  0  0  0  0  0  0  0  0  0
    3.7936    0.8955   -1.6656 H   0  0  0  0  0  0  0  0  0  0  0  0
    1.6622   -0.2150   -1.8099 H   0  0  0  0  0  0  0  0  0  0  0  0
    2.7005   -1.6049   -1.4513 H   0  0  0  0  0  0  0  0  0  0  0  0
    2.1503   -1.5948    0.8553 H   0  0  0  0  0  0  0  0  0  0  0  0
    3.5896    1.5950    1.0121 H   0  0  0  0  0  0  0  0  0  0  0  0
    1.2809    2.1337   -0.9712 H   0  0  0  0  0  0  0  0  0  0  0  0
    2.7775    3.0706   -0.8646 H   0  0  0  0  0  0  0  0  0  0  0  0
    4.9121   -0.9445   -0.9351 H   0  0  0  0  0  0  0  0  0  0  0  0
   -0.1461    1.0538    0.1058 H   0  0  0  0  0  0  0  0  0  0  0  0
    1.0853    3.9550    0.3608 H   0  0  0  0  0  0  0  0  0  0  0  0
   -4.1726   -2.6059   -0.1205 H   0  0  0  0  0  0  0  0  0  0  0  0
   -4.4666   -0.9044   -0.1865 H   0  0  0  0  0  0  0  0  0  0  0  0
   -3.7544    4.1451   -0.1797 H   0  0  0  0  0  0  0  0  0  0  0  0
   -4.8488    3.2469   -1.2440 H   0  0  0  0  0  0  0  0  0  0  0  0
   -5.0915    3.2104    0.5101 H   0  0  0  0  0  0  0  0  0  0  0  0
  1 10  1  0  0  0  0
  1 11  1  0  0  0  0
  2  8  1  0  0  0  0
  2 27  1  0  0  0  0
  3 12  1  0  0  0  0
  3 29  1  0  0  0  0
  4 14  2  0  0  0  0
  5 11  1  0  0  0  0
  5 13  1  0  0  0  0
  5 14  1  0  0  0  0
  6 14  1  0  0  0  0
  6 16  2  0  0  0  0
  7 16  1  0  0  0  0
  7 30  1  0  0  0  0
  7 31  1  0  0  0  0
  8  9  1  0  0  0  0
  8 10  1  0  0  0  0
  8 20  1  0  0  0  0
  9 11  1  0  0  0  0
  9 21  1  0  0  0  0
  9 22  1  0  0  0  0
 10 12  1  0  0  0  0
 10 24  1  0  0  0  0
 11 23  1  0  0  0  0
 12 25  1  0  0  0  0
 12 26  1  0  0  0  0
 13 15  2  0  0  0  0
 13 28  1  0  0  0  0
 15 16  1  0  0  0  0
 15 17  1  0  0  0  0
 17 18  3  0  0  0  0
 18 19  1  0  0  0  0
 19 32  1  0  0  0  0
 19 33  1  0  0  0  0
 19 34  1  0  0  0  0
M  END
> <PUBCHEM_COMPOUND_CID>
10029973

> <PUBCHEM_CONFORMER_RMSD>
0.6

> <PUBCHEM_CONFORMER_DIVERSEORDER>
1
7
14
12
11
10
9
4
5
3
6
8
13
2

> <PUBCHEM_MMFF94_PARTIAL_CHARGES>
23
1 -0.56
10 0.28
11 0.58
12 0.28
13 -0.04
14 0.84
15 0.08
16 0.49
17 -0.06
18 -0.2
19 0.2
2 -0.68
27 0.4
28 0.15
29 0.4
3 -0.68
30 0.4
31 0.4
4 -0.57
5 -0.47
6 -0.66
7 -0.85
8 0.28

> <PUBCHEM_EFFECTIVE_ROTOR_COUNT>
3

> <PUBCHEM_PHARMACOPHORE_FEATURES>
11
1 1 acceptor
1 19 hydrophobe
1 2 acceptor
1 2 donor
1 3 acceptor
1 3 donor
1 4 acceptor
1 6 donor
1 7 donor
5 1 8 9 10 11 rings
6 5 6 13 14 15 16 rings

> <PUBCHEM_HEAVY_ATOM_COUNT>
19

> <PUBCHEM_ATOM_DEF_STEREO_COUNT>
3

> <PUBCHEM_ATOM_UDEF_STEREO_COUNT>
0

> <PUBCHEM_BOND_DEF_STEREO_COUNT>
0

> <PUBCHEM_BOND_UDEF_STEREO_COUNT>
0

> <PUBCHEM_ISOTOPIC_ATOM_COUNT>
0

> <PUBCHEM_COMPONENT_COUNT>
1

> <PUBCHEM_CACTVS_TAUTO_COUNT>
3

> <PUBCHEM_CONFORMER_ID>
00990B9500000001

> <PUBCHEM_MMFF94_ENERGY>
47.9554

> <PUBCHEM_FEATURE_SELFOVERLAP>
55.874

> <PUBCHEM_SHAPE_FINGERPRINT>
10608611 8 18268993266109700480
10967382 1 18122343475876865267
1100329 8 17975130946435085851
12173636 292 18337950211603262511
12403259 226 18268148828057296306
12403260 363 18337661018412253470
12769317 202 17975680698507952989
13140716 1 18264198111180829530
13464514 151 18268714900525840527
13965767 371 17970050171880261904
14123255 52 18337111146982466565
14466204 15 18337664231379951168
16945 1 18266173018658198890
17134986 127 18337673001486949957
17802600 8 18339078314733284644
18186145 218 18201449068308451322
18219364 16 18338531745986071457
20233049 118 18335141943190069468
20304884 271 18411134744972439781
20510252 161 18269276923130173433
20671657 1 18122340182001017579
21501502 16 18263636282514623931
21524375 3 18259982648071736235
22182937 141 18412833465005361649
23402539 116 18342452613377790982
23558518 356 18189335834604543569
23559900 14 18198343060267593042
25 1 18264769865732343581
2748010 2 18337669831822203877
3060560 45 18268425724619975261
3084891 72 18268994189833578738
335352 9 18193556662513028246
350125 39 18337680809895905457
474 4 18050846616349344033
59554788 170 18123477330501126351
7364860 26 18050004389804105599
7832392 63 18410571756069115100
81228 2 17899977436937815499

> <PUBCHEM_SHAPE_MULTIPOLES>
352.59
7.22
3.77
0.78
1.85
0.41
0.04
4.45
1.14
2.28
-0.32
-0.39
0.13
0.4

> <PUBCHEM_SHAPE_SELFOVERLAP>
737.875

> <PUBCHEM_SHAPE_VOLUME>
198.6

> <PUBCHEM_COORDINATE_TYPE>
2
5
10

$$$$
