100269
  -OEChem-03292013323D

 53 55  0     1  0  0  0  0  0999 V2000
    6.0372    5.4256   -0.2712 Cl  0  0  0  0  0  0  0  0  0  0  0  0
    2.4318   -3.6821   -0.5940 O   0  0  0  0  0  0  0  0  0  0  0  0
    4.0420   -2.0973    0.0262 O   0  0  0  0  0  0  0  0  0  0  0  0
    0.8042   -1.1836   -0.9198 O   0  0  0  0  0  0  0  0  0  0  0  0
   -1.5741   -1.3246    0.5638 O   0  0  0  0  0  0  0  0  0  0  0  0
    4.3890    0.8930   -0.1726 O   0  0  0  0  0  0  0  0  0  0  0  0
   -2.3080   -0.7897    2.6791 O   0  0  0  0  0  0  0  0  0  0  0  0
    1.6446    4.4613    0.7816 O   0  0  0  0  0  0  0  0  0  0  0  0
   -8.2749    0.8954   -0.4926 O   0  5  0  0  0  0  0  0  0  0  0  0
   -7.1029    1.4054   -2.2774 O   0  0  0  0  0  0  0  0  0  0  0  0
    2.1053    0.6488   -0.2893 N   0  0  0  0  0  0  0  0  0  0  0  0
    3.0639    2.7289    0.3223 N   0  0  0  0  0  0  0  0  0  0  0  0
    1.6810    3.2730    0.4444 N   0  0  0  0  0  0  0  0  0  0  0  0
   -7.1829    0.9568   -1.1081 N   0  3  0  0  0  0  0  0  0  0  0  0
    1.8556   -2.8304    0.4002 C   0  0  1  0  0  0  0  0  0  0  0  0
    2.7505   -1.6251    0.3946 C   0  0  2  0  0  0  0  0  0  0  0  0
    0.5142   -2.3021   -0.0613 C   0  0  1  0  0  0  0  0  0  0  0  0
    2.1462   -0.7332   -0.6833 C   0  0  1  0  0  0  0  0  0  0  0  0
    3.8350   -3.3917   -0.5563 C   0  0  0  0  0  0  0  0  0  0  0  0
   -0.3505   -1.8074    1.0902 C   0  0  0  0  0  0  0  0  0  0  0  0
    4.5449   -4.4314    0.3065 C   0  0  0  0  0  0  0  0  0  0  0  0
    4.3793   -3.4025   -1.9779 C   0  0  0  0  0  0  0  0  0  0  0  0
    3.2650    1.3913   -0.0534 C   0  0  0  0  0  0  0  0  0  0  0  0
   -2.4709   -0.8403    1.4698 C   0  0  0  0  0  0  0  0  0  0  0  0
    4.1866    3.6170    0.5966 C   0  0  0  0  0  0  0  0  0  0  0  0
   -3.7063   -0.3691    0.7941 C   0  0  0  0  0  0  0  0  0  0  0  0
    4.6628    4.3556   -0.6428 C   0  0  0  0  0  0  0  0  0  0  0  0
   -4.9057   -0.4390    1.4728 C   0  0  0  0  0  0  0  0  0  0  0  0
   -3.6168    0.1237   -0.4916 C   0  0  0  0  0  0  0  0  0  0  0  0
   -6.0664    0.0029    0.8378 C   0  0  0  0  0  0  0  0  0  0  0  0
   -4.7774    0.5658   -1.1265 C   0  0  0  0  0  0  0  0  0  0  0  0
   -6.0023    0.5052   -0.4619 C   0  0  0  0  0  0  0  0  0  0  0  0
    1.8283   -3.3752    1.3490 H   0  0  0  0  0  0  0  0  0  0  0  0
    2.7947   -1.1332    1.3722 H   0  0  0  0  0  0  0  0  0  0  0  0
   -0.0365   -3.0328   -0.6637 H   0  0  0  0  0  0  0  0  0  0  0  0
    2.6974   -0.7869   -1.6281 H   0  0  0  0  0  0  0  0  0  0  0  0
    0.1478   -0.9896    1.6245 H   0  0  0  0  0  0  0  0  0  0  0  0
   -0.5504   -2.6284    1.7884 H   0  0  0  0  0  0  0  0  0  0  0  0
    1.1904    1.0776   -0.2156 H   0  0  0  0  0  0  0  0  0  0  0  0
    4.3820   -5.4438   -0.0777 H   0  0  0  0  0  0  0  0  0  0  0  0
    4.1643   -4.4101    1.3340 H   0  0  0  0  0  0  0  0  0  0  0  0
    5.6209   -4.2346    0.3594 H   0  0  0  0  0  0  0  0  0  0  0  0
    3.8555   -2.6669   -2.5980 H   0  0  0  0  0  0  0  0  0  0  0  0
    4.2361   -4.3796   -2.4510 H   0  0  0  0  0  0  0  0  0  0  0  0
    5.4432   -3.1440   -1.9990 H   0  0  0  0  0  0  0  0  0  0  0  0
    5.0119    3.0062    0.9840 H   0  0  0  0  0  0  0  0  0  0  0  0
    3.9251    4.3125    1.4026 H   0  0  0  0  0  0  0  0  0  0  0  0
    4.9873    3.6552   -1.4189 H   0  0  0  0  0  0  0  0  0  0  0  0
    3.8658    4.9765   -1.0633 H   0  0  0  0  0  0  0  0  0  0  0  0
   -4.9684   -0.8314    2.4834 H   0  0  0  0  0  0  0  0  0  0  0  0
   -2.6734    0.1932   -1.0250 H   0  0  0  0  0  0  0  0  0  0  0  0
   -7.0030   -0.0597    1.3859 H   0  0  0  0  0  0  0  0  0  0  0  0
   -4.6890    0.9541   -2.1380 H   0  0  0  0  0  0  0  0  0  0  0  0
  1 27  1  0  0  0  0
  2 15  1  0  0  0  0
  2 19  1  0  0  0  0
  3 16  1  0  0  0  0
  3 19  1  0  0  0  0
  4 17  1  0  0  0  0
  4 18  1  0  0  0  0
  5 20  1  0  0  0  0
  5 24  1  0  0  0  0
  6 23  2  0  0  0  0
  7 24  2  0  0  0  0
  8 13  2  0  0  0  0
  9 14  1  0  0  0  0
 10 14  2  0  0  0  0
 11 18  1  0  0  0  0
 11 23  1  0  0  0  0
 11 39  1  0  0  0  0
 12 13  1  0  0  0  0
 12 23  1  0  0  0  0
 12 25  1  0  0  0  0
 14 32  1  0  0  0  0
 15 16  1  0  0  0  0
 15 17  1  0  0  0  0
 15 33  1  0  0  0  0
 16 18  1  0  0  0  0
 16 34  1  0  0  0  0
 17 20  1  0  0  0  0
 17 35  1  0  0  0  0
 18 36  1  0  0  0  0
 19 21  1  0  0  0  0
 19 22  1  0  0  0  0
 20 37  1  0  0  0  0
 20 38  1  0  0  0  0
 21 40  1  0  0  0  0
 21 41  1  0  0  0  0
 21 42  1  0  0  0  0
 22 43  1  0  0  0  0
 22 44  1  0  0  0  0
 22 45  1  0  0  0  0
 24 26  1  0  0  0  0
 25 27  1  0  0  0  0
 25 46  1  0  0  0  0
 25 47  1  0  0  0  0
 26 28  2  0  0  0  0
 26 29  1  0  0  0  0
 27 48  1  0  0  0  0
 27 49  1  0  0  0  0
 28 30  1  0  0  0  0
 28 50  1  0  0  0  0
 29 31  2  0  0  0  0
 29 51  1  0  0  0  0
 30 32  2  0  0  0  0
 30 52  1  0  0  0  0
 31 32  1  0  0  0  0
 31 53  1  0  0  0  0
M  CHG  2   9  -1  14   1
M  END
> <PUBCHEM_COMPOUND_CID>
100269

> <PUBCHEM_CONFORMER_RMSD>
1.2

> <PUBCHEM_CONFORMER_DIVERSEORDER>
6
71
5
41
11
16
8
7
26
15
69
25
46
12
35
32
19
52
48
27
70
72
60
22
63
14
61
18
39
74
23
49
55
53
56
31
45
29
64
34
24
58
54
68
37
50
59
67
33
1
9
57
42
13
47
44
73
4
43
10
65
40
3
66
17
28
30
20
38
2
62
21
36
51

> <PUBCHEM_MMFF94_PARTIAL_CHARGES>
35
1 -0.29
10 -0.52
11 -0.73
12 -0.18
13 -0.02
14 0.91
15 0.28
16 0.28
17 0.28
18 0.58
19 0.56
2 -0.56
20 0.28
23 0.69
24 0.63
25 0.3
26 0.09
27 0.29
28 -0.15
29 -0.15
3 -0.56
30 -0.15
31 -0.15
32 0.13
39 0.37
4 -0.56
5 -0.43
50 0.15
51 0.15
52 0.15
53 0.15
6 -0.57
7 -0.57
8 -0.16
9 -0.52

> <PUBCHEM_EFFECTIVE_ROTOR_COUNT>
12.2

> <PUBCHEM_PHARMACOPHORE_FEATURES>
13
1 10 acceptor
1 11 donor
1 2 acceptor
1 3 acceptor
1 4 acceptor
1 6 acceptor
1 7 acceptor
1 9 acceptor
1 9 anion
3 19 21 22 hydrophobe
5 2 3 15 16 19 rings
5 4 15 16 17 18 rings
6 26 28 29 30 31 32 rings

> <PUBCHEM_HEAVY_ATOM_COUNT>
32

> <PUBCHEM_ATOM_DEF_STEREO_COUNT>
3

> <PUBCHEM_ATOM_UDEF_STEREO_COUNT>
1

> <PUBCHEM_BOND_DEF_STEREO_COUNT>
0

> <PUBCHEM_BOND_UDEF_STEREO_COUNT>
0

> <PUBCHEM_ISOTOPIC_ATOM_COUNT>
0

> <PUBCHEM_COMPONENT_COUNT>
1

> <PUBCHEM_CACTVS_TAUTO_COUNT>
2

> <PUBCHEM_CONFORMER_ID>
000187AD00000006

> <PUBCHEM_MMFF94_ENERGY>
87.7348

> <PUBCHEM_FEATURE_SELFOVERLAP>
66.678

> <PUBCHEM_SHAPE_FINGERPRINT>
10411042 1 18051130294686774254
12166972 35 17916300546251682179
12403259 415 17822024077475151803
12769317 202 18341332291932138456
13540713 4 18188505673583341579
13878862 14 18335404760627964501
14068700 686 17903647615436855203
15082195 135 18200299039908810055
15198563 99 17836949814999693062
16120349 189 18120653788667362156
16988056 13 18335425634338191860
21033648 29 17749671882823646001
21223535 225 18049157762252005045
21304303 282 17268887471558605998
2132832 1 17987242127154396563
21968339 14 18272082824832503865
221357 26 18191024508782962439
23516275 100 18041265660946405317
23559900 14 17822020778855651551
25222932 49 13685431505517533287
4015057 19 18410581648043527723
4403749 210 17833546074223367392
44317340 157 18411139139383470595
5219985 13 18049166867440364908
563151 97 18123182678322431790
58902169 19 18059281064677368871
9658208 31 17385453111436794227

> <PUBCHEM_SHAPE_MULTIPOLES>
587.67
17.64
6.78
1.5
33.13
4.77
-0.02
12.77
5.79
-20.77
0.63
1.96
-0.36
2.65

> <PUBCHEM_SHAPE_SELFOVERLAP>
1228.862

> <PUBCHEM_SHAPE_VOLUME>
336

> <PUBCHEM_COORDINATE_TYPE>
2
5
10

$$$$
