REMARK  Name = 100269
REMARK  9 active torsions:
REMARK  status: ('A' for Active; 'I' for Inactive)
REMARK    1  A    between atoms: C_6  and  C_21
REMARK    2  A    between atoms: C_7  and  N_12
REMARK    3  A    between atoms: N_13  and  N_17
REMARK    4  A    between atoms: N_13  and  C_18
REMARK    5  A    between atoms: C_18  and  C_20
REMARK    6  A    between atoms: C_21  and  O_22
REMARK    7  A    between atoms: O_22  and  C_24
REMARK    8  A    between atoms: C_24  and  C_25
REMARK    9  A    between atoms: C_30  and  N_33
REMARK                            x       y       z     vdW  Elec       q    Type
REMARK                         _______ _______ _______ _____ _____    ______ ____
ROOT
ATOM      1  O   UNL     1       2.432  -3.682  -0.594  0.00  0.00    -0.332 OA
ATOM      2  O   UNL     1       4.042  -2.097   0.026  0.00  0.00    -0.330 OA
ATOM      3  O   UNL     1       0.804  -1.184  -0.920  0.00  0.00    -0.332 OA
ATOM      4  C   UNL     1       1.856  -2.830   0.400  0.00  0.00    +0.180 C 
ATOM      5  C   UNL     1       2.751  -1.625   0.395  0.00  0.00    +0.193 C 
ATOM      6  C   UNL     1       0.514  -2.302  -0.061  0.00  0.00    +0.190 C 
ATOM      7  C   UNL     1       2.146  -0.733  -0.683  0.00  0.00    +0.223 C 
ATOM      8  C   UNL     1       3.835  -3.392  -0.556  0.00  0.00    +0.188 C 
ATOM      9  C   UNL     1       4.545  -4.431   0.306  0.00  0.00    +0.061 C 
ATOM     10  C   UNL     1       4.379  -3.402  -1.978  0.00  0.00    +0.061 C 
ENDROOT
BRANCH   7  12
ATOM     11  O   UNL     1       4.389   0.893  -0.173  0.00  0.00    -0.251 OA
ATOM     12  N   UNL     1       2.105   0.649  -0.289  0.00  0.00    -0.264 N 
ATOM     13  N   UNL     1       3.064   2.729   0.322  0.00  0.00    -0.163 N 
ATOM     14  C   UNL     1       3.265   1.391  -0.053  0.00  0.00    +0.322 C 
ATOM     15  H   UNL     1       1.230   1.087  -0.182  0.00  0.00    +0.153 HD
BRANCH  13  17
ATOM     16  O   UNL     1       1.645   4.461   0.782  0.00  0.00    -0.078 OA
ATOM     17  N   UNL     1       1.681   3.273   0.444  0.00  0.00    +0.054 NA
ENDBRANCH  13  17
BRANCH  13  18
ATOM     18  C   UNL     1       4.187   3.617   0.597  0.00  0.00    +0.134 C 
BRANCH  18  20
ATOM     19 CL   UNL     1       6.037   5.426  -0.271  0.00  0.00    -0.112 Cl
ATOM     20  C   UNL     1       4.663   4.356  -0.643  0.00  0.00    +0.118 C 
ENDBRANCH  18  20
ENDBRANCH  13  18
ENDBRANCH   7  12
BRANCH   6  21
ATOM     21  C   UNL     1      -0.350  -1.807   1.090  0.00  0.00    +0.241 C 
BRANCH  21  22
ATOM     22  O   UNL     1      -1.574  -1.325   0.564  0.00  0.00    -0.443 OA
BRANCH  22  24
ATOM     23  O   UNL     1      -2.308  -0.790   2.679  0.00  0.00    -0.245 OA
ATOM     24  C   UNL     1      -2.471  -0.840   1.470  0.00  0.00    +0.341 C 
BRANCH  24  25
ATOM     25  C   UNL     1      -3.706  -0.369   0.794  0.00  0.00    +0.076 C 
ATOM     26  C   UNL     1      -4.906  -0.439   1.473  0.00  0.00    +0.008 C 
ATOM     27  C   UNL     1      -3.617   0.124  -0.492  0.00  0.00    +0.008 C 
ATOM     28  C   UNL     1      -6.066   0.003   0.838  0.00  0.00    +0.024 C 
ATOM     29  C   UNL     1      -4.777   0.566  -1.127  0.00  0.00    +0.024 C 
ATOM     30  C   UNL     1      -6.002   0.505  -0.462  0.00  0.00    +0.143 C 
BRANCH  30  33
ATOM     31  O   UNL     1      -8.275   0.895  -0.493  0.00  0.00    -0.126 OA
ATOM     32  O   UNL     1      -7.103   1.405  -2.277  0.00  0.00    -0.126 OA
ATOM     33  N   UNL     1      -7.183   0.957  -1.108  0.00  0.00    +0.058 N 
ENDBRANCH  30  33
ENDBRANCH  24  25
ENDBRANCH  22  24
ENDBRANCH  21  22
ENDBRANCH   6  21
TORSDOF 9
