REMARK  Name = 10023166
REMARK  10 active torsions:
REMARK  status: ('A' for Active; 'I' for Inactive)
REMARK    1  A    between atoms: O_1  and  C_8
REMARK    2  A    between atoms: O_1  and  C_19
REMARK    3  A    between atoms: C_3  and  C_12
REMARK    4  A    between atoms: C_13  and  C_14
REMARK    5  A    between atoms: C_14  and  O_16
REMARK    6  A    between atoms: C_20  and  O_24
REMARK    7  A    between atoms: C_21  and  O_26
REMARK    8  A    between atoms: C_22  and  C_30
REMARK    9  A    between atoms: C_23  and  O_28
REMARK   10  A    between atoms: C_30  and  O_31
REMARK                            x       y       z     vdW  Elec       q    Type
REMARK                         _______ _______ _______ _____ _____    ______ ____
ROOT
ATOM      1  O   UNL     1      -1.411  -0.517   1.138  0.00  0.00    -0.331 OA
ENDROOT
BRANCH   1   8
ATOM      2  O   UNL     1       2.133  -0.122  -1.271  0.00  0.00    -0.354 OA
ATOM      3  C   UNL     1       2.702  -0.170   0.055  0.00  0.00    +0.133 C 
ATOM      4  C   UNL     1       1.857  -1.291  -0.500  0.00  0.00    +0.122 C 
ATOM      5  C   UNL     1       2.132   0.842   1.034  0.00  0.00    +0.031 C 
ATOM      6  C   UNL     1       0.431  -1.456  -0.097  0.00  0.00    +0.060 C 
ATOM      7  C   UNL     1       0.767   0.374   1.594  0.00  0.00    +0.032 C 
ATOM      8  C   UNL     1      -0.167  -0.193   0.524  0.00  0.00    +0.120 C 
ATOM      9  C   UNL     1       2.498  -2.506  -1.092  0.00  0.00    +0.032 C 
ATOM     10  C   UNL     1       3.106   0.994   2.221  0.00  0.00    +0.003 C 
ATOM     11  C   UNL     1       1.995   2.221   0.360  0.00  0.00    +0.003 C 
BRANCH   3  12
ATOM     12  C   UNL     1       4.143  -0.432   0.169  0.00  0.00    +0.000 C 
ATOM     13  C   UNL     1       5.118   0.225  -0.478  0.00  0.00    +0.000 C 
BRANCH  13  14
ATOM     14  C   UNL     1       6.578  -0.082  -0.324  0.00  0.00    +0.132 C 
ATOM     15  C   UNL     1       7.353   1.145   0.140  0.00  0.00    +0.037 C 
BRANCH  14  16
ATOM     16  O   UNL     1       7.077  -0.497  -1.593  0.00  0.00    -0.380 OA
ATOM     17  H   UNL     1       6.587  -1.278  -1.893  0.00  0.00    +0.211 HD
ENDBRANCH  14  16
ENDBRANCH  13  14
ENDBRANCH   3  12
ENDBRANCH   1   8
BRANCH   1  19
ATOM     18  O   UNL     1      -2.999   0.963   0.283  0.00  0.00    -0.326 OA
ATOM     19  C   UNL     1      -2.499  -0.371   0.225  0.00  0.00    +0.266 C 
ATOM     20  C   UNL     1      -3.586  -1.369   0.623  0.00  0.00    +0.196 C 
ATOM     21  C   UNL     1      -4.851  -1.176  -0.213  0.00  0.00    +0.172 C 
ATOM     22  C   UNL     1      -4.077   1.183  -0.629  0.00  0.00    +0.176 C 
ATOM     23  C   UNL     1      -5.266   0.294  -0.257  0.00  0.00    +0.169 C 
BRANCH  20  24
ATOM     24  O   UNL     1      -3.079  -2.688   0.418  0.00  0.00    -0.378 OA
ATOM     25  H   UNL     1      -2.276  -2.811   0.947  0.00  0.00    +0.211 HD
ENDBRANCH  20  24
BRANCH  21  26
ATOM     26  O   UNL     1      -5.923  -1.921   0.369  0.00  0.00    -0.379 OA
ATOM     27  H   UNL     1      -5.681  -2.859   0.407  0.00  0.00    +0.211 HD
ENDBRANCH  21  26
BRANCH  23  28
ATOM     28  O   UNL     1      -6.301   0.463  -1.222  0.00  0.00    -0.379 OA
ATOM     29  H   UNL     1      -7.056  -0.099  -0.988  0.00  0.00    +0.211 HD
ENDBRANCH  23  28
BRANCH  22  30
ATOM     30  C   UNL     1      -4.438   2.664  -0.565  0.00  0.00    +0.169 C 
BRANCH  30  31
ATOM     31  O   UNL     1      -3.292   3.422  -0.910  0.00  0.00    -0.379 OA
ATOM     32  H   UNL     1      -3.507   4.367  -0.873  0.00  0.00    +0.211 HD
ENDBRANCH  30  31
ENDBRANCH  22  30
ENDBRANCH   1  19
TORSDOF 10
