10027459
  -OEChem-03292013303D

 73 73  0     1  0  0  0  0  0999 V2000
   -3.6351    1.8116    1.1985 O   0  0  0  0  0  0  0  0  0  0  0  0
    0.6714   -1.6752   -1.0612 O   0  0  0  0  0  0  0  0  0  0  0  0
   -2.7948   -1.4050   -1.7779 O   0  0  0  0  0  0  0  0  0  0  0  0
   -3.5733   -3.9128   -0.1471 O   0  0  0  0  0  0  0  0  0  0  0  0
    3.0033    1.3168    1.9418 O   0  0  0  0  0  0  0  0  0  0  0  0
   -4.0829   -0.9899    0.1426 N   0  0  0  0  0  0  0  0  0  0  0  0
   -2.9542    1.7008   -1.0203 N   0  0  0  0  0  0  0  0  0  0  0  0
    2.0124    0.4116    0.0434 N   0  0  0  0  0  0  0  0  0  0  0  0
   -0.7539   -1.8416    0.7664 N   0  0  0  0  0  0  0  0  0  0  0  0
   -4.7308    0.2454   -0.2806 C   0  0  1  0  0  0  0  0  0  0  0  0
   -6.0574    0.4365    0.4401 C   0  0  0  0  0  0  0  0  0  0  0  0
   -6.7266    1.7913    0.1496 C   0  0  0  0  0  0  0  0  0  0  0  0
   -0.2760    1.1831    0.5800 C   0  0  0  0  0  0  0  0  0  0  0  0
    0.7541    0.0510    0.6429 C   0  0  1  0  0  0  0  0  0  0  0  0
   -0.5095    1.7402   -0.8319 C   0  0  0  0  0  0  0  0  0  0  0  0
   -1.7924    2.5681   -0.9277 C   0  0  0  0  0  0  0  0  0  0  0  0
    7.7753   -0.0717    0.1422 C   0  0  1  0  0  0  0  0  0  0  0  0
   -3.7531    1.3604    0.0613 C   0  0  0  0  0  0  0  0  0  0  0  0
    7.8046    1.4747    0.1538 C   0  0  0  0  0  0  0  0  0  0  0  0
   -7.0306    1.9842   -1.3368 C   0  0  0  0  0  0  0  0  0  0  0  0
   -8.0175    1.9183    0.9621 C   0  0  0  0  0  0  0  0  0  0  0  0
    0.2401   -1.2398    0.0041 C   0  0  0  0  0  0  0  0  0  0  0  0
    7.4540   -0.6268   -1.2597 C   0  0  0  0  0  0  0  0  0  0  0  0
   -1.3512   -3.1299    0.4489 C   0  0  2  0  0  0  0  0  0  0  0  0
    6.5505    2.1713   -0.3897 C   0  0  0  0  0  0  0  0  0  0  0  0
   -3.2089   -1.6854   -0.6645 C   0  0  0  0  0  0  0  0  0  0  0  0
    9.1200   -0.5950    0.6629 C   0  0  0  0  0  0  0  0  0  0  0  0
   -2.7743   -2.9877   -0.0609 C   0  0  0  0  0  0  0  0  0  0  0  0
    3.0394    1.0199    0.7520 C   0  0  0  0  0  0  0  0  0  0  0  0
    5.3163    1.8719    0.4126 C   0  0  0  0  0  0  0  0  0  0  0  0
    7.3639   -2.1463   -1.3137 C   0  0  0  0  0  0  0  0  0  0  0  0
   -1.3097   -4.0375    1.6714 C   0  0  0  0  0  0  0  0  0  0  0  0
    4.2268    1.2875   -0.1045 C   0  0  0  0  0  0  0  0  0  0  0  0
   -4.8885    0.1881   -1.3630 H   0  0  0  0  0  0  0  0  0  0  0  0
   -5.9061    0.3463    1.5248 H   0  0  0  0  0  0  0  0  0  0  0  0
   -6.7368   -0.3814    0.1649 H   0  0  0  0  0  0  0  0  0  0  0  0
   -6.0680    2.6073    0.4691 H   0  0  0  0  0  0  0  0  0  0  0  0
    0.0562    2.0095    1.2218 H   0  0  0  0  0  0  0  0  0  0  0  0
   -1.2168    0.8247    1.0065 H   0  0  0  0  0  0  0  0  0  0  0  0
    0.9444   -0.1730    1.7012 H   0  0  0  0  0  0  0  0  0  0  0  0
   -0.5453    0.9280   -1.5675 H   0  0  0  0  0  0  0  0  0  0  0  0
    0.3410    2.3790   -1.0995 H   0  0  0  0  0  0  0  0  0  0  0  0
   -1.7785    3.1644   -1.8458 H   0  0  0  0  0  0  0  0  0  0  0  0
   -1.8951    3.2464   -0.0745 H   0  0  0  0  0  0  0  0  0  0  0  0
    6.9955   -0.4090    0.8369 H   0  0  0  0  0  0  0  0  0  0  0  0
    8.6622    1.8195   -0.4390 H   0  0  0  0  0  0  0  0  0  0  0  0
    7.9857    1.8191    1.1808 H   0  0  0  0  0  0  0  0  0  0  0  0
   -4.2888   -1.3488    1.0708 H   0  0  0  0  0  0  0  0  0  0  0  0
   -3.1401    1.2787   -1.9252 H   0  0  0  0  0  0  0  0  0  0  0  0
   -7.5815    2.9164   -1.5023 H   0  0  0  0  0  0  0  0  0  0  0  0
   -6.1129    2.0444   -1.9294 H   0  0  0  0  0  0  0  0  0  0  0  0
   -7.6376    1.1606   -1.7277 H   0  0  0  0  0  0  0  0  0  0  0  0
   -7.8135    1.8249    2.0340 H   0  0  0  0  0  0  0  0  0  0  0  0
   -8.4878    2.8936    0.7971 H   0  0  0  0  0  0  0  0  0  0  0  0
   -8.7398    1.1429    0.6850 H   0  0  0  0  0  0  0  0  0  0  0  0
    8.2078   -0.2861   -1.9798 H   0  0  0  0  0  0  0  0  0  0  0  0
    6.4896   -0.2417   -1.6046 H   0  0  0  0  0  0  0  0  0  0  0  0
   -0.7736   -3.5895   -0.3614 H   0  0  0  0  0  0  0  0  0  0  0  0
    2.1344    0.2211   -0.9475 H   0  0  0  0  0  0  0  0  0  0  0  0
    6.7170    3.2553   -0.3450 H   0  0  0  0  0  0  0  0  0  0  0  0
    6.4078    1.9405   -1.4510 H   0  0  0  0  0  0  0  0  0  0  0  0
   -1.0940   -1.3644    1.5963 H   0  0  0  0  0  0  0  0  0  0  0  0
    9.9326   -0.3654   -0.0345 H   0  0  0  0  0  0  0  0  0  0  0  0
    9.3652   -0.1415    1.6295 H   0  0  0  0  0  0  0  0  0  0  0  0
    9.0945   -1.6782    0.8147 H   0  0  0  0  0  0  0  0  0  0  0  0
    5.3427    2.1629    1.4596 H   0  0  0  0  0  0  0  0  0  0  0  0
    6.6563   -2.5249   -0.5694 H   0  0  0  0  0  0  0  0  0  0  0  0
    8.3373   -2.6141   -1.1401 H   0  0  0  0  0  0  0  0  0  0  0  0
    7.0187   -2.4660   -2.3023 H   0  0  0  0  0  0  0  0  0  0  0  0
   -1.9108   -3.6256    2.4902 H   0  0  0  0  0  0  0  0  0  0  0  0
   -1.7027   -5.0330    1.4394 H   0  0  0  0  0  0  0  0  0  0  0  0
   -0.2835   -4.1540    2.0365 H   0  0  0  0  0  0  0  0  0  0  0  0
    4.1911    0.9977   -1.1492 H   0  0  0  0  0  0  0  0  0  0  0  0
  1 18  2  0  0  0  0
  2 22  2  0  0  0  0
  3 26  2  0  0  0  0
  4 28  2  0  0  0  0
  5 29  2  0  0  0  0
  6 10  1  0  0  0  0
  6 26  1  0  0  0  0
  6 48  1  0  0  0  0
  7 16  1  0  0  0  0
  7 18  1  0  0  0  0
  7 49  1  0  0  0  0
  8 14  1  0  0  0  0
  8 29  1  0  0  0  0
  8 59  1  0  0  0  0
  9 22  1  0  0  0  0
  9 24  1  0  0  0  0
  9 62  1  0  0  0  0
 10 11  1  0  0  0  0
 10 18  1  0  0  0  0
 10 34  1  0  0  0  0
 11 12  1  0  0  0  0
 11 35  1  0  0  0  0
 11 36  1  0  0  0  0
 12 20  1  0  0  0  0
 12 21  1  0  0  0  0
 12 37  1  0  0  0  0
 13 14  1  0  0  0  0
 13 15  1  0  0  0  0
 13 38  1  0  0  0  0
 13 39  1  0  0  0  0
 14 22  1  0  0  0  0
 14 40  1  0  0  0  0
 15 16  1  0  0  0  0
 15 41  1  0  0  0  0
 15 42  1  0  0  0  0
 16 43  1  0  0  0  0
 16 44  1  0  0  0  0
 17 19  1  0  0  0  0
 17 23  1  0  0  0  0
 17 27  1  0  0  0  0
 17 45  1  0  0  0  0
 19 25  1  0  0  0  0
 19 46  1  0  0  0  0
 19 47  1  0  0  0  0
 20 50  1  0  0  0  0
 20 51  1  0  0  0  0
 20 52  1  0  0  0  0
 21 53  1  0  0  0  0
 21 54  1  0  0  0  0
 21 55  1  0  0  0  0
 23 31  1  0  0  0  0
 23 56  1  0  0  0  0
 23 57  1  0  0  0  0
 24 28  1  0  0  0  0
 24 32  1  0  0  0  0
 24 58  1  0  0  0  0
 25 30  1  0  0  0  0
 25 60  1  0  0  0  0
 25 61  1  0  0  0  0
 26 28  1  0  0  0  0
 27 63  1  0  0  0  0
 27 64  1  0  0  0  0
 27 65  1  0  0  0  0
 29 33  1  0  0  0  0
 30 33  2  0  0  0  0
 30 66  1  0  0  0  0
 31 67  1  0  0  0  0
 31 68  1  0  0  0  0
 31 69  1  0  0  0  0
 32 70  1  0  0  0  0
 32 71  1  0  0  0  0
 32 72  1  0  0  0  0
 33 73  1  0  0  0  0
M  END
> <PUBCHEM_COMPOUND_CID>
10027459

> <PUBCHEM_CONFORMER_RMSD>
1

> <PUBCHEM_CONFORMER_DIVERSEORDER>
1
24
86
38
110
108
52
49
56
21
84
37
55
89
93
42
88
50
31
64
47
81
14
66
79
28
75
102
68
94
69
16
40
70
59
60
54
43
65
96
80
71
39
62
85
41
106
17
77
35
82
19
13
45
58
111
100
63
7
90
101
15
27
104
22
36
12
67
30
103
20
57
112
115
73
91
11
4
44
92
105
83
2
26
3
6
117
78
76
5
9
116
72
109
97
8
46
29
99
98
87
10
53
23
34
33
61
113
107
25
48
51
32
114
74
95
18

> <PUBCHEM_MMFF94_PARTIAL_CHARGES>
27
1 -0.57
10 0.36
14 0.36
16 0.3
18 0.57
2 -0.57
22 0.57
24 0.36
25 0.14
26 0.63
28 0.51
29 0.62
3 -0.57
30 -0.29
33 -0.14
4 -0.57
48 0.37
49 0.37
5 -0.57
59 0.37
6 -0.73
62 0.37
66 0.15
7 -0.73
73 0.15
8 -0.73
9 -0.73

> <PUBCHEM_EFFECTIVE_ROTOR_COUNT>
10.8

> <PUBCHEM_PHARMACOPHORE_FEATURES>
13
1 1 acceptor
1 2 acceptor
1 27 hydrophobe
1 3 acceptor
1 31 hydrophobe
1 4 acceptor
1 5 acceptor
1 6 donor
1 7 donor
1 8 donor
1 9 donor
3 12 20 21 hydrophobe
5 17 19 23 25 30 hydrophobe

> <PUBCHEM_HEAVY_ATOM_COUNT>
33

> <PUBCHEM_ATOM_DEF_STEREO_COUNT>
3

> <PUBCHEM_ATOM_UDEF_STEREO_COUNT>
1

> <PUBCHEM_BOND_DEF_STEREO_COUNT>
1

> <PUBCHEM_BOND_UDEF_STEREO_COUNT>
0

> <PUBCHEM_ISOTOPIC_ATOM_COUNT>
0

> <PUBCHEM_COMPONENT_COUNT>
1

> <PUBCHEM_CACTVS_TAUTO_COUNT>
40

> <PUBCHEM_CONFORMER_ID>
009901C300000001

> <PUBCHEM_MMFF94_ENERGY>
52.5229

> <PUBCHEM_FEATURE_SELFOVERLAP>
65.98

> <PUBCHEM_SHAPE_FINGERPRINT>
10165383 225 18412262814360214497
10864689 126 18410564072494591705
11135926 11 18260821588518217327
11273773 46 18272097038045071694
13782708 43 17987237906014037614
14040221 275 18043557030519752107
14117953 113 18261106353572460605
15064986 266 18114752650522433634
15183329 4 18413393138246648576
15297060 5 18412545431259740241
19958102 18 18334005112918285614
21236236 1 18340204206039747060
23559900 14 18200870785707204336
249057 3 18408604760122107684
25269216 80 17605573230936765354
4073 2 18336549430243568666
4144715 1 17973166411719694402
531348 171 18201437047075480222
59755656 520 18334289885638458474
6086070 43 17131546241197696538

> <PUBCHEM_SHAPE_MULTIPOLES>
629.85
24.24
4.03
1.29
35.32
4.22
0.02
-10.6
1.37
-3.78
-0.36
0
0.18
1.15

> <PUBCHEM_SHAPE_SELFOVERLAP>
1243.328

> <PUBCHEM_SHAPE_VOLUME>
372.2

> <PUBCHEM_COORDINATE_TYPE>
2
5
10

$$$$
