REMARK  Name = 10027459
REMARK  8 active torsions:
REMARK  status: ('A' for Active; 'I' for Inactive)
REMARK    1  A    between atoms: C_8  and  C_34
REMARK    2  A    between atoms: C_10  and  N_23
REMARK    3  A    between atoms: C_24  and  C_27
REMARK    4  A    between atoms: C_26  and  C_28
REMARK    5  A    between atoms: C_28  and  C_29
REMARK    6  A    between atoms: C_29  and  C_30
REMARK    7  A    between atoms: C_30  and  C_32
REMARK    8  A    between atoms: C_34  and  C_35
REMARK                            x       y       z     vdW  Elec       q    Type
REMARK                         _______ _______ _______ _____ _____    ______ ____
ROOT
ATOM      1  O   UNL     1      -3.635   1.812   1.198  0.00  0.00    -0.273 OA
ATOM      2  O   UNL     1       0.671  -1.675  -1.061  0.00  0.00    -0.273 OA
ATOM      3  O   UNL     1      -2.795  -1.405  -1.778  0.00  0.00    -0.267 OA
ATOM      4  O   UNL     1      -3.573  -3.913  -0.147  0.00  0.00    -0.285 OA
ATOM      5  N   UNL     1      -4.083  -0.990   0.143  0.00  0.00    -0.292 N 
ATOM      6  N   UNL     1      -2.954   1.701  -1.020  0.00  0.00    -0.303 N 
ATOM      7  N   UNL     1      -0.754  -1.842   0.766  0.00  0.00    -0.298 N 
ATOM      8  C   UNL     1      -4.731   0.245  -0.281  0.00  0.00    +0.149 C 
ATOM      9  C   UNL     1      -0.276   1.183   0.580  0.00  0.00    +0.031 C 
ATOM     10  C   UNL     1       0.754   0.051   0.643  0.00  0.00    +0.149 C 
ATOM     11  C   UNL     1      -0.509   1.740  -0.832  0.00  0.00    +0.023 C 
ATOM     12  C   UNL     1      -1.792   2.568  -0.928  0.00  0.00    +0.090 C 
ATOM     13  C   UNL     1      -3.753   1.360   0.061  0.00  0.00    +0.240 C 
ATOM     14  C   UNL     1       0.240  -1.240   0.004  0.00  0.00    +0.241 C 
ATOM     15  C   UNL     1      -1.351  -3.130   0.449  0.00  0.00    +0.139 C 
ATOM     16  C   UNL     1      -3.209  -1.685  -0.664  0.00  0.00    +0.283 C 
ATOM     17  C   UNL     1      -2.774  -2.988  -0.061  0.00  0.00    +0.243 C 
ATOM     18  C   UNL     1      -1.310  -4.037   1.671  0.00  0.00    +0.030 C 
ATOM     19  H   UNL     1      -4.278  -1.342   1.041  0.00  0.00    +0.150 HD
ATOM     20  H   UNL     1      -3.188   1.333  -1.903  0.00  0.00    +0.149 HD
ATOM     21  H   UNL     1      -1.073  -1.368   1.569  0.00  0.00    +0.150 HD
ENDROOT
BRANCH  10  23
ATOM     22  O   UNL     1       3.003   1.317   1.942  0.00  0.00    -0.270 OA
ATOM     23  N   UNL     1       2.012   0.412   0.043  0.00  0.00    -0.295 N 
ATOM     24  C   UNL     1       3.039   1.020   0.752  0.00  0.00    +0.246 C 
ATOM     25  H   UNL     1       2.151   0.218  -0.912  0.00  0.00    +0.150 HD
BRANCH  24  27
ATOM     26  C   UNL     1       5.316   1.872   0.413  0.00  0.00    -0.021 C 
ATOM     27  C   UNL     1       4.227   1.288  -0.104  0.00  0.00    +0.053 C 
BRANCH  26  28
ATOM     28  C   UNL     1       6.551   2.171  -0.390  0.00  0.00    +0.026 C 
BRANCH  28  29
ATOM     29  C   UNL     1       7.805   1.475   0.154  0.00  0.00    +0.005 C 
BRANCH  29  30
ATOM     30  C   UNL     1       7.775  -0.072   0.142  0.00  0.00    +0.000 C 
ATOM     31  C   UNL     1       9.120  -0.595   0.663  0.00  0.00    +0.000 C 
BRANCH  30  32
ATOM     32  C   UNL     1       7.454  -0.627  -1.260  0.00  0.00    +0.000 C 
ATOM     33  C   UNL     1       7.364  -2.146  -1.314  0.00  0.00    +0.000 C 
ENDBRANCH  30  32
ENDBRANCH  29  30
ENDBRANCH  28  29
ENDBRANCH  26  28
ENDBRANCH  24  27
ENDBRANCH  10  23
BRANCH   8  34
ATOM     34  C   UNL     1      -6.057   0.436   0.440  0.00  0.00    +0.029 C 
BRANCH  34  35
ATOM     35  C   UNL     1      -6.727   1.791   0.150  0.00  0.00    +0.002 C 
ATOM     36  C   UNL     1      -7.031   1.984  -1.337  0.00  0.00    +0.000 C 
ATOM     37  C   UNL     1      -8.018   1.918   0.962  0.00  0.00    +0.000 C 
ENDBRANCH  34  35
ENDBRANCH   8  34
TORSDOF 8
