REMARK  Name = 10022766
REMARK  8 active torsions:
REMARK  status: ('A' for Active; 'I' for Inactive)
REMARK    1  A    between atoms: O_1  and  C_4
REMARK    2  A    between atoms: O_1  and  C_23
REMARK    3  A    between atoms: C_9  and  O_16
REMARK    4  A    between atoms: C_19  and  O_24
REMARK    5  A    between atoms: C_20  and  O_26
REMARK    6  A    between atoms: C_21  and  O_28
REMARK    7  A    between atoms: C_22  and  C_30
REMARK    8  A    between atoms: C_30  and  O_31
REMARK                            x       y       z     vdW  Elec       q    Type
REMARK                         _______ _______ _______ _____ _____    ______ ____
ROOT
ATOM      1  O   UNL     1       1.078  -1.396  -1.061  0.00  0.00    -0.451 OA
ENDROOT
BRANCH   1   4
ATOM      2  O   UNL     1      -2.660   1.535  -1.145  0.00  0.00    -0.458 OA
ATOM      3  O   UNL     1      -4.840  -0.891   1.297  0.00  0.00    -0.286 OA
ATOM      4  C   UNL     1      -0.197  -1.104  -0.661  0.00  0.00    +0.139 A 
ATOM      5  C   UNL     1      -0.808   0.071  -1.095  0.00  0.00    +0.047 A 
ATOM      6  C   UNL     1      -0.879  -1.985   0.177  0.00  0.00    +0.046 A 
ATOM      7  C   UNL     1      -2.109   0.365  -0.687  0.00  0.00    +0.150 A 
ATOM      8  C   UNL     1      -2.792  -0.516   0.151  0.00  0.00    +0.107 A 
ATOM      9  C   UNL     1      -2.181  -1.694   0.587  0.00  0.00    +0.138 A 
ATOM     10  C   UNL     1      -0.069   1.009  -1.996  0.00  0.00    +0.037 C 
ATOM     11  C   UNL     1      -0.212  -3.242   0.638  0.00  0.00    +0.037 C 
ATOM     12  C   UNL     1      -4.163  -0.181   0.566  0.00  0.00    +0.204 C 
ATOM     13  C   UNL     1      -3.951   1.852  -0.755  0.00  0.00    +0.126 C 
ATOM     14  C   UNL     1      -4.708   1.088   0.046  0.00  0.00    +0.075 C 
ATOM     15  C   UNL     1      -4.442   3.150  -1.315  0.00  0.00    +0.073 C 
BRANCH   9  16
ATOM     16  O   UNL     1      -2.821  -2.574   1.408  0.00  0.00    -0.506 OA
ATOM     17  H   UNL     1      -2.386  -3.357   1.685  0.00  0.00    +0.292 HD
ENDBRANCH   9  16
ENDBRANCH   1   4
BRANCH   1  23
ATOM     18  O   UNL     1       1.722   0.278   0.431  0.00  0.00    -0.316 OA
ATOM     19  C   UNL     1       4.479   0.013  -0.329  0.00  0.00    +0.173 C 
ATOM     20  C   UNL     1       3.965   1.196   0.493  0.00  0.00    +0.169 C 
ATOM     21  C   UNL     1       3.348  -0.646  -1.118  0.00  0.00    +0.210 C 
ATOM     22  C   UNL     1       2.729   0.798   1.302  0.00  0.00    +0.177 C 
ATOM     23  C   UNL     1       2.134  -0.916  -0.229  0.00  0.00    +0.318 C 
BRANCH  19  24
ATOM     24  O   UNL     1       5.469   0.502  -1.235  0.00  0.00    -0.379 OA
ATOM     25  H   UNL     1       6.187   0.921  -0.735  0.00  0.00    +0.211 HD
ENDBRANCH  19  24
BRANCH  20  26
ATOM     26  O   UNL     1       4.989   1.633   1.381  0.00  0.00    -0.379 OA
ATOM     27  H   UNL     1       5.774   1.886   0.871  0.00  0.00    +0.211 HD
ENDBRANCH  20  26
BRANCH  21  28
ATOM     28  O   UNL     1       3.802  -1.892  -1.645  0.00  0.00    -0.377 OA
ATOM     29  H   UNL     1       4.574  -1.741  -2.214  0.00  0.00    +0.211 HD
ENDBRANCH  21  28
BRANCH  22  30
ATOM     30  C   UNL     1       2.128   1.991   2.039  0.00  0.00    +0.169 C 
BRANCH  30  31
ATOM     31  O   UNL     1       0.988   1.552   2.754  0.00  0.00    -0.379 OA
ATOM     32  H   UNL     1       0.595   2.301   3.228  0.00  0.00    +0.211 HD
ENDBRANCH  30  31
ENDBRANCH  22  30
ENDBRANCH   1  23
TORSDOF 8
