REMARK  Name = 100252
REMARK  9 active torsions:
REMARK  status: ('A' for Active; 'I' for Inactive)
REMARK    1  A    between atoms: C_2  and  O_16
REMARK    2  A    between atoms: C_3  and  O_18
REMARK    3  A    between atoms: C_4  and  C_20
REMARK    4  A    between atoms: C_5  and  N_6
REMARK    5  A    between atoms: C_10  and  C_13
REMARK    6  A    between atoms: C_20  and  O_21
REMARK    7  A    between atoms: O_21  and  P_22
REMARK    8  A    between atoms: P_22  and  O_24
REMARK    9  A    between atoms: P_22  and  O_26
REMARK                            x       y       z     vdW  Elec       q    Type
REMARK                         _______ _______ _______ _____ _____    ______ ____
ROOT
ATOM      1  O   UNL     1       0.462   0.783  -0.946  0.00  0.00    -0.332 OA
ATOM      2  C   UNL     1       0.615   1.973   1.073  0.00  0.00    +0.171 C 
ATOM      3  C   UNL     1      -0.532   2.584   0.291  0.00  0.00    +0.188 C 
ATOM      4  C   UNL     1       1.430   1.302  -0.020  0.00  0.00    +0.176 C 
ATOM      5  C   UNL     1      -0.735   1.585  -0.850  0.00  0.00    +0.240 C 
ENDROOT
BRANCH   5   6
ATOM      6  N   UNL     1      -1.894   0.710  -0.665  0.00  0.00    -0.172 N 
ATOM      7  N   UNL     1      -1.793  -0.431   0.033  0.00  0.00    -0.120 NA
ATOM      8  N   UNL     1      -3.917  -0.112  -0.755  0.00  0.00    -0.191 NA
ATOM      9  C   UNL     1      -3.159   0.892  -1.130  0.00  0.00    +0.250 C 
ATOM     10  C   UNL     1      -3.043  -0.891  -0.051  0.00  0.00    +0.104 C 
BRANCH  10  13
ATOM     11  O   UNL     1      -2.651  -2.841   1.226  0.00  0.00    -0.259 OA
ATOM     12  N   UNL     1      -4.761  -2.531   0.423  0.00  0.00    -0.317 N 
ATOM     13  C   UNL     1      -3.431  -2.125   0.562  0.00  0.00    +0.307 C 
ATOM     14  H   UNL     1      -5.063  -3.374   0.831  0.00  0.00    +0.146 HD
ATOM     15  H   UNL     1      -5.395  -1.973  -0.083  0.00  0.00    +0.146 HD
ENDBRANCH  10  13
ENDBRANCH   5   6
BRANCH   2  16
ATOM     16  O   UNL     1       1.372   2.922   1.793  0.00  0.00    -0.379 OA
ATOM     17  H   UNL     1       0.817   3.325   2.479  0.00  0.00    +0.211 HD
ENDBRANCH   2  16
BRANCH   3  18
ATOM     18  O   UNL     1      -0.170   3.851  -0.254  0.00  0.00    -0.378 OA
ATOM     19  H   UNL     1      -0.040   4.488   0.467  0.00  0.00    +0.211 HD
ENDBRANCH   3  18
BRANCH   4  20
ATOM     20  C   UNL     1       2.311   0.175   0.488  0.00  0.00    +0.186 C 
BRANCH  20  21
ATOM     21  O   UNL     1       3.012  -0.382  -0.610  0.00  0.00    -0.271 OA
BRANCH  21  22
ATOM     22  P   UNL     1       4.028  -1.612  -0.334  0.00  0.00    +0.473 P 
ATOM     23  O   UNL     1       4.728  -2.141  -1.551  0.00  0.00    -0.227 OA
BRANCH  22  24
ATOM     24  O   UNL     1       3.122  -2.687   0.465  0.00  0.00    -0.303 OA
ATOM     25  H   UNL     1       2.711  -2.258   1.231  0.00  0.00    +0.222 HD
ENDBRANCH  22  24
BRANCH  22  26
ATOM     26  O   UNL     1       5.004  -1.024   0.814  0.00  0.00    -0.303 OA
ATOM     27  H   UNL     1       4.472  -0.705   1.559  0.00  0.00    +0.222 HD
ENDBRANCH  22  26
ENDBRANCH  21  22
ENDBRANCH  20  21
ENDBRANCH   4  20
TORSDOF 9
