REMARK  Name = 10023860
REMARK  11 active torsions:
REMARK  status: ('A' for Active; 'I' for Inactive)
REMARK    1  A    between atoms: O_1  and  C_7
REMARK    2  A    between atoms: O_1  and  C_17
REMARK    3  A    between atoms: C_3  and  O_13
REMARK    4  A    between atoms: C_4  and  O_9
REMARK    5  A    between atoms: C_5  and  O_11
REMARK    6  A    between atoms: O_13  and  C_15
REMARK    7  A    between atoms: C_20  and  C_23
REMARK    8  A    between atoms: C_23  and  N_24
REMARK    9  A    between atoms: N_24  and  C_27
REMARK   10  A    between atoms: C_27  and  O_28
REMARK   11  A    between atoms: O_28  and  C_29
REMARK                            x       y       z     vdW  Elec       q    Type
REMARK                         _______ _______ _______ _____ _____    ______ ____
ROOT
ATOM      1  O   UNL     1      -0.983   0.338   0.918  0.00  0.00    -0.451 OA
ENDROOT
BRANCH   1   7
ATOM      2  O   UNL     1      -1.916  -0.397  -1.137  0.00  0.00    -0.317 OA
ATOM      3  C   UNL     1      -4.245  -0.120  -0.441  0.00  0.00    +0.225 C 
ATOM      4  C   UNL     1      -3.859  -0.561   0.971  0.00  0.00    +0.186 C 
ATOM      5  C   UNL     1      -2.611  -1.445   0.947  0.00  0.00    +0.212 C 
ATOM      6  C   UNL     1      -3.032   0.499  -1.150  0.00  0.00    +0.161 C 
ATOM      7  C   UNL     1      -1.479  -0.770   0.175  0.00  0.00    +0.318 C 
ATOM      8  C   UNL     1      -3.328   0.821  -2.613  0.00  0.00    +0.036 C 
BRANCH   4   9
ATOM      9  O   UNL     1      -4.947  -1.274   1.554  0.00  0.00    -0.378 OA
ATOM     10  H   UNL     1      -5.735  -0.707   1.566  0.00  0.00    +0.211 HD
ENDBRANCH   4   9
BRANCH   5  11
ATOM     11  O   UNL     1      -2.903  -2.683   0.298  0.00  0.00    -0.377 OA
ATOM     12  H   UNL     1      -3.621  -3.134   0.769  0.00  0.00    +0.211 HD
ENDBRANCH   5  11
BRANCH   3  13
ATOM     13  O   UNL     1      -5.297   0.836  -0.336  0.00  0.00    -0.447 OA
BRANCH  13  15
ATOM     14  O   UNL     1      -6.863  -0.862  -0.370  0.00  0.00    -0.250 OA
ATOM     15  C   UNL     1      -6.562   0.323  -0.311  0.00  0.00    +0.318 C 
ATOM     16  C   UNL     1      -7.558   1.437  -0.198  0.00  0.00    +0.121 C 
ENDBRANCH  13  15
ENDBRANCH   3  13
ENDBRANCH   1   7
BRANCH   1  17
ATOM     17  C   UNL     1       0.344   0.640   0.763  0.00  0.00    +0.141 C 
ATOM     18  C   UNL     1       1.198   0.614   1.866  0.00  0.00    +0.037 C 
ATOM     19  C   UNL     1       0.841   0.974  -0.497  0.00  0.00    +0.037 C 
ATOM     20  C   UNL     1       3.046   1.255   0.448  0.00  0.00    -0.002 C 
ATOM     21  C   UNL     1       2.550   0.921   1.708  0.00  0.00    +0.000 C 
ATOM     22  C   UNL     1       2.192   1.281  -0.654  0.00  0.00    +0.000 C 
BRANCH  20  23
ATOM     23  C   UNL     1       4.491   1.584   0.279  0.00  0.00    +0.117 C 
BRANCH  23  24
ATOM     24  N   UNL     1       5.287   0.421  -0.019  0.00  0.00    -0.295 N 
ATOM     25  H   UNL     1       4.812  -0.436  -0.117  0.00  0.00    +0.150 HD
BRANCH  24  27
ATOM     26  S   UNL     1       7.709   1.704  -0.069  0.00  0.00    +0.006 S 
ATOM     27  C   UNL     1       6.666   0.403  -0.180  0.00  0.00    +0.230 C 
BRANCH  27  28
ATOM     28  O   UNL     1       7.270  -0.788  -0.460  0.00  0.00    -0.458 OA
BRANCH  28  29
ATOM     29  C   UNL     1       6.518  -2.008  -0.592  0.00  0.00    +0.208 C 
ATOM     30  C   UNL     1       7.471  -3.143  -0.902  0.00  0.00    +0.051 C 
ENDBRANCH  28  29
ENDBRANCH  27  28
ENDBRANCH  24  27
ENDBRANCH  23  24
ENDBRANCH  20  23
ENDBRANCH   1  17
TORSDOF 11
