REMARK  Name = 100268
REMARK  10 active torsions:
REMARK  status: ('A' for Active; 'I' for Inactive)
REMARK    1  A    between atoms: C_2  and  O_17
REMARK    2  A    between atoms: C_3  and  O_21
REMARK    3  A    between atoms: C_4  and  O_25
REMARK    4  A    between atoms: C_5  and  N_8
REMARK    5  A    between atoms: N_9  and  N_13
REMARK    6  A    between atoms: N_9  and  C_14
REMARK    7  A    between atoms: C_14  and  C_16
REMARK    8  A    between atoms: O_17  and  C_19
REMARK    9  A    between atoms: O_21  and  C_23
REMARK   10  A    between atoms: O_25  and  C_27
REMARK                            x       y       z     vdW  Elec       q    Type
REMARK                         _______ _______ _______ _____ _____    ______ ____
ROOT
ATOM      1  O   UNL     1      -0.443  -1.979   0.344  0.00  0.00    -0.331 OA
ATOM      2  C   UNL     1      -1.945   0.406  -0.282  0.00  0.00    +0.255 C 
ATOM      3  C   UNL     1      -0.468   0.246  -0.659  0.00  0.00    +0.258 C 
ATOM      4  C   UNL     1      -2.591  -0.975  -0.184  0.00  0.00    +0.242 C 
ATOM      5  C   UNL     1       0.235  -0.722   0.299  0.00  0.00    +0.237 C 
ATOM      6  C   UNL     1      -1.800  -1.867   0.769  0.00  0.00    +0.191 C 
ENDROOT
BRANCH   5   8
ATOM      7  O   UNL     1       2.511   0.726   1.110  0.00  0.00    -0.251 OA
ATOM      8  N   UNL     1       1.589  -0.979  -0.126  0.00  0.00    -0.263 N 
ATOM      9  N   UNL     1       3.922  -0.587  -0.178  0.00  0.00    -0.163 N 
ATOM     10  C   UNL     1       2.665  -0.214   0.323  0.00  0.00    +0.322 C 
ATOM     11  H   UNL     1       1.759  -1.719  -0.754  0.00  0.00    +0.153 HD
BRANCH   9  13
ATOM     12  O   UNL     1       5.201  -1.956  -1.487  0.00  0.00    -0.078 OA
ATOM     13  N   UNL     1       4.042  -1.734  -1.123  0.00  0.00    +0.054 NA
ENDBRANCH   9  13
BRANCH   9  14
ATOM     14  C   UNL     1       5.134   0.125   0.208  0.00  0.00    +0.134 C 
BRANCH  14  16
ATOM     15 CL   UNL     1       7.263   0.429   1.889  0.00  0.00    -0.112 Cl
ATOM     16  C   UNL     1       5.790  -0.468   1.443  0.00  0.00    +0.118 C 
ENDBRANCH  14  16
ENDBRANCH   9  14
ENDBRANCH   5   8
BRANCH   2  17
ATOM     17  O   UNL     1      -2.045   1.054   0.990  0.00  0.00    -0.444 OA
BRANCH  17  19
ATOM     18  O   UNL     1      -4.075   1.969   0.374  0.00  0.00    -0.250 OA
ATOM     19  C   UNL     1      -3.168   1.804   1.178  0.00  0.00    +0.318 C 
ATOM     20  C   UNL     1      -3.137   2.417   2.546  0.00  0.00    +0.121 C 
ENDBRANCH  17  19
ENDBRANCH   2  17
BRANCH   3  21
ATOM     21  O   UNL     1       0.178   1.514  -0.622  0.00  0.00    -0.444 OA
BRANCH  21  23
ATOM     22  O   UNL     1      -0.392   1.889  -2.829  0.00  0.00    -0.250 OA
ATOM     23  C   UNL     1       0.140   2.234  -1.782  0.00  0.00    +0.318 C 
ATOM     24  C   UNL     1       0.856   3.538  -1.595  0.00  0.00    +0.121 C 
ENDBRANCH  21  23
ENDBRANCH   3  21
BRANCH   4  25
ATOM     25  O   UNL     1      -3.935  -0.848   0.258  0.00  0.00    -0.446 OA
BRANCH  25  27
ATOM     26  O   UNL     1      -4.536  -2.708  -0.974  0.00  0.00    -0.250 OA
ATOM     27  C   UNL     1      -4.810  -1.786  -0.216  0.00  0.00    +0.318 C 
ATOM     28  C   UNL     1      -6.181  -1.529   0.330  0.00  0.00    +0.121 C 
ENDBRANCH  25  27
ENDBRANCH   4  25
TORSDOF 10
