REMARK  Name = 10022985
REMARK  8 active torsions:
REMARK  status: ('A' for Active; 'I' for Inactive)
REMARK    1  A    between atoms: C_1  and  C_2
REMARK    2  A    between atoms: C_1  and  C_16
REMARK    3  A    between atoms: C_2  and  C_7
REMARK    4  A    between atoms: N_3  and  C_8
REMARK    5  A    between atoms: C_13  and  O_14
REMARK    6  A    between atoms: C_16  and  C_17
REMARK    7  A    between atoms: C_17  and  O_18
REMARK    8  A    between atoms: O_18  and  C_25
REMARK                            x       y       z     vdW  Elec       q    Type
REMARK                         _______ _______ _______ _____ _____    ______ ____
ROOT
ATOM      1  C   UNL     1      -3.064  -2.380  -0.721  0.00  0.00    +0.012 C 
ENDROOT
BRANCH   1   2
ATOM      2  C   UNL     1      -3.406  -1.638   0.574  0.00  0.00    +0.068 C 
BRANCH   2   7
ATOM      3  N   UNL     1      -3.706   0.787   0.067  0.00  0.00    -0.219 N 
ATOM      4  N   UNL     1      -4.697   1.666  -0.135  0.00  0.00    -0.043 NA
ATOM      5  N   UNL     1      -5.535  -0.360   0.268  0.00  0.00    -0.113 NA
ATOM      6  N   UNL     1      -5.813   0.959  -0.012  0.00  0.00    -0.023 NA
ATOM      7  C   UNL     1      -4.246  -0.414   0.305  0.00  0.00    +0.161 A 
BRANCH   3   8
ATOM      8  C   UNL     1      -2.299   1.205   0.008  0.00  0.00    +0.108 C 
ATOM      9  C   UNL     1      -2.066   2.326  -1.019  0.00  0.00    +0.027 C 
ATOM     10  C   UNL     1      -1.744   1.580   1.393  0.00  0.00    +0.027 C 
ATOM     11  C   UNL     1      -0.594   2.720  -1.083  0.00  0.00    +0.031 C 
ATOM     12  C   UNL     1      -0.274   1.981   1.310  0.00  0.00    +0.031 C 
ATOM     13  C   UNL     1      -0.049   3.099   0.292  0.00  0.00    +0.111 C 
BRANCH  13  14
ATOM     14  O   UNL     1       1.345   3.361   0.171  0.00  0.00    -0.384 OA
ATOM     15  H   UNL     1       1.485   4.071  -0.475  0.00  0.00    +0.210 HD
ENDBRANCH  13  14
ENDBRANCH   3   8
ENDBRANCH   2   7
ENDBRANCH   1   2
BRANCH   1  16
ATOM     16  C   UNL     1      -2.184  -3.598  -0.447  0.00  0.00    +0.048 C 
BRANCH  16  17
ATOM     17  C   UNL     1      -0.852  -3.200   0.173  0.00  0.00    +0.205 C 
BRANCH  17  18
ATOM     18  O   UNL     1      -0.172  -2.320  -0.721  0.00  0.00    -0.475 OA
BRANCH  18  25
ATOM     19  O   UNL     1       6.644   0.886   0.564  0.00  0.00    -0.275 OA
ATOM     20  N   UNL     1       4.804  -0.451   0.889  0.00  0.00    -0.284 N 
ATOM     21  C   UNL     1       3.013  -0.509  -0.754  0.00  0.00    -0.005 C 
ATOM     22  C   UNL     1       3.840   0.355  -1.661  0.00  0.00    +0.037 C 
ATOM     23  C   UNL     1       3.542  -0.915   0.478  0.00  0.00    +0.046 C 
ATOM     24  C   UNL     1       4.750   1.271  -0.857  0.00  0.00    +0.090 C 
ATOM     25  C   UNL     1       1.055  -1.872  -0.336  0.00  0.00    +0.138 C 
ATOM     26  C   UNL     1       1.766  -0.998  -1.159  0.00  0.00    +0.034 C 
ATOM     27  C   UNL     1       5.509   0.540   0.234  0.00  0.00    +0.226 C 
ATOM     28  C   UNL     1       2.839  -1.805   1.293  0.00  0.00    +0.017 C 
ATOM     29  C   UNL     1       1.591  -2.276   0.886  0.00  0.00    +0.038 C 
ATOM     30  H   UNL     1       5.209  -0.855   1.691  0.00  0.00    +0.155 HD
ENDBRANCH  18  25
ENDBRANCH  17  18
ENDBRANCH  16  17
ENDBRANCH   1  16
TORSDOF 8
