10023166
  -OEChem-03292013303D

 59 61  0     1  0  0  0  0  0999 V2000
    2.1328   -0.1221   -1.2707 O   0  0  0  0  0  0  0  0  0  0  0  0
   -1.4114   -0.5174    1.1376 O   0  0  0  0  0  0  0  0  0  0  0  0
   -2.9995    0.9628    0.2826 O   0  0  0  0  0  0  0  0  0  0  0  0
   -3.0786   -2.6876    0.4177 O   0  0  0  0  0  0  0  0  0  0  0  0
    7.0772   -0.4970   -1.5928 O   0  0  0  0  0  0  0  0  0  0  0  0
   -5.9229   -1.9205    0.3688 O   0  0  0  0  0  0  0  0  0  0  0  0
   -6.3011    0.4633   -1.2219 O   0  0  0  0  0  0  0  0  0  0  0  0
   -3.2922    3.4222   -0.9097 O   0  0  0  0  0  0  0  0  0  0  0  0
    2.7020   -0.1703    0.0547 C   0  0  2  0  0  0  0  0  0  0  0  0
    1.8566   -1.2909   -0.5001 C   0  0  1  0  0  0  0  0  0  0  0  0
    2.1323    0.8420    1.0336 C   0  0  0  0  0  0  0  0  0  0  0  0
    0.4308   -1.4559   -0.0969 C   0  0  0  0  0  0  0  0  0  0  0  0
    0.7667    0.3737    1.5944 C   0  0  0  0  0  0  0  0  0  0  0  0
   -0.1672   -0.1932    0.5236 C   0  0  2  0  0  0  0  0  0  0  0  0
    2.4983   -2.5060   -1.0918 C   0  0  0  0  0  0  0  0  0  0  0  0
    4.1429   -0.4324    0.1686 C   0  0  0  0  0  0  0  0  0  0  0  0
    3.1061    0.9943    2.2208 C   0  0  0  0  0  0  0  0  0  0  0  0
    1.9946    2.2211    0.3600 C   0  0  0  0  0  0  0  0  0  0  0  0
    5.1179    0.2249   -0.4785 C   0  0  0  0  0  0  0  0  0  0  0  0
   -2.4987   -0.3709    0.2247 C   0  0  2  0  0  0  0  0  0  0  0  0
   -3.5856   -1.3692    0.6231 C   0  0  1  0  0  0  0  0  0  0  0  0
    6.5782   -0.0815   -0.3242 C   0  0  2  0  0  0  0  0  0  0  0  0
   -4.8512   -1.1762   -0.2126 C   0  0  2  0  0  0  0  0  0  0  0  0
   -4.0772    1.1834   -0.6290 C   0  0  1  0  0  0  0  0  0  0  0  0
   -5.2662    0.2945   -0.2567 C   0  0  1  0  0  0  0  0  0  0  0  0
    7.3531    1.1447    0.1399 C   0  0  0  0  0  0  0  0  0  0  0  0
   -4.4375    2.6643   -0.5653 C   0  0  0  0  0  0  0  0  0  0  0  0
    0.3529   -2.2829    0.6214 H   0  0  0  0  0  0  0  0  0  0  0  0
   -0.1707   -1.7615   -0.9616 H   0  0  0  0  0  0  0  0  0  0  0  0
    0.2667    1.1958    2.1237 H   0  0  0  0  0  0  0  0  0  0  0  0
    0.9207   -0.4031    2.3573 H   0  0  0  0  0  0  0  0  0  0  0  0
   -0.3160    0.5777   -0.2437 H   0  0  0  0  0  0  0  0  0  0  0  0
    1.8135   -3.0014   -1.7890 H   0  0  0  0  0  0  0  0  0  0  0  0
    3.4114   -2.2813   -1.6532 H   0  0  0  0  0  0  0  0  0  0  0  0
    2.7491   -3.2225   -0.3026 H   0  0  0  0  0  0  0  0  0  0  0  0
    4.4280   -1.2373    0.8437 H   0  0  0  0  0  0  0  0  0  0  0  0
    4.0576    1.4583    1.9379 H   0  0  0  0  0  0  0  0  0  0  0  0
    2.6681    1.6466    2.9870 H   0  0  0  0  0  0  0  0  0  0  0  0
    3.3155    0.0345    2.7080 H   0  0  0  0  0  0  0  0  0  0  0  0
    1.6290    2.9720    1.0696 H   0  0  0  0  0  0  0  0  0  0  0  0
    2.9579    2.5717   -0.0276 H   0  0  0  0  0  0  0  0  0  0  0  0
    1.2975    2.2002   -0.4838 H   0  0  0  0  0  0  0  0  0  0  0  0
    4.8472    1.0271   -1.1617 H   0  0  0  0  0  0  0  0  0  0  0  0
   -2.1643   -0.5908   -0.7987 H   0  0  0  0  0  0  0  0  0  0  0  0
   -3.8186   -1.2819    1.6909 H   0  0  0  0  0  0  0  0  0  0  0  0
    6.7422   -0.9053    0.3785 H   0  0  0  0  0  0  0  0  0  0  0  0
   -4.7100   -1.5757   -1.2245 H   0  0  0  0  0  0  0  0  0  0  0  0
   -3.7241    0.9644   -1.6459 H   0  0  0  0  0  0  0  0  0  0  0  0
   -5.6760    0.5869    0.7179 H   0  0  0  0  0  0  0  0  0  0  0  0
    7.0089    1.4874    1.1211 H   0  0  0  0  0  0  0  0  0  0  0  0
    8.4220    0.9143    0.2068 H   0  0  0  0  0  0  0  0  0  0  0  0
    7.2568    1.9729   -0.5717 H   0  0  0  0  0  0  0  0  0  0  0  0
   -4.7423    2.9597    0.4441 H   0  0  0  0  0  0  0  0  0  0  0  0
   -5.2404    2.9163   -1.2641 H   0  0  0  0  0  0  0  0  0  0  0  0
   -2.8597   -2.7835   -0.5249 H   0  0  0  0  0  0  0  0  0  0  0  0
    7.0025    0.2512   -2.2099 H   0  0  0  0  0  0  0  0  0  0  0  0
   -6.7136   -1.7664   -0.1762 H   0  0  0  0  0  0  0  0  0  0  0  0
   -5.9445    0.2132   -2.0914 H   0  0  0  0  0  0  0  0  0  0  0  0
   -2.5843    3.1857   -0.2862 H   0  0  0  0  0  0  0  0  0  0  0  0
  1  9  1  0  0  0  0
  1 10  1  0  0  0  0
  2 14  1  0  0  0  0
  2 20  1  0  0  0  0
  3 20  1  0  0  0  0
  3 24  1  0  0  0  0
  4 21  1  0  0  0  0
  4 55  1  0  0  0  0
  5 22  1  0  0  0  0
  5 56  1  0  0  0  0
  6 23  1  0  0  0  0
  6 57  1  0  0  0  0
  7 25  1  0  0  0  0
  7 58  1  0  0  0  0
  8 27  1  0  0  0  0
  8 59  1  0  0  0  0
  9 10  1  0  0  0  0
  9 11  1  0  0  0  0
  9 16  1  0  0  0  0
 10 12  1  0  0  0  0
 10 15  1  0  0  0  0
 11 13  1  0  0  0  0
 11 17  1  0  0  0  0
 11 18  1  0  0  0  0
 12 14  1  0  0  0  0
 12 28  1  0  0  0  0
 12 29  1  0  0  0  0
 13 14  1  0  0  0  0
 13 30  1  0  0  0  0
 13 31  1  0  0  0  0
 14 32  1  0  0  0  0
 15 33  1  0  0  0  0
 15 34  1  0  0  0  0
 15 35  1  0  0  0  0
 16 19  2  0  0  0  0
 16 36  1  0  0  0  0
 17 37  1  0  0  0  0
 17 38  1  0  0  0  0
 17 39  1  0  0  0  0
 18 40  1  0  0  0  0
 18 41  1  0  0  0  0
 18 42  1  0  0  0  0
 19 22  1  0  0  0  0
 19 43  1  0  0  0  0
 20 21  1  0  0  0  0
 20 44  1  0  0  0  0
 21 23  1  0  0  0  0
 21 45  1  0  0  0  0
 22 26  1  0  0  0  0
 22 46  1  0  0  0  0
 23 25  1  0  0  0  0
 23 47  1  0  0  0  0
 24 25  1  0  0  0  0
 24 27  1  0  0  0  0
 24 48  1  0  0  0  0
 25 49  1  0  0  0  0
 26 50  1  0  0  0  0
 26 51  1  0  0  0  0
 26 52  1  0  0  0  0
 27 53  1  0  0  0  0
 27 54  1  0  0  0  0
M  END
> <PUBCHEM_COMPOUND_CID>
10023166

> <PUBCHEM_CONFORMER_RMSD>
0.8

> <PUBCHEM_CONFORMER_DIVERSEORDER>
1
55
105
160
116
128
182
5
170
28
41
125
183
6
88
86
180
62
22
40
76
75
130
155
11
77
119
181
98
18
113
35
92
177
91
71
121
157
103
131
136
64
84
148
138
65
58
154
150
104
47
165
149
16
33
20
26
90
166
93
176
42
151
173
120
100
169
133
134
163
174
2
164
72
13
179
101
66
21
108
60
106
127
25
3
54
126
168
162
70
117
48
123
32
89
144
36
67
39
37
29
17
78
145
4
142
46
152
99
185
24
111
167
38
50
112
85
137
153
23
95
30
59
53
172
102
81
8
74
10
135
156
68
51
114
44
122
19
14
43
9
83
31
107
118
184
140
73
143
49
12
161
158
109
82
45
96
63
175
186
79
87
7
171
132
97
159
94
124
52
146
61
147
15
34
139
69
110
178
57
141
115
56
27
80
129

> <PUBCHEM_MMFF94_PARTIAL_CHARGES>
30
1 -0.3
10 -0.04
11 0.09
12 0.09
14 0.28
15 0.09
16 -0.19
19 -0.29
2 -0.56
20 0.56
21 0.28
22 0.42
23 0.28
24 0.28
25 0.28
27 0.28
3 -0.56
36 0.15
4 -0.68
43 0.15
5 -0.68
55 0.4
56 0.4
57 0.4
58 0.4
59 0.4
6 -0.68
7 -0.68
8 -0.68
9 0.09

> <PUBCHEM_EFFECTIVE_ROTOR_COUNT>
7.2

> <PUBCHEM_PHARMACOPHORE_FEATURES>
16
1 1 acceptor
1 2 acceptor
1 3 acceptor
1 4 acceptor
1 4 donor
1 5 acceptor
1 5 donor
1 6 acceptor
1 6 donor
1 7 acceptor
1 7 donor
1 8 acceptor
1 8 donor
3 11 17 18 hydrophobe
6 3 20 21 23 24 25 rings
7 1 9 10 11 12 13 14 rings

> <PUBCHEM_HEAVY_ATOM_COUNT>
27

> <PUBCHEM_ATOM_DEF_STEREO_COUNT>
9

> <PUBCHEM_ATOM_UDEF_STEREO_COUNT>
0

> <PUBCHEM_BOND_DEF_STEREO_COUNT>
1

> <PUBCHEM_BOND_UDEF_STEREO_COUNT>
0

> <PUBCHEM_ISOTOPIC_ATOM_COUNT>
0

> <PUBCHEM_COMPONENT_COUNT>
1

> <PUBCHEM_CACTVS_TAUTO_COUNT>
1

> <PUBCHEM_CONFORMER_ID>
0098F0FE00000001

> <PUBCHEM_MMFF94_ENERGY>
74.0267

> <PUBCHEM_FEATURE_SELFOVERLAP>
81.263

> <PUBCHEM_SHAPE_FINGERPRINT>
10087517 78 17967250875405389532
10498660 4 18260536811286649149
10670039 82 18259698987046446829
11089746 13 16298106509878853990
11719270 70 18201153270434278614
12011746 2 18202286905502666586
12236239 1 16732978730336474603
12403259 415 18202275935639254400
12596602 18 16443350892323105513
13668630 136 16559027203619709495
13862211 1 17203615861545063934
14251752 14 18408039585828800962
15183329 4 18261112954994598960
15849732 13 18271810159766991276
15961568 22 18043243741945293085
18608769 82 18338803420127201619
18681886 176 18337950198829312192
18769570 83 17749112167202742364
200 152 16702305645829556275
20645477 70 17131829867472805167
21033648 29 18130773573261244024
21033650 10 17970084256777145992
21267235 1 17703800248696025059
21279426 13 18271815558446280990
21521721 280 17418094364912241346
21709351 56 18272085036782417510
21792961 116 18272939289289046310
221357 26 18272081674482751737
22224240 67 12179848329286490008
22393880 68 18060128847501876846
23402539 116 17967533488948872534
23522609 53 13110411263929088266
23557571 272 18408323289634971465
23559900 14 18342172297562260915
23569914 152 16334989335749845188
23569943 247 15481291309575608902
3545911 37 18342739619934931019
46194498 28 18340772631929018364
5281201 14 18271806792138220813
5283173 99 18336830771332591868
59755656 215 18343862212595733770
6328613 192 17821736069794973500
7808743 9 18114741508570938717

> <PUBCHEM_SHAPE_MULTIPOLES>
508.69
16.67
2.52
1.31
7.17
0.68
0.3
1.69
-5
-2.79
-0.51
0.79
0.23
2.22

> <PUBCHEM_SHAPE_SELFOVERLAP>
1051.024

> <PUBCHEM_SHAPE_VOLUME>
291.4

> <PUBCHEM_COORDINATE_TYPE>
2
5
10

$$$$
