100299
  -OEChem-03292013323D

 34 37  0     1  0  0  0  0  0999 V2000
   -2.4251   -3.4904   -0.1342 Cl  0  0  0  0  0  0  0  0  0  0  0  0
    4.0587    0.7815   -0.5382 P   0  0  2  0  0  0  0  0  0  0  0  0
    0.5658   -0.6667    1.5587 O   0  0  0  0  0  0  0  0  0  0  0  0
    3.0681   -0.4317   -0.9808 O   0  0  0  0  0  0  0  0  0  0  0  0
    3.8309    0.9772    1.0592 O   0  0  0  0  0  0  0  0  0  0  0  0
    1.6868   -2.8165   -0.5430 O   0  0  0  0  0  0  0  0  0  0  0  0
    3.3920    2.1039   -1.1926 O   0  0  0  0  0  0  0  0  0  0  0  0
    5.4939    0.5777   -0.9314 O   0  0  0  0  0  0  0  0  0  0  0  0
   -1.3782   -1.0518    0.2371 N   0  0  0  0  0  0  0  0  0  0  0  0
   -3.5333   -1.0383   -0.3447 N   0  0  0  0  0  0  0  0  0  0  0  0
   -0.9865    1.3385    0.4256 N   0  0  0  0  0  0  0  0  0  0  0  0
   -3.0068    2.6129   -0.0752 N   0  0  0  0  0  0  0  0  0  0  0  0
   -5.0742    1.5628   -0.6676 N   0  0  0  0  0  0  0  0  0  0  0  0
    1.7829   -0.4149   -0.4020 C   0  0  2  0  0  0  0  0  0  0  0  0
    1.8962   -0.4203    1.1081 C   0  0  1  0  0  0  0  0  0  0  0  0
    0.9088   -1.6265   -0.6314 C   0  0  2  0  0  0  0  0  0  0  0  0
   -0.0442   -1.5480    0.5766 C   0  0  1  0  0  0  0  0  0  0  0  0
    2.5108    0.8760    1.5959 C   0  0  0  0  0  0  0  0  0  0  0  0
   -1.7506    0.2630    0.1823 C   0  0  0  0  0  0  0  0  0  0  0  0
   -2.4853   -1.7933   -0.0885 C   0  0  0  0  0  0  0  0  0  0  0  0
   -3.0881    0.2492   -0.1791 C   0  0  0  0  0  0  0  0  0  0  0  0
   -3.7182    1.4831   -0.3060 C   0  0  0  0  0  0  0  0  0  0  0  0
   -1.7044    2.4724    0.2712 C   0  0  0  0  0  0  0  0  0  0  0  0
    1.2463    0.4724   -0.7566 H   0  0  0  0  0  0  0  0  0  0  0  0
    2.5427   -1.2397    1.4504 H   0  0  0  0  0  0  0  0  0  0  0  0
    0.4139   -1.6261   -1.6065 H   0  0  0  0  0  0  0  0  0  0  0  0
   -0.1660   -2.5166    1.0720 H   0  0  0  0  0  0  0  0  0  0  0  0
    1.9232    1.7508    1.2985 H   0  0  0  0  0  0  0  0  0  0  0  0
    2.5743    0.8862    2.6884 H   0  0  0  0  0  0  0  0  0  0  0  0
    1.9800   -2.9436    0.3739 H   0  0  0  0  0  0  0  0  0  0  0  0
    2.4649    2.3389   -0.9771 H   0  0  0  0  0  0  0  0  0  0  0  0
   -1.1652    3.3970    0.4481 H   0  0  0  0  0  0  0  0  0  0  0  0
   -5.6074    0.7212   -0.8393 H   0  0  0  0  0  0  0  0  0  0  0  0
   -5.5098    2.4711   -0.7526 H   0  0  0  0  0  0  0  0  0  0  0  0
  1 20  1  0  0  0  0
  2  4  1  0  0  0  0
  2  5  1  0  0  0  0
  2  7  1  0  0  0  0
  2  8  2  0  0  0  0
  3 15  1  0  0  0  0
  3 17  1  0  0  0  0
  4 14  1  0  0  0  0
  5 18  1  0  0  0  0
  6 16  1  0  0  0  0
  6 30  1  0  0  0  0
  7 31  1  0  0  0  0
  9 17  1  0  0  0  0
  9 19  1  0  0  0  0
  9 20  1  0  0  0  0
 10 20  2  0  0  0  0
 10 21  1  0  0  0  0
 11 19  2  0  0  0  0
 11 23  1  0  0  0  0
 12 22  1  0  0  0  0
 12 23  2  0  0  0  0
 13 22  1  0  0  0  0
 13 33  1  0  0  0  0
 13 34  1  0  0  0  0
 14 15  1  0  0  0  0
 14 16  1  0  0  0  0
 14 24  1  0  0  0  0
 15 18  1  0  0  0  0
 15 25  1  0  0  0  0
 16 17  1  0  0  0  0
 16 26  1  0  0  0  0
 17 27  1  0  0  0  0
 18 28  1  0  0  0  0
 18 29  1  0  0  0  0
 19 21  1  0  0  0  0
 21 22  2  0  0  0  0
 23 32  1  0  0  0  0
M  END
> <PUBCHEM_COMPOUND_CID>
100299

> <PUBCHEM_CONFORMER_RMSD>
0.6

> <PUBCHEM_CONFORMER_DIVERSEORDER>
1
7
2
5
3
4
6

> <PUBCHEM_MMFF94_PARTIAL_CHARGES>
28
1 -0.12
10 -0.57
11 -0.57
12 -0.62
13 -0.9
14 0.28
15 0.28
16 0.28
17 0.54
18 0.28
19 0.11
2 1.51
20 0.31
21 0.23
22 0.41
23 0.47
3 -0.56
30 0.4
31 0.5
32 0.15
33 0.4
34 0.4
4 -0.55
5 -0.55
6 -0.68
7 -0.77
8 -0.7
9 0.05

> <PUBCHEM_EFFECTIVE_ROTOR_COUNT>
2.2

> <PUBCHEM_PHARMACOPHORE_FEATURES>
14
1 13 cation
1 13 donor
1 3 acceptor
1 6 acceptor
1 6 donor
1 7 acceptor
1 8 acceptor
3 11 12 23 cation
3 9 10 20 cation
3 9 11 19 cation
5 3 14 15 16 17 rings
5 9 10 19 20 21 rings
6 11 12 19 21 22 23 rings
6 2 4 5 14 15 18 rings

> <PUBCHEM_HEAVY_ATOM_COUNT>
23

> <PUBCHEM_ATOM_DEF_STEREO_COUNT>
4

> <PUBCHEM_ATOM_UDEF_STEREO_COUNT>
0

> <PUBCHEM_BOND_DEF_STEREO_COUNT>
0

> <PUBCHEM_BOND_UDEF_STEREO_COUNT>
0

> <PUBCHEM_ISOTOPIC_ATOM_COUNT>
0

> <PUBCHEM_COMPONENT_COUNT>
1

> <PUBCHEM_CACTVS_TAUTO_COUNT>
3

> <PUBCHEM_CONFORMER_ID>
000187CB00000001

> <PUBCHEM_MMFF94_ENERGY>
42.6894

> <PUBCHEM_FEATURE_SELFOVERLAP>
71.751

> <PUBCHEM_SHAPE_FINGERPRINT>
10366900 7 17988637484772449177
10411042 1 17762056940476373631
10498660 4 18411415115947577873
10646746 165 18412823599370238192
10759866 29 18260263006298752730
11640471 11 17748829600575831333
12173636 292 18339351951864406149
12236239 1 17748541559047805856
12403259 226 18057605576049015986
12403259 415 18059014003341812848
12553582 1 18194394731213776395
12788726 201 17898570044975295946
13140716 1 17978788236279458827
14739800 52 17974556203403666912
14787075 74 17533781769619429523
14790565 3 18269280050331465513
16945 1 18411976988175327507
17134986 127 17832141628569877821
17357779 13 17771044275786419711
18186145 218 17703514380299891754
200 152 15698009535086647066
20510252 161 18342173341777358043
20715895 44 17609755536560937901
20739085 24 15177298037800538417
20871999 31 18341888624042563447
22182313 1 17843391032275098874
22393880 68 18343588438928148830
23114952 82 17916031157012067294
23227448 37 18335985345817654645
23402539 116 18410289255180322118
23557571 272 18342463693813419183
23559900 14 18341894061370907190
2748010 2 17837752780067073659
2838139 119 17898864701945161876
3472631 163 18259985976655625485
350125 39 18122343471856282579
4028521 119 18411699872337097677
474 4 17821736022112391940
56616090 163 18413112740383680143
633830 44 17385449838671278558
7097593 13 17899948592027601362
7808743 9 18335421274550883388
9981440 41 18333732455050822826

> <PUBCHEM_SHAPE_MULTIPOLES>
418.93
8.57
3.13
1.11
3.63
1.18
-0.25
-4.26
2.44
-2.83
0.37
1.09
-0.13
0.11

> <PUBCHEM_SHAPE_SELFOVERLAP>
901.049

> <PUBCHEM_SHAPE_VOLUME>
233.1

> <PUBCHEM_COORDINATE_TYPE>
2
5
10

$$$$
