REMARK  Name = 10026535
REMARK  3 active torsions:
REMARK  status: ('A' for Active; 'I' for Inactive)
REMARK    1  A    between atoms: C_1  and  C_7
REMARK    2  A    between atoms: C_1  and  C_23
REMARK    3  A    between atoms: C_23  and  O_36
REMARK                            x       y       z     vdW  Elec       q    Type
REMARK                         _______ _______ _______ _____ _____    ______ ____
ROOT
ATOM      1  C   UNL     1      -0.279   0.636  -0.292  0.00  0.00    +0.060 C 
ENDROOT
BRANCH   1   7
ATOM      2  O   UNL     1      -0.442   1.225   2.783  0.00  0.00    -0.273 OA
ATOM      3  O   UNL     1       1.784  -2.000  -0.272  0.00  0.00    -0.274 OA
ATOM      4  N   UNL     1       2.079   0.222   0.402  0.00  0.00    -0.229 N 
ATOM      5  N   UNL     1       1.500   2.256   2.140  0.00  0.00    -0.298 N 
ATOM      6  N   UNL     1       4.159   1.308   0.016  0.00  0.00    -0.393 NA
ATOM      7  C   UNL     1       0.685   0.337   0.851  0.00  0.00    +0.160 C 
ATOM      8  C   UNL     1       0.528   1.288   2.029  0.00  0.00    +0.241 C 
ATOM      9  C   UNL     1       2.938   1.313   0.454  0.00  0.00    +0.184 C 
ATOM     10  C   UNL     1       2.404   2.592   1.065  0.00  0.00    +0.139 C 
ATOM     11  C   UNL     1       2.488  -1.000  -0.156  0.00  0.00    +0.242 C 
ATOM     12  C   UNL     1       1.808   3.559   0.056  0.00  0.00    +0.030 C 
ATOM     13  C   UNL     1       3.883  -1.035  -0.643  0.00  0.00    +0.151 C 
ATOM     14  C   UNL     1       4.658   0.123  -0.540  0.00  0.00    +0.123 C 
ATOM     15  C   UNL     1       4.411  -2.204  -1.203  0.00  0.00    -0.010 C 
ATOM     16  C   UNL     1       5.978   0.096  -1.006  0.00  0.00    +0.028 C 
ATOM     17  C   UNL     1       5.728  -2.216  -1.662  0.00  0.00    -0.004 C 
ATOM     18  C   UNL     1       6.510  -1.067  -1.564  0.00  0.00    +0.002 C 
ATOM     19  H   UNL     1       1.583   2.742   2.992  0.00  0.00    +0.150 HD
ENDBRANCH   1   7
BRANCH   1  23
ATOM     20  O   UNL     1      -6.089  -0.472  -1.161  0.00  0.00    -0.277 OA
ATOM     21  N   UNL     1      -3.800  -0.263  -0.685  0.00  0.00    -0.279 N 
ATOM     22  N   UNL     1      -3.431   1.883  -1.284  0.00  0.00    +0.405 N 
ATOM     23  C   UNL     1      -1.724   0.499   0.150  0.00  0.00    +0.109 C 
ATOM     24  C   UNL     1      -2.730   0.637  -1.016  0.00  0.00    +0.052 C 
ATOM     25  C   UNL     1      -2.113  -0.870   0.682  0.00  0.00    +0.015 C 
ATOM     26  C   UNL     1      -3.382  -1.238   0.202  0.00  0.00    +0.050 C 
ATOM     27  C   UNL     1      -4.763   1.482  -1.812  0.00  0.00    +0.020 C 
ATOM     28  C   UNL     1      -5.017   0.108  -1.196  0.00  0.00    +0.208 C 
ATOM     29  C   UNL     1      -1.459  -1.673   1.601  0.00  0.00    -0.001 C 
ATOM     30  C   UNL     1      -4.044  -2.368   0.637  0.00  0.00    +0.015 C 
ATOM     31  C   UNL     1      -4.791   1.412  -3.332  0.00  0.00    -0.014 C 
ATOM     32  C   UNL     1      -2.098  -2.841   2.029  0.00  0.00    -0.000 C 
ATOM     33  C   UNL     1      -3.379  -3.181   1.557  0.00  0.00    +0.001 C 
ATOM     34  H   UNL     1      -2.925   2.435  -1.976  0.00  0.00    -0.081 HD
ATOM     35  H   UNL     1      -3.514   2.459  -0.447  0.00  0.00    -0.081 HD
BRANCH  23  36
ATOM     36  O   UNL     1      -2.002   1.453   1.171  0.00  0.00    -0.383 OA
ATOM     37  H   UNL     1      -1.762   2.340   0.858  0.00  0.00    +0.211 HD
ENDBRANCH  23  36
ENDBRANCH   1  23
TORSDOF 3
