REMARK  Name = 10027318
REMARK  14 active torsions:
REMARK  status: ('A' for Active; 'I' for Inactive)
REMARK    1  A    between atoms: C_1  and  N_3
REMARK    2  A    between atoms: C_1  and  C_16
REMARK    3  A    between atoms: C_1  and  C_28
REMARK    4  A    between atoms: C_4  and  C_9
REMARK    5  A    between atoms: C_6  and  C_12
REMARK    6  A    between atoms: C_16  and  O_17
REMARK    7  A    between atoms: O_17  and  C_18
REMARK    8  A    between atoms: C_18  and  O_19
REMARK    9  A    between atoms: O_19  and  C_21
REMARK   10  A    between atoms: C_21  and  C_22
REMARK   11  A    between atoms: C_22  and  C_23
REMARK   12  A    between atoms: C_23  and  C_25
REMARK   13  A    between atoms: C_25  and  O_26
REMARK   14  A    between atoms: C_28  and  C_29
REMARK                            x       y       z     vdW  Elec       q    Type
REMARK                         _______ _______ _______ _____ _____    ______ ____
ROOT
ATOM      1  C   UNL     1      -0.939  -1.925  -0.572  0.00  0.00    +0.176 C 
ENDROOT
BRANCH   1   3
ATOM      2  O   UNL     1       0.014   0.437   0.820  0.00  0.00    -0.275 OA
ATOM      3  N   UNL     1       0.237  -1.145  -0.873  0.00  0.00    -0.297 N 
ATOM      4  C   UNL     1       0.612  -0.027  -0.147  0.00  0.00    +0.222 C 
ATOM      5  H   UNL     1       0.800  -1.422  -1.632  0.00  0.00    +0.150 HD
BRANCH   4   9
ATOM      6  C   UNL     1       4.396   2.058  -0.126  0.00  0.00    +0.000 C 
ATOM      7  C   UNL     1       3.200   2.731  -0.814  0.00  0.00    +0.000 C 
ATOM      8  C   UNL     1       4.396   0.546  -0.386  0.00  0.00    +0.000 C 
ATOM      9  C   UNL     1       1.884   0.580  -0.655  0.00  0.00    +0.076 C 
ATOM     10  C   UNL     1       1.878   2.088  -0.401  0.00  0.00    +0.009 C 
ATOM     11  C   UNL     1       3.073  -0.097   0.026  0.00  0.00    +0.009 C 
BRANCH   6  12
ATOM     12  C   UNL     1       5.709   2.685  -0.593  0.00  0.00    +0.000 C 
ATOM     13  C   UNL     1       5.726   4.182  -0.291  0.00  0.00    +0.000 C 
ATOM     14  C   UNL     1       6.899   1.992   0.066  0.00  0.00    +0.000 C 
ENDBRANCH   6  12
ENDBRANCH   4   9
ENDBRANCH   1   3
BRANCH   1  16
ATOM     15  O   UNL     1      -1.981  -0.735  -2.418  0.00  0.00    -0.248 OA
ATOM     16  C   UNL     1      -2.080  -1.260  -1.316  0.00  0.00    +0.338 C 
BRANCH  16  17
ATOM     17  O   UNL     1      -3.225  -1.363  -0.579  0.00  0.00    -0.407 OA
BRANCH  17  18
ATOM     18  C   UNL     1      -4.411  -0.800  -1.162  0.00  0.00    +0.433 C 
BRANCH  18  19
ATOM     19  O   UNL     1      -4.316   0.617  -1.374  0.00  0.00    -0.408 OA
BRANCH  19  21
ATOM     20  O   UNL     1      -4.740   1.013   0.859  0.00  0.00    -0.250 OA
ATOM     21  C   UNL     1      -4.502   1.406  -0.275  0.00  0.00    +0.320 C 
BRANCH  21  22
ATOM     22  C   UNL     1      -4.373   2.856  -0.689  0.00  0.00    +0.121 C 
BRANCH  22  23
ATOM     23  C   UNL     1      -3.922   3.761   0.456  0.00  0.00    +0.121 C 
BRANCH  23  25
ATOM     24  O   UNL     1      -1.671   2.841   0.340  0.00  0.00    -0.250 OA
ATOM     25  C   UNL     1      -2.550   3.399   0.982  0.00  0.00    +0.318 C 
BRANCH  25  26
ATOM     26  O   UNL     1      -2.463   3.787   2.290  0.00  0.00    -0.444 OA
ATOM     27  C   UNL     1      -1.219   3.501   2.936  0.00  0.00    +0.256 C 
ENDBRANCH  25  26
ENDBRANCH  23  25
ENDBRANCH  22  23
ENDBRANCH  21  22
ENDBRANCH  19  21
ENDBRANCH  18  19
ENDBRANCH  17  18
ENDBRANCH  16  17
ENDBRANCH   1  16
BRANCH   1  28
ATOM     28  C   UNL     1      -0.760  -3.381  -1.010  0.00  0.00    +0.057 C 
BRANCH  28  29
ATOM     29  C   UNL     1       0.079  -4.201  -0.060  0.00  0.00    -0.020 C 
ATOM     30  C   UNL     1       1.461  -4.272  -0.235  0.00  0.00    -0.004 C 
ATOM     31  C   UNL     1      -0.527  -4.887   0.992  0.00  0.00    -0.004 C 
ATOM     32  C   UNL     1       2.237  -5.030   0.643  0.00  0.00    -0.000 C 
ATOM     33  C   UNL     1       0.248  -5.644   1.870  0.00  0.00    -0.000 C 
ATOM     34  C   UNL     1       1.631  -5.715   1.695  0.00  0.00    -0.000 C 
ENDBRANCH  28  29
ENDBRANCH   1  28
TORSDOF 14
