REMARK  Name = 10028689
REMARK  6 active torsions:
REMARK  status: ('A' for Active; 'I' for Inactive)
REMARK    1  A    between atoms: C_5  and  O_26
REMARK    2  A    between atoms: C_12  and  O_24
REMARK    3  A    between atoms: O_26  and  C_32
REMARK    4  A    between atoms: C_28  and  O_35
REMARK    5  A    between atoms: C_29  and  O_37
REMARK    6  A    between atoms: C_30  and  O_39
REMARK                            x       y       z     vdW  Elec       q    Type
REMARK                         _______ _______ _______ _____ _____    ______ ____
ROOT
ATOM      1  O   UNL     1      -0.122   0.756  -0.755  0.00  0.00    -0.421 OA
ATOM      2  O   UNL     1      -4.928   0.152   0.609  0.00  0.00    -0.421 OA
ATOM      3  O   UNL     1      -5.183  -2.097   0.847  0.00  0.00    -0.244 OA
ATOM      4  O   UNL     1       0.137   3.004  -0.997  0.00  0.00    -0.244 OA
ATOM      5  C   UNL     1       1.043  -1.867  -0.877  0.00  0.00    +0.144 C 
ATOM      6  C   UNL     1      -0.306  -1.664  -0.522  0.00  0.00    +0.072 A 
ATOM      7  C   UNL     1      -2.241  -0.214  -0.101  0.00  0.00    +0.047 A 
ATOM      8  C   UNL     1      -0.906  -0.391  -0.454  0.00  0.00    +0.152 A 
ATOM      9  C   UNL     1      -1.109  -2.790  -0.218  0.00  0.00    +0.040 A 
ATOM     10  C   UNL     1      -2.796   1.109  -0.048  0.00  0.00    +0.044 A 
ATOM     11  C   UNL     1      -3.020  -1.329   0.196  0.00  0.00    +0.113 A 
ATOM     12  C   UNL     1      -2.459  -2.610   0.139  0.00  0.00    +0.140 A 
ATOM     13  C   UNL     1       1.587  -3.151  -0.930  0.00  0.00    +0.037 C 
ATOM     14  C   UNL     1      -2.025   2.231  -0.345  0.00  0.00    +0.075 A 
ATOM     15  C   UNL     1      -4.131   1.278   0.305  0.00  0.00    +0.149 A 
ATOM     16  C   UNL     1      -0.543  -4.074  -0.277  0.00  0.00    +0.003 C 
ATOM     17  C   UNL     1       0.794  -4.253  -0.630  0.00  0.00    +0.003 C 
ATOM     18  C   UNL     1      -2.595   3.508  -0.285  0.00  0.00    -0.015 C 
ATOM     19  C   UNL     1      -4.446  -1.159   0.574  0.00  0.00    +0.349 A 
ATOM     20  C   UNL     1      -0.602   2.068  -0.724  0.00  0.00    +0.345 A 
ATOM     21  C   UNL     1      -4.716   2.538   0.371  0.00  0.00    +0.037 C 
ATOM     22  C   UNL     1      -3.939   3.657   0.073  0.00  0.00    -0.001 C 
ATOM     23  C   UNL     1      -1.841   4.763  -0.586  0.00  0.00    +0.031 C 
ENDROOT
BRANCH  12  24
ATOM     24  O   UNL     1      -3.217  -3.712   0.430  0.00  0.00    -0.505 OA
ATOM     25  H   UNL     1      -2.836  -4.567   0.390  0.00  0.00    +0.292 HD
ENDBRANCH  12  24
BRANCH   5  26
ATOM     26  O   UNL     1       1.883  -0.834  -1.185  0.00  0.00    -0.450 OA
BRANCH  26  32
ATOM     27  O   UNL     1       2.649  -0.487   0.990  0.00  0.00    -0.319 OA
ATOM     28  C   UNL     1       5.016   0.880   0.028  0.00  0.00    +0.146 C 
ATOM     29  C   UNL     1       4.539   0.961   1.492  0.00  0.00    +0.164 C 
ATOM     30  C   UNL     1       3.823   0.533  -0.887  0.00  0.00    +0.208 C 
ATOM     31  C   UNL     1       3.753  -0.300   1.883  0.00  0.00    +0.148 C 
ATOM     32  C   UNL     1       3.044  -0.680  -0.368  0.00  0.00    +0.318 C 
ATOM     33  C   UNL     1       6.178  -0.114  -0.117  0.00  0.00    +0.035 C 
ATOM     34  C   UNL     1       3.182  -0.211   3.295  0.00  0.00    +0.035 C 
BRANCH  28  35
ATOM     35  O   UNL     1       5.551   2.150  -0.362  0.00  0.00    -0.382 OA
ATOM     36  H   UNL     1       4.860   2.827  -0.292  0.00  0.00    +0.210 HD
ENDBRANCH  28  35
BRANCH  29  37
ATOM     37  O   UNL     1       3.675   2.092   1.650  0.00  0.00    -0.380 OA
ATOM     38  H   UNL     1       4.153   2.900   1.407  0.00  0.00    +0.211 HD
ENDBRANCH  29  37
BRANCH  30  39
ATOM     39  O   UNL     1       4.271   0.257  -2.214  0.00  0.00    -0.377 OA
ATOM     40  H   UNL     1       4.766   1.019  -2.553  0.00  0.00    +0.211 HD
ENDBRANCH  30  39
ENDBRANCH  26  32
ENDBRANCH   5  26
TORSDOF 6
