REMARK  Name = 10024438
REMARK  10 active torsions:
REMARK  status: ('A' for Active; 'I' for Inactive)
REMARK    1  A    between atoms: C_1  and  C_16
REMARK    2  A    between atoms: C_2  and  C_5
REMARK    3  A    between atoms: C_6  and  C_11
REMARK    4  A    between atoms: C_10  and  C_13
REMARK    5  A    between atoms: C_16  and  O_17
REMARK    6  A    between atoms: C_16  and  C_19
REMARK    7  A    between atoms: C_19  and  C_21
REMARK    8  A    between atoms: C_21  and  O_23
REMARK    9  A    between atoms: C_22  and  C_26
REMARK   10  A    between atoms: C_26  and  O_27
REMARK                            x       y       z     vdW  Elec       q    Type
REMARK                         _______ _______ _______ _____ _____    ______ ____
ROOT
ATOM      1  C   UNL     1      -1.288   0.800  -0.473  0.00  0.00    +0.005 C 
ATOM      2  C   UNL     1      -0.458   1.851  -0.587  0.00  0.00    +0.026 C 
ENDROOT
BRANCH   2   5
ATOM      3  S   UNL     1       3.399   2.504  -0.467  0.00  0.00    -0.073 S 
ATOM      4  N   UNL     1       1.609   0.648  -0.283  0.00  0.00    -0.397 NA
ATOM      5  C   UNL     1       0.983   1.842  -0.503  0.00  0.00    +0.121 C 
ATOM      6  C   UNL     1       2.903   0.876  -0.245  0.00  0.00    +0.183 C 
ATOM      7  C   UNL     1       1.753   2.958  -0.631  0.00  0.00    +0.123 C 
BRANCH   6  11
ATOM      8  S   UNL     1       4.891  -2.496   0.383  0.00  0.00    -0.079 S 
ATOM      9  N   UNL     1       5.237   0.039   0.015  0.00  0.00    -0.400 NA
ATOM     10  C   UNL     1       5.868  -1.095   0.224  0.00  0.00    +0.134 C 
ATOM     11  C   UNL     1       3.882  -0.211  -0.023  0.00  0.00    +0.156 C 
ATOM     12  C   UNL     1       3.498  -1.521   0.155  0.00  0.00    +0.126 C 
BRANCH  10  13
ATOM     13  C   UNL     1       7.338  -1.227   0.326  0.00  0.00    +0.058 C 
ATOM     14  C   UNL     1       8.075  -0.825  -0.972  0.00  0.00    +0.008 C 
ATOM     15  C   UNL     1       7.935  -0.444   1.518  0.00  0.00    +0.008 C 
ENDBRANCH  10  13
ENDBRANCH   6  11
ENDBRANCH   2   5
BRANCH   1  16
ATOM     16  C   UNL     1      -2.799   0.842  -0.555  0.00  0.00    +0.140 C 
BRANCH  16  17
ATOM     17  O   UNL     1      -3.293   2.145  -0.856  0.00  0.00    -0.380 OA
ATOM     18  H   UNL     1      -4.261   2.122  -0.898  0.00  0.00    +0.211 HD
ENDBRANCH  16  17
BRANCH  16  19
ATOM     19  C   UNL     1      -3.471   0.298   0.733  0.00  0.00    +0.088 C 
ATOM     20  C   UNL     1      -2.975   1.057   1.971  0.00  0.00    +0.011 C 
BRANCH  19  21
ATOM     21  C   UNL     1      -4.992   0.318   0.676  0.00  0.00    +0.125 C 
ATOM     22  C   UNL     1      -5.692  -0.720   0.183  0.00  0.00    +0.114 C 
BRANCH  21  23
ATOM     23  O   UNL     1      -5.565   1.473   1.171  0.00  0.00    -0.475 OA
ATOM     24  C   UNL     1      -6.332   2.118   0.174  0.00  0.00    +0.252 C 
ENDBRANCH  21  23
BRANCH  22  26
ATOM     25  O   UNL     1      -3.972  -2.034  -0.866  0.00  0.00    -0.245 OA
ATOM     26  C   UNL     1      -5.072  -1.958  -0.343  0.00  0.00    +0.344 C 
BRANCH  26  27
ATOM     27  O   UNL     1      -5.949  -2.977  -0.137  0.00  0.00    -0.441 OA
ATOM     28  C   UNL     1      -5.515  -4.264  -0.590  0.00  0.00    +0.256 C 
ENDBRANCH  26  27
ENDBRANCH  22  26
ENDBRANCH  19  21
ENDBRANCH  16  19
ENDBRANCH   1  16
TORSDOF 10
