REMARK  Name = 10022635
REMARK  6 active torsions:
REMARK  status: ('A' for Active; 'I' for Inactive)
REMARK    1  A    between atoms: C_5  and  S_11
REMARK    2  A    between atoms: C_5  and  C_15
REMARK    3  A    between atoms: C_6  and  S_13
REMARK    4  A    between atoms: C_6  and  C_26
REMARK    5  A    between atoms: C_15  and  C_17
REMARK    6  A    between atoms: C_26  and  O_27
REMARK                            x       y       z     vdW  Elec       q    Type
REMARK                         _______ _______ _______ _____ _____    ______ ____
ROOT
ATOM      1  O   UNL     1       1.034   1.987  -2.029  0.00  0.00    -0.272 OA
ATOM      2  O   UNL     1       1.627  -1.589   1.978  0.00  0.00    -0.272 OA
ATOM      3  N   UNL     1       1.845  -0.079  -1.334  0.00  0.00    -0.261 N 
ATOM      4  N   UNL     1       0.640   0.247   1.079  0.00  0.00    -0.290 N 
ATOM      5  C   UNL     1       0.746   1.455   0.287  0.00  0.00    +0.170 C 
ATOM      6  C   UNL     1       2.417  -0.868  -0.210  0.00  0.00    +0.196 C 
ATOM      7  C   UNL     1       1.200   1.150  -1.136  0.00  0.00    +0.253 C 
ATOM      8  C   UNL     1       1.524  -0.802   1.035  0.00  0.00    +0.252 C 
ATOM      9  C   UNL     1       2.248  -0.406  -2.707  0.00  0.00    +0.116 C 
ATOM     10  H   UNL     1      -0.124   0.173   1.696  0.00  0.00    +0.151 HD
ENDROOT
BRANCH   5  11
ATOM     11  S   UNL     1       1.911   2.637   1.046  0.00  0.00    -0.114 S 
ATOM     12  C   UNL     1       1.099   2.763   2.651  0.00  0.00    +0.071 C 
ENDBRANCH   5  11
BRANCH   6  13
ATOM     13  S   UNL     1       2.508  -2.685  -0.616  0.00  0.00    -0.112 S 
ATOM     14  C   UNL     1       0.744  -2.966  -0.873  0.00  0.00    +0.071 C 
ENDBRANCH   6  13
BRANCH   5  15
ATOM     15  C   UNL     1      -0.633   2.130   0.239  0.00  0.00    +0.065 C 
BRANCH  15  17
ATOM     16  N   UNL     1      -2.924   0.303  -1.939  0.00  0.00    -0.312 N 
ATOM     17  C   UNL     1      -1.660   1.247  -0.415  0.00  0.00    -0.003 C 
ATOM     18  C   UNL     1      -2.478   0.313   0.247  0.00  0.00    +0.011 C 
ATOM     19  C   UNL     1      -1.939   1.234  -1.746  0.00  0.00    +0.058 C 
ATOM     20  C   UNL     1      -3.273  -0.275  -0.739  0.00  0.00    +0.048 C 
ATOM     21  C   UNL     1      -2.636  -0.104   1.583  0.00  0.00    +0.001 C 
ATOM     22  C   UNL     1      -4.222  -1.264  -0.455  0.00  0.00    +0.015 C 
ATOM     23  C   UNL     1      -3.581  -1.092   1.883  0.00  0.00    +0.000 C 
ATOM     24  C   UNL     1      -4.361  -1.662   0.878  0.00  0.00    +0.001 C 
ATOM     25  H   UNL     1      -3.325   0.079  -2.810  0.00  0.00    +0.152 HD
ENDBRANCH  15  17
ENDBRANCH   5  15
BRANCH   6  26
ATOM     26  C   UNL     1       3.837  -0.410   0.141  0.00  0.00    +0.175 C 
BRANCH  26  27
ATOM     27  O   UNL     1       4.331  -1.265   1.148  0.00  0.00    -0.379 OA
ATOM     28  H   UNL     1       5.231  -0.995   1.388  0.00  0.00    +0.211 HD
ENDBRANCH  26  27
ENDBRANCH   6  26
TORSDOF 6
