REMARK  Name = 10021298
REMARK  10 active torsions:
REMARK  status: ('A' for Active; 'I' for Inactive)
REMARK    1  A    between atoms: C_1  and  C_13
REMARK    2  A    between atoms: C_2  and  C_26
REMARK    3  A    between atoms: C_3  and  O_7
REMARK    4  A    between atoms: C_4  and  O_9
REMARK    5  A    between atoms: C_5  and  O_11
REMARK    6  A    between atoms: C_13  and  C_15
REMARK    7  A    between atoms: C_15  and  C_16
REMARK    8  A    between atoms: C_17  and  O_22
REMARK    9  A    between atoms: C_21  and  O_24
REMARK   10  A    between atoms: C_26  and  C_27
REMARK                            x       y       z     vdW  Elec       q    Type
REMARK                         _______ _______ _______ _____ _____    ______ ____
ROOT
ATOM      1  C   UNL     1      -0.675  -1.234  -0.607  0.00  0.00    +0.053 C 
ATOM      2  C   UNL     1      -2.708  -0.480   0.432  0.00  0.00    +0.050 C 
ATOM      3  C   UNL     1      -1.433  -0.207  -0.043  0.00  0.00    +0.137 C 
ATOM      4  C   UNL     1      -1.200  -2.524  -0.690  0.00  0.00    +0.136 C 
ATOM      5  C   UNL     1      -3.241  -1.760   0.355  0.00  0.00    +0.136 C 
ATOM      6  C   UNL     1      -2.483  -2.787  -0.209  0.00  0.00    +0.073 C 
ENDROOT
BRANCH   3   7
ATOM      7  O   UNL     1      -0.920   1.054   0.037  0.00  0.00    -0.472 OA
ATOM      8  C   UNL     1      -0.193   1.381   1.219  0.00  0.00    +0.252 C 
ENDBRANCH   3   7
BRANCH   4   9
ATOM      9  O   UNL     1      -0.474  -3.539  -1.236  0.00  0.00    -0.506 OA
ATOM     10  H   UNL     1       0.388  -3.375  -1.562  0.00  0.00    +0.292 HD
ENDBRANCH   4   9
BRANCH   5  11
ATOM     11  O   UNL     1      -4.492  -2.035   0.818  0.00  0.00    -0.506 OA
ATOM     12  H   UNL     1      -5.011  -1.355   1.199  0.00  0.00    +0.292 HD
ENDBRANCH   5  11
BRANCH   1  13
ATOM     13  C   UNL     1       0.700  -0.954  -1.122  0.00  0.00    +0.102 C 
BRANCH  13  15
ATOM     14  O   UNL     1       1.694  -1.971   0.825  0.00  0.00    -0.291 OA
ATOM     15  C   UNL     1       1.792  -1.138  -0.073  0.00  0.00    +0.181 C 
BRANCH  15  16
ATOM     16  C   UNL     1       3.013  -0.281  -0.138  0.00  0.00    +0.069 C 
ATOM     17  C   UNL     1       3.679   0.040   1.023  0.00  0.00    +0.139 C 
ATOM     18  C   UNL     1       3.426   0.158  -1.377  0.00  0.00    +0.009 C 
ATOM     19  C   UNL     1       4.819   0.840   0.942  0.00  0.00    +0.073 C 
ATOM     20  C   UNL     1       4.566   0.958  -1.458  0.00  0.00    +0.037 C 
ATOM     21  C   UNL     1       5.262   1.299  -0.298  0.00  0.00    +0.137 C 
BRANCH  17  22
ATOM     22  O   UNL     1       3.262  -0.400   2.244  0.00  0.00    -0.505 OA
ATOM     23  H   UNL     1       2.498  -0.938   2.312  0.00  0.00    +0.292 HD
ENDBRANCH  17  22
BRANCH  21  24
ATOM     24  O   UNL     1       6.374   2.081  -0.377  0.00  0.00    -0.505 OA
ATOM     25  H   UNL     1       6.841   2.310   0.402  0.00  0.00    +0.292 HD
ENDBRANCH  21  24
ENDBRANCH  15  16
ENDBRANCH  13  15
ENDBRANCH   1  13
BRANCH   2  26
ATOM     26  C   UNL     1      -3.530   0.629   1.041  0.00  0.00    +0.058 C 
BRANCH  26  27
ATOM     27  C   UNL     1      -4.370   1.345   0.021  0.00  0.00    -0.030 C 
ATOM     28  C   UNL     1      -4.324   2.646  -0.323  0.00  0.00    -0.048 C 
ATOM     29  C   UNL     1      -5.195   3.302  -1.356  0.00  0.00    +0.026 C 
ATOM     30  C   UNL     1      -3.350   3.578   0.350  0.00  0.00    +0.026 C 
ENDBRANCH  26  27
ENDBRANCH   2  26
TORSDOF 10
