REMARK  Name = 10025647
REMARK  12 active torsions:
REMARK  status: ('A' for Active; 'I' for Inactive)
REMARK    1  A    between atoms: C_4  and  C_20
REMARK    2  A    between atoms: C_7  and  C_10
REMARK    3  A    between atoms: C_8  and  C_24
REMARK    4  A    between atoms: C_10  and  O_11
REMARK    5  A    between atoms: O_11  and  C_12
REMARK    6  A    between atoms: C_12  and  O_13
REMARK    7  A    between atoms: O_13  and  C_15
REMARK    8  A    between atoms: C_15  and  C_16
REMARK    9  A    between atoms: C_20  and  O_22
REMARK   10  A    between atoms: C_24  and  N_25
REMARK   11  A    between atoms: N_25  and  C_28
REMARK   12  A    between atoms: C_28  and  C_31
REMARK                            x       y       z     vdW  Elec       q    Type
REMARK                         _______ _______ _______ _____ _____    ______ ____
ROOT
ATOM      1  S   UNL     1       2.450  -1.963   0.409  0.00  0.00    -0.098 S 
ATOM      2  O   UNL     1       3.075   2.474   0.791  0.00  0.00    -0.274 OA
ATOM      3  N   UNL     1       2.079   0.568  -0.188  0.00  0.00    -0.244 N 
ATOM      4  C   UNL     1       4.139   0.317  -0.084  0.00  0.00    +0.133 C 
ATOM      5  C   UNL     1       2.965  -0.529  -0.606  0.00  0.00    +0.142 C 
ATOM      6  C   UNL     1       3.077   1.393   0.246  0.00  0.00    +0.235 C 
ATOM      7  C   UNL     1       1.001   0.169   0.560  0.00  0.00    +0.131 C 
ATOM      8  C   UNL     1       0.995  -1.123   0.934  0.00  0.00    +0.004 C 
ENDROOT
BRANCH   7  10
ATOM      9  O   UNL     1      -0.627   1.125   1.992  0.00  0.00    -0.243 OA
ATOM     10  C   UNL     1      -0.005   1.163   0.942  0.00  0.00    +0.358 C 
BRANCH  10  11
ATOM     11  O   UNL     1      -0.100   2.085  -0.048  0.00  0.00    -0.404 OA
BRANCH  11  12
ATOM     12  C   UNL     1      -1.047   3.145   0.165  0.00  0.00    +0.433 C 
BRANCH  12  13
ATOM     13  O   UNL     1      -2.393   2.679   0.356  0.00  0.00    -0.408 OA
BRANCH  13  15
ATOM     14  O   UNL     1      -2.404   1.760  -1.754  0.00  0.00    -0.250 OA
ATOM     15  C   UNL     1      -2.956   1.998  -0.686  0.00  0.00    +0.319 C 
BRANCH  15  16
ATOM     16  C   UNL     1      -4.388   1.579  -0.339  0.00  0.00    +0.090 C 
ATOM     17  C   UNL     1      -4.372   0.682   0.909  0.00  0.00    +0.011 C 
ATOM     18  C   UNL     1      -5.232   2.826  -0.045  0.00  0.00    +0.011 C 
ATOM     19  C   UNL     1      -4.985   0.791  -1.513  0.00  0.00    +0.011 C 
ENDBRANCH  15  16
ENDBRANCH  13  15
ENDBRANCH  12  13
ENDBRANCH  11  12
ENDBRANCH  10  11
ENDBRANCH   7  10
BRANCH   4  20
ATOM     20  C   UNL     1       5.228   0.781  -1.025  0.00  0.00    +0.122 C 
ATOM     21  C   UNL     1       6.304   1.560  -0.279  0.00  0.00    +0.032 C 
BRANCH  20  22
ATOM     22  O   UNL     1       5.823  -0.353  -1.654  0.00  0.00    -0.384 OA
ATOM     23  H   UNL     1       5.142  -0.853  -2.131  0.00  0.00    +0.210 HD
ENDBRANCH  20  22
ENDBRANCH   4  20
BRANCH   8  24
ATOM     24  C   UNL     1      -0.007  -1.867   1.752  0.00  0.00    -0.041 C 
BRANCH  24  25
ATOM     25  N   UNL     1      -0.559  -3.008   1.036  0.00  0.00    +0.395 N 
ATOM     26  C   UNL     1      -1.149  -3.969   1.971  0.00  0.00    -0.099 C 
ATOM     27  H   UNL     1       0.203  -3.467   0.537  0.00  0.00    -0.079 HD
BRANCH  25  28
ATOM     28  C   UNL     1      -1.560  -2.572   0.060  0.00  0.00    +0.010 C 
BRANCH  28  31
ATOM     29  O   UNL     1      -0.747  -4.374  -1.325  0.00  0.00    -0.278 OA
ATOM     30  N   UNL     1      -2.928  -3.699  -1.579  0.00  0.00    -0.330 N 
ATOM     31  C   UNL     1      -1.679  -3.641  -1.001  0.00  0.00    +0.198 C 
ATOM     32  H   UNL     1      -3.115  -4.360  -2.283  0.00  0.00    +0.145 HD
ATOM     33  H   UNL     1      -3.634  -3.078  -1.287  0.00  0.00    +0.145 HD
ENDBRANCH  28  31
ENDBRANCH  25  28
ENDBRANCH  24  25
ENDBRANCH   8  24
TORSDOF 12
