REMARK  Name = 10028830
REMARK  14 active torsions:
REMARK  status: ('A' for Active; 'I' for Inactive)
REMARK    1  A    between atoms: N_1  and  C_4
REMARK    2  A    between atoms: N_1  and  C_22
REMARK    3  A    between atoms: C_4  and  C_5
REMARK    4  A    between atoms: C_5  and  O_6
REMARK    5  A    between atoms: C_5  and  C_8
REMARK    6  A    between atoms: C_8  and  O_9
REMARK    7  A    between atoms: O_9  and  C_10
REMARK    8  A    between atoms: C_11  and  C_16
REMARK    9  A    between atoms: C_16  and  N_18
REMARK   10  A    between atoms: C_22  and  C_23
REMARK   11  A    between atoms: C_23  and  C_24
REMARK   12  A    between atoms: C_27  and  N_30
REMARK   13  A    between atoms: N_30  and  S_32
REMARK   14  A    between atoms: S_32  and  C_35
REMARK                            x       y       z     vdW  Elec       q    Type
REMARK                         _______ _______ _______ _____ _____    ______ ____
ROOT
ATOM      1  N   UNL     1       3.344  -2.474  -0.721  0.00  0.00    +0.386 N 
ATOM      2  H   UNL     1       3.248  -2.666  -1.718  0.00  0.00    -0.084 HD
ATOM      3  H   UNL     1       2.794  -1.656  -0.461  0.00  0.00    -0.084 HD
ENDROOT
BRANCH   1   4
ATOM      4  C   UNL     1       4.744  -2.208  -0.419  0.00  0.00    -0.048 C 
BRANCH   4   5
ATOM      5  C   UNL     1       5.299  -1.044  -1.243  0.00  0.00    +0.133 C 
BRANCH   5   6
ATOM      6  O   UNL     1       6.686  -0.896  -0.928  0.00  0.00    -0.383 OA
ATOM      7  H   UNL     1       7.147  -1.732  -1.099  0.00  0.00    +0.210 HD
ENDBRANCH   5   6
BRANCH   5   8
ATOM      8  C   UNL     1       4.591   0.281  -0.969  0.00  0.00    +0.232 C 
BRANCH   8   9
ATOM      9  O   UNL     1       4.305   0.371   0.423  0.00  0.00    -0.473 OA
BRANCH   9  10
ATOM     10  C   UNL     1       3.203   1.101   0.779  0.00  0.00    +0.138 C 
ATOM     11  C   UNL     1       1.669   2.918   0.351  0.00  0.00    +0.000 C 
ATOM     12  C   UNL     1       2.793   2.175  -0.011  0.00  0.00    +0.034 C 
ATOM     13  C   UNL     1       2.488   0.769   1.930  0.00  0.00    +0.037 C 
ATOM     14  C   UNL     1       0.954   2.586   1.502  0.00  0.00    -0.002 C 
ATOM     15  C   UNL     1       1.364   1.512   2.292  0.00  0.00    +0.003 C 
BRANCH  11  16
ATOM     16  C   UNL     1       1.230   4.066  -0.493  0.00  0.00    +0.116 C 
BRANCH  16  18
ATOM     17  O   UNL     1      -1.665   3.972  -0.303  0.00  0.00    -0.275 OA
ATOM     18  N   UNL     1       0.299   3.669  -1.518  0.00  0.00    -0.300 N 
ATOM     19  C   UNL     1      -1.076   3.656  -1.334  0.00  0.00    +0.223 C 
ATOM     20  C   UNL     1      -1.816   3.224  -2.571  0.00  0.00    +0.095 C 
ATOM     21  H   UNL     1       0.656   3.393  -2.393  0.00  0.00    +0.150 HD
ENDBRANCH  16  18
ENDBRANCH  11  16
ENDBRANCH   9  10
ENDBRANCH   8   9
ENDBRANCH   5   8
ENDBRANCH   4   5
ENDBRANCH   1   4
BRANCH   1  22
ATOM     22  C   UNL     1       2.857  -3.621   0.035  0.00  0.00    -0.077 C 
BRANCH  22  23
ATOM     23  C   UNL     1       1.385  -3.895  -0.273  0.00  0.00    +0.003 C 
BRANCH  23  24
ATOM     24  C   UNL     1       0.519  -2.705   0.059  0.00  0.00    -0.024 C 
ATOM     25  C   UNL     1      -0.035  -2.580   1.333  0.00  0.00    -0.003 C 
ATOM     26  C   UNL     1       0.274  -1.730  -0.907  0.00  0.00    -0.003 C 
ATOM     27  C   UNL     1      -1.079  -0.503   0.674  0.00  0.00    +0.065 C 
ATOM     28  C   UNL     1      -0.835  -1.479   1.640  0.00  0.00    +0.016 C 
ATOM     29  C   UNL     1      -0.525  -0.629  -0.600  0.00  0.00    +0.016 C 
BRANCH  27  30
ATOM     30  N   UNL     1      -1.898   0.623   0.989  0.00  0.00    -0.215 N 
ATOM     31  H   UNL     1      -1.536   1.537   0.929  0.00  0.00    +0.174 HD
BRANCH  30  32
ATOM     32  S   UNL     1      -3.528   0.355   1.476  0.00  0.00    +0.074 S 
ATOM     33  O   UNL     1      -3.535  -0.469   2.670  0.00  0.00    -0.150 OA
ATOM     34  O   UNL     1      -4.263   1.606   1.459  0.00  0.00    -0.150 OA
BRANCH  32  35
ATOM     35  C   UNL     1      -4.142  -0.650   0.155  0.00  0.00    +0.125 C 
ATOM     36  C   UNL     1      -4.043  -2.039   0.232  0.00  0.00    +0.020 C 
ATOM     37  C   UNL     1      -4.724  -0.053  -0.963  0.00  0.00    +0.020 C 
ATOM     38  C   UNL     1      -4.525  -2.831  -0.810  0.00  0.00    +0.001 C 
ATOM     39  C   UNL     1      -5.207  -0.845  -2.005  0.00  0.00    +0.001 C 
ATOM     40  C   UNL     1      -5.107  -2.235  -1.928  0.00  0.00    +0.000 C 
ENDBRANCH  32  35
ENDBRANCH  30  32
ENDBRANCH  27  30
ENDBRANCH  23  24
ENDBRANCH  22  23
ENDBRANCH   1  22
TORSDOF 14
