100228
  -OEChem-03292013323D

 46 49  0     1  0  0  0  0  0999 V2000
   -1.8508    0.1756    0.0419 S   0  0  0  0  0  0  0  0  0  0  0  0
    5.2190    0.6928    0.9208 O   0  0  0  0  0  0  0  0  0  0  0  0
    5.9896   -1.9686   -0.6968 O   0  0  0  0  0  0  0  0  0  0  0  0
    7.0809    0.1020   -2.0947 O   0  0  0  0  0  0  0  0  0  0  0  0
    7.0412    2.8001    1.3839 O   0  0  0  0  0  0  0  0  0  0  0  0
   -8.9179    0.9537   -1.4967 O   0  5  0  0  0  0  0  0  0  0  0  0
   -8.9845    1.4715    0.6399 O   0  0  0  0  0  0  0  0  0  0  0  0
    3.0728   -0.0712    0.2533 N   0  0  0  0  0  0  0  0  0  0  0  0
    2.7371    1.1942   -0.0653 N   0  0  0  0  0  0  0  0  0  0  0  0
    2.0169   -2.1959    0.7383 N   0  0  0  0  0  0  0  0  0  0  0  0
   -0.4151   -2.0438    0.6258 N   0  0  0  0  0  0  0  0  0  0  0  0
   -8.3940    0.9926   -0.3577 N   0  3  0  0  0  0  0  0  0  0  0  0
    5.1465   -0.8404   -0.9241 C   0  0  2  0  0  0  0  0  0  0  0  0
    5.9591    0.3882   -1.2874 C   0  0  1  0  0  0  0  0  0  0  0  0
    4.4845   -0.4326    0.3933 C   0  0  1  0  0  0  0  0  0  0  0  0
    6.3577    0.9261    0.0760 C   0  0  1  0  0  0  0  0  0  0  0  0
    6.6966    2.4059    0.0672 C   0  0  0  0  0  0  0  0  0  0  0  0
    1.9951   -0.8919    0.4197 C   0  0  0  0  0  0  0  0  0  0  0  0
    0.8771   -0.1082    0.1940 C   0  0  0  0  0  0  0  0  0  0  0  0
    1.4003    1.1647   -0.1001 C   0  0  0  0  0  0  0  0  0  0  0  0
   -0.3629   -0.7282    0.3066 C   0  0  0  0  0  0  0  0  0  0  0  0
    0.7613   -2.6866    0.8190 C   0  0  0  0  0  0  0  0  0  0  0  0
   -3.1297   -1.0906    0.3102 C   0  0  0  0  0  0  0  0  0  0  0  0
   -4.5184   -0.5407    0.1343 C   0  0  0  0  0  0  0  0  0  0  0  0
   -5.1145   -0.5752   -1.1193 C   0  0  0  0  0  0  0  0  0  0  0  0
   -5.1871   -0.0057    1.2275 C   0  0  0  0  0  0  0  0  0  0  0  0
   -6.4027   -0.0655   -1.2827 C   0  0  0  0  0  0  0  0  0  0  0  0
   -6.4753    0.5038    1.0640 C   0  0  0  0  0  0  0  0  0  0  0  0
   -7.0830    0.4740   -0.1910 C   0  0  0  0  0  0  0  0  0  0  0  0
    4.4425   -1.1185   -1.7150 H   0  0  0  0  0  0  0  0  0  0  0  0
    5.3133    1.1039   -1.8110 H   0  0  0  0  0  0  0  0  0  0  0  0
    4.5324   -1.2283    1.1456 H   0  0  0  0  0  0  0  0  0  0  0  0
    7.2002    0.3630    0.4982 H   0  0  0  0  0  0  0  0  0  0  0  0
    5.8419    3.0127   -0.2491 H   0  0  0  0  0  0  0  0  0  0  0  0
    7.5444    2.6196   -0.5896 H   0  0  0  0  0  0  0  0  0  0  0  0
    5.4178   -2.7088   -0.4304 H   0  0  0  0  0  0  0  0  0  0  0  0
    7.5609    0.9345   -2.2406 H   0  0  0  0  0  0  0  0  0  0  0  0
    0.8709    2.0763   -0.3388 H   0  0  0  0  0  0  0  0  0  0  0  0
    6.2812    2.6033    1.9578 H   0  0  0  0  0  0  0  0  0  0  0  0
    0.6832   -3.7383    1.0730 H   0  0  0  0  0  0  0  0  0  0  0  0
   -3.0245   -1.5056    1.3197 H   0  0  0  0  0  0  0  0  0  0  0  0
   -2.9722   -1.9205   -0.3891 H   0  0  0  0  0  0  0  0  0  0  0  0
   -4.5932   -0.9922   -1.9765 H   0  0  0  0  0  0  0  0  0  0  0  0
   -4.7225    0.0233    2.2093 H   0  0  0  0  0  0  0  0  0  0  0  0
   -6.8441   -0.1054   -2.2753 H   0  0  0  0  0  0  0  0  0  0  0  0
   -6.9745    0.9165    1.9371 H   0  0  0  0  0  0  0  0  0  0  0  0
  1 21  1  0  0  0  0
  1 23  1  0  0  0  0
  2 15  1  0  0  0  0
  2 16  1  0  0  0  0
  3 13  1  0  0  0  0
  3 36  1  0  0  0  0
  4 14  1  0  0  0  0
  4 37  1  0  0  0  0
  5 17  1  0  0  0  0
  5 39  1  0  0  0  0
  6 12  1  0  0  0  0
  7 12  2  0  0  0  0
  8  9  1  0  0  0  0
  8 15  1  0  0  0  0
  8 18  1  0  0  0  0
  9 20  2  0  0  0  0
 10 18  1  0  0  0  0
 10 22  2  0  0  0  0
 11 21  2  0  0  0  0
 11 22  1  0  0  0  0
 12 29  1  0  0  0  0
 13 14  1  0  0  0  0
 13 15  1  0  0  0  0
 13 30  1  0  0  0  0
 14 16  1  0  0  0  0
 14 31  1  0  0  0  0
 15 32  1  0  0  0  0
 16 17  1  0  0  0  0
 16 33  1  0  0  0  0
 17 34  1  0  0  0  0
 17 35  1  0  0  0  0
 18 19  2  0  0  0  0
 19 20  1  0  0  0  0
 19 21  1  0  0  0  0
 20 38  1  0  0  0  0
 22 40  1  0  0  0  0
 23 24  1  0  0  0  0
 23 41  1  0  0  0  0
 23 42  1  0  0  0  0
 24 25  2  0  0  0  0
 24 26  1  0  0  0  0
 25 27  1  0  0  0  0
 25 43  1  0  0  0  0
 26 28  2  0  0  0  0
 26 44  1  0  0  0  0
 27 29  2  0  0  0  0
 27 45  1  0  0  0  0
 28 29  1  0  0  0  0
 28 46  1  0  0  0  0
M  CHG  2   6  -1  12   1
M  END
> <PUBCHEM_COMPOUND_CID>
100228

> <PUBCHEM_CONFORMER_RMSD>
0.8

> <PUBCHEM_CONFORMER_DIVERSEORDER>
1
110
39
97
17
104
96
79
59
102
68
90
136
42
132
27
114
56
52
74
137
109
119
32
121
29
139
25
41
28
83
65
98
2
108
95
106
77
19
86
6
60
101
45
71
16
50
80
140
40
67
11
112
128
55
57
14
58
107
115
9
131
78
134
92
73
12
111
93
126
13
133
123
3
72
62
120
8
23
66
30
51
69
7
82
22
54
10
105
84
53
38
64
88
129
103
91
138
31
135
20
118
46
4
33
100
113
47
85
122
26
44
61
37
35
94
15
127
87
34
49
99
117
63
48
116
125
81
43
24
5
130
21
124
36
70
89
18
75
76

> <PUBCHEM_MMFF94_PARTIAL_CHARGES>
37
1 -0.33
10 -0.57
11 -0.62
12 0.91
13 0.28
14 0.28
15 0.54
16 0.28
17 0.28
18 0.11
2 -0.56
20 0.14
21 0.41
22 0.47
23 0.37
24 -0.14
25 -0.15
26 -0.15
27 -0.15
28 -0.15
29 0.13
3 -0.68
36 0.4
37 0.4
38 0.15
39 0.4
4 -0.68
40 0.15
43 0.15
44 0.15
45 0.15
46 0.15
5 -0.68
6 -0.52
7 -0.52
8 0.31
9 -0.71

> <PUBCHEM_EFFECTIVE_ROTOR_COUNT>
7

> <PUBCHEM_PHARMACOPHORE_FEATURES>
17
1 11 acceptor
1 2 acceptor
1 3 acceptor
1 3 donor
1 4 acceptor
1 4 donor
1 5 acceptor
1 5 donor
1 6 acceptor
1 6 anion
1 7 acceptor
1 9 acceptor
3 10 11 22 cation
5 2 13 14 15 16 rings
5 8 9 18 19 20 rings
6 10 11 18 19 21 22 rings
6 24 25 26 27 28 29 rings

> <PUBCHEM_HEAVY_ATOM_COUNT>
29

> <PUBCHEM_ATOM_DEF_STEREO_COUNT>
4

> <PUBCHEM_ATOM_UDEF_STEREO_COUNT>
0

> <PUBCHEM_BOND_DEF_STEREO_COUNT>
0

> <PUBCHEM_BOND_UDEF_STEREO_COUNT>
0

> <PUBCHEM_ISOTOPIC_ATOM_COUNT>
0

> <PUBCHEM_COMPONENT_COUNT>
1

> <PUBCHEM_CACTVS_TAUTO_COUNT>
1

> <PUBCHEM_CONFORMER_ID>
0001878400000001

> <PUBCHEM_MMFF94_ENERGY>
73.209

> <PUBCHEM_FEATURE_SELFOVERLAP>
86.493

> <PUBCHEM_SHAPE_FINGERPRINT>
10 15 16732706043559027635
10319688 140 18195810669677068790
10411042 1 17830729851783800866
10670039 82 16558755569024951859
10816530 90 18041286577716022452
10835480 77 18200594817157875520
11135609 127 17561074861531554992
11181472 205 17774168873310735801
11315181 36 17704074019566523377
12236239 1 17989205945374574691
12838862 33 18335123315853583665
13668630 136 11312055452996737765
13782708 43 13470683754718404015
14251764 18 12685098085988562531
15183329 4 17203614769879650199
15461852 350 16702018700077412317
15706992 2 14346091836654205214
1577012 14 18412256234544273663
1754908 1 13479138995300502933
1818759 1 11240000092379078093
18335252 114 18341609309175894149
2026 5 12031797941834879701
21267235 1 9871754606474276291
21521721 280 18409448107078154416
21792934 111 18334003979104987208
22224240 67 17967811665406745171
22956985 138 12317529085529301860
23576562 1 18057596758850559109
24771293 8 18190173676094213748
3633792 109 18272656761923879744
4073 2 17676212364569813027
4340502 62 15357691998945299674
5758199 1 18335138700500005275
58260988 393 14418124098183769582
59682541 35 17676211290943454841
59682541 52 17632302250806426518
59755656 215 18334859385448973015
68570916 9 14418429848167768059

> <PUBCHEM_SHAPE_MULTIPOLES>
540.53
27.06
2.09
1.25
29.42
0.25
-0.33
-15.85
-5.49
-3.21
0.61
-0.18
-0.13
1.08

> <PUBCHEM_SHAPE_SELFOVERLAP>
1163.066

> <PUBCHEM_SHAPE_VOLUME>
300.5

> <PUBCHEM_COORDINATE_TYPE>
2
5
10

$$$$
