100253
  -OEChem-03292013323D

 31 33  0     1  0  0  0  0  0999 V2000
    2.0842   -2.4755    0.0597 F   0  0  0  0  0  0  0  0  0  0  0  0
    1.9046    0.4616    0.9760 O   0  0  0  0  0  0  0  0  0  0  0  0
    3.7503   -1.2358   -1.5956 O   0  0  0  0  0  0  0  0  0  0  0  0
    4.2364    2.0300    1.3185 O   0  0  0  0  0  0  0  0  0  0  0  0
   -0.3006    0.1641    0.1433 N   0  0  0  0  0  0  0  0  0  0  0  0
   -1.6206    1.7381   -0.7257 N   0  0  0  0  0  0  0  0  0  0  0  0
   -1.9792   -1.4501    0.8351 N   0  0  0  0  0  0  0  0  0  0  0  0
   -4.2304   -0.6738    0.3003 N   0  0  0  0  0  0  0  0  0  0  0  0
   -4.6446    1.4247   -0.7726 N   0  0  0  0  0  0  0  0  0  0  0  0
    0.9256   -0.5143    0.5611 C   0  0  1  0  0  0  0  0  0  0  0  0
    2.7030   -0.4899   -1.0145 C   0  0  1  0  0  0  0  0  0  0  0  0
    1.5662   -1.3602   -0.5316 C   0  0  1  0  0  0  0  0  0  0  0  0
    3.1300    0.1880    0.2747 C   0  0  1  0  0  0  0  0  0  0  0  0
    3.8983    1.4786    0.0563 C   0  0  0  0  0  0  0  0  0  0  0  0
   -1.5806   -0.2928    0.2859 C   0  0  0  0  0  0  0  0  0  0  0  0
   -0.3776    1.3878   -0.4689 C   0  0  0  0  0  0  0  0  0  0  0  0
   -2.3830    0.6968   -0.2592 C   0  0  0  0  0  0  0  0  0  0  0  0
   -3.7563    0.4747   -0.2398 C   0  0  0  0  0  0  0  0  0  0  0  0
   -3.3256   -1.5520    0.7969 C   0  0  0  0  0  0  0  0  0  0  0  0
    0.6742   -1.1196    1.4391 H   0  0  0  0  0  0  0  0  0  0  0  0
    2.3344    0.2420   -1.7422 H   0  0  0  0  0  0  0  0  0  0  0  0
    0.8916   -1.6938   -1.3246 H   0  0  0  0  0  0  0  0  0  0  0  0
    3.7247   -0.4841    0.9072 H   0  0  0  0  0  0  0  0  0  0  0  0
    3.2849    2.2148   -0.4735 H   0  0  0  0  0  0  0  0  0  0  0  0
    4.8183    1.2992   -0.5083 H   0  0  0  0  0  0  0  0  0  0  0  0
    0.4967    1.9778   -0.7081 H   0  0  0  0  0  0  0  0  0  0  0  0
    4.0284   -1.9138   -0.9563 H   0  0  0  0  0  0  0  0  0  0  0  0
    4.7251    2.8534    1.1494 H   0  0  0  0  0  0  0  0  0  0  0  0
   -3.7402   -2.4601    1.2212 H   0  0  0  0  0  0  0  0  0  0  0  0
   -4.2933    2.2821   -1.1771 H   0  0  0  0  0  0  0  0  0  0  0  0
   -5.6382    1.2400   -0.7476 H   0  0  0  0  0  0  0  0  0  0  0  0
  1 12  1  0  0  0  0
  2 10  1  0  0  0  0
  2 13  1  0  0  0  0
  3 11  1  0  0  0  0
  3 27  1  0  0  0  0
  4 14  1  0  0  0  0
  4 28  1  0  0  0  0
  5 10  1  0  0  0  0
  5 15  1  0  0  0  0
  5 16  1  0  0  0  0
  6 16  2  0  0  0  0
  6 17  1  0  0  0  0
  7 15  2  0  0  0  0
  7 19  1  0  0  0  0
  8 18  1  0  0  0  0
  8 19  2  0  0  0  0
  9 18  1  0  0  0  0
  9 30  1  0  0  0  0
  9 31  1  0  0  0  0
 10 12  1  0  0  0  0
 10 20  1  0  0  0  0
 11 12  1  0  0  0  0
 11 13  1  0  0  0  0
 11 21  1  0  0  0  0
 12 22  1  0  0  0  0
 13 14  1  0  0  0  0
 13 23  1  0  0  0  0
 14 24  1  0  0  0  0
 14 25  1  0  0  0  0
 15 17  1  0  0  0  0
 16 26  1  0  0  0  0
 17 18  2  0  0  0  0
 19 29  1  0  0  0  0
M  END
> <PUBCHEM_COMPOUND_CID>
100253

> <PUBCHEM_CONFORMER_RMSD>
0.6

> <PUBCHEM_CONFORMER_DIVERSEORDER>
1
15
10
11
6
8
7
3
4
14
2
13
12
5
9

> <PUBCHEM_MMFF94_PARTIAL_CHARGES>
25
1 -0.34
10 0.54
11 0.28
12 0.34
13 0.28
14 0.28
15 0.11
16 0.04
17 0.23
18 0.41
19 0.47
2 -0.56
26 0.15
27 0.4
28 0.4
29 0.15
3 -0.68
30 0.4
31 0.4
4 -0.68
5 0.05
6 -0.57
7 -0.57
8 -0.62
9 -0.9

> <PUBCHEM_EFFECTIVE_ROTOR_COUNT>
3

> <PUBCHEM_PHARMACOPHORE_FEATURES>
13
1 2 acceptor
1 3 acceptor
1 3 donor
1 4 acceptor
1 4 donor
1 9 cation
1 9 donor
3 5 6 16 cation
3 5 7 15 cation
3 7 8 19 cation
5 2 10 11 12 13 rings
5 5 6 15 16 17 rings
6 7 8 15 17 18 19 rings

> <PUBCHEM_HEAVY_ATOM_COUNT>
19

> <PUBCHEM_ATOM_DEF_STEREO_COUNT>
4

> <PUBCHEM_ATOM_UDEF_STEREO_COUNT>
0

> <PUBCHEM_BOND_DEF_STEREO_COUNT>
0

> <PUBCHEM_BOND_UDEF_STEREO_COUNT>
0

> <PUBCHEM_ISOTOPIC_ATOM_COUNT>
0

> <PUBCHEM_COMPONENT_COUNT>
1

> <PUBCHEM_CACTVS_TAUTO_COUNT>
3

> <PUBCHEM_CONFORMER_ID>
0001879D00000001

> <PUBCHEM_MMFF94_ENERGY>
40.7339

> <PUBCHEM_FEATURE_SELFOVERLAP>
66.58

> <PUBCHEM_SHAPE_FINGERPRINT>
10498660 4 18259705579662789397
10608611 8 18409727331144121380
107287 299 18131632300738198842
10871710 139 16174823000306752788
11132069 177 18259984898507901349
12173636 292 17969496018620730389
12236239 1 16298386868459375568
13214271 11 18336258050323200037
13296908 3 18411985754034682519
13544592 145 18339085873875946639
14289901 80 17703788119755470553
14866123 147 8282324804039823908
15219456 202 18412827992583614306
15375358 24 18335977636192855473
15536298 74 18411704287457989500
16945 1 18186807954546408861
17980427 23 17531525511513321756
18175812 5 18412548703787566054
18186145 218 18338243669285443073
19422 9 16128666223225256550
19784866 170 18335983155120446280
200 152 17489585619676765807
20279233 1 18409449180593274339
20510252 161 18409728418398835401
20645477 56 18114463366841848821
20645477 70 17917711266634820622
20871999 31 18040726865814091631
21079973 296 18261114118487585587
23402539 116 18041271140880204326
23557571 272 18334302006178716000
23559900 14 18261958457782291214
296302 2 18341328972186019329
34934 24 18333722525212514571
449060 50 18201721803148163921
495365 180 18058712620774921139
5104073 3 18335139769772698457
633830 44 17988646233968698613
7364860 26 18265045843573330882
77492 1 15195570099765916987
81228 2 17968387736337718289
9709674 26 18408606972019416719

> <PUBCHEM_SHAPE_MULTIPOLES>
341.22
8.55
2
1.05
1.24
0.18
-0.07
-1.79
-0.09
-0.55
0.03
-0.74
0.01
1.81

> <PUBCHEM_SHAPE_SELFOVERLAP>
745.104

> <PUBCHEM_SHAPE_VOLUME>
188.6

> <PUBCHEM_COORDINATE_TYPE>
2
5
10

$$$$
