10022766
  -OEChem-03292013303D

 49 51  0     1  0  0  0  0  0999 V2000
    1.7223    0.2782    0.4315 O   0  0  0  0  0  0  0  0  0  0  0  0
    1.0782   -1.3958   -1.0607 O   0  0  0  0  0  0  0  0  0  0  0  0
    5.4691    0.5025   -1.2352 O   0  0  0  0  0  0  0  0  0  0  0  0
    4.9895    1.6334    1.3814 O   0  0  0  0  0  0  0  0  0  0  0  0
    3.8022   -1.8920   -1.6455 O   0  0  0  0  0  0  0  0  0  0  0  0
    0.9876    1.5515    2.7543 O   0  0  0  0  0  0  0  0  0  0  0  0
   -2.6603    1.5353   -1.1454 O   0  0  0  0  0  0  0  0  0  0  0  0
   -2.8206   -2.5738    1.4084 O   0  0  0  0  0  0  0  0  0  0  0  0
   -4.8401   -0.8906    1.2972 O   0  0  0  0  0  0  0  0  0  0  0  0
    4.4793    0.0135   -0.3288 C   0  0  1  0  0  0  0  0  0  0  0  0
    3.9649    1.1959    0.4926 C   0  0  1  0  0  0  0  0  0  0  0  0
    3.3480   -0.6459   -1.1178 C   0  0  2  0  0  0  0  0  0  0  0  0
    2.7287    0.7979    1.3023 C   0  0  1  0  0  0  0  0  0  0  0  0
    2.1342   -0.9164   -0.2288 C   0  0  1  0  0  0  0  0  0  0  0  0
    2.1280    1.9909    2.0391 C   0  0  0  0  0  0  0  0  0  0  0  0
   -0.1970   -1.1037   -0.6610 C   0  0  0  0  0  0  0  0  0  0  0  0
   -0.8079    0.0712   -1.0952 C   0  0  0  0  0  0  0  0  0  0  0  0
   -0.8790   -1.9846    0.1770 C   0  0  0  0  0  0  0  0  0  0  0  0
   -2.1094    0.3650   -0.6874 C   0  0  0  0  0  0  0  0  0  0  0  0
   -2.7920   -0.5157    0.1508 C   0  0  0  0  0  0  0  0  0  0  0  0
   -2.1807   -1.6936    0.5867 C   0  0  0  0  0  0  0  0  0  0  0  0
   -0.0686    1.0091   -1.9957 C   0  0  0  0  0  0  0  0  0  0  0  0
   -0.2124   -3.2422    0.6382 C   0  0  0  0  0  0  0  0  0  0  0  0
   -4.1631   -0.1811    0.5661 C   0  0  0  0  0  0  0  0  0  0  0  0
   -3.9515    1.8524   -0.7551 C   0  0  0  0  0  0  0  0  0  0  0  0
   -4.7078    1.0880    0.0463 C   0  0  0  0  0  0  0  0  0  0  0  0
   -4.4418    3.1504   -1.3151 C   0  0  0  0  0  0  0  0  0  0  0  0
    4.9820   -0.7214    0.3119 H   0  0  0  0  0  0  0  0  0  0  0  0
    3.7332    2.0323   -0.1783 H   0  0  0  0  0  0  0  0  0  0  0  0
    3.0721   -0.0216   -1.9754 H   0  0  0  0  0  0  0  0  0  0  0  0
    2.9755    0.0286    2.0467 H   0  0  0  0  0  0  0  0  0  0  0  0
    2.3514   -1.6958    0.5127 H   0  0  0  0  0  0  0  0  0  0  0  0
    1.8043    2.7706    1.3416 H   0  0  0  0  0  0  0  0  0  0  0  0
    2.8352    2.4255    2.7512 H   0  0  0  0  0  0  0  0  0  0  0  0
    6.1653    0.9267   -0.7048 H   0  0  0  0  0  0  0  0  0  0  0  0
    5.1963    0.9000    1.9855 H   0  0  0  0  0  0  0  0  0  0  0  0
    4.0526   -2.4622   -0.8987 H   0  0  0  0  0  0  0  0  0  0  0  0
    0.3687    1.1640    2.1117 H   0  0  0  0  0  0  0  0  0  0  0  0
   -0.7392    1.4566   -2.7377 H   0  0  0  0  0  0  0  0  0  0  0  0
    0.3906    1.8130   -1.4121 H   0  0  0  0  0  0  0  0  0  0  0  0
    0.7114    0.5046   -2.5739 H   0  0  0  0  0  0  0  0  0  0  0  0
   -0.9334   -4.0533    0.7847 H   0  0  0  0  0  0  0  0  0  0  0  0
    0.5086   -3.6156   -0.0966 H   0  0  0  0  0  0  0  0  0  0  0  0
    0.3099   -3.0635    1.5834 H   0  0  0  0  0  0  0  0  0  0  0  0
   -5.7154    1.3655    0.3332 H   0  0  0  0  0  0  0  0  0  0  0  0
   -3.7125   -2.2593    1.6209 H   0  0  0  0  0  0  0  0  0  0  0  0
   -5.4627    3.3808   -0.9935 H   0  0  0  0  0  0  0  0  0  0  0  0
   -4.4334    3.1165   -2.4093 H   0  0  0  0  0  0  0  0  0  0  0  0
   -3.7936    3.9706   -0.9900 H   0  0  0  0  0  0  0  0  0  0  0  0
  1 13  1  0  0  0  0
  1 14  1  0  0  0  0
  2 14  1  0  0  0  0
  2 16  1  0  0  0  0
  3 10  1  0  0  0  0
  3 35  1  0  0  0  0
  4 11  1  0  0  0  0
  4 36  1  0  0  0  0
  5 12  1  0  0  0  0
  5 37  1  0  0  0  0
  6 15  1  0  0  0  0
  6 38  1  0  0  0  0
  7 19  1  0  0  0  0
  7 25  1  0  0  0  0
  8 21  1  0  0  0  0
  8 46  1  0  0  0  0
  9 24  2  0  0  0  0
 10 11  1  0  0  0  0
 10 12  1  0  0  0  0
 10 28  1  0  0  0  0
 11 13  1  0  0  0  0
 11 29  1  0  0  0  0
 12 14  1  0  0  0  0
 12 30  1  0  0  0  0
 13 15  1  0  0  0  0
 13 31  1  0  0  0  0
 14 32  1  0  0  0  0
 15 33  1  0  0  0  0
 15 34  1  0  0  0  0
 16 17  2  0  0  0  0
 16 18  1  0  0  0  0
 17 19  1  0  0  0  0
 17 22  1  0  0  0  0
 18 21  2  0  0  0  0
 18 23  1  0  0  0  0
 19 20  2  0  0  0  0
 20 21  1  0  0  0  0
 20 24  1  0  0  0  0
 22 39  1  0  0  0  0
 22 40  1  0  0  0  0
 22 41  1  0  0  0  0
 23 42  1  0  0  0  0
 23 43  1  0  0  0  0
 23 44  1  0  0  0  0
 24 26  1  0  0  0  0
 25 26  2  0  0  0  0
 25 27  1  0  0  0  0
 26 45  1  0  0  0  0
 27 47  1  0  0  0  0
 27 48  1  0  0  0  0
 27 49  1  0  0  0  0
M  END
> <PUBCHEM_COMPOUND_CID>
10022766

> <PUBCHEM_CONFORMER_RMSD>
0.8

> <PUBCHEM_CONFORMER_DIVERSEORDER>
2
5
24
25
7
4
9
26
22
13
17
16
10
14
23
3
11
18
1
6
8
21
19
15
12
20

> <PUBCHEM_MMFF94_PARTIAL_CHARGES>
33
1 -0.56
10 0.28
11 0.28
12 0.28
13 0.28
14 0.56
15 0.28
16 0.08
17 -0.14
18 -0.14
19 0.08
2 -0.36
20 0.09
21 0.08
22 0.14
23 0.14
24 0.47
25 -0.06
26 -0.14
27 0.14
3 -0.68
35 0.4
36 0.4
37 0.4
38 0.4
4 -0.68
45 0.15
46 0.45
5 -0.68
6 -0.68
7 -0.16
8 -0.53
9 -0.57

> <PUBCHEM_EFFECTIVE_ROTOR_COUNT>
4.2

> <PUBCHEM_PHARMACOPHORE_FEATURES>
16
1 1 acceptor
1 2 acceptor
1 3 acceptor
1 3 donor
1 4 acceptor
1 4 donor
1 5 acceptor
1 5 donor
1 6 acceptor
1 6 donor
1 7 acceptor
1 8 donor
1 9 acceptor
6 1 10 11 12 13 14 rings
6 16 17 18 19 20 21 rings
6 7 19 20 24 25 26 rings

> <PUBCHEM_HEAVY_ATOM_COUNT>
27

> <PUBCHEM_ATOM_DEF_STEREO_COUNT>
5

> <PUBCHEM_ATOM_UDEF_STEREO_COUNT>
0

> <PUBCHEM_BOND_DEF_STEREO_COUNT>
0

> <PUBCHEM_BOND_UDEF_STEREO_COUNT>
0

> <PUBCHEM_ISOTOPIC_ATOM_COUNT>
0

> <PUBCHEM_COMPONENT_COUNT>
1

> <PUBCHEM_CACTVS_TAUTO_COUNT>
14

> <PUBCHEM_CONFORMER_ID>
0098EF6E00000002

> <PUBCHEM_MMFF94_ENERGY>
89.7379

> <PUBCHEM_FEATURE_SELFOVERLAP>
81.292

> <PUBCHEM_SHAPE_FINGERPRINT>
10165383 225 18409175389191619919
10319926 262 18260259729697817130
10366900 7 18341326768957486727
11595378 159 17022897922131286117
12166972 35 14476953497702693184
12236239 1 16226048911751797454
12403259 415 18411705348747363261
12596602 18 16443350917966282673
12633257 1 18266442369163285882
12788726 201 17098361962116741723
13134695 92 17346883325754854512
13140716 1 17752506492815376579
13402501 40 18343018904309769129
13583140 156 17845937432628404879
13726171 33 18260841405482620404
13782708 43 18412550907159348406
14178342 30 18040435520749626131
14251757 17 18342743987768783426
14341114 328 16370727015189415808
14848178 96 18047462327954026389
20511986 3 15936677238325183885
21033648 144 17275092972771448796
21033648 29 18411976957963012817
21792961 116 18271259248791653494
22122407 14 17131288895526395625
221357 26 17774720861864357389
23175994 123 17845670182894335278
23559900 14 18043537105243195126
23598288 3 16154805995489376700
3524813 1 18412825789260110195
474 4 15985117300922985551
495365 180 17846206744568891230
508706 21 18339072800106260735
5104073 3 17969510295065499163
5265222 85 18117296920604005982
57724786 102 17632023055940775344
633830 44 18270952432663890613
6442390 28 18335138695788715630
7808743 9 18187367640229921900
84936 182 17978503131907501201

> <PUBCHEM_SHAPE_MULTIPOLES>
502.82
10.3
2.9
1.86
2.27
0.67
-0.6
-5.04
0.18
-2.12
-0.37
1.13
-0.76
2.96

> <PUBCHEM_SHAPE_SELFOVERLAP>
1085.302

> <PUBCHEM_SHAPE_VOLUME>
274.3

> <PUBCHEM_COORDINATE_TYPE>
2
5
10

$$$$
