REMARK  Name = 10023017
REMARK  10 active torsions:
REMARK  status: ('A' for Active; 'I' for Inactive)
REMARK    1  A    between atoms: C_5  and  O_20
REMARK    2  A    between atoms: C_6  and  C_12
REMARK    3  A    between atoms: C_17  and  O_18
REMARK    4  A    between atoms: O_20  and  C_21
REMARK    5  A    between atoms: C_21  and  C_23
REMARK    6  A    between atoms: C_21  and  C_26
REMARK    7  A    between atoms: C_23  and  O_24
REMARK    8  A    between atoms: C_26  and  O_27
REMARK    9  A    between atoms: C_26  and  C_30
REMARK   10  A    between atoms: C_30  and  O_31
REMARK                            x       y       z     vdW  Elec       q    Type
REMARK                         _______ _______ _______ _____ _____    ______ ____
ROOT
ATOM      1  O   UNL     1      -0.876   1.367   1.079  0.00  0.00    -0.450 OA
ATOM      2  O   UNL     1      -2.419  -1.997  -0.639  0.00  0.00    -0.286 OA
ATOM      3  C   UNL     1      -0.515  -0.820   0.089  0.00  0.00    +0.074 C 
ATOM      4  C   UNL     1      -0.045   0.348   0.690  0.00  0.00    +0.151 C 
ATOM      5  C   UNL     1       2.215  -0.488   0.545  0.00  0.00    +0.142 C 
ATOM      6  C   UNL     1      -2.827   0.162   0.279  0.00  0.00    +0.077 C 
ATOM      7  C   UNL     1      -1.963  -0.976  -0.141  0.00  0.00    +0.202 C 
ATOM      8  C   UNL     1       1.321   0.515   0.919  0.00  0.00    +0.074 C 
ATOM      9  C   UNL     1       0.379  -1.826  -0.286  0.00  0.00    +0.009 C 
ATOM     10  C   UNL     1       1.744  -1.656  -0.056  0.00  0.00    +0.037 C 
ATOM     11  C   UNL     1      -2.221   1.218   0.842  0.00  0.00    +0.183 C 
ENDROOT
BRANCH   6  12
ATOM     12  C   UNL     1      -4.284   0.151   0.071  0.00  0.00    +0.006 C 
ATOM     13  C   UNL     1      -4.827   0.641  -1.119  0.00  0.00    +0.003 C 
ATOM     14  C   UNL     1      -5.130  -0.348   1.065  0.00  0.00    +0.003 C 
ATOM     15  C   UNL     1      -6.208   0.631  -1.314  0.00  0.00    +0.037 C 
ATOM     16  C   UNL     1      -6.511  -0.358   0.869  0.00  0.00    +0.037 C 
ATOM     17  C   UNL     1      -7.050   0.132  -0.321  0.00  0.00    +0.134 C 
BRANCH  17  18
ATOM     18  O   UNL     1      -8.397   0.121  -0.513  0.00  0.00    -0.506 OA
ATOM     19  H   UNL     1      -8.759   0.450  -1.312  0.00  0.00    +0.292 HD
ENDBRANCH  17  18
ENDBRANCH   6  12
BRANCH   5  20
ATOM     20  O   UNL     1       3.548  -0.328   0.767  0.00  0.00    -0.465 OA
BRANCH  20  21
ATOM     21  C   UNL     1       4.404  -0.355  -0.374  0.00  0.00    +0.301 C 
BRANCH  21  23
ATOM     22  O   UNL     1       5.359  -2.300   0.737  0.00  0.00    -0.246 OA
ATOM     23  C   UNL     1       5.327  -1.554  -0.233  0.00  0.00    +0.358 C 
BRANCH  23  24
ATOM     24  O   UNL     1       6.147  -1.700  -1.305  0.00  0.00    -0.478 OA
ATOM     25  H   UNL     1       6.086  -1.105  -2.026  0.00  0.00    +0.295 HD
ENDBRANCH  23  24
ENDBRANCH  21  23
BRANCH  21  26
ATOM     26  C   UNL     1       5.140   0.983  -0.454  0.00  0.00    +0.261 C 
BRANCH  26  27
ATOM     27  O   UNL     1       6.008   1.098   0.660  0.00  0.00    -0.371 OA
ATOM     28  H   UNL     1       6.604   0.333   0.685  0.00  0.00    +0.211 HD
ENDBRANCH  26  27
BRANCH  26  30
ATOM     29  O   UNL     1       4.139   3.057   0.297  0.00  0.00    -0.247 OA
ATOM     30  C   UNL     1       4.184   2.163  -0.539  0.00  0.00    +0.345 C 
BRANCH  30  31
ATOM     31  O   UNL     1       3.360   2.117  -1.614  0.00  0.00    -0.478 OA
ATOM     32  H   UNL     1       3.430   1.413  -2.228  0.00  0.00    +0.295 HD
ENDBRANCH  30  31
ENDBRANCH  26  30
ENDBRANCH  21  26
ENDBRANCH  20  21
ENDBRANCH   5  20
TORSDOF 10
