REMARK  Name = 10027816
REMARK  9 active torsions:
REMARK  status: ('A' for Active; 'I' for Inactive)
REMARK    1  A    between atoms: N_2  and  C_20
REMARK    2  A    between atoms: C_3  and  C_8
REMARK    3  A    between atoms: C_5  and  N_14
REMARK    4  A    between atoms: N_14  and  S_16
REMARK    5  A    between atoms: C_20  and  C_23
REMARK    6  A    between atoms: N_22  and  C_25
REMARK    7  A    between atoms: C_25  and  C_26
REMARK    8  A    between atoms: C_25  and  C_30
REMARK    9  A    between atoms: C_30  and  C_34
REMARK                            x       y       z     vdW  Elec       q    Type
REMARK                         _______ _______ _______ _____ _____    ______ ____
ROOT
ATOM      1  O   UNL     1       3.029  -1.187   1.361  0.00  0.00    -0.268 OA
ATOM      2  N   UNL     1       1.587   0.586   0.823  0.00  0.00    -0.245 N 
ATOM      3  C   UNL     1       1.460   1.814   0.129  0.00  0.00    +0.055 C 
ATOM      4  C   UNL     1       2.826  -0.116   0.790  0.00  0.00    +0.268 C 
ATOM      5  C   UNL     1       3.917   0.520   0.006  0.00  0.00    +0.118 C 
ATOM      6  C   UNL     1       2.478   2.349  -0.569  0.00  0.00    +0.016 C 
ATOM      7  C   UNL     1       3.751   1.680  -0.633  0.00  0.00    +0.022 C 
ENDROOT
BRANCH   3   8
ATOM      8  C   UNL     1       0.198   2.540   0.155  0.00  0.00    +0.014 C 
ATOM      9  C   UNL     1      -0.769   2.292  -0.819  0.00  0.00    +0.001 C 
ATOM     10  C   UNL     1      -0.044   3.483   1.154  0.00  0.00    +0.001 C 
ATOM     11  C   UNL     1      -1.978   2.988  -0.795  0.00  0.00    +0.000 C 
ATOM     12  C   UNL     1      -1.252   4.179   1.178  0.00  0.00    +0.000 C 
ATOM     13  C   UNL     1      -2.220   3.931   0.204  0.00  0.00    +0.000 C 
ENDBRANCH   3   8
BRANCH   5  14
ATOM     14  N   UNL     1       5.177  -0.098  -0.081  0.00  0.00    -0.214 N 
ATOM     15  H   UNL     1       5.993   0.320   0.276  0.00  0.00    +0.174 HD
BRANCH  14  16
ATOM     16  S   UNL     1       5.193  -1.620  -0.848  0.00  0.00    +0.056 S 
ATOM     17  O   UNL     1       6.113  -1.584  -1.969  0.00  0.00    -0.154 OA
ATOM     18  O   UNL     1       3.835  -2.103  -1.008  0.00  0.00    -0.154 OA
ATOM     19  C   UNL     1       5.948  -2.590   0.433  0.00  0.00    +0.200 C 
ENDBRANCH  14  16
ENDBRANCH   5  14
BRANCH   2  20
ATOM     20  C   UNL     1       0.480   0.046   1.556  0.00  0.00    +0.183 C 
BRANCH  20  23
ATOM     21  O   UNL     1       0.131  -1.436  -0.320  0.00  0.00    -0.273 OA
ATOM     22  N   UNL     1      -1.679  -0.869   1.026  0.00  0.00    -0.298 N 
ATOM     23  C   UNL     1      -0.341  -0.847   0.650  0.00  0.00    +0.243 C 
ATOM     24  H   UNL     1      -1.948  -0.359   1.824  0.00  0.00    +0.150 HD
BRANCH  22  25
ATOM     25  C   UNL     1      -2.692  -1.600   0.309  0.00  0.00    +0.138 C 
BRANCH  25  26
ATOM     26  C   UNL     1      -3.410  -2.659   1.166  0.00  0.00    +0.025 C 
ATOM     27  C   UNL     1      -2.465  -3.715   1.749  0.00  0.00    +0.002 C 
ATOM     28  C   UNL     1      -4.208  -2.000   2.295  0.00  0.00    +0.002 C 
ENDBRANCH  25  26
BRANCH  25  30
ATOM     29  O   UNL     1      -3.953   0.466   0.296  0.00  0.00    -0.286 OA
ATOM     30  C   UNL     1      -3.659  -0.581  -0.283  0.00  0.00    +0.262 C 
BRANCH  30  34
ATOM     31  F   UNL     1      -3.756  -2.067  -2.132  0.00  0.00    -0.163 F 
ATOM     32  F   UNL     1      -3.900   0.066  -2.551  0.00  0.00    -0.163 F 
ATOM     33  F   UNL     1      -5.574  -0.980  -1.626  0.00  0.00    -0.163 F 
ATOM     34  C   UNL     1      -4.221  -0.889  -1.643  0.00  0.00    +0.453 C 
ENDBRANCH  30  34
ENDBRANCH  25  30
ENDBRANCH  22  25
ENDBRANCH  20  23
ENDBRANCH   2  20
TORSDOF 9
