10023860
  -OEChem-03292013303D

 52 53  0     1  0  0  0  0  0999 V2000
    7.7091    1.7041   -0.0686 S   0  0  0  0  0  0  0  0  0  0  0  0
   -1.9158   -0.3966   -1.1365 O   0  0  0  0  0  0  0  0  0  0  0  0
   -5.2966    0.8358   -0.3363 O   0  0  0  0  0  0  0  0  0  0  0  0
   -4.9475   -1.2735    1.5545 O   0  0  0  0  0  0  0  0  0  0  0  0
   -0.9831    0.3379    0.9182 O   0  0  0  0  0  0  0  0  0  0  0  0
   -2.9032   -2.6830    0.2977 O   0  0  0  0  0  0  0  0  0  0  0  0
   -6.8629   -0.8619   -0.3696 O   0  0  0  0  0  0  0  0  0  0  0  0
    7.2700   -0.7878   -0.4604 O   0  0  0  0  0  0  0  0  0  0  0  0
    5.2871    0.4208   -0.0190 N   0  0  0  0  0  0  0  0  0  0  0  0
   -4.2447   -0.1205   -0.4414 C   0  0  2  0  0  0  0  0  0  0  0  0
   -3.8589   -0.5610    0.9713 C   0  0  2  0  0  0  0  0  0  0  0  0
   -2.6109   -1.4450    0.9474 C   0  0  2  0  0  0  0  0  0  0  0  0
   -3.0321    0.4989   -1.1503 C   0  0  2  0  0  0  0  0  0  0  0  0
   -1.4791   -0.7700    0.1748 C   0  0  1  0  0  0  0  0  0  0  0  0
   -3.3275    0.8205   -2.6127 C   0  0  0  0  0  0  0  0  0  0  0  0
    0.3439    0.6397    0.7633 C   0  0  0  0  0  0  0  0  0  0  0  0
   -6.5622    0.3227   -0.3110 C   0  0  0  0  0  0  0  0  0  0  0  0
    1.1982    0.6137    1.8656 C   0  0  0  0  0  0  0  0  0  0  0  0
    0.8408    0.9735   -0.4966 C   0  0  0  0  0  0  0  0  0  0  0  0
   -7.5583    1.4368   -0.1981 C   0  0  0  0  0  0  0  0  0  0  0  0
    3.0465    1.2552    0.4481 C   0  0  0  0  0  0  0  0  0  0  0  0
    2.5495    0.9214    1.7079 C   0  0  0  0  0  0  0  0  0  0  0  0
    2.1921    1.2813   -0.6541 C   0  0  0  0  0  0  0  0  0  0  0  0
    4.4910    1.5844    0.2789 C   0  0  0  0  0  0  0  0  0  0  0  0
    6.6656    0.4028   -0.1796 C   0  0  0  0  0  0  0  0  0  0  0  0
    6.5183   -2.0076   -0.5915 C   0  0  0  0  0  0  0  0  0  0  0  0
    7.4705   -3.1427   -0.9021 C   0  0  0  0  0  0  0  0  0  0  0  0
   -4.5762   -0.9940   -1.0200 H   0  0  0  0  0  0  0  0  0  0  0  0
   -3.6862    0.3240    1.5964 H   0  0  0  0  0  0  0  0  0  0  0  0
   -2.3093   -1.6757    1.9756 H   0  0  0  0  0  0  0  0  0  0  0  0
   -2.7464    1.4383   -0.6595 H   0  0  0  0  0  0  0  0  0  0  0  0
   -0.6768   -1.5064    0.0301 H   0  0  0  0  0  0  0  0  0  0  0  0
   -3.5850   -0.0880   -3.1683 H   0  0  0  0  0  0  0  0  0  0  0  0
   -4.1497    1.5358   -2.7090 H   0  0  0  0  0  0  0  0  0  0  0  0
   -2.4401    1.2436   -3.0960 H   0  0  0  0  0  0  0  0  0  0  0  0
   -4.6740   -1.5450    2.4473 H   0  0  0  0  0  0  0  0  0  0  0  0
   -2.1076   -3.2393    0.3533 H   0  0  0  0  0  0  0  0  0  0  0  0
    0.8164    0.3535    2.8491 H   0  0  0  0  0  0  0  0  0  0  0  0
    0.1920    1.0174   -1.3657 H   0  0  0  0  0  0  0  0  0  0  0  0
   -7.3940    1.9874    0.7315 H   0  0  0  0  0  0  0  0  0  0  0  0
   -8.5692    1.0193   -0.1823 H   0  0  0  0  0  0  0  0  0  0  0  0
   -7.4696    2.1017   -1.0609 H   0  0  0  0  0  0  0  0  0  0  0  0
    3.2054    0.8956    2.5742 H   0  0  0  0  0  0  0  0  0  0  0  0
    2.5668    1.5419   -1.6405 H   0  0  0  0  0  0  0  0  0  0  0  0
    4.8833    2.0552    1.1885 H   0  0  0  0  0  0  0  0  0  0  0  0
    4.6261    2.3127   -0.5300 H   0  0  0  0  0  0  0  0  0  0  0  0
    4.7820   -0.4521   -0.1228 H   0  0  0  0  0  0  0  0  0  0  0  0
    5.7960   -1.9035   -1.4082 H   0  0  0  0  0  0  0  0  0  0  0  0
    5.9963   -2.2157    0.3485 H   0  0  0  0  0  0  0  0  0  0  0  0
    8.2162   -3.2483   -0.1072 H   0  0  0  0  0  0  0  0  0  0  0  0
    8.0197   -2.9422   -1.8279 H   0  0  0  0  0  0  0  0  0  0  0  0
    6.9312   -4.0880   -1.0087 H   0  0  0  0  0  0  0  0  0  0  0  0
  1 25  2  0  0  0  0
  2 13  1  0  0  0  0
  2 14  1  0  0  0  0
  3 10  1  0  0  0  0
  3 17  1  0  0  0  0
  4 11  1  0  0  0  0
  4 36  1  0  0  0  0
  5 14  1  0  0  0  0
  5 16  1  0  0  0  0
  6 12  1  0  0  0  0
  6 37  1  0  0  0  0
  7 17  2  0  0  0  0
  8 25  1  0  0  0  0
  8 26  1  0  0  0  0
  9 24  1  0  0  0  0
  9 25  1  0  0  0  0
  9 47  1  0  0  0  0
 10 11  1  0  0  0  0
 10 13  1  0  0  0  0
 10 28  1  0  0  0  0
 11 12  1  0  0  0  0
 11 29  1  0  0  0  0
 12 14  1  0  0  0  0
 12 30  1  0  0  0  0
 13 15  1  0  0  0  0
 13 31  1  0  0  0  0
 14 32  1  0  0  0  0
 15 33  1  0  0  0  0
 15 34  1  0  0  0  0
 15 35  1  0  0  0  0
 16 18  2  0  0  0  0
 16 19  1  0  0  0  0
 17 20  1  0  0  0  0
 18 22  1  0  0  0  0
 18 38  1  0  0  0  0
 19 23  2  0  0  0  0
 19 39  1  0  0  0  0
 20 40  1  0  0  0  0
 20 41  1  0  0  0  0
 20 42  1  0  0  0  0
 21 22  2  0  0  0  0
 21 23  1  0  0  0  0
 21 24  1  0  0  0  0
 22 43  1  0  0  0  0
 23 44  1  0  0  0  0
 24 45  1  0  0  0  0
 24 46  1  0  0  0  0
 26 27  1  0  0  0  0
 26 48  1  0  0  0  0
 26 49  1  0  0  0  0
 27 50  1  0  0  0  0
 27 51  1  0  0  0  0
 27 52  1  0  0  0  0
M  END
> <PUBCHEM_COMPOUND_CID>
10023860

> <PUBCHEM_CONFORMER_RMSD>
1

> <PUBCHEM_CONFORMER_DIVERSEORDER>
1
113
31
108
77
91
83
115
40
56
106
16
78
15
30
22
109
39
70
89
4
112
11
102
72
128
33
9
107
99
122
2
55
118
121
19
124
132
87
116
20
14
52
45
26
129
74
32
76
43
120
88
27
125
81
123
103
119
53
92
61
66
126
28
59
133
46
51
17
97
62
44
23
110
64
35
73
94
21
42
131
7
127
13
34
5
58
25
24
37
101
82
36
41
71
114
100
79
130
6
80
63
8
68
3
69
117
48
93
86
98
18
54
85
47
105
38
10
96
50
65
111
75
12
90
29
104
49
95
57
84
67
60

> <PUBCHEM_MMFF94_PARTIAL_CHARGES>
32
1 -0.38
10 0.28
11 0.28
12 0.28
13 0.28
14 0.56
16 0.08
17 0.66
18 -0.15
19 -0.15
2 -0.56
20 0.06
21 -0.14
22 -0.15
23 -0.15
24 0.44
25 0.59
26 0.28
3 -0.43
36 0.4
37 0.4
38 0.15
39 0.15
4 -0.68
43 0.15
44 0.15
47 0.37
5 -0.36
6 -0.68
7 -0.57
8 -0.43
9 -0.73

> <PUBCHEM_EFFECTIVE_ROTOR_COUNT>
10.2

> <PUBCHEM_PHARMACOPHORE_FEATURES>
10
1 1 acceptor
1 2 acceptor
1 4 acceptor
1 4 donor
1 5 acceptor
1 6 acceptor
1 6 donor
1 7 acceptor
6 16 18 19 21 22 23 rings
6 2 10 11 12 13 14 rings

> <PUBCHEM_HEAVY_ATOM_COUNT>
27

> <PUBCHEM_ATOM_DEF_STEREO_COUNT>
5

> <PUBCHEM_ATOM_UDEF_STEREO_COUNT>
0

> <PUBCHEM_BOND_DEF_STEREO_COUNT>
0

> <PUBCHEM_BOND_UDEF_STEREO_COUNT>
0

> <PUBCHEM_ISOTOPIC_ATOM_COUNT>
0

> <PUBCHEM_COMPONENT_COUNT>
1

> <PUBCHEM_CACTVS_TAUTO_COUNT>
2

> <PUBCHEM_CONFORMER_ID>
0098F3B400000001

> <PUBCHEM_MMFF94_ENERGY>
74.0845

> <PUBCHEM_FEATURE_SELFOVERLAP>
50.801

> <PUBCHEM_SHAPE_FINGERPRINT>
10165383 225 18333728018977073577
10638233 991 13695592157115866766
106641 1 11025803089436453929
11273773 46 18338239246113460118
11315181 36 15410897413473060433
11719270 70 15410898461767198452
11796584 16 18341613759020599130
13177829 20 8430312441729596529
13914758 101 17131836434736497761
14251752 14 17704070681433182313
14251764 18 16272213006950377824
15119646 104 17917716764905180558
15183329 4 18333450920218421592
15475509 8 17676211247556094380
15537594 2 16515674563595118993
19489759 90 12751246916970101937
20105231 36 17240491290458406875
20511986 3 13686026345355298109
20567600 234 10879985861977346498
21267235 1 17095527357311196875
21315764 119 18334017198655504330
22061861 79 18408605864487248342
22224240 67 10519984872443486036
23198884 109 18410854378292684793
23559900 14 18341325699579527128
34797466 226 18040715892468101692
4098825 35 18411135792659747013
4325135 7 11818991877061982392
4625314 4 10737281350929326032
474113 269 17203046262644483230
5085150 59 14477237175987292645
5104073 3 15266493088098819098
531348 171 17917988343755105877
559249 180 16056593296565662605
59682541 35 10159688110159820765
59755656 215 18113335301849437562
59755656 520 18341323470902781639

> <PUBCHEM_SHAPE_MULTIPOLES>
513.43
22.93
2.19
1.52
15.33
1.77
0.19
3.49
5.06
3.93
0.21
-1.12
-0.15
2.3

> <PUBCHEM_SHAPE_SELFOVERLAP>
1043.541

> <PUBCHEM_SHAPE_VOLUME>
299.5

> <PUBCHEM_COORDINATE_TYPE>
2
5
10

$$$$
