REMARK  Name = 10028486
REMARK  8 active torsions:
REMARK  status: ('A' for Active; 'I' for Inactive)
REMARK    1  A    between atoms: C_4  and  C_22
REMARK    2  A    between atoms: C_7  and  O_31
REMARK    3  A    between atoms: C_8  and  C_35
REMARK    4  A    between atoms: C_9  and  O_33
REMARK    5  A    between atoms: C_19  and  N_25
REMARK    6  A    between atoms: C_21  and  O_29
REMARK    7  A    between atoms: C_35  and  C_37
REMARK    8  A    between atoms: C_37  and  O_38
REMARK                            x       y       z     vdW  Elec       q    Type
REMARK                         _______ _______ _______ _____ _____    ______ ____
ROOT
ATOM      1  O   UNL     1       4.519   0.764  -0.727  0.00  0.00    -0.351 OA
ATOM      2  O   UNL     1       0.358   1.533  -0.967  0.00  0.00    -0.287 OA
ATOM      3  O   UNL     1       1.978  -3.135   1.063  0.00  0.00    -0.287 OA
ATOM      4  C   UNL     1      -2.559  -1.210   0.238  0.00  0.00    +0.038 C 
ATOM      5  C   UNL     1       2.579  -0.992   0.247  0.00  0.00    +0.047 C 
ATOM      6  C   UNL     1       2.178   0.196  -0.237  0.00  0.00    +0.045 C 
ATOM      7  C   UNL     1       4.042  -1.307   0.421  0.00  0.00    +0.163 C 
ATOM      8  C   UNL     1       4.903  -0.036   0.396  0.00  0.00    +0.158 C 
ATOM      9  C   UNL     1      -1.619  -0.258  -0.157  0.00  0.00    +0.135 C 
ATOM     10  C   UNL     1      -0.250  -0.526  -0.025  0.00  0.00    +0.075 C 
ATOM     11  C   UNL     1       3.172   1.264  -0.647  0.00  0.00    +0.140 C 
ATOM     12  C   UNL     1       0.170  -1.748   0.498  0.00  0.00    +0.045 C 
ATOM     13  C   UNL     1      -2.138  -2.430   0.762  0.00  0.00    +0.001 C 
ATOM     14  C   UNL     1       0.733   0.487  -0.450  0.00  0.00    +0.197 C 
ATOM     15  C   UNL     1       1.606  -2.047   0.636  0.00  0.00    +0.194 C 
ATOM     16  C   UNL     1      -0.776  -2.702   0.892  0.00  0.00    +0.003 C 
ATOM     17  C   UNL     1       3.139   2.492   0.267  0.00  0.00    +0.037 C 
ENDROOT
BRANCH   4  22
ATOM     18  O   UNL     1      -4.360  -0.765  -1.277  0.00  0.00    -0.352 OA
ATOM     19  C   UNL     1      -5.953   0.578   0.713  0.00  0.00    -0.026 C 
ATOM     20  C   UNL     1      -4.460   0.299   0.905  0.00  0.00    +0.016 C 
ATOM     21  C   UNL     1      -6.297   0.633  -0.783  0.00  0.00    +0.119 C 
ATOM     22  C   UNL     1      -4.042  -0.941   0.107  0.00  0.00    +0.138 C 
ATOM     23  C   UNL     1      -5.763  -0.613  -1.505  0.00  0.00    +0.140 C 
ATOM     24  C   UNL     1      -5.973  -0.524  -3.013  0.00  0.00    +0.035 C 
BRANCH  19  25
ATOM     25  N   UNL     1      -6.304   1.835   1.375  0.00  0.00    +0.387 N 
ATOM     26  C   UNL     1      -5.537   2.942   0.808  0.00  0.00    -0.101 C 
ATOM     27  C   UNL     1      -6.071   1.735   2.815  0.00  0.00    -0.101 C 
ATOM     28  H   UNL     1      -7.296   2.017   1.221  0.00  0.00    -0.080 HD
ENDBRANCH  19  25
BRANCH  21  29
ATOM     29  O   UNL     1      -7.710   0.687  -0.958  0.00  0.00    -0.384 OA
ATOM     30  H   UNL     1      -8.062   1.471  -0.507  0.00  0.00    +0.210 HD
ENDBRANCH  21  29
ENDBRANCH   4  22
BRANCH   7  31
ATOM     31  O   UNL     1       4.433  -2.204  -0.618  0.00  0.00    -0.377 OA
ATOM     32  H   UNL     1       3.878  -2.999  -0.585  0.00  0.00    +0.211 HD
ENDBRANCH   7  31
BRANCH   9  33
ATOM     33  O   UNL     1      -2.081   0.924  -0.659  0.00  0.00    -0.506 OA
ATOM     34  H   UNL     1      -3.004   1.073  -0.734  0.00  0.00    +0.292 HD
ENDBRANCH   9  33
BRANCH   8  35
ATOM     35  C   UNL     1       6.393  -0.332   0.266  0.00  0.00    +0.142 C 
BRANCH  35  37
ATOM     36  O   UNL     1       6.918   2.001   0.700  0.00  0.00    -0.250 OA
ATOM     37  C   UNL     1       7.213   0.931   0.186  0.00  0.00    +0.320 C 
BRANCH  37  38
ATOM     38  O   UNL     1       8.335   0.679  -0.552  0.00  0.00    -0.444 OA
ATOM     39  C   UNL     1       9.223   1.788  -0.721  0.00  0.00    +0.256 C 
ENDBRANCH  37  38
ENDBRANCH  35  37
ENDBRANCH   8  35
TORSDOF 8
