REMARK  Name = 100253
REMARK  4 active torsions:
REMARK  status: ('A' for Active; 'I' for Inactive)
REMARK    1  A    between atoms: N_1  and  C_12
REMARK    2  A    between atoms: C_13  and  O_16
REMARK    3  A    between atoms: C_15  and  C_18
REMARK    4  A    between atoms: C_18  and  O_19
REMARK                            x       y       z     vdW  Elec       q    Type
REMARK                         _______ _______ _______ _____ _____    ______ ____
ROOT
ATOM      1  N   UNL     1      -0.301   0.164   0.143  0.00  0.00    -0.247 N 
ATOM      2  N   UNL     1      -1.621   1.738  -0.726  0.00  0.00    -0.242 NA
ATOM      3  N   UNL     1      -1.979  -1.450   0.835  0.00  0.00    -0.228 NA
ATOM      4  N   UNL     1      -4.230  -0.674   0.300  0.00  0.00    -0.229 NA
ATOM      5  C   UNL     1      -1.581  -0.293   0.286  0.00  0.00    +0.152 C 
ATOM      6  C   UNL     1      -0.378   1.388  -0.469  0.00  0.00    +0.223 C 
ATOM      7  C   UNL     1      -2.383   0.697  -0.259  0.00  0.00    +0.140 C 
ATOM      8  C   UNL     1      -3.756   0.475  -0.240  0.00  0.00    +0.143 C 
ATOM      9  C   UNL     1      -3.326  -1.552   0.797  0.00  0.00    +0.253 C 
ATOM     10  N   UNL     1      -4.645   1.425  -0.773  0.00  0.00    -0.342 N 
ATOM     11  H   UNL     1      -5.614   1.257  -0.753  0.00  0.00    +0.144 HD
ATOM     12  H   UNL     1      -4.297   2.258  -1.165  0.00  0.00    +0.144 HD
ENDROOT
BRANCH   1  15
ATOM     13  F   UNL     1       2.084  -2.475   0.060  0.00  0.00    -0.230 F 
ATOM     14  O   UNL     1       1.905   0.462   0.976  0.00  0.00    -0.333 OA
ATOM     15  C   UNL     1       0.926  -0.514   0.561  0.00  0.00    +0.231 C 
ATOM     16  C   UNL     1       2.703  -0.490  -1.014  0.00  0.00    +0.177 C 
ATOM     17  C   UNL     1       1.566  -1.360  -0.532  0.00  0.00    +0.236 C 
ATOM     18  C   UNL     1       3.130   0.188   0.275  0.00  0.00    +0.176 C 
BRANCH  16  19
ATOM     19  O   UNL     1       3.750  -1.236  -1.596  0.00  0.00    -0.379 OA
ATOM     20  H   UNL     1       3.436  -1.651  -2.414  0.00  0.00    +0.211 HD
ENDBRANCH  16  19
BRANCH  18  21
ATOM     21  C   UNL     1       3.898   1.479   0.056  0.00  0.00    +0.169 C 
BRANCH  21  22
ATOM     22  O   UNL     1       4.236   2.030   1.319  0.00  0.00    -0.379 OA
ATOM     23  H   UNL     1       4.728   2.856   1.189  0.00  0.00    +0.211 HD
ENDBRANCH  21  22
ENDBRANCH  18  21
ENDBRANCH   1  15
TORSDOF 4
