100252
  -OEChem-03292013323D

 34 35  0     1  0  0  0  0  0999 V2000
    4.0283   -1.6121   -0.3336 P   0  0  0  0  0  0  0  0  0  0  0  0
    0.4616    0.7830   -0.9463 O   0  0  0  0  0  0  0  0  0  0  0  0
    1.3724    2.9217    1.7934 O   0  0  0  0  0  0  0  0  0  0  0  0
   -0.1696    3.8514   -0.2536 O   0  0  0  0  0  0  0  0  0  0  0  0
    3.0120   -0.3824   -0.6100 O   0  0  0  0  0  0  0  0  0  0  0  0
    3.1216   -2.6872    0.4647 O   0  0  0  0  0  0  0  0  0  0  0  0
    5.0042   -1.0238    0.8137 O   0  0  0  0  0  0  0  0  0  0  0  0
    4.7284   -2.1414   -1.5510 O   0  0  0  0  0  0  0  0  0  0  0  0
   -2.6505   -2.8410    1.2265 O   0  0  0  0  0  0  0  0  0  0  0  0
   -1.8943    0.7103   -0.6654 N   0  0  0  0  0  0  0  0  0  0  0  0
   -1.7926   -0.4307    0.0325 N   0  0  0  0  0  0  0  0  0  0  0  0
   -3.9166   -0.1123   -0.7548 N   0  0  0  0  0  0  0  0  0  0  0  0
   -4.7608   -2.5306    0.4227 N   0  0  0  0  0  0  0  0  0  0  0  0
    0.6154    1.9730    1.0728 C   0  0  1  0  0  0  0  0  0  0  0  0
   -0.5323    2.5836    0.2906 C   0  0  2  0  0  0  0  0  0  0  0  0
    1.4296    1.3020   -0.0198 C   0  0  1  0  0  0  0  0  0  0  0  0
   -0.7351    1.5849   -0.8502 C   0  0  1  0  0  0  0  0  0  0  0  0
    2.3110    0.1750    0.4879 C   0  0  0  0  0  0  0  0  0  0  0  0
   -3.1594    0.8924   -1.1302 C   0  0  0  0  0  0  0  0  0  0  0  0
   -3.0427   -0.8908   -0.0514 C   0  0  0  0  0  0  0  0  0  0  0  0
   -3.4308   -2.1250    0.5616 C   0  0  0  0  0  0  0  0  0  0  0  0
    0.2167    1.2267    1.7711 H   0  0  0  0  0  0  0  0  0  0  0  0
   -1.4183    2.7419    0.9138 H   0  0  0  0  0  0  0  0  0  0  0  0
    2.0471    2.0291   -0.5630 H   0  0  0  0  0  0  0  0  0  0  0  0
   -0.8753    2.0816   -1.8175 H   0  0  0  0  0  0  0  0  0  0  0  0
    1.6968   -0.6089    0.9431 H   0  0  0  0  0  0  0  0  0  0  0  0
    3.0245    0.5486    1.2282 H   0  0  0  0  0  0  0  0  0  0  0  0
    2.1020    2.4496    2.2289 H   0  0  0  0  0  0  0  0  0  0  0  0
   -0.9268    4.1712   -0.7734 H   0  0  0  0  0  0  0  0  0  0  0  0
   -3.4656    1.7470   -1.7167 H   0  0  0  0  0  0  0  0  0  0  0  0
    3.5068   -3.5618    0.6858 H   0  0  0  0  0  0  0  0  0  0  0  0
    5.7790   -1.5549    1.0960 H   0  0  0  0  0  0  0  0  0  0  0  0
   -5.4392   -1.9839   -0.0980 H   0  0  0  0  0  0  0  0  0  0  0  0
   -5.0895   -3.3930    0.8441 H   0  0  0  0  0  0  0  0  0  0  0  0
  1  5  1  0  0  0  0
  1  6  1  0  0  0  0
  1  7  1  0  0  0  0
  1  8  2  0  0  0  0
  2 16  1  0  0  0  0
  2 17  1  0  0  0  0
  3 14  1  0  0  0  0
  3 28  1  0  0  0  0
  4 15  1  0  0  0  0
  4 29  1  0  0  0  0
  5 18  1  0  0  0  0
  6 31  1  0  0  0  0
  7 32  1  0  0  0  0
  9 21  2  0  0  0  0
 10 11  1  0  0  0  0
 10 17  1  0  0  0  0
 10 19  1  0  0  0  0
 11 20  2  0  0  0  0
 12 19  2  0  0  0  0
 12 20  1  0  0  0  0
 13 21  1  0  0  0  0
 13 33  1  0  0  0  0
 13 34  1  0  0  0  0
 14 15  1  0  0  0  0
 14 16  1  0  0  0  0
 14 22  1  0  0  0  0
 15 17  1  0  0  0  0
 15 23  1  0  0  0  0
 16 18  1  0  0  0  0
 16 24  1  0  0  0  0
 17 25  1  0  0  0  0
 18 26  1  0  0  0  0
 18 27  1  0  0  0  0
 19 30  1  0  0  0  0
 20 21  1  0  0  0  0
M  END
> <PUBCHEM_COMPOUND_CID>
100252

> <PUBCHEM_CONFORMER_RMSD>
0.8

> <PUBCHEM_CONFORMER_DIVERSEORDER>
1
68
62
9
57
55
26
67
7
63
22
70
41
31
69
53
8
56
65
32
71
44
12
60
54
42
39
13
58
49
35
38
25
59
64
24
5
33
45
4
46
2
47
52
61
72
51
66
28
27
30
40
11
37
43
20
17
48
34
50
10
29
14
3
16
19
21
15
18
6
36
23

> <PUBCHEM_MMFF94_PARTIAL_CHARGES>
28
1 1.51
10 0.31
11 -0.71
12 -0.57
13 -0.8
14 0.28
15 0.28
16 0.28
17 0.54
18 0.28
19 0.04
2 -0.56
20 0.43
21 0.72
28 0.4
29 0.4
3 -0.68
30 0.15
31 0.5
32 0.5
33 0.37
34 0.37
4 -0.68
5 -0.55
6 -0.77
7 -0.77
8 -0.7
9 -0.57

> <PUBCHEM_EFFECTIVE_ROTOR_COUNT>
6

> <PUBCHEM_PHARMACOPHORE_FEATURES>
15
1 13 donor
1 2 acceptor
1 3 acceptor
1 3 donor
1 4 acceptor
1 4 donor
1 6 acceptor
1 7 acceptor
1 8 acceptor
1 9 acceptor
3 10 12 19 cation
3 11 12 20 cation
4 1 6 7 8 anion
5 10 11 12 19 20 rings
5 2 14 15 16 17 rings

> <PUBCHEM_HEAVY_ATOM_COUNT>
21

> <PUBCHEM_ATOM_DEF_STEREO_COUNT>
4

> <PUBCHEM_ATOM_UDEF_STEREO_COUNT>
0

> <PUBCHEM_BOND_DEF_STEREO_COUNT>
0

> <PUBCHEM_BOND_UDEF_STEREO_COUNT>
0

> <PUBCHEM_ISOTOPIC_ATOM_COUNT>
0

> <PUBCHEM_COMPONENT_COUNT>
1

> <PUBCHEM_CACTVS_TAUTO_COUNT>
2

> <PUBCHEM_CONFORMER_ID>
0001879C00000001

> <PUBCHEM_MMFF94_ENERGY>
6.7098

> <PUBCHEM_FEATURE_SELFOVERLAP>
78.92

> <PUBCHEM_SHAPE_FINGERPRINT>
1100329 8 16826992167168968147
114674 6 18045496667008404315
12363563 72 18341619213001226774
12506688 2 18410293631388162058
12553582 1 18337955575822307650
12596602 18 15266762417061042878
12760667 363 18198340654621898278
12788726 201 18052534365953688016
13103583 49 17988100936267775011
13533116 47 18126011705267828803
13544653 18 18272929406241971428
13631057 29 18336268960099729846
14251731 5 18409172142307562123
14251740 79 18115879486099858634
14251757 5 18264775350342264132
14790565 3 17617375078720824925
14863182 85 16745943355729241239
14866123 147 18124317099860692177
15352361 1 18408884044396432942
15422964 175 18266168616501401653
17804303 29 18334857242755852807
17859628 70 17905899424066788907
20403669 9 18408325505532894599
20600515 1 18268721527687239573
20645477 70 17829598806352220863
20775530 9 18335140924971843843
21452121 199 18261389000879751560
21665056 4 17688588260565323156
23557571 272 18127966409239578226
23559900 14 18262225720301035629
238078 22 18337121072662151438
314173 41 18408606976076870814
3421961 26 18268430307460719841
5365585 94 18126015866627129510
633830 44 13912603788922843494
7987 15 18044391632274075723
81228 2 17841731615784042156
9709674 26 18118676862945415299

> <PUBCHEM_SHAPE_MULTIPOLES>
369.14
8.74
4
1.21
3.57
1.05
0.08
-10.16
-0.79
-0.26
1.09
0.33
0.16
1.92

> <PUBCHEM_SHAPE_SELFOVERLAP>
756.865

> <PUBCHEM_SHAPE_VOLUME>
215.4

> <PUBCHEM_COORDINATE_TYPE>
2
5
10

$$$$
