REMARK  Name = 10021147
REMARK  5 active torsions:
REMARK  status: ('A' for Active; 'I' for Inactive)
REMARK    1  A    between atoms: C_3  and  O_22
REMARK    2  A    between atoms: C_6  and  O_24
REMARK    3  A    between atoms: C_10  and  O_26
REMARK    4  A    between atoms: C_11  and  O_28
REMARK    5  A    between atoms: C_18  and  O_30
REMARK                            x       y       z     vdW  Elec       q    Type
REMARK                         _______ _______ _______ _____ _____    ______ ____
ROOT
ATOM      1  O   UNL     1      -1.877   2.436  -0.106  0.00  0.00    -0.286 OA
ATOM      2  O   UNL     1      -1.491  -2.891   0.053  0.00  0.00    -0.286 OA
ATOM      3  C   UNL     1       4.615  -0.476   0.019  0.00  0.00    +0.095 C 
ATOM      4  C   UNL     1       4.451   0.866  -0.713  0.00  0.00    +0.061 C 
ATOM      5  C   UNL     1       3.397  -1.377  -0.237  0.00  0.00    +0.056 C 
ATOM      6  C   UNL     1       3.191   1.615  -0.269  0.00  0.00    +0.138 C 
ATOM      7  C   UNL     1       2.065  -0.664  -0.159  0.00  0.00    +0.015 A 
ATOM      8  C   UNL     1       1.964   0.736  -0.211  0.00  0.00    +0.037 A 
ATOM      9  C   UNL     1       5.897  -1.182  -0.430  0.00  0.00    +0.030 C 
ATOM     10  C   UNL     1       0.895  -1.439  -0.093  0.00  0.00    +0.133 A 
ATOM     11  C   UNL     1       0.694   1.336  -0.178  0.00  0.00    +0.135 A 
ATOM     12  C   UNL     1      -0.365  -0.832  -0.061  0.00  0.00    +0.078 A 
ATOM     13  C   UNL     1      -0.466   0.557  -0.104  0.00  0.00    +0.078 A 
ATOM     14  C   UNL     1      -1.788   1.215  -0.071  0.00  0.00    +0.202 C 
ATOM     15  C   UNL     1      -1.580  -1.670   0.014  0.00  0.00    +0.199 C 
ATOM     16  C   UNL     1      -3.003   0.378   0.003  0.00  0.00    +0.076 C 
ATOM     17  C   UNL     1      -2.903  -1.014   0.044  0.00  0.00    +0.045 C 
ATOM     18  C   UNL     1      -4.263   0.988   0.032  0.00  0.00    +0.137 C 
ATOM     19  C   UNL     1      -4.062  -1.796   0.115  0.00  0.00    +0.003 C 
ATOM     20  C   UNL     1      -5.415   0.205   0.103  0.00  0.00    +0.037 C 
ATOM     21  C   UNL     1      -5.315  -1.184   0.144  0.00  0.00    +0.003 C 
ENDROOT
BRANCH   3  22
ATOM     22  O   UNL     1       4.720  -0.260   1.428  0.00  0.00    -0.386 OA
ATOM     23  H   UNL     1       3.921   0.188   1.747  0.00  0.00    +0.210 HD
ENDBRANCH   3  22
BRANCH   6  24
ATOM     24  O   UNL     1       3.437   2.215   1.004  0.00  0.00    -0.380 OA
ATOM     25  H   UNL     1       4.227   2.776   0.950  0.00  0.00    +0.211 HD
ENDBRANCH   6  24
BRANCH  10  26
ATOM     26  O   UNL     1       1.024  -2.800  -0.054  0.00  0.00    -0.506 OA
ATOM     27  H   UNL     1       1.875  -3.191  -0.076  0.00  0.00    +0.292 HD
ENDBRANCH  10  26
BRANCH  11  28
ATOM     28  O   UNL     1       0.616   2.699  -0.264  0.00  0.00    -0.506 OA
ATOM     29  H   UNL     1       1.399   3.211  -0.313  0.00  0.00    +0.292 HD
ENDBRANCH  11  28
BRANCH  18  30
ATOM     30  O   UNL     1      -4.436   2.340  -0.007  0.00  0.00    -0.505 OA
ATOM     31  H   UNL     1      -3.691   2.907  -0.054  0.00  0.00    +0.292 HD
ENDBRANCH  18  30
TORSDOF 5
