REMARK  Name = 10026568
REMARK  14 active torsions:
REMARK  status: ('A' for Active; 'I' for Inactive)
REMARK    1  A    between atoms: C_2  and  O_7
REMARK    2  A    between atoms: C_3  and  O_9
REMARK    3  A    between atoms: C_4  and  C_24
REMARK    4  A    between atoms: C_5  and  O_11
REMARK    5  A    between atoms: C_6  and  O_13
REMARK    6  A    between atoms: O_13  and  C_14
REMARK    7  A    between atoms: C_14  and  C_15
REMARK    8  A    between atoms: C_15  and  C_16
REMARK    9  A    between atoms: C_21  and  O_22
REMARK   10  A    between atoms: C_24  and  O_25
REMARK   11  A    between atoms: O_25  and  C_27
REMARK   12  A    between atoms: C_27  and  C_28
REMARK   13  A    between atoms: C_29  and  C_30
REMARK   14  A    between atoms: C_35  and  O_36
REMARK                            x       y       z     vdW  Elec       q    Type
REMARK                         _______ _______ _______ _____ _____    ______ ____
ROOT
ATOM      1  O   UNL     1      -2.686   0.332  -0.596  0.00  0.00    -0.325 OA
ATOM      2  C   UNL     1      -3.155   2.629   0.018  0.00  0.00    +0.171 C 
ATOM      3  C   UNL     1      -4.196   2.154   1.032  0.00  0.00    +0.172 C 
ATOM      4  C   UNL     1      -3.008   1.620  -1.123  0.00  0.00    +0.190 C 
ATOM      5  C   UNL     1      -3.939   0.706   1.450  0.00  0.00    +0.196 C 
ATOM      6  C   UNL     1      -3.719  -0.194   0.234  0.00  0.00    +0.266 C 
ENDROOT
BRANCH   2   7
ATOM      7  O   UNL     1      -3.558   3.888  -0.515  0.00  0.00    -0.379 OA
ATOM      8  H   UNL     1      -3.652   4.530   0.206  0.00  0.00    +0.211 HD
ENDBRANCH   2   7
BRANCH   3   9
ATOM      9  O   UNL     1      -4.114   3.002   2.179  0.00  0.00    -0.379 OA
ATOM     10  H   UNL     1      -4.277   3.920   1.914  0.00  0.00    +0.211 HD
ENDBRANCH   3   9
BRANCH   5  11
ATOM     11  O   UNL     1      -5.068   0.214   2.172  0.00  0.00    -0.378 OA
ATOM     12  H   UNL     1      -5.224   0.773   2.949  0.00  0.00    +0.211 HD
ENDBRANCH   5  11
BRANCH   6  13
ATOM     13  O   UNL     1      -3.347  -1.488   0.706  0.00  0.00    -0.328 OA
BRANCH  13  14
ATOM     14  C   UNL     1      -3.564  -2.481  -0.284  0.00  0.00    +0.150 C 
BRANCH  14  15
ATOM     15  C   UNL     1      -2.740  -3.722   0.040  0.00  0.00    +0.058 C 
BRANCH  15  16
ATOM     16  C   UNL     1      -1.257  -3.441   0.046  0.00  0.00    -0.019 C 
ATOM     17  C   UNL     1      -0.628  -3.040   1.225  0.00  0.00    -0.001 C 
ATOM     18  C   UNL     1      -0.516  -3.580  -1.127  0.00  0.00    -0.001 C 
ATOM     19  C   UNL     1       0.742  -2.780   1.231  0.00  0.00    +0.036 C 
ATOM     20  C   UNL     1       0.855  -3.320  -1.121  0.00  0.00    +0.036 C 
ATOM     21  C   UNL     1       1.484  -2.920   0.058  0.00  0.00    +0.134 C 
BRANCH  21  22
ATOM     22  O   UNL     1       2.821  -2.666   0.063  0.00  0.00    -0.506 OA
ATOM     23  H   UNL     1       3.243  -2.397   0.855  0.00  0.00    +0.292 HD
ENDBRANCH  21  22
ENDBRANCH  15  16
ENDBRANCH  14  15
ENDBRANCH  13  14
ENDBRANCH   6  13
BRANCH   4  24
ATOM     24  C   UNL     1      -1.893   2.015  -2.086  0.00  0.00    +0.241 C 
BRANCH  24  25
ATOM     25  O   UNL     1      -0.676   2.082  -1.364  0.00  0.00    -0.443 OA
BRANCH  25  27
ATOM     26  O   UNL     1       0.252   0.450  -2.710  0.00  0.00    -0.245 OA
ATOM     27  C   UNL     1       0.317   1.241  -1.783  0.00  0.00    +0.341 C 
BRANCH  27  28
ATOM     28  C   UNL     1       1.498   1.453  -0.915  0.00  0.00    +0.082 C 
ATOM     29  C   UNL     1       2.611   0.736  -1.128  0.00  0.00    +0.007 C 
BRANCH  29  30
ATOM     30  C   UNL     1       3.850   0.863  -0.341  0.00  0.00    +0.000 C 
ATOM     31  C   UNL     1       3.814   1.437   0.930  0.00  0.00    +0.003 C 
ATOM     32  C   UNL     1       5.060   0.408  -0.867  0.00  0.00    +0.003 C 
ATOM     33  C   UNL     1       4.988   1.556   1.675  0.00  0.00    +0.037 C 
ATOM     34  C   UNL     1       6.233   0.527  -0.122  0.00  0.00    +0.037 C 
ATOM     35  C   UNL     1       6.197   1.101   1.148  0.00  0.00    +0.134 C 
BRANCH  35  36
ATOM     36  O   UNL     1       7.342   1.218   1.875  0.00  0.00    -0.506 OA
ATOM     37  H   UNL     1       7.318   1.604   2.729  0.00  0.00    +0.292 HD
ENDBRANCH  35  36
ENDBRANCH  29  30
ENDBRANCH  27  28
ENDBRANCH  25  27
ENDBRANCH  24  25
ENDBRANCH   4  24
TORSDOF 14
