10024438
  -OEChem-03292013303D

 51 52  0     1  0  0  0  0  0999 V2000
    4.8907   -2.4961    0.3831 S   0  0  0  0  0  0  0  0  0  0  0  0
    3.3991    2.5042   -0.4673 S   0  0  0  0  0  0  0  0  0  0  0  0
   -3.2927    2.1452   -0.8556 O   0  0  0  0  0  0  0  0  0  0  0  0
   -5.5648    1.4730    1.1712 O   0  0  0  0  0  0  0  0  0  0  0  0
   -5.9491   -2.9771   -0.1368 O   0  0  0  0  0  0  0  0  0  0  0  0
   -3.9719   -2.0337   -0.8661 O   0  0  0  0  0  0  0  0  0  0  0  0
    5.2367    0.0391    0.0150 N   0  0  0  0  0  0  0  0  0  0  0  0
    1.6093    0.6480   -0.2834 N   0  0  0  0  0  0  0  0  0  0  0  0
   -3.4707    0.2979    0.7325 C   0  0  1  0  0  0  0  0  0  0  0  0
   -2.7988    0.8419   -0.5553 C   0  0  2  0  0  0  0  0  0  0  0  0
   -2.9748    1.0568    1.9706 C   0  0  0  0  0  0  0  0  0  0  0  0
   -4.9919    0.3180    0.6764 C   0  0  0  0  0  0  0  0  0  0  0  0
   -1.2882    0.7997   -0.4727 C   0  0  0  0  0  0  0  0  0  0  0  0
    7.3376   -1.2266    0.3262 C   0  0  0  0  0  0  0  0  0  0  0  0
    5.8683   -1.0947    0.2240 C   0  0  0  0  0  0  0  0  0  0  0  0
   -0.4576    1.8512   -0.5867 C   0  0  0  0  0  0  0  0  0  0  0  0
   -5.6924   -0.7195    0.1833 C   0  0  0  0  0  0  0  0  0  0  0  0
    8.0748   -0.8248   -0.9724 C   0  0  0  0  0  0  0  0  0  0  0  0
    7.9354   -0.4438    1.5183 C   0  0  0  0  0  0  0  0  0  0  0  0
    0.9826    1.8422   -0.5028 C   0  0  0  0  0  0  0  0  0  0  0  0
    3.8817   -0.2110   -0.0231 C   0  0  0  0  0  0  0  0  0  0  0  0
    2.9033    0.8764   -0.2450 C   0  0  0  0  0  0  0  0  0  0  0  0
    3.4985   -1.5208    0.1555 C   0  0  0  0  0  0  0  0  0  0  0  0
    1.7532    2.9575   -0.6306 C   0  0  0  0  0  0  0  0  0  0  0  0
   -5.0716   -1.9576   -0.3428 C   0  0  0  0  0  0  0  0  0  0  0  0
   -6.3319    2.1184    0.1743 C   0  0  0  0  0  0  0  0  0  0  0  0
   -5.5149   -4.2637   -0.5895 C   0  0  0  0  0  0  0  0  0  0  0  0
   -3.1247   -0.7298    0.9001 H   0  0  0  0  0  0  0  0  0  0  0  0
   -3.0912    0.2126   -1.4030 H   0  0  0  0  0  0  0  0  0  0  0  0
   -3.1213    2.1388    1.8773 H   0  0  0  0  0  0  0  0  0  0  0  0
   -3.5011    0.7227    2.8727 H   0  0  0  0  0  0  0  0  0  0  0  0
   -1.9086    0.8801    2.1485 H   0  0  0  0  0  0  0  0  0  0  0  0
   -0.8664   -0.1910   -0.3117 H   0  0  0  0  0  0  0  0  0  0  0  0
    7.5972   -2.2801    0.5019 H   0  0  0  0  0  0  0  0  0  0  0  0
   -0.9028    2.8309   -0.7487 H   0  0  0  0  0  0  0  0  0  0  0  0
   -6.7785   -0.6946    0.1960 H   0  0  0  0  0  0  0  0  0  0  0  0
   -2.9883    2.3784   -1.7495 H   0  0  0  0  0  0  0  0  0  0  0  0
    7.9143    0.2337   -1.2055 H   0  0  0  0  0  0  0  0  0  0  0  0
    9.1523   -0.9956   -0.8777 H   0  0  0  0  0  0  0  0  0  0  0  0
    7.7100   -1.4133   -1.8214 H   0  0  0  0  0  0  0  0  0  0  0  0
    7.4705   -0.7585    2.4590 H   0  0  0  0  0  0  0  0  0  0  0  0
    9.0138   -0.6169    1.5967 H   0  0  0  0  0  0  0  0  0  0  0  0
    7.7681    0.6332    1.4062 H   0  0  0  0  0  0  0  0  0  0  0  0
    2.5072   -1.9528    0.1656 H   0  0  0  0  0  0  0  0  0  0  0  0
    1.4649    3.9848   -0.8052 H   0  0  0  0  0  0  0  0  0  0  0  0
   -6.4990    3.1517    0.4940 H   0  0  0  0  0  0  0  0  0  0  0  0
   -5.8338    2.1480   -0.8005 H   0  0  0  0  0  0  0  0  0  0  0  0
   -7.3137    1.6433    0.0748 H   0  0  0  0  0  0  0  0  0  0  0  0
   -4.6036   -4.5627   -0.0627 H   0  0  0  0  0  0  0  0  0  0  0  0
   -6.3035   -4.9870   -0.3653 H   0  0  0  0  0  0  0  0  0  0  0  0
   -5.3492   -4.2484   -1.6709 H   0  0  0  0  0  0  0  0  0  0  0  0
  1 15  1  0  0  0  0
  1 23  1  0  0  0  0
  2 22  1  0  0  0  0
  2 24  1  0  0  0  0
  3 10  1  0  0  0  0
  3 37  1  0  0  0  0
  4 12  1  0  0  0  0
  4 26  1  0  0  0  0
  5 25  1  0  0  0  0
  5 27  1  0  0  0  0
  6 25  2  0  0  0  0
  7 15  2  0  0  0  0
  7 21  1  0  0  0  0
  8 20  1  0  0  0  0
  8 22  2  0  0  0  0
  9 10  1  0  0  0  0
  9 11  1  0  0  0  0
  9 12  1  0  0  0  0
  9 28  1  0  0  0  0
 10 13  1  0  0  0  0
 10 29  1  0  0  0  0
 11 30  1  0  0  0  0
 11 31  1  0  0  0  0
 11 32  1  0  0  0  0
 12 17  2  0  0  0  0
 13 16  2  0  0  0  0
 13 33  1  0  0  0  0
 14 15  1  0  0  0  0
 14 18  1  0  0  0  0
 14 19  1  0  0  0  0
 14 34  1  0  0  0  0
 16 20  1  0  0  0  0
 16 35  1  0  0  0  0
 17 25  1  0  0  0  0
 17 36  1  0  0  0  0
 18 38  1  0  0  0  0
 18 39  1  0  0  0  0
 18 40  1  0  0  0  0
 19 41  1  0  0  0  0
 19 42  1  0  0  0  0
 19 43  1  0  0  0  0
 20 24  2  0  0  0  0
 21 22  1  0  0  0  0
 21 23  2  0  0  0  0
 23 44  1  0  0  0  0
 24 45  1  0  0  0  0
 26 46  1  0  0  0  0
 26 47  1  0  0  0  0
 26 48  1  0  0  0  0
 27 49  1  0  0  0  0
 27 50  1  0  0  0  0
 27 51  1  0  0  0  0
M  END
> <PUBCHEM_COMPOUND_CID>
10024438

> <PUBCHEM_CONFORMER_RMSD>
1

> <PUBCHEM_CONFORMER_DIVERSEORDER>
6
153
52
29
60
62
172
53
163
41
67
58
32
171
74
118
70
81
9
141
30
22
50
164
151
134
167
98
139
148
14
42
21
168
57
80
119
86
93
45
112
159
44
133
20
23
127
124
107
175
63
51
10
161
131
140
56
150
37
137
39
165
7
65
169
33
88
87
35
69
12
122
158
92
170
85
34
68
64
121
104
1
59
155
108
106
24
71
31
152
17
135
90
143
128
138
66
166
149
96
55
110
40
89
94
73
47
99
61
27
77
132
123
5
84
145
109
36
83
117
173
18
105
174
162
126
72
48
91
160
13
16
146
26
102
38
120
101
111
46
154
75
15
129
142
19
11
82
3
130
25
157
28
116
43
78
2
4
76
144
95
125
103
115
54
113
156
8
100
136
49
114
97
147
79

> <PUBCHEM_MMFF94_PARTIAL_CHARGES>
30
1 -0.08
10 0.42
12 -0.06
13 -0.29
14 0.18
15 0.2
16 -0.1
17 -0.14
2 -0.08
20 0.18
21 0.23
22 0.38
23 -0.11
24 -0.11
25 0.71
26 0.28
27 0.28
3 -0.68
33 0.15
35 0.15
36 0.15
37 0.4
4 -0.36
44 0.15
45 0.15
5 -0.43
6 -0.57
7 -0.57
8 -0.57
9 0.14

> <PUBCHEM_EFFECTIVE_ROTOR_COUNT>
9

> <PUBCHEM_PHARMACOPHORE_FEATURES>
10
1 11 hydrophobe
1 3 acceptor
1 3 donor
1 4 acceptor
1 6 acceptor
1 7 acceptor
1 8 acceptor
3 14 18 19 hydrophobe
5 1 7 15 21 23 rings
5 2 8 20 22 24 rings

> <PUBCHEM_HEAVY_ATOM_COUNT>
27

> <PUBCHEM_ATOM_DEF_STEREO_COUNT>
2

> <PUBCHEM_ATOM_UDEF_STEREO_COUNT>
0

> <PUBCHEM_BOND_DEF_STEREO_COUNT>
2

> <PUBCHEM_BOND_UDEF_STEREO_COUNT>
0

> <PUBCHEM_ISOTOPIC_ATOM_COUNT>
0

> <PUBCHEM_COMPONENT_COUNT>
1

> <PUBCHEM_CACTVS_TAUTO_COUNT>
2

> <PUBCHEM_CONFORMER_ID>
0098F5F600000006

> <PUBCHEM_MMFF94_ENERGY>
50.1085

> <PUBCHEM_FEATURE_SELFOVERLAP>
50.748

> <PUBCHEM_SHAPE_FINGERPRINT>
10 15 16200429165659333688
10595046 47 18194969762867808533
10622 236 18197487636021642919
12107183 9 18339369552751583697
12516196 113 18336828602859638032
12596602 18 18060138760486798056
13533116 47 18267022950026119369
13685833 64 18259989241236990736
13690498 29 17894628115179241125
13782708 43 17603298259178126768
15183329 4 17748823025329542122
15250474 111 18339924917502376063
15289351 153 9511462187658516524
15301273 46 17632018538283603892
15361156 5 17894922831840805405
15510800 12 17822578325291757243
15728490 51 18342455955163131342
17492 89 18194120948691576775
17780758 139 18131068212787379233
17857418 61 18408887347426178581
190975 80 18409160039986293792
19841028 212 18191581068089324019
20028762 73 18412544332039087302
21130935 74 18341331180115772824
21267235 1 18336832979816200780
21315759 148 17418101975531122646
23522609 53 18118437048735602588
23559900 14 18333728035672191713
2748736 6 10303805480670166214
397830 11 17917136308501388016
439807 62 18269276923621212547
5028188 123 18271819999758710148
5104073 3 18059581342662497361
559249 180 18410856556241601593
5718773 13 18336261340046875510
7970288 3 18265048038275511470

> <PUBCHEM_SHAPE_MULTIPOLES>
529.91
22.77
3.76
1.11
16.36
2.37
-0.39
14.01
-3.09
-5.08
1.01
-0.06
-0.17
-2.09

> <PUBCHEM_SHAPE_SELFOVERLAP>
1070.243

> <PUBCHEM_SHAPE_VOLUME>
314.5

> <PUBCHEM_COORDINATE_TYPE>
2
5
10

$$$$
