REMARK  Name = 10021283
REMARK  7 active torsions:
REMARK  status: ('A' for Active; 'I' for Inactive)
REMARK    1  A    between atoms: C_2  and  O_16
REMARK    2  A    between atoms: C_3  and  C_18
REMARK    3  A    between atoms: C_5  and  N_9
REMARK    4  A    between atoms: C_18  and  O_19
REMARK    5  A    between atoms: O_19  and  P_20
REMARK    6  A    between atoms: P_20  and  O_22
REMARK    7  A    between atoms: P_20  and  O_24
REMARK                            x       y       z     vdW  Elec       q    Type
REMARK                         _______ _______ _______ _____ _____    ______ ____
ROOT
ATOM      1  O   UNL     1      -0.472   1.355   1.015  0.00  0.00    -0.335 OA
ATOM      2  C   UNL     1      -1.071   2.872  -0.707  0.00  0.00    +0.144 C 
ATOM      3  C   UNL     1      -1.613   1.859   0.292  0.00  0.00    +0.174 C 
ATOM      4  C   UNL     1       0.322   2.359  -0.993  0.00  0.00    +0.083 C 
ATOM      5  C   UNL     1       0.730   1.753   0.340  0.00  0.00    +0.200 C 
ENDROOT
BRANCH   5   9
ATOM      6  S   UNL     1       3.954   2.040   0.428  0.00  0.00    -0.018 S 
ATOM      7  S   UNL     1       4.038  -3.181  -0.289  0.00  0.00    -0.032 S 
ATOM      8  F   UNL     1       0.973  -2.944  -0.296  0.00  0.00    -0.201 F 
ATOM      9  N   UNL     1       1.590   0.616   0.195  0.00  0.00    -0.244 N 
ATOM     10  N   UNL     1       3.675  -0.563   0.064  0.00  0.00    -0.288 N 
ATOM     11  C   UNL     1       3.014   0.661   0.222  0.00  0.00    +0.144 C 
ATOM     12  C   UNL     1       0.967  -0.625   0.018  0.00  0.00    +0.100 C 
ATOM     13  C   UNL     1       1.622  -1.775  -0.130  0.00  0.00    +0.175 C 
ATOM     14  C   UNL     1       3.094  -1.810  -0.115  0.00  0.00    +0.115 C 
ATOM     15  H   UNL     1       4.658  -0.536   0.081  0.00  0.00    +0.154 HD
ENDBRANCH   5   9
BRANCH   2  16
ATOM     16  O   UNL     1      -0.993   4.159  -0.099  0.00  0.00    -0.382 OA
ATOM     17  H   UNL     1      -1.888   4.485   0.084  0.00  0.00    +0.210 HD
ENDBRANCH   2  16
BRANCH   3  18
ATOM     18  C   UNL     1      -2.302   0.677  -0.377  0.00  0.00    +0.186 C 
BRANCH  18  19
ATOM     19  O   UNL     1      -2.762  -0.213   0.627  0.00  0.00    -0.271 OA
BRANCH  19  20
ATOM     20  P   UNL     1      -3.535  -1.559   0.169  0.00  0.00    +0.473 P 
ATOM     21  O   UNL     1      -3.988  -2.445   1.292  0.00  0.00    -0.227 OA
BRANCH  20  22
ATOM     22  O   UNL     1      -2.520  -2.245  -0.886  0.00  0.00    -0.303 OA
ATOM     23  H   UNL     1      -2.283  -1.602  -1.573  0.00  0.00    +0.222 HD
ENDBRANCH  20  22
BRANCH  20  24
ATOM     24  O   UNL     1      -4.721  -0.990  -0.772  0.00  0.00    -0.303 OA
ATOM     25  H   UNL     1      -4.342  -0.431  -1.468  0.00  0.00    +0.222 HD
ENDBRANCH  20  24
ENDBRANCH  19  20
ENDBRANCH  18  19
ENDBRANCH   3  18
TORSDOF 7
