REMARK  Name = 100228
REMARK  9 active torsions:
REMARK  status: ('A' for Active; 'I' for Inactive)
REMARK    1  A    between atoms: N_1  and  C1*_13
REMARK    2  A    between atoms: C_8  and  S_22
REMARK    3  A    between atoms: C2*_11  and  O2*_15
REMARK    4  A    between atoms: C3*_12  and  O3*_17
REMARK    5  A    between atoms: C4*_14  and  C5*_19
REMARK    6  A    between atoms: C5*_19  and  O5*_20
REMARK    7  A    between atoms: S_22  and  C_23
REMARK    8  A    between atoms: C_23  and  C_24
REMARK    9  A    between atoms: C_29  and  N_32
REMARK                            x       y       z     vdW  Elec       q    Type
REMARK                         _______ _______ _______ _____ _____    ______ ____
ROOT
ATOM      1  N   UNL     1       3.073  -0.071   0.253  0.00  0.00    -0.170 N 
ATOM      2  N   UNL     1       2.737   1.194  -0.065  0.00  0.00    -0.177 NA
ATOM      3  N   UNL     1       2.017  -2.196   0.738  0.00  0.00    -0.231 NA
ATOM      4  N   UNL     1      -0.415  -2.044   0.626  0.00  0.00    -0.242 NA
ATOM      5  C   UNL     1       1.995  -0.892   0.420  0.00  0.00    +0.139 C 
ATOM      6  C   UNL     1       0.877  -0.108   0.194  0.00  0.00    +0.144 C 
ATOM      7  C   UNL     1       1.400   1.165  -0.100  0.00  0.00    +0.105 C 
ATOM      8  C   UNL     1      -0.363  -0.728   0.307  0.00  0.00    +0.094 C 
ATOM      9  C   UNL     1       0.761  -2.687   0.819  0.00  0.00    +0.252 C 
ENDROOT
BRANCH   1  13
ATOM     10  O4* UNL     1       5.219   0.693   0.921  0.00  0.00    -0.332 OA
ATOM     11  C2* UNL     1       5.146  -0.840  -0.924  0.00  0.00    +0.188 C 
ATOM     12  C3* UNL     1       5.959   0.388  -1.287  0.00  0.00    +0.171 C 
ATOM     13  C1* UNL     1       4.484  -0.433   0.393  0.00  0.00    +0.243 C 
ATOM     14  C4* UNL     1       6.358   0.926   0.076  0.00  0.00    +0.176 C 
BRANCH  11  15
ATOM     15  O2* UNL     1       5.990  -1.969  -0.697  0.00  0.00    -0.378 OA
ATOM     16  H2* UNL     1       6.411  -2.230  -1.530  0.00  0.00    +0.211 HD
ENDBRANCH  11  15
BRANCH  12  17
ATOM     17  O3* UNL     1       7.081   0.102  -2.095  0.00  0.00    -0.379 OA
ATOM     18  H3* UNL     1       6.783  -0.238  -2.953  0.00  0.00    +0.211 HD
ENDBRANCH  12  17
BRANCH  14  19
ATOM     19  C5* UNL     1       6.697   2.406   0.067  0.00  0.00    +0.169 C 
BRANCH  19  20
ATOM     20  O5* UNL     1       7.041   2.800   1.384  0.00  0.00    -0.379 OA
ATOM     21  H5* UNL     1       7.260   3.745   1.392  0.00  0.00    +0.211 HD
ENDBRANCH  19  20
ENDBRANCH  14  19
ENDBRANCH   1  13
BRANCH   8  22
ATOM     22  S   UNL     1      -1.851   0.176   0.042  0.00  0.00    -0.094 S 
BRANCH  22  23
ATOM     23  C   UNL     1      -3.130  -1.091   0.310  0.00  0.00    +0.090 C 
BRANCH  23  24
ATOM     24  C   UNL     1      -4.518  -0.541   0.134  0.00  0.00    -0.011 C 
ATOM     25  C   UNL     1      -5.114  -0.575  -1.119  0.00  0.00    -0.002 C 
ATOM     26  C   UNL     1      -5.187  -0.006   1.228  0.00  0.00    -0.002 C 
ATOM     27  C   UNL     1      -6.403  -0.066  -1.283  0.00  0.00    +0.024 C 
ATOM     28  C   UNL     1      -6.475   0.504   1.064  0.00  0.00    +0.024 C 
ATOM     29  C   UNL     1      -7.083   0.474  -0.191  0.00  0.00    +0.143 C 
BRANCH  29  32
ATOM     30  O   UNL     1      -8.918   0.954  -1.497  0.00  0.00    -0.126 OA
ATOM     31  O   UNL     1      -8.985   1.472   0.640  0.00  0.00    -0.126 OA
ATOM     32  N   UNL     1      -8.394   0.993  -0.358  0.00  0.00    +0.058 N 
ENDBRANCH  29  32
ENDBRANCH  23  24
ENDBRANCH  22  23
ENDBRANCH   8  22
TORSDOF 9
