REMARK  Name = 10028785
REMARK  8 active torsions:
REMARK  status: ('A' for Active; 'I' for Inactive)
REMARK    1  A    between atoms: C_7  and  O_23
REMARK    2  A    between atoms: C_8  and  O_25
REMARK    3  A    between atoms: C_21  and  O_27
REMARK    4  A    between atoms: C_21  and  C_31
REMARK    5  A    between atoms: C_22  and  O_29
REMARK    6  A    between atoms: C_22  and  C_36
REMARK    7  A    between atoms: C_32  and  C_33
REMARK    8  A    between atoms: C_37  and  C_38
REMARK                            x       y       z     vdW  Elec       q    Type
REMARK                         _______ _______ _______ _____ _____    ______ ____
ROOT
ATOM      1  O   UNL     1      -1.236   2.634  -1.735  0.00  0.00    -0.332 OA
ATOM      2  O   UNL     1       0.084   3.727  -0.064  0.00  0.00    -0.332 OA
ATOM      3  O   UNL     1       1.063  -1.437  -1.110  0.00  0.00    -0.291 OA
ATOM      4  O   UNL     1      -0.199   0.004   2.817  0.00  0.00    -0.291 OA
ATOM      5  C   UNL     1      -1.739   2.193  -0.446  0.00  0.00    +0.146 C 
ATOM      6  C   UNL     1       0.950   2.764  -0.722  0.00  0.00    +0.146 C 
ATOM      7  C   UNL     1       0.080   2.028  -1.804  0.00  0.00    +0.214 C 
ATOM      8  C   UNL     1      -0.860   2.891   0.654  0.00  0.00    +0.214 C 
ATOM      9  C   UNL     1      -0.279   0.541  -1.499  0.00  0.00    +0.111 C 
ATOM     10  C   UNL     1       0.123   1.965   1.434  0.00  0.00    +0.111 C 
ATOM     11  C   UNL     1      -1.515   0.672  -0.546  0.00  0.00    +0.069 C 
ATOM     12  C   UNL     1       1.350   1.869   0.466  0.00  0.00    +0.069 C 
ATOM     13  C   UNL     1      -1.439   0.021   0.799  0.00  0.00    +0.049 C 
ATOM     14  C   UNL     1       1.794   0.509   0.026  0.00  0.00    +0.049 C 
ATOM     15  C   UNL     1       0.893  -0.238  -0.894  0.00  0.00    +0.176 C 
ATOM     16  C   UNL     1      -0.497   0.610   1.789  0.00  0.00    +0.176 C 
ATOM     17  C   UNL     1      -3.222   2.557  -0.377  0.00  0.00    +0.035 C 
ATOM     18  C   UNL     1       2.150   3.528  -1.283  0.00  0.00    +0.035 C 
ATOM     19  C   UNL     1      -0.726  -0.199  -2.784  0.00  0.00    +0.013 C 
ATOM     20  C   UNL     1       0.598   2.632   2.749  0.00  0.00    +0.013 C 
ATOM     21  C   UNL     1      -2.177  -1.039   1.156  0.00  0.00    +0.132 C 
ATOM     22  C   UNL     1       2.952  -0.054   0.398  0.00  0.00    +0.132 C 
ENDROOT
BRANCH   7  23
ATOM     23  O   UNL     1       0.617   2.145  -3.114  0.00  0.00    -0.362 OA
ATOM     24  H   UNL     1       0.836   3.073  -3.292  0.00  0.00    +0.213 HD
ENDBRANCH   7  23
BRANCH   8  25
ATOM     25  O   UNL     1      -1.667   3.675   1.520  0.00  0.00    -0.362 OA
ATOM     26  H   UNL     1      -2.260   4.233   0.993  0.00  0.00    +0.213 HD
ENDBRANCH   8  25
BRANCH  21  27
ATOM     27  O   UNL     1      -2.086  -1.597   2.417  0.00  0.00    -0.506 OA
ATOM     28  H   UNL     1      -1.496  -1.235   3.048  0.00  0.00    +0.292 HD
ENDBRANCH  21  27
BRANCH  22  29
ATOM     29  O   UNL     1       3.832   0.586   1.249  0.00  0.00    -0.506 OA
ATOM     30  H   UNL     1       3.627   1.438   1.581  0.00  0.00    +0.292 HD
ENDBRANCH  22  29
BRANCH  21  31
ATOM     31  C   UNL     1      -3.119  -1.673   0.252  0.00  0.00    +0.036 C 
ATOM     32  C   UNL     1      -3.887  -2.735   0.545  0.00  0.00    +0.003 C 
BRANCH  32  33
ATOM     33  C   UNL     1      -4.810  -3.322  -0.402  0.00  0.00    -0.004 C 
ATOM     34  C   UNL     1      -5.580  -4.382  -0.116  0.00  0.00    -0.026 C 
ATOM     35  C   UNL     1      -6.537  -4.996  -1.084  0.00  0.00    +0.031 C 
ENDBRANCH  32  33
ENDBRANCH  21  31
BRANCH  22  36
ATOM     36  C   UNL     1       3.361  -1.368  -0.061  0.00  0.00    +0.036 C 
ATOM     37  C   UNL     1       4.504  -1.990   0.272  0.00  0.00    +0.003 C 
BRANCH  37  38
ATOM     38  C   UNL     1       4.856  -3.304  -0.220  0.00  0.00    -0.004 C 
ATOM     39  C   UNL     1       5.996  -3.930   0.110  0.00  0.00    -0.026 C 
ATOM     40  C   UNL     1       6.370  -5.287  -0.390  0.00  0.00    +0.031 C 
ENDBRANCH  37  38
ENDBRANCH  22  36
TORSDOF 8
