10028486
  -OEChem-03292013303D

 66 69  0     1  0  0  0  0  0999 V2000
   -4.3599   -0.7653   -1.2773 O   0  0  0  0  0  0  0  0  0  0  0  0
   -7.7102    0.6874   -0.9578 O   0  0  0  0  0  0  0  0  0  0  0  0
    4.5189    0.7639   -0.7271 O   0  0  0  0  0  0  0  0  0  0  0  0
    4.4329   -2.2037   -0.6182 O   0  0  0  0  0  0  0  0  0  0  0  0
   -2.0814    0.9244   -0.6590 O   0  0  0  0  0  0  0  0  0  0  0  0
    0.3585    1.5333   -0.9673 O   0  0  0  0  0  0  0  0  0  0  0  0
    1.9779   -3.1349    1.0625 O   0  0  0  0  0  0  0  0  0  0  0  0
    8.3346    0.6792   -0.5520 O   0  0  0  0  0  0  0  0  0  0  0  0
    6.9177    2.0014    0.7002 O   0  0  0  0  0  0  0  0  0  0  0  0
   -6.3043    1.8350    1.3754 N   0  0  0  0  0  0  0  0  0  0  0  0
   -5.9533    0.5777    0.7130 C   0  0  2  0  0  0  0  0  0  0  0  0
   -4.4595    0.2993    0.9052 C   0  0  0  0  0  0  0  0  0  0  0  0
   -6.2973    0.6335   -0.7832 C   0  0  1  0  0  0  0  0  0  0  0  0
   -4.0418   -0.9413    0.1075 C   0  0  2  0  0  0  0  0  0  0  0  0
   -5.7632   -0.6129   -1.5046 C   0  0  1  0  0  0  0  0  0  0  0  0
   -2.5586   -1.2102    0.2380 C   0  0  0  0  0  0  0  0  0  0  0  0
   -5.9734   -0.5244   -3.0134 C   0  0  0  0  0  0  0  0  0  0  0  0
    2.5787   -0.9917    0.2466 C   0  0  0  0  0  0  0  0  0  0  0  0
    2.1783    0.1955   -0.2369 C   0  0  0  0  0  0  0  0  0  0  0  0
    4.0421   -1.3067    0.4214 C   0  0  2  0  0  0  0  0  0  0  0  0
    4.9032   -0.0363    0.3957 C   0  0  1  0  0  0  0  0  0  0  0  0
   -1.6186   -0.2577   -0.1565 C   0  0  0  0  0  0  0  0  0  0  0  0
   -0.2501   -0.5264   -0.0255 C   0  0  0  0  0  0  0  0  0  0  0  0
    3.1724    1.2643   -0.6468 C   0  0  1  0  0  0  0  0  0  0  0  0
    0.1704   -1.7475    0.4980 C   0  0  0  0  0  0  0  0  0  0  0  0
   -2.1377   -2.4305    0.7619 C   0  0  0  0  0  0  0  0  0  0  0  0
    0.7328    0.4870   -0.4495 C   0  0  0  0  0  0  0  0  0  0  0  0
    1.6058   -2.0473    0.6365 C   0  0  0  0  0  0  0  0  0  0  0  0
   -5.5369    2.9423    0.8076 C   0  0  0  0  0  0  0  0  0  0  0  0
   -6.0707    1.7354    2.8154 C   0  0  0  0  0  0  0  0  0  0  0  0
   -0.7757   -2.7020    0.8924 C   0  0  0  0  0  0  0  0  0  0  0  0
    6.3928   -0.3324    0.2655 C   0  0  0  0  0  0  0  0  0  0  0  0
    3.1394    2.4918    0.2665 C   0  0  0  0  0  0  0  0  0  0  0  0
    7.2131    0.9312    0.1865 C   0  0  0  0  0  0  0  0  0  0  0  0
    9.2231    1.7885   -0.7209 C   0  0  0  0  0  0  0  0  0  0  0  0
   -6.5438   -0.2325    1.1632 H   0  0  0  0  0  0  0  0  0  0  0  0
   -4.2156    0.1164    1.9582 H   0  0  0  0  0  0  0  0  0  0  0  0
   -3.8711    1.1520    0.5848 H   0  0  0  0  0  0  0  0  0  0  0  0
   -5.8559    1.4927   -1.2932 H   0  0  0  0  0  0  0  0  0  0  0  0
   -4.6010   -1.8123    0.4751 H   0  0  0  0  0  0  0  0  0  0  0  0
   -6.2848   -1.5119   -1.1501 H   0  0  0  0  0  0  0  0  0  0  0  0
   -5.5628   -1.4127   -3.5059 H   0  0  0  0  0  0  0  0  0  0  0  0
   -7.0336   -0.4459   -3.2712 H   0  0  0  0  0  0  0  0  0  0  0  0
   -5.4437    0.3380   -3.4332 H   0  0  0  0  0  0  0  0  0  0  0  0
    4.2134   -1.8210    1.3740 H   0  0  0  0  0  0  0  0  0  0  0  0
    4.7408    0.5391    1.3158 H   0  0  0  0  0  0  0  0  0  0  0  0
    2.9336    1.5935   -1.6651 H   0  0  0  0  0  0  0  0  0  0  0  0
   -2.8568   -3.1832    1.0738 H   0  0  0  0  0  0  0  0  0  0  0  0
   -8.0291    1.4774   -0.4888 H   0  0  0  0  0  0  0  0  0  0  0  0
   -4.4668    2.9428    1.0340 H   0  0  0  0  0  0  0  0  0  0  0  0
   -5.9147    3.8688    1.2625 H   0  0  0  0  0  0  0  0  0  0  0  0
   -5.6885    3.1102   -0.2597 H   0  0  0  0  0  0  0  0  0  0  0  0
   -6.5278    2.5976    3.3156 H   0  0  0  0  0  0  0  0  0  0  0  0
   -5.0128    1.7295    3.0983 H   0  0  0  0  0  0  0  0  0  0  0  0
   -6.5554    0.8479    3.2377 H   0  0  0  0  0  0  0  0  0  0  0  0
   -0.4725   -3.6613    1.3033 H   0  0  0  0  0  0  0  0  0  0  0  0
    6.5739   -0.8939   -0.6594 H   0  0  0  0  0  0  0  0  0  0  0  0
    6.7516   -0.9263    1.1122 H   0  0  0  0  0  0  0  0  0  0  0  0
    3.9493    3.1821    0.0060 H   0  0  0  0  0  0  0  0  0  0  0  0
    2.1905    3.0305    0.1855 H   0  0  0  0  0  0  0  0  0  0  0  0
    3.2782    2.2214    1.3186 H   0  0  0  0  0  0  0  0  0  0  0  0
    4.3533   -1.7319   -1.4653 H   0  0  0  0  0  0  0  0  0  0  0  0
   -1.3639    1.5702   -0.7385 H   0  0  0  0  0  0  0  0  0  0  0  0
   10.0709    1.4559   -1.3257 H   0  0  0  0  0  0  0  0  0  0  0  0
    9.5957    2.1265    0.2507 H   0  0  0  0  0  0  0  0  0  0  0  0
    8.7155    2.6035   -1.2457 H   0  0  0  0  0  0  0  0  0  0  0  0
  1 14  1  0  0  0  0
  1 15  1  0  0  0  0
  2 13  1  0  0  0  0
  2 49  1  0  0  0  0
  3 21  1  0  0  0  0
  3 24  1  0  0  0  0
  4 20  1  0  0  0  0
  4 62  1  0  0  0  0
  5 22  1  0  0  0  0
  5 63  1  0  0  0  0
  6 27  2  0  0  0  0
  7 28  2  0  0  0  0
  8 34  1  0  0  0  0
  8 35  1  0  0  0  0
  9 34  2  0  0  0  0
 10 11  1  0  0  0  0
 10 29  1  0  0  0  0
 10 30  1  0  0  0  0
 11 12  1  0  0  0  0
 11 13  1  0  0  0  0
 11 36  1  0  0  0  0
 12 14  1  0  0  0  0
 12 37  1  0  0  0  0
 12 38  1  0  0  0  0
 13 15  1  0  0  0  0
 13 39  1  0  0  0  0
 14 16  1  0  0  0  0
 14 40  1  0  0  0  0
 15 17  1  0  0  0  0
 15 41  1  0  0  0  0
 16 22  2  0  0  0  0
 16 26  1  0  0  0  0
 17 42  1  0  0  0  0
 17 43  1  0  0  0  0
 17 44  1  0  0  0  0
 18 19  2  0  0  0  0
 18 20  1  0  0  0  0
 18 28  1  0  0  0  0
 19 24  1  0  0  0  0
 19 27  1  0  0  0  0
 20 21  1  0  0  0  0
 20 45  1  0  0  0  0
 21 32  1  0  0  0  0
 21 46  1  0  0  0  0
 22 23  1  0  0  0  0
 23 25  2  0  0  0  0
 23 27  1  0  0  0  0
 24 33  1  0  0  0  0
 24 47  1  0  0  0  0
 25 28  1  0  0  0  0
 25 31  1  0  0  0  0
 26 31  2  0  0  0  0
 26 48  1  0  0  0  0
 29 50  1  0  0  0  0
 29 51  1  0  0  0  0
 29 52  1  0  0  0  0
 30 53  1  0  0  0  0
 30 54  1  0  0  0  0
 30 55  1  0  0  0  0
 31 56  1  0  0  0  0
 32 34  1  0  0  0  0
 32 57  1  0  0  0  0
 32 58  1  0  0  0  0
 33 59  1  0  0  0  0
 33 60  1  0  0  0  0
 33 61  1  0  0  0  0
 35 64  1  0  0  0  0
 35 65  1  0  0  0  0
 35 66  1  0  0  0  0
M  END
> <PUBCHEM_COMPOUND_CID>
10028486

> <PUBCHEM_CONFORMER_RMSD>
1

> <PUBCHEM_CONFORMER_DIVERSEORDER>
2
20
34
23
5
25
41
1
37
40
4
39
26
17
28
36
31
38
33
14
35
16
30
29
11
7
9
13
18
10
24
22
6
19
15
8
21
12
27
32
3

> <PUBCHEM_MMFF94_PARTIAL_CHARGES>
37
1 -0.56
10 -0.81
11 0.27
13 0.28
14 0.42
15 0.28
16 -0.14
18 -0.12
19 -0.12
2 -0.68
20 0.42
21 0.28
22 0.08
23 0.09
24 0.42
25 0.09
26 -0.15
27 0.47
28 0.47
29 0.27
3 -0.56
30 0.27
31 -0.15
32 0.06
34 0.66
35 0.28
4 -0.68
48 0.15
49 0.4
5 -0.53
56 0.15
6 -0.57
62 0.4
63 0.45
7 -0.57
8 -0.43
9 -0.57

> <PUBCHEM_EFFECTIVE_ROTOR_COUNT>
7

> <PUBCHEM_PHARMACOPHORE_FEATURES>
15
1 1 acceptor
1 10 cation
1 2 acceptor
1 2 donor
1 3 acceptor
1 4 acceptor
1 4 donor
1 5 donor
1 6 acceptor
1 7 acceptor
1 9 acceptor
6 1 11 12 13 14 15 rings
6 16 22 23 25 26 31 rings
6 18 19 23 25 27 28 rings
6 3 18 19 20 21 24 rings

> <PUBCHEM_HEAVY_ATOM_COUNT>
35

> <PUBCHEM_ATOM_DEF_STEREO_COUNT>
7

> <PUBCHEM_ATOM_UDEF_STEREO_COUNT>
0

> <PUBCHEM_BOND_DEF_STEREO_COUNT>
0

> <PUBCHEM_BOND_UDEF_STEREO_COUNT>
0

> <PUBCHEM_ISOTOPIC_ATOM_COUNT>
0

> <PUBCHEM_COMPONENT_COUNT>
1

> <PUBCHEM_CACTVS_TAUTO_COUNT>
5

> <PUBCHEM_CONFORMER_ID>
009905C600000002

> <PUBCHEM_MMFF94_ENERGY>
102.3269

> <PUBCHEM_FEATURE_SELFOVERLAP>
76.167

> <PUBCHEM_SHAPE_FINGERPRINT>
10 15 17385721404926081904
10816530 90 17895207627654891828
10906281 52 18261123993166343406
11089746 13 18201717375052725353
11135926 11 18259984868638445582
11315181 36 18342738538014473085
11456790 92 18408038495091900528
12166972 35 13470687070607574794
12236239 1 18130223766498591643
12539765 74 18272381880154531062
12838862 33 18188472671539324628
13690498 29 16916489468214004735
14394314 77 18340775845076947673
14790565 3 18337115579551967049
14849402 71 18410296929865718416
15064981 113 17130977665254148133
15183329 4 18409163316075526085
15289351 153 18341890793169768800
15461852 350 17203609315160349757
1577012 14 18272089370399306763
20511986 3 18200583706135522489
21033648 144 18259979367223371511
21033648 29 16805600318769962695
21033650 10 16917353615591962979
21130935 74 18409166623886965370
21298829 104 18411422804260615896
21756936 100 18343309167665052947
21792965 106 17825364329033350333
23559900 14 18265327481779709312
23576562 1 17701528730866838596
24771293 8 18410012148291353268
25269216 80 17203319049234897631
2838139 119 18272369797741633225
3178227 256 17676213472428281464
335352 9 18261108616819141534
350125 39 18259702328984475916
3680242 22 18040711438159761090
4073 2 18333736831554250242
4093350 32 17846787265523697110
4169191 19 18335138700004321428
4339292 15 15575003927019444579
445580 204 18272936015985818961
44802255 64 16845855685298176301
4516262 110 18339922590299812933
50009960 94 13037255081929649940
5104073 3 18186803616371289779
5265222 85 16414903275132640054
5385378 56 18260549987967291154
5758199 1 18409168809728964570
6086070 43 18200027485804919536
6328613 192 18413109459028458448
636775 72 18342455980469472136
7226269 152 18201725028943183097
9953998 17 13190336868822594005

> <PUBCHEM_SHAPE_MULTIPOLES>
662.48
22.94
2.79
1.58
18.42
0.33
0.28
-15
2.99
0.3
-1.11
-4.05
-0.26
-2.4

> <PUBCHEM_SHAPE_SELFOVERLAP>
1428.731

> <PUBCHEM_SHAPE_VOLUME>
360.9

> <PUBCHEM_COORDINATE_TYPE>
2
5
10

$$$$
