REMARK  Name = 10037425
REMARK  4 active torsions:
REMARK  status: ('A' for Active; 'I' for Inactive)
REMARK    1  A    between atoms: N_2  and  C_15
REMARK    2  A    between atoms: C_12  and  O_16
REMARK    3  A    between atoms: C_14  and  C_18
REMARK    4  A    between atoms: C_18  and  O_19
REMARK                            x       y       z     vdW  Elec       q    Type
REMARK                         _______ _______ _______ _____ _____    ______ ____
ROOT
ATOM      1  O   UNL     1       1.824   2.260   0.817  0.00  0.00    -0.193 OA
ATOM      2  N   UNL     1       0.802   0.337   0.052  0.00  0.00    -0.196 N 
ATOM      3  N   UNL     1       3.199   0.538   0.271  0.00  0.00    -0.306 NA
ATOM      4  N   UNL     1       4.601  -1.230  -0.292  0.00  0.00    -0.332 N 
ATOM      5  C   UNL     1       0.977  -0.959  -0.412  0.00  0.00    +0.082 C 
ATOM      6  C   UNL     1       1.942   1.105   0.402  0.00  0.00    +0.274 C 
ATOM      7  C   UNL     1       2.176  -1.522  -0.547  0.00  0.00    +0.065 C 
ATOM      8  C   UNL     1       3.344  -0.685  -0.169  0.00  0.00    +0.193 C 
ATOM      9  H   UNL     1       5.394  -0.699  -0.049  0.00  0.00    +0.145 HD
ATOM     10  H   UNL     1       4.709  -2.150  -0.623  0.00  0.00    +0.145 HD
ENDROOT
BRANCH   2  15
ATOM     11  S   UNL     1      -1.524  -0.130   1.315  0.00  0.00    -0.116 S 
ATOM     12  C   UNL     1      -2.773   0.825  -0.839  0.00  0.00    +0.125 C 
ATOM     13  C   UNL     1      -1.283   0.813  -1.163  0.00  0.00    +0.062 C 
ATOM     14  C   UNL     1      -3.019  -0.207   0.264  0.00  0.00    +0.105 C 
ATOM     15  C   UNL     1      -0.530   0.857   0.162  0.00  0.00    +0.139 C 
BRANCH  12  16
ATOM     16  O   UNL     1      -3.171   2.123  -0.399  0.00  0.00    -0.383 OA
ATOM     17  H   UNL     1      -3.010   2.767  -1.106  0.00  0.00    +0.210 HD
ENDBRANCH  12  16
BRANCH  14  18
ATOM     18  C   UNL     1      -3.177  -1.623  -0.277  0.00  0.00    +0.150 C 
BRANCH  18  19
ATOM     19  O   UNL     1      -3.388  -2.502   0.813  0.00  0.00    -0.381 OA
ATOM     20  H   UNL     1      -3.491  -3.408   0.482  0.00  0.00    +0.210 HD
ENDBRANCH  18  19
ENDBRANCH  14  18
ENDBRANCH   2  15
TORSDOF 4
