REMARK  Name = 100327
REMARK  4 active torsions:
REMARK  status: ('A' for Active; 'I' for Inactive)
REMARK    1  A    between atoms: N_1  and  C_12
REMARK    2  A    between atoms: C_13  and  O_16
REMARK    3  A    between atoms: C_15  and  C_18
REMARK    4  A    between atoms: C_18  and  O_19
REMARK                            x       y       z     vdW  Elec       q    Type
REMARK                         _______ _______ _______ _____ _____    ______ ____
ROOT
ATOM      1  N   UNL     1      -0.210   0.273   0.122  0.00  0.00    -0.248 N 
ATOM      2  N   UNL     1      -1.640   1.889  -0.449  0.00  0.00    -0.242 NA
ATOM      3  N   UNL     1      -1.781  -1.517   0.605  0.00  0.00    -0.228 NA
ATOM      4  N   UNL     1      -4.087  -0.791   0.269  0.00  0.00    -0.229 NA
ATOM      5  C   UNL     1      -1.461  -0.269   0.231  0.00  0.00    +0.152 C 
ATOM      6  C   UNL     1      -0.372   1.571  -0.289  0.00  0.00    +0.223 C 
ATOM      7  C   UNL     1      -2.332   0.748  -0.127  0.00  0.00    +0.140 C 
ATOM      8  C   UNL     1      -3.691   0.452  -0.100  0.00  0.00    +0.143 C 
ATOM      9  C   UNL     1      -3.121  -1.685   0.593  0.00  0.00    +0.253 C 
ATOM     10  N   UNL     1      -4.645   1.423  -0.450  0.00  0.00    -0.342 N 
ATOM     11  H   UNL     1      -5.604   1.202  -0.427  0.00  0.00    +0.144 HD
ATOM     12  H   UNL     1      -4.354   2.324  -0.718  0.00  0.00    +0.144 HD
ENDROOT
BRANCH   1  15
ATOM     13 CL   UNL     1       1.100  -2.573  -1.288  0.00  0.00    -0.108 Cl
ATOM     14  O   UNL     1       1.996   0.559   0.940  0.00  0.00    -0.334 OA
ATOM     15  C   UNL     1       1.061  -0.393   0.390  0.00  0.00    +0.212 C 
ATOM     16  C   UNL     1       3.195  -1.009  -0.396  0.00  0.00    +0.159 C 
ATOM     17  C   UNL     1       1.742  -0.985  -0.837  0.00  0.00    +0.156 C 
ATOM     18  C   UNL     1       3.308   0.292   0.397  0.00  0.00    +0.174 C 
BRANCH  16  19
ATOM     19  O   UNL     1       3.428  -2.098   0.497  0.00  0.00    -0.380 OA
ATOM     20  H   UNL     1       3.360  -2.934   0.011  0.00  0.00    +0.210 HD
ENDBRANCH  16  19
BRANCH  18  21
ATOM     21  C   UNL     1       3.722   1.478  -0.463  0.00  0.00    +0.169 C 
BRANCH  21  22
ATOM     22  O   UNL     1       3.788   2.632   0.357  0.00  0.00    -0.379 OA
ATOM     23  H   UNL     1       4.051   3.396  -0.180  0.00  0.00    +0.211 HD
ENDBRANCH  21  22
ENDBRANCH  18  21
ENDBRANCH   1  15
TORSDOF 4
