REMARK  Name = 100337
REMARK  6 active torsions:
REMARK  status: ('A' for Active; 'I' for Inactive)
REMARK    1  A    between atoms: C_9  and  O_25
REMARK    2  A    between atoms: C_14  and  O_31
REMARK    3  A    between atoms: C_15  and  O_27
REMARK    4  A    between atoms: C_16  and  O_29
REMARK    5  A    between atoms: O_31  and  C_33
REMARK    6  A    between atoms: C_33  and  C_34
REMARK                            x       y       z     vdW  Elec       q    Type
REMARK                         _______ _______ _______ _____ _____    ______ ____
ROOT
ATOM      1  O   UNL     1       2.333   0.990  -2.245  0.00  0.00    -0.332 OA
ATOM      2  O   UNL     1      -1.103   1.028   1.174  0.00  0.00    -0.448 OA
ATOM      3  O   UNL     1      -1.077   2.230   3.068  0.00  0.00    -0.250 OA
ATOM      4  O   UNL     1       2.566  -4.542   1.188  0.00  0.00    -0.289 OA
ATOM      5  C   UNL     1       0.651   1.195  -0.572  0.00  0.00    +0.073 C 
ATOM      6  C   UNL     1       1.716   0.182  -0.097  0.00  0.00    +0.063 C 
ATOM      7  C   UNL     1       1.326  -1.363  -0.228  0.00  0.00    +0.044 C 
ATOM      8  C   UNL     1       0.928   2.618   0.021  0.00  0.00    +0.020 C 
ATOM      9  C   UNL     1       2.898   0.734  -0.939  0.00  0.00    +0.209 C 
ATOM     10  C   UNL     1      -0.785   0.830  -0.235  0.00  0.00    +0.211 C 
ATOM     11  C   UNL     1      -0.180  -1.594   0.218  0.00  0.00    +0.065 C 
ATOM     12  C   UNL     1       0.924   1.239  -2.083  0.00  0.00    +0.148 C 
ATOM     13  C   UNL     1       2.324   3.173  -0.390  0.00  0.00    +0.033 C 
ATOM     14  C   UNL     1      -1.134  -0.636  -0.542  0.00  0.00    +0.212 C 
ATOM     15  C   UNL     1       3.412   2.080  -0.367  0.00  0.00    +0.161 C 
ATOM     16  C   UNL     1       2.169  -2.191   0.804  0.00  0.00    +0.172 C 
ATOM     17  C   UNL     1       0.687   2.640   1.527  0.00  0.00    +0.110 C 
ATOM     18  C   UNL     1       1.569  -1.929  -1.658  0.00  0.00    +0.003 C 
ATOM     19  C   UNL     1      -0.534  -3.090   0.216  0.00  0.00    -0.038 C 
ATOM     20  C   UNL     1       2.747   4.430   0.376  0.00  0.00    +0.003 C 
ATOM     21  C   UNL     1      -0.582   1.978   1.971  0.00  0.00    +0.317 C 
ATOM     22  C   UNL     1       1.773  -3.657   0.866  0.00  0.00    +0.199 C 
ATOM     23  C   UNL     1       0.376  -4.024   0.541  0.00  0.00    +0.032 C 
ATOM     24  C   UNL     1      -1.931  -3.547  -0.103  0.00  0.00    +0.027 C 
ENDROOT
BRANCH   9  25
ATOM     25  O   UNL     1       3.995  -0.158  -1.026  0.00  0.00    -0.362 OA
ATOM     26  H   UNL     1       3.692  -1.008  -1.383  0.00  0.00    +0.213 HD
ENDBRANCH   9  25
BRANCH  15  27
ATOM     27  O   UNL     1       4.013   1.911   0.911  0.00  0.00    -0.380 OA
ATOM     28  H   UNL     1       4.685   1.214   0.862  0.00  0.00    +0.211 HD
ENDBRANCH  15  27
BRANCH  16  29
ATOM     29  O   UNL     1       3.557  -2.162   0.524  0.00  0.00    -0.377 OA
ATOM     30  H   UNL     1       3.858  -1.242   0.475  0.00  0.00    +0.211 HD
ENDBRANCH  16  29
BRANCH  14  31
ATOM     31  O   UNL     1      -2.489  -0.820  -0.123  0.00  0.00    -0.445 OA
BRANCH  31  33
ATOM     32  O   UNL     1      -3.339   0.447  -1.855  0.00  0.00    -0.245 OA
ATOM     33  C   UNL     1      -3.405  -0.011  -0.727  0.00  0.00    +0.341 C 
BRANCH  33  34
ATOM     34  C   UNL     1      -4.493   0.229   0.250  0.00  0.00    +0.073 C 
ATOM     35  C   UNL     1      -5.775   0.493  -0.061  0.00  0.00    -0.037 C 
ATOM     36  C   UNL     1      -6.780   0.718   1.040  0.00  0.00    +0.027 C 
ATOM     37  C   UNL     1      -6.356   0.579  -1.444  0.00  0.00    +0.027 C 
ENDBRANCH  33  34
ENDBRANCH  31  33
ENDBRANCH  14  31
TORSDOF 6
