REMARK  Name = 10038020
REMARK  10 active torsions:
REMARK  status: ('A' for Active; 'I' for Inactive)
REMARK    1  A    between atoms: C_1  and  O_2
REMARK    2  A    between atoms: C_1  and  C_5
REMARK    3  A    between atoms: C_1  and  C_8
REMARK    4  A    between atoms: C_1  and  C_17
REMARK    5  A    between atoms: C_5  and  O_6
REMARK    6  A    between atoms: C_8  and  C_9
REMARK    7  A    between atoms: C_14  and  O_15
REMARK    8  A    between atoms: C_17  and  O_18
REMARK    9  A    between atoms: C_17  and  C_21
REMARK   10  A    between atoms: C_21  and  O_22
REMARK                            x       y       z     vdW  Elec       q    Type
REMARK                         _______ _______ _______ _____ _____    ______ ____
ROOT
ATOM      1  C   UNL     1      -1.201   0.314  -0.360  0.00  0.00    +0.216 C 
ENDROOT
BRANCH   1   2
ATOM      2  O   UNL     1      -0.926  -0.424  -1.549  0.00  0.00    -0.374 OA
ATOM      3  H   UNL     1      -1.237  -1.337  -1.442  0.00  0.00    +0.211 HD
ENDBRANCH   1   2
BRANCH   1   5
ATOM      4  O   UNL     1      -0.228   2.180  -1.604  0.00  0.00    -0.248 OA
ATOM      5  C   UNL     1      -0.699   1.751  -0.557  0.00  0.00    +0.341 C 
BRANCH   5   6
ATOM      6  O   UNL     1      -0.783   2.508   0.567  0.00  0.00    -0.479 OA
ATOM      7  H   UNL     1      -1.150   2.145   1.349  0.00  0.00    +0.295 HD
ENDBRANCH   5   6
ENDBRANCH   1   5
BRANCH   1   8
ATOM      8  C   UNL     1      -0.348  -0.294   0.782  0.00  0.00    +0.067 C 
BRANCH   8   9
ATOM      9  C   UNL     1       1.141  -0.344   0.521  0.00  0.00    -0.019 C 
ATOM     10  C   UNL     1       1.684  -1.462  -0.087  0.00  0.00    -0.001 C 
ATOM     11  C   UNL     1       1.930   0.731   0.897  0.00  0.00    -0.001 C 
ATOM     12  C   UNL     1       3.057  -1.509  -0.327  0.00  0.00    +0.036 C 
ATOM     13  C   UNL     1       3.303   0.684   0.657  0.00  0.00    +0.036 C 
ATOM     14  C   UNL     1       3.867  -0.435   0.045  0.00  0.00    +0.134 C 
BRANCH  14  15
ATOM     15  O   UNL     1       5.207  -0.481  -0.189  0.00  0.00    -0.506 OA
ATOM     16  H   UNL     1       5.585  -1.233  -0.600  0.00  0.00    +0.292 HD
ENDBRANCH  14  15
ENDBRANCH   8   9
ENDBRANCH   1   8
BRANCH   1  17
ATOM     17  C   UNL     1      -2.724   0.280  -0.097  0.00  0.00    +0.245 C 
BRANCH  17  18
ATOM     18  O   UNL     1      -3.030   1.014   1.083  0.00  0.00    -0.372 OA
ATOM     19  H   UNL     1      -2.690   1.919   0.998  0.00  0.00    +0.211 HD
ENDBRANCH  17  18
BRANCH  17  21
ATOM     20  O   UNL     1      -3.805  -1.533   1.132  0.00  0.00    -0.247 OA
ATOM     21  C   UNL     1      -3.283  -1.119   0.107  0.00  0.00    +0.344 C 
BRANCH  21  22
ATOM     22  O   UNL     1      -3.161  -1.861  -1.022  0.00  0.00    -0.478 OA
ATOM     23  H   UNL     1      -2.752  -1.495  -1.781  0.00  0.00    +0.295 HD
ENDBRANCH  21  22
ENDBRANCH  17  21
ENDBRANCH   1  17
TORSDOF 10
