REMARK  Name = 10037410
REMARK  6 active torsions:
REMARK  status: ('A' for Active; 'I' for Inactive)
REMARK    1  A    between atoms: C_2  and  O_16
REMARK    2  A    between atoms: C_3  and  O_18
REMARK    3  A    between atoms: C_4  and  C_7
REMARK    4  A    between atoms: C_5  and  C_20
REMARK    5  A    between atoms: C_9  and  C_13
REMARK    6  A    between atoms: C_20  and  O_21
REMARK                            x       y       z     vdW  Elec       q    Type
REMARK                         _______ _______ _______ _____ _____    ______ ____
ROOT
ATOM      1  O   UNL     1      -1.532   0.582  -0.994  0.00  0.00    -0.343 OA
ATOM      2  C   UNL     1      -1.768  -0.980   0.769  0.00  0.00    +0.174 C 
ATOM      3  C   UNL     1      -3.123  -0.344   0.516  0.00  0.00    +0.170 C 
ATOM      4  C   UNL     1      -1.033  -0.690  -0.531  0.00  0.00    +0.201 C 
ATOM      5  C   UNL     1      -2.758   0.895  -0.295  0.00  0.00    +0.174 C 
ENDROOT
BRANCH   4   7
ATOM      6  O   UNL     1       1.157  -1.743  -0.624  0.00  0.00    -0.452 OA
ATOM      7  C   UNL     1       0.466  -0.604  -0.374  0.00  0.00    +0.153 C 
ATOM      8  C   UNL     1       1.311   0.417  -0.021  0.00  0.00    +0.043 C 
ATOM      9  C   UNL     1       2.616  -0.131  -0.056  0.00  0.00    +0.093 C 
ATOM     10  C   UNL     1       2.468  -1.447  -0.427  0.00  0.00    +0.184 C 
BRANCH   9  13
ATOM     11  O   UNL     1       4.962  -0.092   0.145  0.00  0.00    -0.270 OA
ATOM     12  N   UNL     1       3.853   1.864   0.597  0.00  0.00    -0.325 N 
ATOM     13  C   UNL     1       3.865   0.511   0.229  0.00  0.00    +0.246 C 
ATOM     14  H   UNL     1       4.698   2.326   0.798  0.00  0.00    +0.145 HD
ATOM     15  H   UNL     1       2.999   2.351   0.654  0.00  0.00    +0.145 HD
ENDBRANCH   9  13
ENDBRANCH   4   7
BRANCH   2  16
ATOM     16  O   UNL     1      -1.850  -2.366   1.030  0.00  0.00    -0.379 OA
ATOM     17  H   UNL     1      -2.324  -2.511   1.864  0.00  0.00    +0.211 HD
ENDBRANCH   2  16
BRANCH   3  18
ATOM     18  O   UNL     1      -3.945  -1.202  -0.275  0.00  0.00    -0.379 OA
ATOM     19  H   UNL     1      -4.178  -1.991   0.239  0.00  0.00    +0.211 HD
ENDBRANCH   3  18
BRANCH   5  20
ATOM     20  C   UNL     1      -2.514   2.121   0.574  0.00  0.00    +0.169 C 
BRANCH  20  21
ATOM     21  O   UNL     1      -2.174   3.211  -0.265  0.00  0.00    -0.379 OA
ATOM     22  H   UNL     1      -2.016   3.999   0.278  0.00  0.00    +0.211 HD
ENDBRANCH  20  21
ENDBRANCH   5  20
TORSDOF 6
