REMARK  Name = 10037499
REMARK  3 active torsions:
REMARK  status: ('A' for Active; 'I' for Inactive)
REMARK    1  A    between atoms: N_3  and  C_15
REMARK    2  A    between atoms: C_13  and  O_18
REMARK    3  A    between atoms: C_14  and  O_20
REMARK                            x       y       z     vdW  Elec       q    Type
REMARK                         _______ _______ _______ _____ _____    ______ ____
ROOT
ATOM      1  F   UNL     1       2.843  -2.300  -0.356  0.00  0.00    -0.199 F 
ATOM      2  O   UNL     1       0.730   2.537   0.532  0.00  0.00    -0.193 OA
ATOM      3  N   UNL     1       0.372   0.269   0.289  0.00  0.00    -0.176 N 
ATOM      4  N   UNL     1       2.572   1.270   0.133  0.00  0.00    -0.304 NA
ATOM      5  N   UNL     1       4.453  -0.041  -0.278  0.00  0.00    -0.330 N 
ATOM      6  C   UNL     1       0.941  -0.975   0.057  0.00  0.00    +0.113 C 
ATOM      7  C   UNL     1       1.206   1.419   0.328  0.00  0.00    +0.276 C 
ATOM      8  C   UNL     1       2.248  -1.117  -0.129  0.00  0.00    +0.200 C 
ATOM      9  C   UNL     1       3.099   0.092  -0.085  0.00  0.00    +0.220 C 
ATOM     10  H   UNL     1       5.035   0.753  -0.252  0.00  0.00    +0.145 HD
ATOM     11  H   UNL     1       4.842  -0.931  -0.441  0.00  0.00    +0.145 HD
ENDROOT
BRANCH   3  15
ATOM     12  O   UNL     1      -1.531  -0.793   1.135  0.00  0.00    -0.335 OA
ATOM     13  C   UNL     1      -1.804   0.514  -0.823  0.00  0.00    +0.188 C 
ATOM     14  C   UNL     1      -3.135  -0.119  -0.473  0.00  0.00    +0.169 C 
ATOM     15  C   UNL     1      -1.044   0.393   0.486  0.00  0.00    +0.236 C 
ATOM     16  C   UNL     1      -2.715  -1.256   0.448  0.00  0.00    +0.146 C 
ATOM     17  C   UNL     1      -2.360  -2.536  -0.298  0.00  0.00    +0.035 C 
BRANCH  13  18
ATOM     18  O   UNL     1      -1.944   1.853  -1.250  0.00  0.00    -0.378 OA
ATOM     19  H   UNL     1      -2.434   1.877  -2.086  0.00  0.00    +0.211 HD
ENDBRANCH  13  18
BRANCH  14  20
ATOM     20  O   UNL     1      -3.931   0.790   0.285  0.00  0.00    -0.379 OA
ATOM     21  H   UNL     1      -4.212   1.525  -0.282  0.00  0.00    +0.211 HD
ENDBRANCH  14  20
ENDBRANCH   3  15
TORSDOF 3
