REMARK  Name = 10045185
REMARK  4 active torsions:
REMARK  status: ('A' for Active; 'I' for Inactive)
REMARK    1  A    between atoms: C_7  and  C_25
REMARK    2  A    between atoms: C_19  and  O_23
REMARK    3  A    between atoms: C_25  and  C_27
REMARK    4  A    between atoms: C_27  and  O_29
REMARK                            x       y       z     vdW  Elec       q    Type
REMARK                         _______ _______ _______ _____ _____    ______ ____
ROOT
ATOM      1  O   UNL     1       1.671   0.627  -0.273  0.00  0.00    -0.457 OA
ATOM      2  O   UNL     1       3.788  -2.835  -0.094  0.00  0.00    -0.286 OA
ATOM      3  O   UNL     1      -0.570   1.824  -0.259  0.00  0.00    -0.286 OA
ATOM      4  O   UNL     1      -3.221  -2.783   0.265  0.00  0.00    -0.287 OA
ATOM      5  C   UNL     1       0.982  -0.554  -0.138  0.00  0.00    +0.151 C 
ATOM      6  C   UNL     1      -0.425  -0.518  -0.069  0.00  0.00    +0.077 C 
ATOM      7  C   UNL     1       3.052   0.605  -0.343  0.00  0.00    +0.128 C 
ATOM      8  C   UNL     1       1.650  -1.781  -0.070  0.00  0.00    +0.070 C 
ATOM      9  C   UNL     1      -1.134  -1.718   0.068  0.00  0.00    +0.045 C 
ATOM     10  C   UNL     1       0.939  -2.973   0.067  0.00  0.00    -0.016 C 
ATOM     11  C   UNL     1      -0.452  -2.941   0.136  0.00  0.00    -0.001 C 
ATOM     12  C   UNL     1       3.793  -0.509  -0.288  0.00  0.00    +0.075 C 
ATOM     13  C   UNL     1       3.120  -1.811  -0.144  0.00  0.00    +0.201 C 
ATOM     14  C   UNL     1      -1.174   0.765  -0.139  0.00  0.00    +0.202 C 
ATOM     15  C   UNL     1      -2.650   0.751  -0.063  0.00  0.00    +0.076 C 
ATOM     16  C   UNL     1      -2.610  -1.728   0.144  0.00  0.00    +0.196 C 
ATOM     17  C   UNL     1      -3.342  -0.451   0.073  0.00  0.00    +0.045 C 
ATOM     18  C   UNL     1       1.582  -4.321   0.146  0.00  0.00    +0.031 C 
ATOM     19  C   UNL     1      -3.358   1.958  -0.130  0.00  0.00    +0.137 C 
ATOM     20  C   UNL     1      -4.741  -0.450   0.143  0.00  0.00    +0.003 C 
ATOM     21  C   UNL     1      -4.752   1.956  -0.060  0.00  0.00    +0.037 C 
ATOM     22  C   UNL     1      -5.442   0.754   0.076  0.00  0.00    +0.003 C 
ENDROOT
BRANCH  19  23
ATOM     23  O   UNL     1      -2.748   3.170  -0.265  0.00  0.00    -0.505 OA
ATOM     24  H   UNL     1      -1.814   3.221  -0.316  0.00  0.00    +0.292 HD
ENDBRANCH  19  23
BRANCH   7  25
ATOM     25  C   UNL     1       3.663   1.963  -0.488  0.00  0.00    +0.084 C 
ATOM     26  C   UNL     1       3.214   2.582  -1.815  0.00  0.00    +0.010 C 
BRANCH  25  27
ATOM     27  C   UNL     1       3.358   2.905   0.699  0.00  0.00    +0.118 C 
ATOM     28  C   UNL     1       3.856   2.367   2.037  0.00  0.00    +0.032 C 
BRANCH  27  29
ATOM     29  O   UNL     1       1.956   3.149   0.784  0.00  0.00    -0.384 OA
ATOM     30  H   UNL     1       1.635   3.491  -0.065  0.00  0.00    +0.210 HD
ENDBRANCH  27  29
ENDBRANCH  25  27
ENDBRANCH   7  25
TORSDOF 4
