REMARK  Name = 100475
REMARK  3 active torsions:
REMARK  status: ('A' for Active; 'I' for Inactive)
REMARK    1  A    between atoms: C_7  and  S_17
REMARK    2  A    between atoms: S_17  and  C_18
REMARK    3  A    between atoms: C_19  and  C_27
REMARK                            x       y       z     vdW  Elec       q    Type
REMARK                         _______ _______ _______ _____ _____    ______ ____
ROOT
ATOM      1  N   UNL     1       3.960  -0.855  -0.906  0.00  0.00    -0.332 NA
ATOM      2  N   UNL     1       4.009  -0.664   1.496  0.00  0.00    -0.317 NA
ATOM      3  N   UNL     1       2.386   0.603   2.633  0.00  0.00    -0.335 N 
ATOM      4  N   UNL     1       5.622  -1.927   0.358  0.00  0.00    -0.283 N 
ATOM      5  C   UNL     1       2.287   0.447   0.214  0.00  0.00    +0.143 C 
ATOM      6  C   UNL     1       2.865  -0.076  -0.954  0.00  0.00    +0.134 C 
ATOM      7  C   UNL     1       0.565   1.557  -1.078  0.00  0.00    +0.026 C 
ATOM      8  C   UNL     1       1.142   1.260   0.152  0.00  0.00    -0.004 C 
ATOM      9  C   UNL     1       2.268   0.237  -2.172  0.00  0.00    +0.030 C 
ATOM     10  C   UNL     1       1.129   1.045  -2.241  0.00  0.00    +0.009 C 
ATOM     11  C   UNL     1       2.912   0.112   1.412  0.00  0.00    +0.178 C 
ATOM     12  C   UNL     1       4.472  -1.107   0.316  0.00  0.00    +0.197 C 
ATOM     13  H   UNL     1       2.821   0.372   3.485  0.00  0.00    +0.144 HD
ATOM     14  H   UNL     1       1.585   1.176   2.629  0.00  0.00    +0.144 HD
ATOM     15  H   UNL     1       6.005  -2.280  -0.477  0.00  0.00    +0.156 HD
ATOM     16  H   UNL     1       6.039  -2.145   1.223  0.00  0.00    +0.156 HD
ENDROOT
BRANCH   7  17
ATOM     17  S   UNL     1      -0.885   2.587  -1.166  0.00  0.00    -0.087 S 
BRANCH  17  18
ATOM     18  C   UNL     1      -2.048   1.639  -0.196  0.00  0.00    +0.029 C 
ATOM     19  C   UNL     1      -3.293  -0.394   0.171  0.00  0.00    +0.072 C 
ATOM     20  C   UNL     1      -2.384   0.345  -0.586  0.00  0.00    +0.010 C 
ATOM     21  C   UNL     1      -2.614   2.198   0.947  0.00  0.00    +0.006 C 
ATOM     22  C   UNL     1      -3.862   0.163   1.316  0.00  0.00    +0.004 C 
ATOM     23  C   UNL     1      -3.523   1.458   1.704  0.00  0.00    +0.000 C 
BRANCH  19  27
ATOM     24  F   UNL     1      -4.554  -2.383   0.591  0.00  0.00    -0.166 F 
ATOM     25  F   UNL     1      -4.221  -1.850  -1.485  0.00  0.00    -0.166 F 
ATOM     26  F   UNL     1      -2.577  -2.616  -0.284  0.00  0.00    -0.166 F 
ATOM     27  C   UNL     1      -3.656  -1.780  -0.243  0.00  0.00    +0.419 C 
ENDBRANCH  19  27
ENDBRANCH  17  18
ENDBRANCH   7  17
TORSDOF 3
