REMARK  Name = 10044053
REMARK  8 active torsions:
REMARK  status: ('A' for Active; 'I' for Inactive)
REMARK    1  A    between atoms: N_1  and  C_11
REMARK    2  A    between atoms: C_5  and  C_26
REMARK    3  A    between atoms: C_7  and  O_24
REMARK    4  A    between atoms: C_12  and  O_16
REMARK    5  A    between atoms: C_13  and  O_18
REMARK    6  A    between atoms: C_15  and  C_21
REMARK    7  A    between atoms: C_21  and  O_22
REMARK    8  A    between atoms: C_26  and  C_28
REMARK                            x       y       z     vdW  Elec       q    Type
REMARK                         _______ _______ _______ _____ _____    ______ ____
ROOT
ATOM      1  N   UNL     1      -0.198   0.042   0.160  0.00  0.00    -0.262 N 
ATOM      2  C   UNL     1      -1.071  -0.928  -0.283  0.00  0.00    +0.056 C 
ATOM      3  C   UNL     1      -0.865   0.962   0.924  0.00  0.00    +0.064 C 
ATOM      4  C   UNL     1      -2.333  -0.607   0.220  0.00  0.00    +0.046 C 
ATOM      5  C   UNL     1      -2.188   0.588   0.980  0.00  0.00    +0.012 C 
ATOM      6  C   UNL     1      -0.840  -2.053  -1.083  0.00  0.00    +0.015 C 
ATOM      7  C   UNL     1      -3.420  -1.448  -0.089  0.00  0.00    +0.140 C 
ATOM      8  C   UNL     1      -1.933  -2.873  -1.375  0.00  0.00    +0.004 C 
ATOM      9  C   UNL     1      -3.205  -2.577  -0.887  0.00  0.00    +0.037 C 
ENDROOT
BRANCH   1  11
ATOM     10  O   UNL     1       1.923   0.642   1.002  0.00  0.00    -0.326 OA
ATOM     11  C   UNL     1       1.242   0.094  -0.132  0.00  0.00    +0.226 C 
ATOM     12  C   UNL     1       1.558   0.879  -1.411  0.00  0.00    +0.184 C 
ATOM     13  C   UNL     1       3.069   0.866  -1.638  0.00  0.00    +0.144 C 
ATOM     14  C   UNL     1       3.805   1.387  -0.403  0.00  0.00    +0.073 C 
ATOM     15  C   UNL     1       3.338   0.703   0.880  0.00  0.00    +0.218 C 
BRANCH  12  16
ATOM     16  O   UNL     1       1.116   2.230  -1.262  0.00  0.00    -0.378 OA
ATOM     17  H   UNL     1       0.157   2.242  -1.118  0.00  0.00    +0.211 HD
ENDBRANCH  12  16
BRANCH  13  18
ATOM     18  O   UNL     1       3.389   1.663  -2.772  0.00  0.00    -0.382 OA
ATOM     19  H   UNL     1       2.917   1.325  -3.549  0.00  0.00    +0.210 HD
ENDBRANCH  13  18
BRANCH  15  21
ATOM     20  O   UNL     1       3.256  -1.689   1.163  0.00  0.00    -0.247 OA
ATOM     21  C   UNL     1       3.923  -0.670   1.046  0.00  0.00    +0.345 C 
BRANCH  21  22
ATOM     22  O   UNL     1       5.284  -0.589   1.044  0.00  0.00    -0.443 OA
ATOM     23  C   UNL     1       5.974  -1.834   1.196  0.00  0.00    +0.256 C 
ENDBRANCH  21  22
ENDBRANCH  15  21
ENDBRANCH   1  11
BRANCH   7  24
ATOM     24  O   UNL     1      -4.684  -1.190   0.374  0.00  0.00    -0.471 OA
ATOM     25  C   UNL     1      -5.514  -0.379  -0.449  0.00  0.00    +0.252 C 
ENDBRANCH   7  24
BRANCH   5  26
ATOM     26  C   UNL     1      -3.253   1.310   1.705  0.00  0.00    +0.133 C 
BRANCH  26  28
ATOM     27  N   UNL     1      -4.445   3.133   0.213  0.00  0.00    -0.196 NA
ATOM     28  C   UNL     1      -3.927   2.335   0.877  0.00  0.00    +0.078 C 
ENDBRANCH  26  28
ENDBRANCH   5  26
TORSDOF 8
