REMARK  Name = 100417
REMARK  5 active torsions:
REMARK  status: ('A' for Active; 'I' for Inactive)
REMARK    1  A    between atoms: N_1  and  C_11
REMARK    2  A    between atoms: C_7  and  C_22
REMARK    3  A    between atoms: C_12  and  O_15
REMARK    4  A    between atoms: C_14  and  C_17
REMARK    5  A    between atoms: C_17  and  O_18
REMARK                            x       y       z     vdW  Elec       q    Type
REMARK                         _______ _______ _______ _____ _____    ______ ____
ROOT
ATOM      1  N   UNL     1       0.310   0.304  -0.220  0.00  0.00    -0.250 N 
ATOM      2  N   UNL     1      -0.987   2.325  -0.448  0.00  0.00    -0.233 NA
ATOM      3  N   UNL     1      -3.384   1.944  -0.265  0.00  0.00    -0.234 NA
ATOM      4  C   UNL     1      -0.872   0.999  -0.260  0.00  0.00    +0.122 C 
ATOM      5  C   UNL     1       0.046  -1.027  -0.011  0.00  0.00    +0.069 C 
ATOM      6  C   UNL     1      -1.910   0.094  -0.071  0.00  0.00    +0.135 C 
ATOM      7  C   UNL     1      -1.320  -1.186   0.085  0.00  0.00    +0.059 C 
ATOM      8  C   UNL     1      -3.203   0.616  -0.079  0.00  0.00    +0.110 C 
ATOM      9  C   UNL     1      -2.280   2.706  -0.436  0.00  0.00    +0.252 C 
ATOM     10  N   UNL     1      -4.322  -0.216   0.103  0.00  0.00    -0.346 N 
ATOM     11  H   UNL     1      -5.228   0.169   0.094  0.00  0.00    +0.143 HD
ATOM     12  H   UNL     1      -4.200  -1.183   0.239  0.00  0.00    +0.143 HD
ENDROOT
BRANCH   1  14
ATOM     13  O   UNL     1       2.504  -0.071  -1.032  0.00  0.00    -0.335 OA
ATOM     14  C   UNL     1       1.644   0.878  -0.376  0.00  0.00    +0.224 C 
ATOM     15  C   UNL     1       2.319   1.238   0.938  0.00  0.00    +0.160 C 
ATOM     16  C   UNL     1       3.780   1.159   0.554  0.00  0.00    +0.066 C 
ATOM     17  C   UNL     1       3.811   0.000  -0.430  0.00  0.00    +0.149 C 
BRANCH  15  18
ATOM     18  O   UNL     1       1.956   2.536   1.363  0.00  0.00    -0.380 OA
ATOM     19  H   UNL     1       1.015   2.548   1.600  0.00  0.00    +0.211 HD
ENDBRANCH  15  18
BRANCH  17  20
ATOM     20  C   UNL     1       4.116  -1.335   0.234  0.00  0.00    +0.167 C 
BRANCH  20  21
ATOM     21  O   UNL     1       4.114  -2.352  -0.755  0.00  0.00    -0.379 OA
ATOM     22  H   UNL     1       4.307  -3.207  -0.339  0.00  0.00    +0.211 HD
ENDBRANCH  20  21
ENDBRANCH  17  20
ENDBRANCH   1  14
BRANCH   7  25
ATOM     23  O   UNL     1      -3.204  -2.586   0.370  0.00  0.00    -0.271 OA
ATOM     24  N   UNL     1      -1.153  -3.578   0.428  0.00  0.00    -0.326 N 
ATOM     25  C   UNL     1      -1.965  -2.449   0.305  0.00  0.00    +0.241 C 
ATOM     26  H   UNL     1      -1.558  -4.462   0.580  0.00  0.00    +0.145 HD
ATOM     27  H   UNL     1      -0.174  -3.489   0.363  0.00  0.00    +0.145 HD
ENDBRANCH   7  25
TORSDOF 5
