REMARK  Name = 100423
REMARK  6 active torsions:
REMARK  status: ('A' for Active; 'I' for Inactive)
REMARK    1  A    between atoms: N_1  and  N_2
REMARK    2  A    between atoms: N_1  and  C_10
REMARK    3  A    between atoms: N_2  and  C_23
REMARK    4  A    between atoms: N_19  and  C_25
REMARK    5  A    between atoms: N_20  and  C_23
REMARK    6  A    between atoms: C_21  and  C_23
REMARK                            x       y       z     vdW  Elec       q    Type
REMARK                         _______ _______ _______ _____ _____    ______ ____
ROOT
ATOM      1  O   UNL     1      -3.662   3.005  -1.514  0.00  0.00    -0.279 OA
ATOM      2  N   UNL     1      -2.352   1.097  -1.000  0.00  0.00    -0.293 NA
ATOM      3  N   UNL     1      -4.421   1.273  -0.084  0.00  0.00    -0.271 N 
ATOM      4  N   UNL     1      -4.373  -0.837   1.179  0.00  0.00    -0.228 NA
ATOM      5  N   UNL     1      -2.290  -2.074   0.901  0.00  0.00    -0.226 NA
ATOM      6  C   UNL     1      -2.590  -0.016  -0.204  0.00  0.00    +0.138 C 
ATOM      7  C   UNL     1      -3.845   0.077   0.361  0.00  0.00    +0.151 C 
ATOM      8  C   UNL     1      -1.824  -1.107   0.081  0.00  0.00    +0.183 C 
ATOM      9  C   UNL     1      -3.500   1.936  -0.944  0.00  0.00    +0.331 C 
ATOM     10  C   UNL     1      -3.541  -1.880   1.403  0.00  0.00    +0.253 C 
ATOM     11  H   UNL     1      -1.532   1.275  -1.515  0.00  0.00    +0.187 HD
ATOM     12  H   UNL     1      -5.316   1.602   0.159  0.00  0.00    +0.156 HD
ENDROOT
BRANCH   8  13
ATOM     13  N   UNL     1      -0.545  -1.279  -0.448  0.00  0.00    -0.125 NA
BRANCH  13  14
ATOM     14  N   UNL     1       0.312  -0.769   0.313  0.00  0.00    -0.081 NA
BRANCH  14  15
ATOM     15  C   UNL     1       1.599  -0.883  -0.117  0.00  0.00    +0.230 C 
BRANCH  15  17
ATOM     16  N   UNL     1       2.530   1.215   0.913  0.00  0.00    -0.308 NA
ATOM     17  C   UNL     1       2.584   0.040   0.174  0.00  0.00    +0.127 C 
ATOM     18  H   UNL     1       1.733   1.580   1.361  0.00  0.00    +0.186 HD
ENDBRANCH  15  17
BRANCH  15  19
ATOM     19  N   UNL     1       1.938  -1.966  -0.878  0.00  0.00    -0.229 NA
ATOM     20  C   UNL     1       3.232  -2.054  -1.295  0.00  0.00    +0.178 C 
BRANCH  20  21
ATOM     21  N   UNL     1       4.245  -1.191  -1.048  0.00  0.00    -0.216 NA
ATOM     22  C   UNL     1       3.865  -0.151  -0.301  0.00  0.00    +0.137 C 
ENDBRANCH  20  21
ENDBRANCH  15  19
ENDBRANCH  14  15
ENDBRANCH  13  14
ENDBRANCH   8  13
TORSDOF 6
REMARK  Name = 100423
REMARK  6 active torsions:
REMARK  status: ('A' for Active; 'I' for Inactive)
REMARK    1  A    between atoms: N_1  and  N_2
REMARK    2  A    between atoms: N_1  and  C_10
REMARK    3  A    between atoms: N_2  and  C_23
REMARK    4  A    between atoms: N_19  and  C_25
REMARK    5  A    between atoms: N_20  and  C_23
REMARK    6  A    between atoms: C_21  and  C_23
REMARK                            x       y       z     vdW  Elec       q    Type
REMARK                         _______ _______ _______ _____ _____    ______ ____
ROOT
ATOM      1  O   UNL     1       4.169   2.840   1.454  0.00  0.00    -0.279 OA
ATOM      2  C   UNL     1       3.827   1.800   0.910  0.00  0.00    +0.279 C 
ENDROOT
TORSDOF 0
REMARK  Name = 100423
REMARK  6 active torsions:
REMARK  status: ('A' for Active; 'I' for Inactive)
REMARK    1  A    between atoms: N_1  and  N_2
REMARK    2  A    between atoms: N_1  and  C_10
REMARK    3  A    between atoms: N_2  and  C_23
REMARK    4  A    between atoms: N_19  and  C_25
REMARK    5  A    between atoms: N_20  and  C_23
REMARK    6  A    between atoms: C_21  and  C_23
REMARK                            x       y       z     vdW  Elec       q    Type
REMARK                         _______ _______ _______ _____ _____    ______ ____
ROOT
ATOM      1  N   UNL     1       4.644   0.923   0.142  0.00  0.00    -0.163 NA
ATOM      2  H   UNL     1       5.602   1.052  -0.046  0.00  0.00    +0.163 HD
ENDROOT
TORSDOF 0
