10041933
  -OEChem-03292013303D

 42 42  0     1  0  0  0  0  0999 V2000
   -4.4090    3.2110    0.6251 S   0  0  0  0  0  0  0  0  0  0  0  0
   -0.6152   -0.6153    0.3244 O   0  0  0  0  0  0  0  0  0  0  0  0
   -0.7815    0.6799   -1.6067 O   0  0  0  0  0  0  0  0  0  0  0  0
   -4.7747   -2.4764   -0.8174 O   0  0  0  0  0  0  0  0  0  0  0  0
    5.8057   -1.1840   -0.8635 O   0  0  0  0  0  0  0  0  0  0  0  0
   -3.0991   -1.3220    0.3148 N   0  0  0  0  0  0  0  0  0  0  0  0
    4.8423    0.5539    0.4053 N   0  0  0  0  0  0  0  0  0  0  0  0
   -2.7692   -0.3795   -0.7236 C   0  0  1  0  0  0  0  0  0  0  0  0
   -3.6382    0.8823   -0.6341 C   0  0  0  0  0  0  0  0  0  0  0  0
   -3.3412    1.7406    0.5987 C   0  0  0  0  0  0  0  0  0  0  0  0
   -1.2856   -0.0326   -0.7442 C   0  0  0  0  0  0  0  0  0  0  0  0
   -4.0785   -2.2943    0.1780 C   0  0  0  0  0  0  0  0  0  0  0  0
    0.7505   -0.3215    0.3429 C   0  0  0  0  0  0  0  0  0  0  0  0
    1.6521   -1.1545   -0.3197 C   0  0  0  0  0  0  0  0  0  0  0  0
    1.2128    0.8033    1.0262 C   0  0  0  0  0  0  0  0  0  0  0  0
    3.4781    0.2624    0.3838 C   0  0  0  0  0  0  0  0  0  0  0  0
   -4.2014   -3.1609    1.4025 C   0  0  0  0  0  0  0  0  0  0  0  0
    3.0158   -0.8624   -0.2993 C   0  0  0  0  0  0  0  0  0  0  0  0
    2.5765    1.0953    1.0466 C   0  0  0  0  0  0  0  0  0  0  0  0
   -3.4558    4.2458   -0.5089 C   0  0  0  0  0  0  0  0  0  0  0  0
    5.8889   -0.1589   -0.1949 C   0  0  0  0  0  0  0  0  0  0  0  0
    7.2265    0.4878    0.0639 C   0  0  0  0  0  0  0  0  0  0  0  0
   -2.9735   -0.8763   -1.6807 H   0  0  0  0  0  0  0  0  0  0  0  0
   -4.6968    0.5909   -0.6371 H   0  0  0  0  0  0  0  0  0  0  0  0
   -3.4693    1.4740   -1.5423 H   0  0  0  0  0  0  0  0  0  0  0  0
   -2.2930    2.0510    0.6452 H   0  0  0  0  0  0  0  0  0  0  0  0
   -3.5521    1.1693    1.5086 H   0  0  0  0  0  0  0  0  0  0  0  0
   -2.5897   -1.2598    1.1919 H   0  0  0  0  0  0  0  0  0  0  0  0
    1.2965   -2.0325   -0.8522 H   0  0  0  0  0  0  0  0  0  0  0  0
    0.5149    1.4551    1.5447 H   0  0  0  0  0  0  0  0  0  0  0  0
   -3.3240   -3.8088    1.4804 H   0  0  0  0  0  0  0  0  0  0  0  0
   -5.1003   -3.7790    1.3280 H   0  0  0  0  0  0  0  0  0  0  0  0
   -4.2770   -2.5396    2.2996 H   0  0  0  0  0  0  0  0  0  0  0  0
    3.6518   -1.5535   -0.8346 H   0  0  0  0  0  0  0  0  0  0  0  0
    2.9226    1.9750    1.5833 H   0  0  0  0  0  0  0  0  0  0  0  0
   -3.9322    5.2274   -0.5801 H   0  0  0  0  0  0  0  0  0  0  0  0
   -3.4276    3.8080   -1.5094 H   0  0  0  0  0  0  0  0  0  0  0  0
   -2.4370    4.3859   -0.1379 H   0  0  0  0  0  0  0  0  0  0  0  0
    5.0993    1.3907    0.9249 H   0  0  0  0  0  0  0  0  0  0  0  0
    7.4070    0.5494    1.1408 H   0  0  0  0  0  0  0  0  0  0  0  0
    7.2405    1.4926   -0.3674 H   0  0  0  0  0  0  0  0  0  0  0  0
    8.0210   -0.1073   -0.3948 H   0  0  0  0  0  0  0  0  0  0  0  0
  1 10  1  0  0  0  0
  1 20  1  0  0  0  0
  2 11  1  0  0  0  0
  2 13  1  0  0  0  0
  3 11  2  0  0  0  0
  4 12  2  0  0  0  0
  5 21  2  0  0  0  0
  6  8  1  0  0  0  0
  6 12  1  0  0  0  0
  6 28  1  0  0  0  0
  7 16  1  0  0  0  0
  7 21  1  0  0  0  0
  7 39  1  0  0  0  0
  8  9  1  0  0  0  0
  8 11  1  0  0  0  0
  8 23  1  0  0  0  0
  9 10  1  0  0  0  0
  9 24  1  0  0  0  0
  9 25  1  0  0  0  0
 10 26  1  0  0  0  0
 10 27  1  0  0  0  0
 12 17  1  0  0  0  0
 13 14  2  0  0  0  0
 13 15  1  0  0  0  0
 14 18  1  0  0  0  0
 14 29  1  0  0  0  0
 15 19  2  0  0  0  0
 15 30  1  0  0  0  0
 16 18  2  0  0  0  0
 16 19  1  0  0  0  0
 17 31  1  0  0  0  0
 17 32  1  0  0  0  0
 17 33  1  0  0  0  0
 18 34  1  0  0  0  0
 19 35  1  0  0  0  0
 20 36  1  0  0  0  0
 20 37  1  0  0  0  0
 20 38  1  0  0  0  0
 21 22  1  0  0  0  0
 22 40  1  0  0  0  0
 22 41  1  0  0  0  0
 22 42  1  0  0  0  0
M  END
> <PUBCHEM_COMPOUND_CID>
10041933

> <PUBCHEM_CONFORMER_RMSD>
1

> <PUBCHEM_CONFORMER_DIVERSEORDER>
1
121
60
74
81
149
40
47
126
84
15
97
140
138
102
22
35
71
26
57
79
17
50
147
7
95
144
117
153
24
94
46
36
88
77
133
107
82
78
41
100
125
65
55
63
29
105
6
96
32
115
80
37
114
91
8
111
53
128
151
33
109
51
66
152
27
73
42
19
49
72
34
110
127
122
61
139
85
141
20
68
116
120
155
108
98
129
76
89
21
52
18
92
39
69
54
11
45
99
13
2
58
137
157
158
48
56
118
136
123
3
101
70
43
31
106
87
132
75
142
86
67
112
103
59
44
135
154
130
64
16
90
5
23
25
10
104
156
30
119
62
14
93
9
113
28
150
146
131
148
83
38
12
124
143
145
4
134

> <PUBCHEM_MMFF94_PARTIAL_CHARGES>
27
1 -0.46
10 0.23
11 0.66
12 0.57
13 0.08
14 -0.15
15 -0.15
16 0.12
17 0.06
18 -0.15
19 -0.15
2 -0.23
20 0.23
21 0.57
22 0.06
28 0.37
29 0.15
3 -0.57
30 0.15
34 0.15
35 0.15
39 0.37
4 -0.57
5 -0.57
6 -0.73
7 -0.55
8 0.36

> <PUBCHEM_EFFECTIVE_ROTOR_COUNT>
10

> <PUBCHEM_PHARMACOPHORE_FEATURES>
7
1 20 hydrophobe
1 3 acceptor
1 4 acceptor
1 5 acceptor
1 6 donor
1 7 donor
6 13 14 15 16 18 19 rings

> <PUBCHEM_HEAVY_ATOM_COUNT>
22

> <PUBCHEM_ATOM_DEF_STEREO_COUNT>
0

> <PUBCHEM_ATOM_UDEF_STEREO_COUNT>
1

> <PUBCHEM_BOND_DEF_STEREO_COUNT>
0

> <PUBCHEM_BOND_UDEF_STEREO_COUNT>
0

> <PUBCHEM_ISOTOPIC_ATOM_COUNT>
0

> <PUBCHEM_COMPONENT_COUNT>
1

> <PUBCHEM_CACTVS_TAUTO_COUNT>
4

> <PUBCHEM_CONFORMER_ID>
00993A4D00000001

> <PUBCHEM_MMFF94_ENERGY>
56.7177

> <PUBCHEM_FEATURE_SELFOVERLAP>
35.522

> <PUBCHEM_SHAPE_FINGERPRINT>
10912923 1 17894623752140723392
11014199 57 18262802981449698325
11101153 10 18191310583459066348
11315181 36 18040434438190539766
11545043 162 18343580759156864632
12236239 1 15430302672775157282
12403259 415 17917704738922775720
12616971 3 16805617953372527670
13009979 54 18042134309395905829
13073987 5 18410287022071894762
13583140 156 17917709102150527647
14178342 30 18261399927461104071
15778101 99 18340208492406838296
17844677 252 18341335582404594440
17980427 26 17619619191159599541
20101258 96 18338520841375330225
21279426 13 18129949958233553486
23081809 10 12319735878437576874
23402539 116 17385999585710641830
23557571 272 18411984662996724135
23559900 14 18338506543191382971
4073 2 18408608046030461082
5104073 3 18409721842782501442
57634706 229 17985846834531662593
59755656 520 18263359201468402429
7495541 125 18263925600285739682
77188 2 18049445044240511361
7808743 9 18336262327979388161
90127 26 17988913492419179872

> <PUBCHEM_SHAPE_MULTIPOLES>
423.16
14.64
3.57
1.1
22.03
1.73
0.01
0.3
-0.1
-9.66
0.5
-0.52
-0.1
0.98

> <PUBCHEM_SHAPE_SELFOVERLAP>
841.013

> <PUBCHEM_SHAPE_VOLUME>
252.2

> <PUBCHEM_COORDINATE_TYPE>
2
5
10

$$$$
