10044423
  -OEChem-03292013303D

 41 42  0     1  0  0  0  0  0999 V2000
   -3.0883    0.3740    0.9771 S   0  0  0  0  0  0  0  0  0  0  0  0
    4.0786    2.1907    0.9684 S   0  0  0  0  0  0  0  0  0  0  0  0
   -3.2812    1.5033    1.8609 O   0  0  0  0  0  0  0  0  0  0  0  0
   -4.1751   -0.4845    0.5558 O   0  0  0  0  0  0  0  0  0  0  0  0
   -1.2571    3.5890   -1.4838 O   0  0  0  0  0  0  0  0  0  0  0  0
    0.6673    2.4038   -1.8282 O   0  0  0  0  0  0  0  0  0  0  0  0
   -2.3502   -2.1415   -1.1720 O   0  0  0  0  0  0  0  0  0  0  0  0
   -0.8704   -3.3621    0.0715 O   0  0  0  0  0  0  0  0  0  0  0  0
    1.2076   -1.7088   -1.5018 O   0  0  0  0  0  0  0  0  0  0  0  0
    0.4757   -1.2076    0.6426 N   0  0  0  0  0  0  0  0  0  0  0  0
    3.7336   -2.1858   -0.7247 N   0  0  0  0  0  0  0  0  0  0  0  0
   -1.0482    0.1380   -0.6863 C   0  0  1  0  0  0  0  0  0  0  0  0
   -2.2870    0.9826   -0.5316 C   0  0  2  0  0  0  0  0  0  0  0  0
   -0.9368    1.5897   -0.2893 C   0  0  2  0  0  0  0  0  0  0  0  0
   -0.9100   -0.9817    0.3192 C   0  0  2  0  0  0  0  0  0  0  0  0
   -1.7289   -0.6373    1.5679 C   0  0  0  0  0  0  0  0  0  0  0  0
   -0.4119    2.5511   -1.2748 C   0  0  0  0  0  0  0  0  0  0  0  0
   -1.3595   -2.2929   -0.2607 C   0  0  0  0  0  0  0  0  0  0  0  0
    1.4310   -1.5560   -0.3026 C   0  0  0  0  0  0  0  0  0  0  0  0
    2.8127   -1.7398    0.3190 C   0  0  2  0  0  0  0  0  0  0  0  0
    3.3075   -0.4557    1.0073 C   0  0  0  0  0  0  0  0  0  0  0  0
    3.4815    0.7339    0.0594 C   0  0  0  0  0  0  0  0  0  0  0  0
    2.5093    2.6978    1.7069 C   0  0  0  0  0  0  0  0  0  0  0  0
   -0.7501   -0.1262   -1.6945 H   0  0  0  0  0  0  0  0  0  0  0  0
   -2.8728    1.2317   -1.4032 H   0  0  0  0  0  0  0  0  0  0  0  0
   -0.6361    1.8050    0.7300 H   0  0  0  0  0  0  0  0  0  0  0  0
   -1.1618   -0.0228    2.2753 H   0  0  0  0  0  0  0  0  0  0  0  0
   -2.1362   -1.5076    2.0897 H   0  0  0  0  0  0  0  0  0  0  0  0
    0.7482   -1.1486    1.6189 H   0  0  0  0  0  0  0  0  0  0  0  0
   -0.9019    4.2242   -2.1416 H   0  0  0  0  0  0  0  0  0  0  0  0
   -2.6396   -3.0011   -1.5454 H   0  0  0  0  0  0  0  0  0  0  0  0
    2.7338   -2.5341    1.0716 H   0  0  0  0  0  0  0  0  0  0  0  0
    2.6243   -0.1948    1.8224 H   0  0  0  0  0  0  0  0  0  0  0  0
    4.2722   -0.6768    1.4856 H   0  0  0  0  0  0  0  0  0  0  0  0
    4.6611   -2.3250   -0.3254 H   0  0  0  0  0  0  0  0  0  0  0  0
    3.4365   -3.0949   -1.0776 H   0  0  0  0  0  0  0  0  0  0  0  0
    2.5509    0.9815   -0.4580 H   0  0  0  0  0  0  0  0  0  0  0  0
    4.2301    0.5034   -0.7051 H   0  0  0  0  0  0  0  0  0  0  0  0
    2.6674    3.6188    2.2749 H   0  0  0  0  0  0  0  0  0  0  0  0
    2.1280    1.9387    2.3934 H   0  0  0  0  0  0  0  0  0  0  0  0
    1.7686    2.9009    0.9303 H   0  0  0  0  0  0  0  0  0  0  0  0
  1  3  2  0  0  0  0
  1  4  2  0  0  0  0
  1 13  1  0  0  0  0
  1 16  1  0  0  0  0
  2 22  1  0  0  0  0
  2 23  1  0  0  0  0
  5 17  1  0  0  0  0
  5 30  1  0  0  0  0
  6 17  2  0  0  0  0
  7 18  1  0  0  0  0
  7 31  1  0  0  0  0
  8 18  2  0  0  0  0
  9 19  2  0  0  0  0
 10 15  1  0  0  0  0
 10 19  1  0  0  0  0
 10 29  1  0  0  0  0
 11 20  1  0  0  0  0
 11 35  1  0  0  0  0
 11 36  1  0  0  0  0
 12 13  1  0  0  0  0
 12 14  1  0  0  0  0
 12 15  1  0  0  0  0
 12 24  1  0  0  0  0
 13 14  1  0  0  0  0
 13 25  1  0  0  0  0
 14 17  1  0  0  0  0
 14 26  1  0  0  0  0
 15 16  1  0  0  0  0
 15 18  1  0  0  0  0
 16 27  1  0  0  0  0
 16 28  1  0  0  0  0
 19 20  1  0  0  0  0
 20 21  1  0  0  0  0
 20 32  1  0  0  0  0
 21 22  1  0  0  0  0
 21 33  1  0  0  0  0
 21 34  1  0  0  0  0
 22 37  1  0  0  0  0
 22 38  1  0  0  0  0
 23 39  1  0  0  0  0
 23 40  1  0  0  0  0
 23 41  1  0  0  0  0
M  END
> <PUBCHEM_COMPOUND_CID>
10044423

> <PUBCHEM_CONFORMER_RMSD>
0.8

> <PUBCHEM_CONFORMER_DIVERSEORDER>
1
91
34
73
52
90
8
42
88
21
70
30
29
18
66
37
39
72
17
45
5
102
75
41
16
38
84
49
6
92
22
28
31
3
51
77
48
40
79
94
43
83
32
89
35
46
85
80
93
104
95
15
81
36
2
7
27
65
62
4
61
86
74
63
59
53
87
50
33
71
23
103
56
69
76
14
11
67
24
68
25
55
97
96
98
26
12
54
57
19
9
82
100
105
47
64
10
20
60
78
13
44
101
58
99

> <PUBCHEM_MMFF94_PARTIAL_CHARGES>
30
1 1.17
10 -0.73
11 -0.99
12 -0.19
13 -0.08
14 -0.1
15 0.46
16 0.11
17 0.72
18 0.66
19 0.57
2 -0.46
20 0.33
22 0.23
23 0.23
24 0.1
25 0.1
26 0.1
29 0.37
3 -0.65
30 0.5
31 0.5
35 0.36
36 0.36
4 -0.65
5 -0.65
6 -0.57
7 -0.65
8 -0.57
9 -0.57

> <PUBCHEM_EFFECTIVE_ROTOR_COUNT>
8.6

> <PUBCHEM_PHARMACOPHORE_FEATURES>
14
1 10 donor
1 11 cation
1 11 donor
1 23 hydrophobe
1 3 acceptor
1 4 acceptor
1 5 acceptor
1 6 acceptor
1 7 acceptor
1 8 acceptor
1 9 acceptor
3 5 6 17 anion
3 7 8 18 anion
6 1 12 13 14 15 16 rings

> <PUBCHEM_HEAVY_ATOM_COUNT>
23

> <PUBCHEM_ATOM_DEF_STEREO_COUNT>
4

> <PUBCHEM_ATOM_UDEF_STEREO_COUNT>
1

> <PUBCHEM_BOND_DEF_STEREO_COUNT>
0

> <PUBCHEM_BOND_UDEF_STEREO_COUNT>
0

> <PUBCHEM_ISOTOPIC_ATOM_COUNT>
0

> <PUBCHEM_COMPONENT_COUNT>
1

> <PUBCHEM_CACTVS_TAUTO_COUNT>
2

> <PUBCHEM_CONFORMER_ID>
0099440700000001

> <PUBCHEM_MMFF94_ENERGY>
49.0547

> <PUBCHEM_FEATURE_SELFOVERLAP>
71.175

> <PUBCHEM_SHAPE_FINGERPRINT>
10366900 7 18041572329778344906
10871710 139 17905044004110043708
12156800 1 9135717759320216548
12173636 292 17489861622738722867
12403259 226 18192994811902676054
12403814 3 18335412461282773331
12553582 1 18042971054634674156
12633257 1 18341604894118020488
12769317 202 16458240152206163908
12969540 114 18115852054348993471
13083527 12 17540268961174597899
13140716 1 18409730651264851706
133893 2 16519907868013871973
14142880 1 18126272280210548728
14178342 30 18122629615314815976
14787075 74 17918273182218736691
14840074 17 17462002373730780588
15840311 113 18059025995328457521
16945 1 17846215536372201351
18186145 218 17985544451237000610
18219364 16 18124025728920843248
19930381 70 17914605305142524169
21421861 104 17395601822635738955
21486144 27 17988925518343685858
23227448 37 18272085045325067563
23388829 49 17907573984243798526
23559900 14 17750519485834781246
238 59 17836883938206192364
2748010 2 18188490147086259461
3524813 1 18265051341041578024
7064713 232 18124872623742513832
81228 2 18337665420764801107

> <PUBCHEM_SHAPE_MULTIPOLES>
429.98
6.4
3.89
1.61
3.33
0.64
0.03
0.89
2.52
0.89
-1.18
-0.29
0.99
0.76

> <PUBCHEM_SHAPE_SELFOVERLAP>
866.66

> <PUBCHEM_SHAPE_VOLUME>
254.1

> <PUBCHEM_COORDINATE_TYPE>
2
5
10

$$$$
