REMARK  Name = 100442
REMARK  6 active torsions:
REMARK  status: ('A' for Active; 'I' for Inactive)
REMARK    1  A    between atoms: C_1  and  S_7
REMARK    2  A    between atoms: C_2  and  C_22
REMARK    3  A    between atoms: S_7  and  N_12
REMARK    4  A    between atoms: N_11  and  C_16
REMARK    5  A    between atoms: C_22  and  N_25
REMARK    6  A    between atoms: C_26  and  C_30
REMARK                            x       y       z     vdW  Elec       q    Type
REMARK                         _______ _______ _______ _____ _____    ______ ____
ROOT
ATOM      1  C   UNL     1       1.485   2.685  -0.101  0.00  0.00    +0.125 C 
ATOM      2  C   UNL     1      -1.296   2.480  -0.180  0.00  0.00    -0.004 C 
ATOM      3  C   UNL     1       0.803   2.905  -1.298  0.00  0.00    +0.020 C 
ATOM      4  C   UNL     1       0.776   2.362   1.056  0.00  0.00    +0.020 C 
ATOM      5  C   UNL     1      -0.588   2.802  -1.337  0.00  0.00    -0.001 C 
ATOM      6  C   UNL     1      -0.615   2.260   1.017  0.00  0.00    -0.001 C 
ENDROOT
BRANCH   1   7
ATOM      7  S   UNL     1       3.247   2.813  -0.052  0.00  0.00    +0.077 S 
ATOM      8  O   UNL     1       3.639   3.127   1.309  0.00  0.00    -0.150 OA
ATOM      9  O   UNL     1       3.635   3.680  -1.147  0.00  0.00    -0.150 OA
BRANCH   7  12
ATOM     10  O   UNL     1       3.501   0.271   1.714  0.00  0.00    -0.251 OA
ATOM     11  N   UNL     1       4.171  -1.057  -0.055  0.00  0.00    -0.289 N 
ATOM     12  N   UNL     1       3.702   1.206  -0.416  0.00  0.00    -0.169 N 
ATOM     13  C   UNL     1       3.773   0.131   0.525  0.00  0.00    +0.319 C 
ATOM     14  H   UNL     1       4.368  -1.066  -1.020  0.00  0.00    +0.151 HD
ATOM     15  H   UNL     1       3.935   1.004  -1.351  0.00  0.00    +0.178 HD
BRANCH  11  16
ATOM     16  C   UNL     1       4.313  -2.288   0.690  0.00  0.00    +0.073 C 
ATOM     17  C   UNL     1       2.986  -3.052   0.749  0.00  0.00    +0.020 C 
ATOM     18  C   UNL     1       5.430  -3.160   0.107  0.00  0.00    +0.020 C 
ATOM     19  C   UNL     1       2.607  -3.672  -0.596  0.00  0.00    +0.002 C 
ATOM     20  C   UNL     1       5.048  -3.779  -1.237  0.00  0.00    +0.002 C 
ATOM     21  C   UNL     1       3.730  -4.543  -1.150  0.00  0.00    +0.000 C 
ENDBRANCH  11  16
ENDBRANCH   7  12
ENDBRANCH   1   7
BRANCH   2  22
ATOM     22  C   UNL     1      -2.783   2.372  -0.222  0.00  0.00    +0.094 C 
ATOM     23  C   UNL     1      -3.490   3.365   0.711  0.00  0.00    +0.026 C 
BRANCH  22  25
ATOM     24  O   UNL     1      -5.128   1.153  -1.255  0.00  0.00    -0.268 OA
ATOM     25  N   UNL     1      -3.241   1.022   0.062  0.00  0.00    -0.297 N 
ATOM     26  C   UNL     1      -4.405   0.513  -0.492  0.00  0.00    +0.267 C 
ATOM     27  H   UNL     1      -2.710   0.454   0.665  0.00  0.00    +0.150 HD
BRANCH  26  30
ATOM     28  O   UNL     1      -4.566  -2.752   0.941  0.00  0.00    -0.358 OA
ATOM     29  N   UNL     1      -3.958  -1.514   0.771  0.00  0.00    -0.073 NA
ATOM     30  C   UNL     1      -4.749  -0.855  -0.081  0.00  0.00    +0.176 C 
ATOM     31  C   UNL     1      -5.860  -1.619  -0.478  0.00  0.00    +0.063 C 
ATOM     32  C   UNL     1      -5.697  -2.803   0.192  0.00  0.00    +0.155 C 
ATOM     33  C   UNL     1      -6.469  -4.050   0.254  0.00  0.00    +0.075 C 
ENDBRANCH  26  30
ENDBRANCH  22  25
ENDBRANCH   2  22
TORSDOF 6
