REMARK  Name = 10041796
REMARK  7 active torsions:
REMARK  status: ('A' for Active; 'I' for Inactive)
REMARK    1  A    between atoms: C_4  and  C_9
REMARK    2  A    between atoms: C_4  and  O_12
REMARK    3  A    between atoms: C_5  and  O_14
REMARK    4  A    between atoms: C_5  and  C_18
REMARK    5  A    between atoms: C_7  and  O_16
REMARK    6  A    between atoms: C_18  and  C_19
REMARK    7  A    between atoms: C_18  and  O_25
REMARK                            x       y       z     vdW  Elec       q    Type
REMARK                         _______ _______ _______ _____ _____    ______ ____
ROOT
ATOM      1  O   UNL     1       3.223   1.873  -0.213  0.00  0.00    -0.270 OA
ATOM      2  N   UNL     1       1.091   1.694   0.567  0.00  0.00    -0.273 N 
ATOM      3  N   UNL     1       1.251  -1.047   0.640  0.00  0.00    -0.206 NA
ATOM      4  C   UNL     1       2.293  -0.351  -0.121  0.00  0.00    +0.249 C 
ATOM      5  C   UNL     1      -0.167   0.991   0.636  0.00  0.00    +0.247 C 
ATOM      6  C   UNL     1       2.250   1.165   0.055  0.00  0.00    +0.271 C 
ATOM      7  C   UNL     1       0.172  -0.434   0.961  0.00  0.00    +0.245 C 
ATOM      8  H   UNL     1       1.121   2.616   0.911  0.00  0.00    +0.152 HD
ENDROOT
BRANCH   4   9
ATOM      9  C   UNL     1       2.163  -0.739  -1.594  0.00  0.00    +0.056 C 
ATOM     10  C   UNL     1       3.283  -0.106  -2.415  0.00  0.00    +0.005 C 
ATOM     11  C   UNL     1       2.172  -2.257  -1.751  0.00  0.00    +0.005 C 
ENDBRANCH   4   9
BRANCH   4  12
ATOM     12  O   UNL     1       3.625  -0.700   0.285  0.00  0.00    -0.328 OA
ATOM     13  C   UNL     1       3.861  -0.321   1.629  0.00  0.00    +0.177 C 
ENDBRANCH   4  12
BRANCH   5  14
ATOM     14  O   UNL     1      -0.903   1.554   1.711  0.00  0.00    -0.362 OA
ATOM     15  H   UNL     1      -1.124   2.476   1.503  0.00  0.00    +0.213 HD
ENDBRANCH   5  14
BRANCH   7  16
ATOM     16  O   UNL     1      -0.805  -1.087   1.625  0.00  0.00    -0.457 OA
ATOM     17  C   UNL     1      -0.327  -2.100   2.495  0.00  0.00    +0.254 C 
ENDBRANCH   7  16
BRANCH   5  18
ATOM     18  C   UNL     1      -0.980   1.124  -0.643  0.00  0.00    +0.184 C 
BRANCH  18  19
ATOM     19  C   UNL     1      -2.295   0.382  -0.564  0.00  0.00    +0.009 C 
ATOM     20  C   UNL     1      -2.352  -0.940  -0.971  0.00  0.00    -0.002 C 
ATOM     21  C   UNL     1      -3.416   1.040  -0.087  0.00  0.00    -0.002 C 
ATOM     22  C   UNL     1      -3.566  -1.625  -0.899  0.00  0.00    -0.000 C 
ATOM     23  C   UNL     1      -4.630   0.356  -0.015  0.00  0.00    -0.000 C 
ATOM     24  C   UNL     1      -4.704  -0.976  -0.421  0.00  0.00    -0.000 C 
ENDBRANCH  18  19
BRANCH  18  25
ATOM     25  O   UNL     1      -1.239   2.503  -0.909  0.00  0.00    -0.376 OA
ATOM     26  H   UNL     1      -0.399   2.985  -0.961  0.00  0.00    +0.211 HD
ENDBRANCH  18  25
ENDBRANCH   5  18
TORSDOF 7
