REMARK  Name = 10046803
REMARK  4 active torsions:
REMARK  status: ('A' for Active; 'I' for Inactive)
REMARK    1  A    between atoms: C_8  and  O_24
REMARK    2  A    between atoms: C_11  and  O_26
REMARK    3  A    between atoms: C_12  and  O_28
REMARK    4  A    between atoms: O_28  and  C_30
REMARK                            x       y       z     vdW  Elec       q    Type
REMARK                         _______ _______ _______ _____ _____    ______ ____
ROOT
ATOM      1  O   UNL     1      -1.182   2.165   0.378  0.00  0.00    -0.308 OA
ATOM      2  O   UNL     1       0.133   1.339   2.122  0.00  0.00    -0.332 OA
ATOM      3  O   UNL     1       2.392   0.971  -2.044  0.00  0.00    -0.291 OA
ATOM      4  C   UNL     1      -1.090  -0.279   0.694  0.00  0.00    +0.058 C 
ATOM      5  C   UNL     1       0.826   0.945  -0.175  0.00  0.00    +0.133 C 
ATOM      6  C   UNL     1       0.380  -0.507   0.167  0.00  0.00    +0.059 C 
ATOM      7  C   UNL     1      -1.955  -0.244  -0.630  0.00  0.00    +0.037 C 
ATOM      8  C   UNL     1      -0.388   1.735  -0.758  0.00  0.00    +0.219 C 
ATOM      9  C   UNL     1       1.186   1.603   1.184  0.00  0.00    +0.133 C 
ATOM     10  C   UNL     1      -1.091   1.141   1.388  0.00  0.00    +0.237 C 
ATOM     11  C   UNL     1      -1.377   0.871  -1.564  0.00  0.00    +0.162 C 
ATOM     12  C   UNL     1       1.386  -1.303   1.051  0.00  0.00    +0.170 C 
ATOM     13  C   UNL     1       2.508   0.942   1.559  0.00  0.00    +0.057 C 
ATOM     14  C   UNL     1      -3.507  -0.232  -0.423  0.00  0.00    +0.003 C 
ATOM     15  C   UNL     1      -1.587  -1.381   1.635  0.00  0.00    +0.005 C 
ATOM     16  C   UNL     1       2.178   0.985  -0.845  0.00  0.00    +0.175 C 
ATOM     17  C   UNL     1       2.224  -0.485   2.046  0.00  0.00    +0.051 C 
ATOM     18  C   UNL     1       3.226   0.990   0.230  0.00  0.00    +0.015 C 
ATOM     19  C   UNL     1      -3.885  -1.359   0.573  0.00  0.00    +0.000 C 
ATOM     20  C   UNL     1      -3.094  -1.323   1.879  0.00  0.00    +0.000 C 
ATOM     21  C   UNL     1      -4.344  -0.375  -1.708  0.00  0.00    +0.000 C 
ATOM     22  C   UNL     1      -3.918   1.116   0.221  0.00  0.00    +0.000 C 
ATOM     23  C   UNL     1       4.534   1.080  -0.013  0.00  0.00    -0.002 C 
ENDROOT
BRANCH   8  24
ATOM     24  O   UNL     1       0.063   2.860  -1.496  0.00  0.00    -0.361 OA
ATOM     25  H   UNL     1       0.682   3.375  -0.955  0.00  0.00    +0.213 HD
ENDBRANCH   8  24
BRANCH  11  26
ATOM     26  O   UNL     1      -0.711   0.273  -2.674  0.00  0.00    -0.380 OA
ATOM     27  H   UNL     1      -1.340  -0.269  -3.175  0.00  0.00    +0.211 HD
ENDBRANCH  11  26
BRANCH  12  28
ATOM     28  O   UNL     1       2.279  -2.046   0.207  0.00  0.00    -0.452 OA
BRANCH  28  30
ATOM     29  O   UNL     1       0.622  -3.507  -0.468  0.00  0.00    -0.250 OA
ATOM     30  C   UNL     1       1.678  -2.917  -0.650  0.00  0.00    +0.317 C 
ATOM     31  C   UNL     1       2.516  -3.057  -1.884  0.00  0.00    +0.121 C 
ENDBRANCH  28  30
ENDBRANCH  12  28
TORSDOF 4
