REMARK  Name = 10041933
REMARK  8 active torsions:
REMARK  status: ('A' for Active; 'I' for Inactive)
REMARK    1  A    between atoms: O_1  and  C_2
REMARK    2  A    between atoms: O_1  and  C_14
REMARK    3  A    between atoms: C_5  and  N_9
REMARK    4  A    between atoms: C_14  and  C_15
REMARK    5  A    between atoms: C_15  and  N_17
REMARK    6  A    between atoms: C_15  and  C_21
REMARK    7  A    between atoms: C_21  and  C_22
REMARK    8  A    between atoms: C_22  and  S_23
REMARK                            x       y       z     vdW  Elec       q    Type
REMARK                         _______ _______ _______ _____ _____    ______ ____
ROOT
ATOM      1  O   UNL     1      -0.615  -0.615   0.324  0.00  0.00    -0.423 OA
ENDROOT
BRANCH   1   2
ATOM      2  C   UNL     1       0.750  -0.322   0.343  0.00  0.00    +0.149 C 
ATOM      3  C   UNL     1       1.652  -1.155  -0.320  0.00  0.00    +0.039 C 
ATOM      4  C   UNL     1       1.213   0.803   1.026  0.00  0.00    +0.039 C 
ATOM      5  C   UNL     1       3.478   0.262   0.384  0.00  0.00    +0.051 C 
ATOM      6  C   UNL     1       3.016  -0.862  -0.299  0.00  0.00    +0.018 C 
ATOM      7  C   UNL     1       2.576   1.095   1.047  0.00  0.00    +0.018 C 
BRANCH   5   9
ATOM      8  O   UNL     1       5.806  -1.184  -0.864  0.00  0.00    -0.275 OA
ATOM      9  N   UNL     1       4.842   0.554   0.405  0.00  0.00    -0.284 N 
ATOM     10  C   UNL     1       5.889  -0.159  -0.195  0.00  0.00    +0.227 C 
ATOM     11  C   UNL     1       7.226   0.488   0.064  0.00  0.00    +0.095 C 
ATOM     12  H   UNL     1       5.102   1.362   0.905  0.00  0.00    +0.155 HD
ENDBRANCH   5   9
ENDBRANCH   1   2
BRANCH   1  14
ATOM     13  O   UNL     1      -0.781   0.680  -1.607  0.00  0.00    -0.248 OA
ATOM     14  C   UNL     1      -1.286  -0.033  -0.744  0.00  0.00    +0.340 C 
BRANCH  14  15
ATOM     15  C   UNL     1      -2.769  -0.380  -0.724  0.00  0.00    +0.173 C 
BRANCH  15  17
ATOM     16  O   UNL     1      -4.775  -2.476  -0.817  0.00  0.00    -0.275 OA
ATOM     17  N   UNL     1      -3.099  -1.322   0.315  0.00  0.00    -0.297 N 
ATOM     18  C   UNL     1      -4.079  -2.294   0.178  0.00  0.00    +0.223 C 
ATOM     19  C   UNL     1      -4.201  -3.161   1.403  0.00  0.00    +0.095 C 
ATOM     20  H   UNL     1      -2.604  -1.273   1.165  0.00  0.00    +0.150 HD
ENDBRANCH  15  17
BRANCH  15  21
ATOM     21  C   UNL     1      -3.638   0.882  -0.634  0.00  0.00    +0.043 C 
BRANCH  21  22
ATOM     22  C   UNL     1      -3.341   1.741   0.599  0.00  0.00    +0.060 C 
BRANCH  22  23
ATOM     23  S   UNL     1      -4.409   3.211   0.625  0.00  0.00    -0.139 S 
ATOM     24  C   UNL     1      -3.456   4.246  -0.509  0.00  0.00    +0.069 C 
ENDBRANCH  22  23
ENDBRANCH  21  22
ENDBRANCH  15  21
ENDBRANCH  14  15
ENDBRANCH   1  14
TORSDOF 8
