REMARK  Name = 10044783
REMARK  10 active torsions:
REMARK  status: ('A' for Active; 'I' for Inactive)
REMARK    1  A    between atoms: C_3  and  C_25
REMARK    2  A    between atoms: C_5  and  O_17
REMARK    3  A    between atoms: C_7  and  O_19
REMARK    4  A    between atoms: C_13  and  O_21
REMARK    5  A    between atoms: C_15  and  O_23
REMARK    6  A    between atoms: C_25  and  O_26
REMARK    7  A    between atoms: C_25  and  C_28
REMARK    8  A    between atoms: C_28  and  C_29
REMARK    9  A    between atoms: C_29  and  C_30
REMARK   10  A    between atoms: C_30  and  C_31
REMARK                            x       y       z     vdW  Elec       q    Type
REMARK                         _______ _______ _______ _____ _____    ______ ____
ROOT
ATOM      1  O   UNL     1      -1.336  -2.367  -0.405  0.00  0.00    -0.286 OA
ATOM      2  O   UNL     1      -1.810   2.801   0.870  0.00  0.00    -0.287 OA
ATOM      3  C   UNL     1       2.066  -0.353   0.985  0.00  0.00    +0.072 C 
ATOM      4  C   UNL     1      -0.277  -0.423   0.384  0.00  0.00    +0.076 C 
ATOM      5  C   UNL     1       0.960  -1.064   0.518  0.00  0.00    +0.138 C 
ATOM      6  C   UNL     1      -0.402   0.928   0.717  0.00  0.00    +0.048 C 
ATOM      7  C   UNL     1       1.942   0.995   1.317  0.00  0.00    +0.135 C 
ATOM      8  C   UNL     1       0.711   1.637   1.184  0.00  0.00    +0.040 C 
ATOM      9  C   UNL     1      -1.443  -1.183  -0.110  0.00  0.00    +0.202 C 
ATOM     10  C   UNL     1      -2.743  -0.495  -0.247  0.00  0.00    +0.076 C 
ATOM     11  C   UNL     1      -2.868   0.856   0.086  0.00  0.00    +0.048 C 
ATOM     12  C   UNL     1      -1.702   1.616   0.579  0.00  0.00    +0.196 C 
ATOM     13  C   UNL     1      -3.856  -1.205  -0.713  0.00  0.00    +0.140 C 
ATOM     14  C   UNL     1      -4.105   1.496  -0.048  0.00  0.00    +0.040 C 
ATOM     15  C   UNL     1      -5.212   0.785  -0.513  0.00  0.00    +0.137 C 
ATOM     16  C   UNL     1      -5.087  -0.562  -0.846  0.00  0.00    +0.073 C 
ENDROOT
BRANCH   5  17
ATOM     17  O   UNL     1       1.135  -2.381   0.208  0.00  0.00    -0.506 OA
ATOM     18  H   UNL     1       1.977  -2.779   0.310  0.00  0.00    +0.292 HD
ENDBRANCH   5  17
BRANCH   7  19
ATOM     19  O   UNL     1       3.014   1.703   1.772  0.00  0.00    -0.506 OA
ATOM     20  H   UNL     1       3.846   1.284   1.866  0.00  0.00    +0.292 HD
ENDBRANCH   7  19
BRANCH  13  21
ATOM     21  O   UNL     1      -3.806  -2.524  -1.056  0.00  0.00    -0.505 OA
ATOM     22  H   UNL     1      -3.000  -2.996  -0.984  0.00  0.00    +0.292 HD
ENDBRANCH  13  21
BRANCH  15  23
ATOM     23  O   UNL     1      -6.415   1.408  -0.644  0.00  0.00    -0.505 OA
ATOM     24  H   UNL     1      -6.500   2.314  -0.422  0.00  0.00    +0.292 HD
ENDBRANCH  15  23
BRANCH   3  25
ATOM     25  C   UNL     1       3.391  -1.032   1.131  0.00  0.00    +0.139 C 
BRANCH  25  26
ATOM     26  O   UNL     1       3.273  -2.046   2.139  0.00  0.00    -0.380 OA
ATOM     27  H   UNL     1       4.125  -2.497   2.246  0.00  0.00    +0.211 HD
ENDBRANCH  25  26
BRANCH  25  28
ATOM     28  C   UNL     1       3.913  -1.695  -0.162  0.00  0.00    +0.034 C 
BRANCH  28  29
ATOM     29  C   UNL     1       4.053  -0.757  -1.366  0.00  0.00    +0.003 C 
BRANCH  29  30
ATOM     30  C   UNL     1       5.076   0.360  -1.150  0.00  0.00    +0.000 C 
BRANCH  30  31
ATOM     31  C   UNL     1       5.243   1.208  -2.412  0.00  0.00    +0.000 C 
ATOM     32  C   UNL     1       6.288   2.295  -2.218  0.00  0.00    +0.000 C 
ENDBRANCH  30  31
ENDBRANCH  29  30
ENDBRANCH  28  29
ENDBRANCH  25  28
ENDBRANCH   3  25
TORSDOF 10
