REMARK  Name = 10046792
REMARK  7 active torsions:
REMARK  status: ('A' for Active; 'I' for Inactive)
REMARK    1  A    between atoms: C_13  and  C_31
REMARK    2  A    between atoms: C_14  and  O_21
REMARK    3  A    between atoms: C_15  and  O_23
REMARK    4  A    between atoms: C_18  and  O_25
REMARK    5  A    between atoms: C_19  and  O_29
REMARK    6  A    between atoms: C_20  and  O_27
REMARK    7  A    between atoms: C_31  and  O_32
REMARK                            x       y       z     vdW  Elec       q    Type
REMARK                         _______ _______ _______ _____ _____    ______ ____
ROOT
ATOM      1  O   UNL     1       0.149   1.314   2.002  0.00  0.00    -0.315 OA
ATOM      2  O   UNL     1       0.441  -1.038   1.603  0.00  0.00    -0.452 OA
ATOM      3  O   UNL     1      -0.372   2.821  -1.088  0.00  0.00    -0.289 OA
ATOM      4  C   UNL     1       0.734   1.711   0.762  0.00  0.00    +0.172 C 
ATOM      5  C   UNL     1      -0.478   0.027   1.909  0.00  0.00    +0.253 C 
ATOM      6  C   UNL     1       1.652   0.609   0.275  0.00  0.00    +0.045 C 
ATOM      7  C   UNL     1      -1.595   0.061   0.876  0.00  0.00    +0.080 C 
ATOM      8  C   UNL     1      -0.404   1.945  -0.230  0.00  0.00    +0.201 C 
ATOM      9  C   UNL     1      -1.556   1.013  -0.157  0.00  0.00    +0.045 C 
ATOM     10  C   UNL     1       1.445  -0.701   0.732  0.00  0.00    +0.176 C 
ATOM     11  C   UNL     1       1.413   3.042   1.119  0.00  0.00    +0.042 C 
ATOM     12  C   UNL     1      -0.952  -0.217   3.350  0.00  0.00    +0.081 C 
ATOM     13  C   UNL     1       2.678   0.840  -0.652  0.00  0.00    +0.012 C 
ATOM     14  C   UNL     1      -2.654  -0.858   0.890  0.00  0.00    +0.172 C 
ATOM     15  C   UNL     1       2.268  -1.746   0.306  0.00  0.00    +0.202 C 
ATOM     16  C   UNL     1      -2.566   1.075  -1.123  0.00  0.00    +0.043 C 
ATOM     17  C   UNL     1       3.497  -0.206  -1.082  0.00  0.00    +0.038 C 
ATOM     18  C   UNL     1       3.296  -1.497  -0.599  0.00  0.00    +0.175 C 
ATOM     19  C   UNL     1      -3.662  -0.801  -0.076  0.00  0.00    +0.202 C 
ATOM     20  C   UNL     1      -3.621   0.167  -1.076  0.00  0.00    +0.175 C 
ENDROOT
BRANCH  14  21
ATOM     21  O   UNL     1      -2.717  -1.867   1.805  0.00  0.00    -0.503 OA
ATOM     22  H   UNL     1      -2.060  -1.940   2.469  0.00  0.00    +0.292 HD
ENDBRANCH  14  21
BRANCH  15  23
ATOM     23  O   UNL     1       2.064  -3.014   0.766  0.00  0.00    -0.501 OA
ATOM     24  H   UNL     1       1.374  -3.186   1.376  0.00  0.00    +0.292 HD
ENDBRANCH  15  23
BRANCH  18  25
ATOM     25  O   UNL     1       4.104  -2.506  -1.029  0.00  0.00    -0.468 OA
ATOM     26  C   UNL     1       3.693  -3.212  -2.198  0.00  0.00    +0.253 C 
ENDBRANCH  18  25
BRANCH  20  27
ATOM     27  O   UNL     1      -4.599   0.229  -2.023  0.00  0.00    -0.468 OA
ATOM     28  C   UNL     1      -4.399  -0.534  -3.211  0.00  0.00    +0.253 C 
ENDBRANCH  20  27
BRANCH  19  29
ATOM     29  O   UNL     1      -4.687  -1.702  -0.049  0.00  0.00    -0.501 OA
ATOM     30  H   UNL     1      -4.719  -2.355   0.622  0.00  0.00    +0.292 HD
ENDBRANCH  19  29
BRANCH  13  31
ATOM     31  C   UNL     1       2.933   2.168  -1.285  0.00  0.00    +0.164 C 
BRANCH  31  32
ATOM     32  O   UNL     1       3.895   2.878  -0.516  0.00  0.00    -0.377 OA
ATOM     33  H   UNL     1       4.063   3.742  -0.925  0.00  0.00    +0.211 HD
ENDBRANCH  31  32
ENDBRANCH  13  31
TORSDOF 7
