REMARK  Name = 10044321
REMARK  8 active torsions:
REMARK  status: ('A' for Active; 'I' for Inactive)
REMARK    1  A    between atoms: S_1  and  C_4
REMARK    2  A    between atoms: S_1  and  N_16
REMARK    3  A    between atoms: C_5  and  C_10
REMARK    4  A    between atoms: N_16  and  O_17
REMARK    5  A    between atoms: N_16  and  C_21
REMARK    6  A    between atoms: O_17  and  C_18
REMARK    7  A    between atoms: C_21  and  C_24
REMARK    8  A    between atoms: N_23  and  O_26
REMARK                            x       y       z     vdW  Elec       q    Type
REMARK                         _______ _______ _______ _____ _____    ______ ____
ROOT
ATOM      1  S   UNL     1       1.825   1.958   0.278  0.00  0.00    +0.085 S 
ATOM      2  O   UNL     1       2.000   2.455   1.629  0.00  0.00    -0.151 OA
ATOM      3  O   UNL     1       2.087   2.820  -0.859  0.00  0.00    -0.151 OA
ENDROOT
BRANCH   1   4
ATOM      4  C   UNL     1       0.150   1.402   0.169  0.00  0.00    +0.124 C 
ATOM      5  C   UNL     1      -2.471   0.530   0.000  0.00  0.00    +0.000 C 
ATOM      6  C   UNL     1      -0.469   1.360  -1.068  0.00  0.00    +0.020 C 
ATOM      7  C   UNL     1      -0.510   1.018   1.324  0.00  0.00    +0.020 C 
ATOM      8  C   UNL     1      -1.790   0.920  -1.153  0.00  0.00    +0.001 C 
ATOM      9  C   UNL     1      -1.831   0.579   1.238  0.00  0.00    +0.001 C 
BRANCH   5  10
ATOM     10  C   UNL     1      -3.842   0.075  -0.088  0.00  0.00    +0.000 C 
ATOM     11  C   UNL     1      -4.115  -1.279  -0.286  0.00  0.00    +0.000 C 
ATOM     12  C   UNL     1      -4.889   0.989   0.024  0.00  0.00    +0.000 C 
ATOM     13  C   UNL     1      -5.437  -1.718  -0.371  0.00  0.00    +0.000 C 
ATOM     14  C   UNL     1      -6.211   0.549  -0.061  0.00  0.00    +0.000 C 
ATOM     15  C   UNL     1      -6.484  -0.804  -0.259  0.00  0.00    +0.000 C 
ENDBRANCH   5  10
ENDBRANCH   1   4
BRANCH   1  16
ATOM     16  N   UNL     1       2.696   0.483   0.082  0.00  0.00    -0.033 NA
BRANCH  16  17
ATOM     17  O   UNL     1       4.077   0.876  -0.017  0.00  0.00    -0.265 OA
BRANCH  17  18
ATOM     18  C   UNL     1       4.822  -0.266  -0.418  0.00  0.00    +0.140 C 
ATOM     19  C   UNL     1       4.308  -0.750  -1.766  0.00  0.00    +0.034 C 
ATOM     20  C   UNL     1       6.299   0.092  -0.471  0.00  0.00    +0.034 C 
ENDBRANCH  17  18
ENDBRANCH  16  17
BRANCH  16  21
ATOM     21  C   UNL     1       2.467  -0.601   1.067  0.00  0.00    +0.213 C 
BRANCH  21  24
ATOM     22  O   UNL     1       1.258  -1.738  -0.680  0.00  0.00    -0.271 OA
ATOM     23  N   UNL     1       2.293  -2.980   0.970  0.00  0.00    -0.196 N 
ATOM     24  C   UNL     1       1.937  -1.811   0.342  0.00  0.00    +0.265 C 
ATOM     25  H   UNL     1       2.840  -2.988   1.789  0.00  0.00    +0.182 HD
BRANCH  23  26
ATOM     26  O   UNL     1       1.830  -4.161   0.373  0.00  0.00    -0.295 OA
ATOM     27  H   UNL     1       2.134  -4.924   0.889  0.00  0.00    +0.241 HD
ENDBRANCH  23  26
ENDBRANCH  21  24
ENDBRANCH  16  21
ENDBRANCH   1  16
TORSDOF 8
