REMARK  Name = 10044423
REMARK  10 active torsions:
REMARK  status: ('A' for Active; 'I' for Inactive)
REMARK    1  A    between atoms: C_6  and  C_23
REMARK    2  A    between atoms: C_7  and  N_10
REMARK    3  A    between atoms: C_7  and  C_27
REMARK    4  A    between atoms: C_11  and  C_13
REMARK    5  A    between atoms: C_13  and  N_14
REMARK    6  A    between atoms: C_13  and  C_18
REMARK    7  A    between atoms: C_18  and  C_19
REMARK    8  A    between atoms: C_19  and  S_20
REMARK    9  A    between atoms: C_23  and  O_24
REMARK   10  A    between atoms: C_27  and  O_28
REMARK                            x       y       z     vdW  Elec       q    Type
REMARK                         _______ _______ _______ _____ _____    ______ ____
ROOT
ATOM      1  S   UNL     1      -3.088   0.374   0.977  0.00  0.00    -0.009 S 
ATOM      2  O   UNL     1      -3.281   1.503   1.861  0.00  0.00    -0.173 OA
ATOM      3  O   UNL     1      -4.175  -0.484   0.556  0.00  0.00    -0.173 OA
ATOM      4  C   UNL     1      -1.048   0.138  -0.686  0.00  0.00    +0.063 C 
ATOM      5  C   UNL     1      -2.287   0.983  -0.532  0.00  0.00    +0.142 C 
ATOM      6  C   UNL     1      -0.937   1.590  -0.289  0.00  0.00    +0.124 C 
ATOM      7  C   UNL     1      -0.910  -0.982   0.319  0.00  0.00    +0.171 C 
ATOM      8  C   UNL     1      -1.729  -0.637   1.568  0.00  0.00    +0.179 C 
ENDROOT
BRANCH   7  10
ATOM      9  O   UNL     1       1.208  -1.709  -1.502  0.00  0.00    -0.277 OA
ATOM     10  N   UNL     1       0.476  -1.208   0.643  0.00  0.00    -0.299 N 
ATOM     11  C   UNL     1       1.431  -1.556  -0.303  0.00  0.00    +0.202 C 
ATOM     12  H   UNL     1       0.759  -1.110   1.580  0.00  0.00    +0.150 HD
BRANCH  11  13
ATOM     13  C   UNL     1       2.813  -1.740   0.319  0.00  0.00    +0.014 C 
BRANCH  13  14
ATOM     14  N   UNL     1       3.734  -2.186  -0.725  0.00  0.00    +0.387 N 
ATOM     15  H   UNL     1       3.372  -3.037  -1.156  0.00  0.00    -0.089 HD
ATOM     16  H   UNL     1       4.648  -2.375  -0.314  0.00  0.00    -0.089 HD
ATOM     17  H   UNL     1       3.823  -1.457  -1.433  0.00  0.00    -0.089 HD
ENDBRANCH  13  14
BRANCH  13  18
ATOM     18  C   UNL     1       3.308  -0.456   1.007  0.00  0.00    -0.001 C 
BRANCH  18  19
ATOM     19  C   UNL     1       3.482   0.734   0.059  0.00  0.00    +0.056 C 
BRANCH  19  20
ATOM     20  S   UNL     1       4.079   2.191   0.968  0.00  0.00    -0.139 S 
ATOM     21  C   UNL     1       2.509   2.698   1.707  0.00  0.00    +0.069 C 
ENDBRANCH  19  20
ENDBRANCH  18  19
ENDBRANCH  13  18
ENDBRANCH  11  13
ENDBRANCH   7  10
BRANCH   6  23
ATOM     22  O   UNL     1       0.667   2.404  -1.828  0.00  0.00    -0.250 OA
ATOM     23  C   UNL     1      -0.412   2.551  -1.275  0.00  0.00    +0.315 C 
BRANCH  23  24
ATOM     24  O   UNL     1      -1.257   3.589  -1.484  0.00  0.00    -0.480 OA
ATOM     25  H   UNL     1      -2.070   3.632  -1.020  0.00  0.00    +0.295 HD
ENDBRANCH  23  24
ENDBRANCH   6  23
BRANCH   7  27
ATOM     26  O   UNL     1      -0.870  -3.362   0.071  0.00  0.00    -0.248 OA
ATOM     27  C   UNL     1      -1.359  -2.293  -0.261  0.00  0.00    +0.331 C 
BRANCH  27  28
ATOM     28  O   UNL     1      -2.350  -2.142  -1.172  0.00  0.00    -0.479 OA
ATOM     29  H   UNL     1      -2.674  -1.286  -1.374  0.00  0.00    +0.295 HD
ENDBRANCH  27  28
ENDBRANCH   7  27
TORSDOF 10
