REMARK  Name = 10042612
REMARK  6 active torsions:
REMARK  status: ('A' for Active; 'I' for Inactive)
REMARK    1  A    between atoms: C_3  and  O_18
REMARK    2  A    between atoms: C_4  and  O_20
REMARK    3  A    between atoms: C_6  and  O_22
REMARK    4  A    between atoms: C_10  and  O_24
REMARK    5  A    between atoms: C_11  and  O_26
REMARK    6  A    between atoms: C_16  and  O_28
REMARK                            x       y       z     vdW  Elec       q    Type
REMARK                         _______ _______ _______ _____ _____    ______ ____
ROOT
ATOM      1  O   UNL     1      -2.822   2.286   0.389  0.00  0.00    -0.283 OA
ATOM      2  O   UNL     1      -2.212  -2.988  -0.211  0.00  0.00    -0.286 OA
ATOM      3  C   UNL     1       3.599   1.107  -0.243  0.00  0.00    +0.120 C 
ATOM      4  C   UNL     1       3.788  -0.294   0.358  0.00  0.00    +0.166 C 
ATOM      5  C   UNL     1       2.284   1.715   0.267  0.00  0.00    +0.059 C 
ATOM      6  C   UNL     1       2.648  -1.245  -0.034  0.00  0.00    +0.164 C 
ATOM      7  C   UNL     1       1.106   0.772   0.176  0.00  0.00    +0.015 A 
ATOM      8  C   UNL     1       1.274  -0.618   0.055  0.00  0.00    +0.040 A 
ATOM      9  C   UNL     1       4.771   2.038   0.089  0.00  0.00    +0.032 C 
ATOM     10  C   UNL     1      -0.190   1.312   0.254  0.00  0.00    +0.133 A 
ATOM     11  C   UNL     1       0.134  -1.437  -0.042  0.00  0.00    +0.135 A 
ATOM     12  C   UNL     1      -1.315   0.484   0.176  0.00  0.00    +0.081 A 
ATOM     13  C   UNL     1      -1.152  -0.890   0.023  0.00  0.00    +0.079 A 
ATOM     14  C   UNL     1      -2.664   1.079   0.252  0.00  0.00    +0.232 C 
ATOM     15  C   UNL     1      -2.327  -1.776  -0.072  0.00  0.00    +0.202 C 
ATOM     16  C   UNL     1      -3.828   0.163   0.157  0.00  0.00    +0.181 C 
ATOM     17  C   UNL     1      -3.664  -1.153   0.007  0.00  0.00    +0.082 C 
ENDROOT
BRANCH   3  18
ATOM     18  O   UNL     1       3.519   1.018  -1.670  0.00  0.00    -0.384 OA
ATOM     19  H   UNL     1       2.785   0.434  -1.917  0.00  0.00    +0.210 HD
ENDBRANCH   3  18
BRANCH   4  20
ATOM     20  O   UNL     1       5.022  -0.841  -0.110  0.00  0.00    -0.379 OA
ATOM     21  H   UNL     1       5.751  -0.248   0.132  0.00  0.00    +0.211 HD
ENDBRANCH   4  20
BRANCH   6  22
ATOM     22  O   UNL     1       2.699  -2.377   0.838  0.00  0.00    -0.377 OA
ATOM     23  H   UNL     1       3.577  -2.785   0.787  0.00  0.00    +0.211 HD
ENDBRANCH   6  22
BRANCH  10  24
ATOM     24  O   UNL     1      -0.319   2.664   0.414  0.00  0.00    -0.506 OA
ATOM     25  H   UNL     1       0.444   3.205   0.464  0.00  0.00    +0.292 HD
ENDBRANCH  10  24
BRANCH  11  26
ATOM     26  O   UNL     1       0.307  -2.781  -0.235  0.00  0.00    -0.506 OA
ATOM     27  H   UNL     1       1.171  -3.140  -0.277  0.00  0.00    +0.292 HD
ENDBRANCH  11  26
BRANCH  16  28
ATOM     28  O   UNL     1      -5.093   0.709   0.226  0.00  0.00    -0.468 OA
ATOM     29  C   UNL     1      -5.561   1.056  -1.062  0.00  0.00    +0.253 C 
ENDBRANCH  16  28
TORSDOF 6
