REMARK  Name = 10044542
REMARK  5 active torsions:
REMARK  status: ('A' for Active; 'I' for Inactive)
REMARK    1  A    between atoms: C_5  and  O_21
REMARK    2  A    between atoms: C_8  and  O_23
REMARK    3  A    between atoms: C_9  and  O_25
REMARK    4  A    between atoms: C_10  and  O_27
REMARK    5  A    between atoms: C_18  and  C_29
REMARK                            x       y       z     vdW  Elec       q    Type
REMARK                         _______ _______ _______ _____ _____    ______ ____
ROOT
ATOM      1  O   UNL     1      -2.469   0.968  -0.179  0.00  0.00    -0.354 OA
ATOM      2  O   UNL     1      -1.054  -2.696   1.101  0.00  0.00    -0.293 OA
ATOM      3  C   UNL     1       1.038  -0.640   0.471  0.00  0.00    +0.058 C 
ATOM      4  C   UNL     1       1.787   0.462  -0.414  0.00  0.00    +0.034 C 
ATOM      5  C   UNL     1      -0.527  -0.522   0.142  0.00  0.00    +0.166 C 
ATOM      6  C   UNL     1       3.368   0.401  -0.416  0.00  0.00    +0.003 C 
ATOM      7  C   UNL     1      -1.134   0.901   0.379  0.00  0.00    +0.148 C 
ATOM      8  C   UNL     1       1.196   1.893  -0.264  0.00  0.00    +0.140 C 
ATOM      9  C   UNL     1       1.650  -2.047   0.091  0.00  0.00    +0.113 C 
ATOM     10  C   UNL     1      -0.328   1.923  -0.471  0.00  0.00    +0.164 C 
ATOM     11  C   UNL     1       3.820  -1.044  -0.742  0.00  0.00    +0.003 C 
ATOM     12  C   UNL     1       3.182  -2.098   0.150  0.00  0.00    +0.029 C 
ATOM     13  C   UNL     1       1.251  -0.476   1.998  0.00  0.00    +0.005 C 
ATOM     14  C   UNL     1      -1.442  -1.573   0.779  0.00  0.00    +0.180 C 
ATOM     15  C   UNL     1      -1.264   1.373   1.843  0.00  0.00    +0.035 C 
ATOM     16  C   UNL     1       3.930   1.299  -1.550  0.00  0.00    +0.000 C 
ATOM     17  C   UNL     1       4.056   0.870   0.880  0.00  0.00    +0.000 C 
ATOM     18  C   UNL     1      -3.389  -0.103   0.061  0.00  0.00    +0.118 C 
ATOM     19  C   UNL     1      -2.888  -1.192   1.015  0.00  0.00    +0.098 C 
ATOM     20  C   UNL     1      -4.658   0.538   0.636  0.00  0.00    +0.035 C 
ENDROOT
BRANCH   5  21
ATOM     21  O   UNL     1      -0.729  -0.801  -1.261  0.00  0.00    -0.377 OA
ATOM     22  H   UNL     1      -0.194  -0.191  -1.792  0.00  0.00    +0.211 HD
ENDBRANCH   5  21
BRANCH   8  23
ATOM     23  O   UNL     1       1.552   2.473   0.981  0.00  0.00    -0.382 OA
ATOM     24  H   UNL     1       2.515   2.442   1.089  0.00  0.00    +0.210 HD
ENDBRANCH   8  23
BRANCH   9  25
ATOM     25  O   UNL     1       1.267  -2.447  -1.225  0.00  0.00    -0.384 OA
ATOM     26  H   UNL     1       0.300  -2.427  -1.300  0.00  0.00    +0.210 HD
ENDBRANCH   9  25
BRANCH  10  27
ATOM     27  O   UNL     1      -0.818   3.254  -0.290  0.00  0.00    -0.380 OA
ATOM     28  H   UNL     1      -1.778   3.266  -0.422  0.00  0.00    +0.211 HD
ENDBRANCH  10  27
BRANCH  18  29
ATOM     29  C   UNL     1      -3.745  -0.690  -1.280  0.00  0.00    +0.001 C 
ATOM     30  C   UNL     1      -3.652  -0.025  -2.437  0.00  0.00    -0.003 C 
ENDBRANCH  18  29
TORSDOF 5
