REMARK  Name = 100459
REMARK  7 active torsions:
REMARK  status: ('A' for Active; 'I' for Inactive)
REMARK    1  A    between atoms: C_1  and  S_7
REMARK    2  A    between atoms: C_2  and  C_22
REMARK    3  A    between atoms: S_7  and  N_12
REMARK    4  A    between atoms: N_11  and  C_16
REMARK    5  A    between atoms: C_22  and  C_23
REMARK    6  A    between atoms: C_23  and  N_25
REMARK    7  A    between atoms: C_26  and  C_33
REMARK                            x       y       z     vdW  Elec       q    Type
REMARK                         _______ _______ _______ _____ _____    ______ ____
ROOT
ATOM      1  C   UNL     1       0.008  -2.888  -0.735  0.00  0.00    +0.125 C 
ATOM      2  C   UNL     1       2.350  -2.751   0.735  0.00  0.00    -0.020 C 
ATOM      3  C   UNL     1       0.020  -3.367   0.564  0.00  0.00    +0.020 C 
ATOM      4  C   UNL     1       1.139  -2.341  -1.315  0.00  0.00    +0.020 C 
ATOM      5  C   UNL     1       1.200  -3.299   1.304  0.00  0.00    -0.003 C 
ATOM      6  C   UNL     1       2.319  -2.272  -0.575  0.00  0.00    -0.003 C 
ENDROOT
BRANCH   1   7
ATOM      7  S   UNL     1      -1.488  -2.975  -1.673  0.00  0.00    +0.077 S 
ATOM      8  O   UNL     1      -2.297  -4.051  -1.134  0.00  0.00    -0.150 OA
ATOM      9  O   UNL     1      -1.105  -2.972  -3.072  0.00  0.00    -0.150 OA
BRANCH   7  12
ATOM     10  O   UNL     1      -3.201  -2.058   0.750  0.00  0.00    -0.251 OA
ATOM     11  N   UNL     1      -3.438   0.095  -0.058  0.00  0.00    -0.289 N 
ATOM     12  N   UNL     1      -2.208  -1.474  -1.282  0.00  0.00    -0.169 N 
ATOM     13  C   UNL     1      -2.982  -1.208  -0.108  0.00  0.00    +0.319 C 
ATOM     14  H   UNL     1      -3.207   0.702  -0.798  0.00  0.00    +0.151 HD
ATOM     15  H   UNL     1      -2.079  -0.733  -1.916  0.00  0.00    +0.178 HD
BRANCH  11  16
ATOM     16  C   UNL     1      -4.237   0.607   1.032  0.00  0.00    +0.073 C 
ATOM     17  C   UNL     1      -5.218   1.677   0.541  0.00  0.00    +0.020 C 
ATOM     18  C   UNL     1      -3.351   1.143   2.162  0.00  0.00    +0.020 C 
ATOM     19  C   UNL     1      -4.519   2.985   0.170  0.00  0.00    +0.002 C 
ATOM     20  C   UNL     1      -2.655   2.451   1.788  0.00  0.00    +0.002 C 
ATOM     21  C   UNL     1      -3.652   3.504   1.313  0.00  0.00    +0.000 C 
ENDBRANCH  11  16
ENDBRANCH   7  12
ENDBRANCH   1   7
BRANCH   2  22
ATOM     22  C   UNL     1       3.612  -2.679   1.526  0.00  0.00    +0.048 C 
BRANCH  22  23
ATOM     23  C   UNL     1       3.762  -1.378   2.324  0.00  0.00    +0.094 C 
BRANCH  23  25
ATOM     24  O   UNL     1       1.450   0.135   1.543  0.00  0.00    -0.270 OA
ATOM     25  N   UNL     1       3.742  -0.213   1.480  0.00  0.00    -0.300 N 
ATOM     26  C   UNL     1       2.570   0.457   1.155  0.00  0.00    +0.249 C 
ATOM     27  H   UNL     1       4.594   0.122   1.119  0.00  0.00    +0.150 HD
BRANCH  26  33
ATOM     28  O   UNL     1       0.503   1.343  -0.728  0.00  0.00    -0.475 OA
ATOM     29  C   UNL     1       1.839   3.076  -1.453  0.00  0.00    +0.016 C 
ATOM     30  C   UNL     1       0.583   3.262  -2.210  0.00  0.00    +0.077 C 
ATOM     31  C   UNL     1       1.711   1.982  -0.611  0.00  0.00    +0.139 C 
ATOM     32  C   UNL     1      -0.068   1.906  -1.933  0.00  0.00    +0.210 C 
ATOM     33  C   UNL     1       2.713   1.610   0.264  0.00  0.00    +0.087 C 
ATOM     34  C   UNL     1       2.989   3.843  -1.450  0.00  0.00    -0.001 C 
ATOM     35  C   UNL     1       3.885   2.370   0.270  0.00  0.00    +0.008 C 
ATOM     36  C   UNL     1       4.022   3.479  -0.582  0.00  0.00    +0.000 C 
ENDBRANCH  26  33
ENDBRANCH  23  25
ENDBRANCH  22  23
ENDBRANCH   2  22
TORSDOF 7
