REMARK  Name = 100473
REMARK  5 active torsions:
REMARK  status: ('A' for Active; 'I' for Inactive)
REMARK    1  A    between atoms: N_2  and  C_6
REMARK    2  A    between atoms: N_2  and  N_23
REMARK    3  A    between atoms: N_3  and  C_14
REMARK    4  A    between atoms: C_11  and  O_12
REMARK    5  A    between atoms: C_19  and  O_20
REMARK                            x       y       z     vdW  Elec       q    Type
REMARK                         _______ _______ _______ _____ _____    ______ ____
ROOT
ATOM      1  O   UNL     1      -0.330   1.022  -0.297  0.00  0.00    -0.251 OA
ATOM      2  N   UNL     1      -1.117  -1.127   0.065  0.00  0.00    -0.166 N 
ATOM      3  N   UNL     1       1.195  -0.693  -0.161  0.00  0.00    -0.289 N 
ATOM      4  C   UNL     1      -0.101  -0.182  -0.141  0.00  0.00    +0.320 C 
ATOM      5  H   UNL     1       1.329  -1.660  -0.033  0.00  0.00    +0.151 HD
ENDROOT
BRANCH   2   6
ATOM      6  C   UNL     1      -2.507  -0.739   0.106  0.00  0.00    +0.097 C 
ATOM      7  C   UNL     1      -2.940  -0.129  -1.229  0.00  0.00    +0.024 C 
ATOM      8  C   UNL     1      -2.760   0.224   1.268  0.00  0.00    +0.024 C 
ATOM      9  C   UNL     1      -4.396   0.336  -1.190  0.00  0.00    +0.031 C 
ATOM     10  C   UNL     1      -4.216   0.687   1.308  0.00  0.00    +0.031 C 
ATOM     11  C   UNL     1      -4.666   1.287  -0.024  0.00  0.00    +0.111 C 
BRANCH  11  12
ATOM     12  O   UNL     1      -3.973   2.511  -0.262  0.00  0.00    -0.384 OA
ATOM     13  H   UNL     1      -4.262   2.887  -1.108  0.00  0.00    +0.210 HD
ENDBRANCH  11  12
ENDBRANCH   2   6
BRANCH   3  14
ATOM     14  C   UNL     1       2.347   0.152  -0.364  0.00  0.00    +0.073 C 
ATOM     15  C   UNL     1       3.453  -0.608  -1.102  0.00  0.00    +0.022 C 
ATOM     16  C   UNL     1       2.846   0.708   0.971  0.00  0.00    +0.022 C 
ATOM     17  C   UNL     1       4.704   0.254  -1.282  0.00  0.00    +0.031 C 
ATOM     18  C   UNL     1       4.096   1.570   0.789  0.00  0.00    +0.031 C 
ATOM     19  C   UNL     1       5.205   0.828   0.042  0.00  0.00    +0.111 C 
BRANCH  19  20
ATOM     20  O   UNL     1       5.698  -0.241   0.847  0.00  0.00    -0.384 OA
ATOM     21  H   UNL     1       6.400  -0.708   0.369  0.00  0.00    +0.210 HD
ENDBRANCH  19  20
ENDBRANCH   3  14
BRANCH   2  23
ATOM     22  O   UNL     1      -1.762  -3.292   0.414  0.00  0.00    -0.078 OA
ATOM     23  N   UNL     1      -0.776  -2.568   0.241  0.00  0.00    +0.054 NA
ENDBRANCH   2  23
TORSDOF 5
