10044053
  -OEChem-03292013303D

 46 48  0     1  0  0  0  0  0999 V2000
    1.9231    0.6422    1.0023 O   0  0  0  0  0  0  0  0  0  0  0  0
    1.1157    2.2296   -1.2618 O   0  0  0  0  0  0  0  0  0  0  0  0
    3.3888    1.6635   -2.7719 O   0  0  0  0  0  0  0  0  0  0  0  0
    5.2839   -0.5891    1.0439 O   0  0  0  0  0  0  0  0  0  0  0  0
   -4.6836   -1.1897    0.3738 O   0  0  0  0  0  0  0  0  0  0  0  0
    3.2560   -1.6892    1.1630 O   0  0  0  0  0  0  0  0  0  0  0  0
   -0.1979    0.0416    0.1600 N   0  0  0  0  0  0  0  0  0  0  0  0
   -4.4454    3.1331    0.2135 N   0  0  0  0  0  0  0  0  0  0  0  0
    1.2416    0.0943   -0.1321 C   0  0  1  0  0  0  0  0  0  0  0  0
    1.5580    0.8789   -1.4112 C   0  0  2  0  0  0  0  0  0  0  0  0
    3.0692    0.8660   -1.6379 C   0  0  2  0  0  0  0  0  0  0  0  0
    3.8051    1.3872   -0.4034 C   0  0  0  0  0  0  0  0  0  0  0  0
    3.3384    0.7025    0.8799 C   0  0  2  0  0  0  0  0  0  0  0  0
   -1.0705   -0.9277   -0.2830 C   0  0  0  0  0  0  0  0  0  0  0  0
   -0.8654    0.9620    0.9241 C   0  0  0  0  0  0  0  0  0  0  0  0
   -2.3330   -0.6065    0.2200 C   0  0  0  0  0  0  0  0  0  0  0  0
   -2.1884    0.5881    0.9796 C   0  0  0  0  0  0  0  0  0  0  0  0
    3.9229   -0.6699    1.0458 C   0  0  0  0  0  0  0  0  0  0  0  0
   -0.8400   -2.0528   -1.0825 C   0  0  0  0  0  0  0  0  0  0  0  0
   -3.4203   -1.4478   -0.0886 C   0  0  0  0  0  0  0  0  0  0  0  0
   -3.2531    1.3104    1.7052 C   0  0  0  0  0  0  0  0  0  0  0  0
   -1.9335   -2.8727   -1.3755 C   0  0  0  0  0  0  0  0  0  0  0  0
   -3.2046   -2.5768   -0.8871 C   0  0  0  0  0  0  0  0  0  0  0  0
   -3.9273    2.3347    0.8773 C   0  0  0  0  0  0  0  0  0  0  0  0
    5.9741   -1.8336    1.1956 C   0  0  0  0  0  0  0  0  0  0  0  0
   -5.5137   -0.3785   -0.4492 C   0  0  0  0  0  0  0  0  0  0  0  0
    1.5494   -0.9472   -0.2595 H   0  0  0  0  0  0  0  0  0  0  0  0
    1.0316    0.4625   -2.2775 H   0  0  0  0  0  0  0  0  0  0  0  0
    3.3934   -0.1592   -1.8542 H   0  0  0  0  0  0  0  0  0  0  0  0
    3.6101    2.4648   -0.3163 H   0  0  0  0  0  0  0  0  0  0  0  0
    4.8880    1.3026   -0.5512 H   0  0  0  0  0  0  0  0  0  0  0  0
    3.6884    1.2859    1.7403 H   0  0  0  0  0  0  0  0  0  0  0  0
   -0.3551    1.8097    1.3621 H   0  0  0  0  0  0  0  0  0  0  0  0
    1.3720    2.7091   -2.0681 H   0  0  0  0  0  0  0  0  0  0  0  0
    4.3543    1.6385   -2.8847 H   0  0  0  0  0  0  0  0  0  0  0  0
    0.1433   -2.2914   -1.4729 H   0  0  0  0  0  0  0  0  0  0  0  0
   -2.8213    1.8053    2.5850 H   0  0  0  0  0  0  0  0  0  0  0  0
   -3.9962    0.6111    2.1034 H   0  0  0  0  0  0  0  0  0  0  0  0
   -1.7889   -3.7541   -1.9951 H   0  0  0  0  0  0  0  0  0  0  0  0
   -4.0351   -3.2345   -1.1324 H   0  0  0  0  0  0  0  0  0  0  0  0
    7.0483   -1.6310    1.1776 H   0  0  0  0  0  0  0  0  0  0  0  0
    5.7293   -2.5053    0.3674 H   0  0  0  0  0  0  0  0  0  0  0  0
    5.7193   -2.2935    2.1552 H   0  0  0  0  0  0  0  0  0  0  0  0
   -4.9377    0.3482   -1.0309 H   0  0  0  0  0  0  0  0  0  0  0  0
   -6.2214    0.1560    0.1903 H   0  0  0  0  0  0  0  0  0  0  0  0
   -6.0775   -1.0199   -1.1332 H   0  0  0  0  0  0  0  0  0  0  0  0
  1  9  1  0  0  0  0
  1 13  1  0  0  0  0
  2 10  1  0  0  0  0
  2 34  1  0  0  0  0
  3 11  1  0  0  0  0
  3 35  1  0  0  0  0
  4 18  1  0  0  0  0
  4 25  1  0  0  0  0
  5 20  1  0  0  0  0
  5 26  1  0  0  0  0
  6 18  2  0  0  0  0
  7  9  1  0  0  0  0
  7 14  1  0  0  0  0
  7 15  1  0  0  0  0
  8 24  3  0  0  0  0
  9 10  1  0  0  0  0
  9 27  1  0  0  0  0
 10 11  1  0  0  0  0
 10 28  1  0  0  0  0
 11 12  1  0  0  0  0
 11 29  1  0  0  0  0
 12 13  1  0  0  0  0
 12 30  1  0  0  0  0
 12 31  1  0  0  0  0
 13 18  1  0  0  0  0
 13 32  1  0  0  0  0
 14 16  2  0  0  0  0
 14 19  1  0  0  0  0
 15 17  2  0  0  0  0
 15 33  1  0  0  0  0
 16 17  1  0  0  0  0
 16 20  1  0  0  0  0
 17 21  1  0  0  0  0
 19 22  2  0  0  0  0
 19 36  1  0  0  0  0
 20 23  2  0  0  0  0
 21 24  1  0  0  0  0
 21 37  1  0  0  0  0
 21 38  1  0  0  0  0
 22 23  1  0  0  0  0
 22 39  1  0  0  0  0
 23 40  1  0  0  0  0
 25 41  1  0  0  0  0
 25 42  1  0  0  0  0
 25 43  1  0  0  0  0
 26 44  1  0  0  0  0
 26 45  1  0  0  0  0
 26 46  1  0  0  0  0
M  END
> <PUBCHEM_COMPOUND_CID>
10044053

> <PUBCHEM_CONFORMER_RMSD>
0.8

> <PUBCHEM_CONFORMER_DIVERSEORDER>
10
403
313
400
45
336
167
366
60
367
398
269
310
145
359
304
281
390
91
355
16
191
308
143
353
151
293
409
162
244
80
383
396
375
407
389
402
290
305
296
363
114
199
264
372
82
399
329
203
58
275
96
354
382
300
108
295
397
292
388
276
131
369
229
190
265
26
207
317
147
117
248
268
135
187
240
206
394
373
298
384
379
68
323
8
303
201
173
346
249
25
233
179
267
315
208
338
54
404
320
150
136
223
377
66
214
171
406
386
15
272
227
40
232
357
263
348
332
182
374
197
36
302
381
157
59
253
121
176
391
52
401
12
118
215
385
256
277
55
262
270
110
368
85
211
278
33
37
307
78
309
241
341
380
333
19
280
236
344
28
231
297
376
125
360
279
226
163
13
116
254
47
325
365
192
318
342
314
72
358
324
250
347
251
160
184
311
370
1
337
283
287
24
224
255
17
120
228
86
217
245
326
122
212
186
92
100
64
127
138
164
235
252
134
301
144
202
156
63
154
195
169
260
291
198
180
210
284
175
139
98
213
75
102
89
56
299
185
350
285
84
259
221
230
22
67
41
328
104
148
196
216
152
153
345
115
392
93
141
149
65
113
71
335
288
133
49
327
73
356
97
146
273
155
177
321
112
42
53
209
166
62
61
132
405
161
50
94
181
165
158
20
238
266
312
222
105
23
106
237
14
219
57
38
101
306
183
35
140
339
130
289
46
246
99
331
9
32
239
129
172
395
88
83
11
142
393
7
225
351
2
6
76
48
77
261
220
51
109
218
30
90
243
258
343
334
123
205
126
81
29
3
257
74
188
128
322
27
70
189
247
111
204
95
271
170
361
364
362
119
4
371
319
234
69
168
340
18
178
408
316
107
44
174
194
159
349
103
242
193
387
87
330
200
79
352
34
286
21
39
294
124
43
378
5
274
282
31
137

> <PUBCHEM_MMFF94_PARTIAL_CHARGES>
30
1 -0.56
10 0.28
11 0.28
13 0.34
14 -0.15
15 -0.3
17 -0.18
18 0.66
19 -0.15
2 -0.68
20 0.08
21 0.38
22 -0.15
23 -0.15
24 0.36
25 0.28
26 0.28
3 -0.68
33 0.15
34 0.4
35 0.4
36 0.15
39 0.15
4 -0.43
40 0.15
5 -0.36
6 -0.57
7 0.05
8 -0.56
9 0.54

> <PUBCHEM_EFFECTIVE_ROTOR_COUNT>
6.2

> <PUBCHEM_PHARMACOPHORE_FEATURES>
12
1 1 acceptor
1 2 acceptor
1 2 donor
1 3 acceptor
1 3 donor
1 5 acceptor
1 6 acceptor
1 7 cation
1 8 acceptor
5 7 14 15 16 17 rings
6 1 9 10 11 12 13 rings
6 14 16 19 20 22 23 rings

> <PUBCHEM_HEAVY_ATOM_COUNT>
26

> <PUBCHEM_ATOM_DEF_STEREO_COUNT>
0

> <PUBCHEM_ATOM_UDEF_STEREO_COUNT>
4

> <PUBCHEM_BOND_DEF_STEREO_COUNT>
0

> <PUBCHEM_BOND_UDEF_STEREO_COUNT>
0

> <PUBCHEM_ISOTOPIC_ATOM_COUNT>
0

> <PUBCHEM_COMPONENT_COUNT>
1

> <PUBCHEM_CACTVS_TAUTO_COUNT>
1

> <PUBCHEM_CONFORMER_ID>
009942950000000A

> <PUBCHEM_MMFF94_ENERGY>
63.7285

> <PUBCHEM_FEATURE_SELFOVERLAP>
61.008

> <PUBCHEM_SHAPE_FINGERPRINT>
11049842 53 17984169005203214254
11725454 13 16414049899401024640
12107183 9 18196086638931753146
12160290 23 17987533635691882507
12236239 1 18334855051816253090
12422481 6 18191023395979893328
12788726 201 18269567198452922339
13140716 1 17842013095873196539
13583140 156 17896048804898982129
14294032 229 18199208217475004865
14739800 52 18128250297878023320
15021287 119 17894912893196616368
15806764 133 14634874158351258678
15842332 3 18262528112068722980
16752209 62 18201447999262592639
17349148 13 18273492394765631039
173720 79 18410857638425647673
17818456 19 18339638932382574121
1813 80 17968660415796296454
20511986 3 18335405885730378936
20600515 1 17632300120154403881
20645477 70 16878219883154963486
21065201 7 17845952812985068806
22182313 1 16702315550140159300
23402539 116 17774991423814037031
23557571 272 17203062849244048032
23559900 14 17559974271170382492
23598288 3 18410018758092774667
23598291 2 18187369843410831980
25147074 1 18259993669269093436
2838139 119 17531793668545683541
312423 11 18113625611536744636
338550 245 18411703158129945646
460360 51 18270412585424255363
513202 73 17462837684840231834
559249 180 18339917108866690786
7615 1 18335143149680143356
9862522 239 18337392630797187597
9981440 41 18342461388218049243

> <PUBCHEM_SHAPE_MULTIPOLES>
489.89
11.29
2.92
1.71
4.72
0.25
0.76
0.79
-2.93
-3.06
0.54
1.94
-0.44
-2.88

> <PUBCHEM_SHAPE_SELFOVERLAP>
1050.343

> <PUBCHEM_SHAPE_VOLUME>
267.3

> <PUBCHEM_COORDINATE_TYPE>
2
5
10

$$$$
