REMARK  Name = 10048103
REMARK  6 active torsions:
REMARK  status: ('A' for Active; 'I' for Inactive)
REMARK    1  A    between atoms: C_5  and  O_22
REMARK    2  A    between atoms: C_11  and  O_24
REMARK    3  A    between atoms: C_18  and  C_30
REMARK    4  A    between atoms: C_19  and  O_26
REMARK    5  A    between atoms: C_21  and  O_28
REMARK    6  A    between atoms: C_30  and  C_31
REMARK                            x       y       z     vdW  Elec       q    Type
REMARK                         _______ _______ _______ _____ _____    ______ ____
ROOT
ATOM      1  O   UNL     1       4.611   1.228   0.376  0.00  0.00    -0.480 OA
ATOM      2  O   UNL     1       0.014   2.193   0.350  0.00  0.00    -0.453 OA
ATOM      3  O   UNL     1      -0.993  -1.644  -0.650  0.00  0.00    -0.286 OA
ATOM      4  C   UNL     1       5.688   0.276   0.476  0.00  0.00    +0.158 C 
ATOM      5  C   UNL     1       5.533  -0.879  -0.534  0.00  0.00    +0.151 C 
ATOM      6  C   UNL     1       4.191  -1.589  -0.378  0.00  0.00    +0.065 C 
ATOM      7  C   UNL     1       3.081  -0.594  -0.187  0.00  0.00    +0.048 C 
ATOM      8  C   UNL     1       3.350   0.730   0.178  0.00  0.00    +0.140 C 
ATOM      9  C   UNL     1       6.970   1.073   0.183  0.00  0.00    +0.046 C 
ATOM     10  C   UNL     1       5.760  -0.232   1.927  0.00  0.00    +0.046 C 
ATOM     11  C   UNL     1       1.750  -1.002  -0.351  0.00  0.00    +0.139 C 
ATOM     12  C   UNL     1       0.709  -0.087  -0.176  0.00  0.00    +0.107 A 
ATOM     13  C   UNL     1       2.304   1.644   0.341  0.00  0.00    +0.074 C 
ATOM     14  C   UNL     1       0.981   1.235   0.166  0.00  0.00    +0.154 A 
ATOM     15  C   UNL     1      -0.693  -0.497  -0.352  0.00  0.00    +0.204 A 
ATOM     16  C   UNL     1      -1.714   0.541  -0.149  0.00  0.00    +0.073 A 
ATOM     17  C   UNL     1      -1.300   1.829   0.191  0.00  0.00    +0.151 A 
ATOM     18  C   UNL     1      -3.072   0.247  -0.293  0.00  0.00    +0.025 C 
ATOM     19  C   UNL     1      -4.019   1.252  -0.095  0.00  0.00    +0.169 C 
ATOM     20  C   UNL     1      -2.252   2.831   0.389  0.00  0.00    +0.077 C 
ATOM     21  C   UNL     1      -3.610   2.542   0.246  0.00  0.00    +0.171 C 
ENDROOT
BRANCH   5  22
ATOM     22  O   UNL     1       5.629  -0.369  -1.867  0.00  0.00    -0.381 OA
ATOM     23  H   UNL     1       6.479   0.085  -1.979  0.00  0.00    +0.211 HD
ENDBRANCH   5  22
BRANCH  11  24
ATOM     24  O   UNL     1       1.504  -2.305  -0.679  0.00  0.00    -0.506 OA
ATOM     25  H   UNL     1       2.217  -2.903  -0.792  0.00  0.00    +0.292 HD
ENDBRANCH  11  24
BRANCH  19  26
ATOM     26  O   UNL     1      -5.350   0.985  -0.231  0.00  0.00    -0.469 OA
ATOM     27  C   UNL     1      -6.059   1.727  -1.220  0.00  0.00    +0.253 C 
ENDBRANCH  19  26
BRANCH  21  28
ATOM     28  O   UNL     1      -4.527   3.530   0.442  0.00  0.00    -0.503 OA
ATOM     29  H   UNL     1      -5.441   3.347   0.349  0.00  0.00    +0.292 HD
ENDBRANCH  21  28
BRANCH  18  30
ATOM     30  C   UNL     1      -3.578  -1.114  -0.656  0.00  0.00    +0.055 C 
BRANCH  30  31
ATOM     31  C   UNL     1      -3.845  -1.978   0.549  0.00  0.00    -0.030 C 
ATOM     32  C   UNL     1      -3.736  -3.317   0.652  0.00  0.00    -0.048 C 
ATOM     33  C   UNL     1      -4.020  -4.118   1.890  0.00  0.00    +0.026 C 
ATOM     34  C   UNL     1      -3.310  -4.139  -0.535  0.00  0.00    +0.026 C 
ENDBRANCH  30  31
ENDBRANCH  18  30
TORSDOF 6
