REMARK  Name = 10047585
REMARK  10 active torsions:
REMARK  status: ('A' for Active; 'I' for Inactive)
REMARK    1  A    between atoms: N_2  and  C_18
REMARK    2  A    between atoms: C_3  and  C_5
REMARK    3  A    between atoms: C_5  and  C_6
REMARK    4  A    between atoms: C_5  and  C_14
REMARK    5  A    between atoms: C_6  and  C_10
REMARK    6  A    between atoms: N_9  and  O_12
REMARK    7  A    between atoms: C_14  and  C_15
REMARK    8  A    between atoms: C_18  and  C_21
REMARK    9  A    between atoms: C_18  and  C_24
REMARK   10  A    between atoms: C_24  and  C_29
REMARK                            x       y       z     vdW  Elec       q    Type
REMARK                         _______ _______ _______ _____ _____    ______ ____
ROOT
ATOM      1  O   UNL     1       1.717   0.329  -1.383  0.00  0.00    -0.275 OA
ATOM      2  N   UNL     1       0.776   0.798   0.685  0.00  0.00    -0.298 N 
ATOM      3  C   UNL     1       1.643   0.135  -0.172  0.00  0.00    +0.223 C 
ATOM      4  H   UNL     1       0.795   0.569   1.642  0.00  0.00    +0.150 HD
ENDROOT
BRANCH   3   5
ATOM      5  C   UNL     1       2.542  -0.866   0.566  0.00  0.00    +0.085 C 
BRANCH   5   6
ATOM      6  C   UNL     1       1.789  -2.227   0.654  0.00  0.00    +0.087 C 
ATOM      7  C   UNL     1       2.564  -3.313   1.406  0.00  0.00    +0.010 C 
BRANCH   6  10
ATOM      8  O   UNL     1       2.208  -2.962  -1.621  0.00  0.00    -0.273 OA
ATOM      9  N   UNL     1       0.024  -2.816  -0.893  0.00  0.00    -0.197 N 
ATOM     10  C   UNL     1       1.386  -2.711  -0.742  0.00  0.00    +0.244 C 
ATOM     11  H   UNL     1      -0.600  -2.604  -0.161  0.00  0.00    +0.182 HD
BRANCH   9  12
ATOM     12  O   UNL     1      -0.422  -3.242  -2.150  0.00  0.00    -0.295 OA
ATOM     13  H   UNL     1      -1.391  -3.283  -2.153  0.00  0.00    +0.241 HD
ENDBRANCH   9  12
ENDBRANCH   6  10
ENDBRANCH   5   6
BRANCH   5  14
ATOM     14  C   UNL     1       3.939  -0.997  -0.083  0.00  0.00    +0.010 C 
BRANCH  14  15
ATOM     15  C   UNL     1       4.966   0.103   0.273  0.00  0.00    +0.000 C 
ATOM     16  C   UNL     1       6.355  -0.198  -0.296  0.00  0.00    +0.000 C 
ATOM     17  C   UNL     1       4.523   1.509  -0.124  0.00  0.00    +0.000 C 
ENDBRANCH  14  15
ENDBRANCH   5  14
ENDBRANCH   3   5
BRANCH   2  18
ATOM     18  C   UNL     1      -0.153   1.810   0.238  0.00  0.00    +0.153 C 
BRANCH  18  21
ATOM     19  O   UNL     1       1.445   3.425   1.084  0.00  0.00    -0.273 OA
ATOM     20  N   UNL     1       0.223   3.949  -0.821  0.00  0.00    -0.301 N 
ATOM     21  C   UNL     1       0.591   3.141   0.246  0.00  0.00    +0.241 C 
ATOM     22  C   UNL     1       0.812   5.244  -1.076  0.00  0.00    +0.111 C 
ATOM     23  H   UNL     1      -0.475   3.624  -1.434  0.00  0.00    +0.150 HD
ENDBRANCH  18  21
BRANCH  18  24
ATOM     24  C   UNL     1      -1.397   1.890   1.131  0.00  0.00    +0.055 C 
BRANCH  24  29
ATOM     25  C   UNL     1      -3.184   0.299   0.273  0.00  0.00    -0.030 C 
ATOM     26  C   UNL     1      -3.545   1.324  -0.773  0.00  0.00    +0.026 C 
ATOM     27  C   UNL     1      -4.385   0.753  -1.914  0.00  0.00    +0.005 C 
ATOM     28  C   UNL     1      -3.890  -0.913   0.388  0.00  0.00    -0.026 C 
ATOM     29  C   UNL     1      -2.160   0.589   1.186  0.00  0.00    -0.024 C 
ATOM     30  C   UNL     1      -5.528  -0.089  -1.363  0.00  0.00    +0.005 C 
ATOM     31  C   UNL     1      -4.983  -1.284  -0.583  0.00  0.00    +0.026 C 
ATOM     32  C   UNL     1      -3.531  -1.826   1.391  0.00  0.00    -0.005 C 
ATOM     33  C   UNL     1      -1.820  -0.323   2.186  0.00  0.00    -0.005 C 
ATOM     34  C   UNL     1      -2.504  -1.530   2.287  0.00  0.00    -0.001 C 
ENDBRANCH  24  29
ENDBRANCH  18  24
ENDBRANCH   2  18
TORSDOF 10
