10045495
  -OEChem-03292013303D

 56 57  0     1  0  0  0  0  0999 V2000
   -2.5714   -1.7735   -1.6129 O   0  0  0  0  0  0  0  0  0  0  0  0
    1.3437   -0.9757    1.0114 O   0  0  0  0  0  0  0  0  0  0  0  0
   -0.3038   -0.2273   -2.3992 O   0  0  0  0  0  0  0  0  0  0  0  0
    4.8146   -2.5125    1.6585 O   0  0  0  0  0  0  0  0  0  0  0  0
    4.7868   -0.2384    1.8135 O   0  0  0  0  0  0  0  0  0  0  0  0
   -4.7835   -2.5465   -0.0244 O   0  0  0  0  0  0  0  0  0  0  0  0
    3.0676   -0.1664   -0.3038 N   0  0  0  0  0  0  0  0  0  0  0  0
   -0.3863    0.6112   -0.2266 N   0  0  0  0  0  0  0  0  0  0  0  0
   -4.5736   -0.4225    0.9069 N   0  0  0  0  0  0  0  0  0  0  0  0
    3.9377   -1.3276   -0.1709 C   0  0  1  0  0  0  0  0  0  0  0  0
    0.9660    1.0785   -0.1315 C   0  0  1  0  0  0  0  0  0  0  0  0
    4.9818   -1.1568   -1.2682 C   0  0  0  0  0  0  0  0  0  0  0  0
    3.6445    0.8233   -1.2100 C   0  0  0  0  0  0  0  0  0  0  0  0
    5.0749    0.3578   -1.4368 C   0  0  0  0  0  0  0  0  0  0  0  0
    1.1684    2.2430    0.8536 C   0  0  1  0  0  0  0  0  0  0  0  0
   -2.3383   -0.4113   -1.2327 C   0  0  1  0  0  0  0  0  0  0  0  0
    1.7973   -0.1205    0.2491 C   0  0  0  0  0  0  0  0  0  0  0  0
   -2.7379   -1.4509   -0.2263 C   0  0  1  0  0  0  0  0  0  0  0  0
   -0.9075   -0.0039   -1.3564 C   0  0  0  0  0  0  0  0  0  0  0  0
    0.3525    3.5005    0.4786 C   0  0  0  0  0  0  0  0  0  0  0  0
    0.8475    1.7706    2.2778 C   0  0  0  0  0  0  0  0  0  0  0  0
    4.5511   -1.2661    1.1956 C   0  0  0  0  0  0  0  0  0  0  0  0
   -4.1313   -1.5390    0.2233 C   0  0  0  0  0  0  0  0  0  0  0  0
    0.6352    4.0107   -0.9289 C   0  0  0  0  0  0  0  0  0  0  0  0
   -5.9131   -0.2987    1.4356 C   0  0  0  0  0  0  0  0  0  0  0  0
   -6.8771    0.3255    0.4338 C   0  0  0  0  0  0  0  0  0  0  0  0
   -6.4459    1.7164   -0.0093 C   0  0  0  0  0  0  0  0  0  0  0  0
    3.3462   -2.2436   -0.2747 H   0  0  0  0  0  0  0  0  0  0  0  0
    1.2404    1.4012   -1.1381 H   0  0  0  0  0  0  0  0  0  0  0  0
    4.6156   -1.6026   -2.2010 H   0  0  0  0  0  0  0  0  0  0  0  0
    5.9499   -1.6068   -1.0289 H   0  0  0  0  0  0  0  0  0  0  0  0
    3.0814    0.7947   -2.1493 H   0  0  0  0  0  0  0  0  0  0  0  0
    3.5968    1.8299   -0.7894 H   0  0  0  0  0  0  0  0  0  0  0  0
    5.4632    0.6539   -2.4153 H   0  0  0  0  0  0  0  0  0  0  0  0
    5.7347    0.7789   -0.6690 H   0  0  0  0  0  0  0  0  0  0  0  0
    2.2277    2.5292    0.8518 H   0  0  0  0  0  0  0  0  0  0  0  0
   -3.0668    0.3197   -1.5619 H   0  0  0  0  0  0  0  0  0  0  0  0
   -1.9903   -1.8377    0.4558 H   0  0  0  0  0  0  0  0  0  0  0  0
   -0.9916    0.7032    0.5833 H   0  0  0  0  0  0  0  0  0  0  0  0
   -0.7212    3.3021    0.5797 H   0  0  0  0  0  0  0  0  0  0  0  0
    0.5902    4.2993    1.1920 H   0  0  0  0  0  0  0  0  0  0  0  0
   -0.1781    1.4056    2.3828 H   0  0  0  0  0  0  0  0  0  0  0  0
    1.5357    0.9925    2.6208 H   0  0  0  0  0  0  0  0  0  0  0  0
    0.9596    2.6071    2.9779 H   0  0  0  0  0  0  0  0  0  0  0  0
    0.1517    4.9819   -1.0768 H   0  0  0  0  0  0  0  0  0  0  0  0
    0.2416    3.3328   -1.6916 H   0  0  0  0  0  0  0  0  0  0  0  0
    1.7095    4.1392   -1.0936 H   0  0  0  0  0  0  0  0  0  0  0  0
   -3.9351    0.3546    1.0505 H   0  0  0  0  0  0  0  0  0  0  0  0
   -6.2745   -1.2909    1.7269 H   0  0  0  0  0  0  0  0  0  0  0  0
   -5.8487    0.3163    2.3394 H   0  0  0  0  0  0  0  0  0  0  0  0
    5.2183   -2.4935    2.5523 H   0  0  0  0  0  0  0  0  0  0  0  0
   -7.8732    0.3859    0.8869 H   0  0  0  0  0  0  0  0  0  0  0  0
   -6.9631   -0.3167   -0.4507 H   0  0  0  0  0  0  0  0  0  0  0  0
   -7.1982    2.1475   -0.6777 H   0  0  0  0  0  0  0  0  0  0  0  0
   -5.4957    1.6889   -0.5517 H   0  0  0  0  0  0  0  0  0  0  0  0
   -6.3340    2.3847    0.8503 H   0  0  0  0  0  0  0  0  0  0  0  0
  1 16  1  0  0  0  0
  1 18  1  0  0  0  0
  2 17  2  0  0  0  0
  3 19  2  0  0  0  0
  4 22  1  0  0  0  0
  4 51  1  0  0  0  0
  5 22  2  0  0  0  0
  6 23  2  0  0  0  0
  7 10  1  0  0  0  0
  7 13  1  0  0  0  0
  7 17  1  0  0  0  0
  8 11  1  0  0  0  0
  8 19  1  0  0  0  0
  8 39  1  0  0  0  0
  9 23  1  0  0  0  0
  9 25  1  0  0  0  0
  9 48  1  0  0  0  0
 10 12  1  0  0  0  0
 10 22  1  0  0  0  0
 10 28  1  0  0  0  0
 11 15  1  0  0  0  0
 11 17  1  0  0  0  0
 11 29  1  0  0  0  0
 12 14  1  0  0  0  0
 12 30  1  0  0  0  0
 12 31  1  0  0  0  0
 13 14  1  0  0  0  0
 13 32  1  0  0  0  0
 13 33  1  0  0  0  0
 14 34  1  0  0  0  0
 14 35  1  0  0  0  0
 15 20  1  0  0  0  0
 15 21  1  0  0  0  0
 15 36  1  0  0  0  0
 16 18  1  0  0  0  0
 16 19  1  0  0  0  0
 16 37  1  0  0  0  0
 18 23  1  0  0  0  0
 18 38  1  0  0  0  0
 20 24  1  0  0  0  0
 20 40  1  0  0  0  0
 20 41  1  0  0  0  0
 21 42  1  0  0  0  0
 21 43  1  0  0  0  0
 21 44  1  0  0  0  0
 24 45  1  0  0  0  0
 24 46  1  0  0  0  0
 24 47  1  0  0  0  0
 25 26  1  0  0  0  0
 25 49  1  0  0  0  0
 25 50  1  0  0  0  0
 26 27  1  0  0  0  0
 26 52  1  0  0  0  0
 26 53  1  0  0  0  0
 27 54  1  0  0  0  0
 27 55  1  0  0  0  0
 27 56  1  0  0  0  0
M  END
> <PUBCHEM_COMPOUND_CID>
10045495

> <PUBCHEM_CONFORMER_RMSD>
1.4

> <PUBCHEM_CONFORMER_DIVERSEORDER>
1
56
167
66
122
133
30
150
136
108
73
137
92
26
162
52
13
140
146
131
107
51
100
105
62
68
60
77
98
103
15
169
171
22
59
126
125
135
152
83
46
37
36
119
35
34
54
90
141
116
8
39
148
130
38
154
32
124
45
27
163
78
3
99
57
47
121
129
61
63
101
84
96
151
91
11
93
71
157
65
172
76
95
112
50
80
17
14
40
53
31
164
170
94
134
144
173
165
153
147
88
97
118
79
48
28
102
110
19
109
7
6
72
168
58
106
33
87
86
44
166
2
160
41
5
113
20
43
174
120
138
10
81
4
161
67
70
64
55
111
82
49
128
155
74
156
123
143
69
132
25
115
145
127
142
139
89
9
114
42
29
159
75
85
21
12
104
117
158
16
149
18
23
24

> <PUBCHEM_MMFF94_PARTIAL_CHARGES>
24
1 -0.3
10 0.36
11 0.36
13 0.3
16 0.05
17 0.57
18 0.05
19 0.63
2 -0.57
22 0.66
23 0.63
25 0.3
3 -0.57
37 0.1
38 0.1
39 0.37
4 -0.65
48 0.37
5 -0.57
51 0.5
6 -0.57
7 -0.66
8 -0.73
9 -0.73

> <PUBCHEM_EFFECTIVE_ROTOR_COUNT>
13.6

> <PUBCHEM_PHARMACOPHORE_FEATURES>
13
1 1 acceptor
1 2 acceptor
1 21 hydrophobe
1 24 hydrophobe
1 27 hydrophobe
1 3 acceptor
1 4 acceptor
1 5 acceptor
1 6 acceptor
1 8 donor
1 9 donor
3 4 5 22 anion
5 7 10 12 13 14 rings

> <PUBCHEM_HEAVY_ATOM_COUNT>
27

> <PUBCHEM_ATOM_DEF_STEREO_COUNT>
0

> <PUBCHEM_ATOM_UDEF_STEREO_COUNT>
5

> <PUBCHEM_BOND_DEF_STEREO_COUNT>
0

> <PUBCHEM_BOND_UDEF_STEREO_COUNT>
0

> <PUBCHEM_ISOTOPIC_ATOM_COUNT>
0

> <PUBCHEM_COMPONENT_COUNT>
1

> <PUBCHEM_CACTVS_TAUTO_COUNT>
4

> <PUBCHEM_CONFORMER_ID>
0099483700000001

> <PUBCHEM_MMFF94_ENERGY>
39.8119

> <PUBCHEM_FEATURE_SELFOVERLAP>
66.035

> <PUBCHEM_SHAPE_FINGERPRINT>
10319926 262 18341895229929170115
10764073 3 14546803169703137420
11089746 13 14404910162993208966
11135609 187 17908435989219839492
12107183 9 18411984646523769323
12166972 35 17060338557100565713
12553582 1 18272082825312383142
12633257 1 18272090521935981695
12778500 126 18187657890183592357
12788726 201 18338807710693534960
14251758 9 17489591160247855207
14466204 15 18340773637737095585
15142383 8 18335978692559793868
15183329 4 18412268328992480307
1813 80 18342454872251124124
20429585 67 14779552270700337441
20832881 197 18260829293531342915
21033648 29 16415197832637860331
21315759 148 17460048481432509361
21344244 181 15068629248914110409
22950370 63 18410580599586047894
23559900 14 18342176726206403385
23622692 88 18131354103074625773
2838139 119 11815902249156349651
3004659 81 18261118452426358294
3411729 13 17773026678150669280
4325135 7 9295290521935542351
4340502 62 8430319013319859153
5104073 3 18058455473131564931
6086070 43 18338501016074804159
6328613 192 18342750645121774165
6786 2 17109601316379237292
8509985 295 17775011206190848121

> <PUBCHEM_SHAPE_MULTIPOLES>
505.49
14.43
3.16
1.85
16.32
3.07
-0.15
-5.99
-2.68
-0.21
-0.17
-1.39
-0.07
-0.91

> <PUBCHEM_SHAPE_SELFOVERLAP>
1021.676

> <PUBCHEM_SHAPE_VOLUME>
295.7

> <PUBCHEM_COORDINATE_TYPE>
2
5
10

$$$$
