10044321
  -OEChem-03292013303D

 45 46  0     1  0  0  0  0  0999 V2000
    1.8248    1.9581    0.2776 S   0  0  0  0  0  0  0  0  0  0  0  0
    4.0770    0.8763   -0.0166 O   0  0  0  0  0  0  0  0  0  0  0  0
    2.0000    2.4554    1.6295 O   0  0  0  0  0  0  0  0  0  0  0  0
    2.0875    2.8203   -0.8593 O   0  0  0  0  0  0  0  0  0  0  0  0
    1.2584   -1.7384   -0.6798 O   0  0  0  0  0  0  0  0  0  0  0  0
    1.8304   -4.1607    0.3734 O   0  0  0  0  0  0  0  0  0  0  0  0
    2.6961    0.4828    0.0822 N   0  0  1  0  0  0  0  0  0  0  0  0
    2.2929   -2.9800    0.9698 N   0  0  0  0  0  0  0  0  0  0  0  0
    0.1502    1.4016    0.1692 C   0  0  0  0  0  0  0  0  0  0  0  0
    4.8220   -0.2661   -0.4183 C   0  0  0  0  0  0  0  0  0  0  0  0
    2.4670   -0.6011    1.0665 C   0  0  0  0  0  0  0  0  0  0  0  0
   -2.4714    0.5303    0.0001 C   0  0  0  0  0  0  0  0  0  0  0  0
   -0.4690    1.3596   -1.0679 C   0  0  0  0  0  0  0  0  0  0  0  0
   -0.5102    1.0185    1.3237 C   0  0  0  0  0  0  0  0  0  0  0  0
   -1.7903    0.9205   -1.1531 C   0  0  0  0  0  0  0  0  0  0  0  0
   -1.8313    0.5793    1.2383 C   0  0  0  0  0  0  0  0  0  0  0  0
   -3.8418    0.0749   -0.0885 C   0  0  0  0  0  0  0  0  0  0  0  0
    4.3079   -0.7504   -1.7655 C   0  0  0  0  0  0  0  0  0  0  0  0
    6.2992    0.0924   -0.4710 C   0  0  0  0  0  0  0  0  0  0  0  0
    1.9369   -1.8107    0.3420 C   0  0  0  0  0  0  0  0  0  0  0  0
   -4.1155   -1.2787   -0.2858 C   0  0  0  0  0  0  0  0  0  0  0  0
   -4.8895    0.9890    0.0239 C   0  0  0  0  0  0  0  0  0  0  0  0
   -5.4366   -1.7181   -0.3709 C   0  0  0  0  0  0  0  0  0  0  0  0
   -6.2107    0.5494   -0.0611 C   0  0  0  0  0  0  0  0  0  0  0  0
   -6.4841   -0.8040   -0.2585 C   0  0  0  0  0  0  0  0  0  0  0  0
    4.7556   -1.0823    0.3055 H   0  0  0  0  0  0  0  0  0  0  0  0
    1.7135   -0.3211    1.8050 H   0  0  0  0  0  0  0  0  0  0  0  0
    3.3522   -0.8239    1.6678 H   0  0  0  0  0  0  0  0  0  0  0  0
    0.0478    1.6518   -1.9767 H   0  0  0  0  0  0  0  0  0  0  0  0
   -0.0394    1.0581    2.3008 H   0  0  0  0  0  0  0  0  0  0  0  0
   -2.2739    0.8866   -2.1266 H   0  0  0  0  0  0  0  0  0  0  0  0
   -2.3486    0.2809    2.1471 H   0  0  0  0  0  0  0  0  0  0  0  0
    4.8850   -1.6169   -2.1062 H   0  0  0  0  0  0  0  0  0  0  0  0
    3.2582   -1.0309   -1.7880 H   0  0  0  0  0  0  0  0  0  0  0  0
    4.4203    0.0405   -2.5170 H   0  0  0  0  0  0  0  0  0  0  0  0
    6.9089   -0.7636   -0.7757 H   0  0  0  0  0  0  0  0  0  0  0  0
    6.6434    0.4355    0.5108 H   0  0  0  0  0  0  0  0  0  0  0  0
    6.4767    0.9162   -1.1712 H   0  0  0  0  0  0  0  0  0  0  0  0
   -3.3106   -2.0047   -0.3754 H   0  0  0  0  0  0  0  0  0  0  0  0
   -4.6940    2.0476    0.1781 H   0  0  0  0  0  0  0  0  0  0  0  0
   -5.6497   -2.7719   -0.5246 H   0  0  0  0  0  0  0  0  0  0  0  0
   -7.0265    1.2610    0.0263 H   0  0  0  0  0  0  0  0  0  0  0  0
   -7.5128   -1.1461   -0.3246 H   0  0  0  0  0  0  0  0  0  0  0  0
    2.7350   -3.0657    1.8778 H   0  0  0  0  0  0  0  0  0  0  0  0
    2.6039   -4.3942   -0.1675 H   0  0  0  0  0  0  0  0  0  0  0  0
  1  3  2  0  0  0  0
  1  4  2  0  0  0  0
  1  7  1  0  0  0  0
  1  9  1  0  0  0  0
  2  7  1  0  0  0  0
  2 10  1  0  0  0  0
  5 20  2  0  0  0  0
  6  8  1  0  0  0  0
  6 45  1  0  0  0  0
  7 11  1  0  0  0  0
  8 20  1  0  0  0  0
  8 44  1  0  0  0  0
  9 13  2  0  0  0  0
  9 14  1  0  0  0  0
 10 18  1  0  0  0  0
 10 19  1  0  0  0  0
 10 26  1  0  0  0  0
 11 20  1  0  0  0  0
 11 27  1  0  0  0  0
 11 28  1  0  0  0  0
 12 15  2  0  0  0  0
 12 16  1  0  0  0  0
 12 17  1  0  0  0  0
 13 15  1  0  0  0  0
 13 29  1  0  0  0  0
 14 16  2  0  0  0  0
 14 30  1  0  0  0  0
 15 31  1  0  0  0  0
 16 32  1  0  0  0  0
 17 21  2  0  0  0  0
 17 22  1  0  0  0  0
 18 33  1  0  0  0  0
 18 34  1  0  0  0  0
 18 35  1  0  0  0  0
 19 36  1  0  0  0  0
 19 37  1  0  0  0  0
 19 38  1  0  0  0  0
 21 23  1  0  0  0  0
 21 39  1  0  0  0  0
 22 24  2  0  0  0  0
 22 40  1  0  0  0  0
 23 25  2  0  0  0  0
 23 41  1  0  0  0  0
 24 25  1  0  0  0  0
 24 42  1  0  0  0  0
 25 43  1  0  0  0  0
M  END
> <PUBCHEM_COMPOUND_CID>
10044321

> <PUBCHEM_CONFORMER_RMSD>
0.8

> <PUBCHEM_CONFORMER_DIVERSEORDER>
1
13
12
27
11
2
8
20
25
15
14
24
26
4
23
22
5
28
7
10
9
17
16
18
21
6
19
3

> <PUBCHEM_MMFF94_PARTIAL_CHARGES>
32
1 1.45
10 0.28
11 0.42
13 -0.15
14 -0.15
15 -0.15
16 -0.15
2 -0.2
20 0.57
21 -0.15
22 -0.15
23 -0.15
24 -0.15
25 -0.15
29 0.15
3 -0.65
30 0.15
31 0.15
32 0.15
39 0.15
4 -0.65
40 0.15
41 0.15
42 0.15
43 0.15
44 0.37
45 0.4
5 -0.57
6 -0.44
7 -0.58
8 -0.39
9 -0.01

> <PUBCHEM_EFFECTIVE_ROTOR_COUNT>
8

> <PUBCHEM_PHARMACOPHORE_FEATURES>
7
1 3 acceptor
1 4 acceptor
1 5 acceptor
1 8 donor
3 10 18 19 hydrophobe
6 17 21 22 23 24 25 rings
6 9 12 13 14 15 16 rings

> <PUBCHEM_HEAVY_ATOM_COUNT>
25

> <PUBCHEM_ATOM_DEF_STEREO_COUNT>
0

> <PUBCHEM_ATOM_UDEF_STEREO_COUNT>
0

> <PUBCHEM_BOND_DEF_STEREO_COUNT>
0

> <PUBCHEM_BOND_UDEF_STEREO_COUNT>
0

> <PUBCHEM_ISOTOPIC_ATOM_COUNT>
0

> <PUBCHEM_COMPONENT_COUNT>
1

> <PUBCHEM_CACTVS_TAUTO_COUNT>
3

> <PUBCHEM_CONFORMER_ID>
009943A100000001

> <PUBCHEM_MMFF94_ENERGY>
61.1815

> <PUBCHEM_FEATURE_SELFOVERLAP>
35.539

> <PUBCHEM_SHAPE_FINGERPRINT>
10366900 7 18114185237058891513
11135609 187 18268434701777506344
11796584 16 18131353020969785663
11963148 33 18114455738384735778
12011746 2 18334580148329344286
12107183 9 17908988699959781657
12236239 1 17917715712137279953
12403259 327 12895065215405475772
12507557 5 9151175359487156495
12596602 18 17346597530135912099
12778500 126 15913064079135767627
12788726 201 17702949124133519305
13167823 11 18270960250010686629
13402501 40 18333452062147342371
13464513 79 18411419522995188108
13583140 156 17987500646254154441
13836976 161 18260270780416333684
13911987 19 18116176474988715332
14251764 18 11599997760832541146
14617045 38 18408044013840181123
15183329 4 18336259068953414981
15295992 7 11383817294922122615
15537594 2 18343015593185565095
17492 54 18042145270368710364
18681886 176 18131346448947071242
19784866 240 18202292402333130021
20028762 73 18272089413987764110
20645477 70 18343021124834189277
21033648 29 14907609027086057779
21054139 6 18410574015443491390
21267235 1 18341619247983119213
21285901 2 17531523187935793461
21344244 181 18059870445818072382
21521721 280 18338804511138370824
22393880 68 18412822482314763861
23559900 14 18340199791320223985
239999 70 18202283627983586428
2871803 45 18410296887089299992
3004659 81 18412541033556301977
3060560 45 18334858342325528680
338550 245 18266177421162902655
351380 180 9871749100763948463
4073 2 18335142050780198667
4340502 62 18128808836171674009
46194498 28 17749110019191385805
463206 1 18268709583794372631
465052 167 17775290490486441765
484989 97 18118698831371150178
59755656 215 18408318878798634085
7399639 24 18190722288845686877

> <PUBCHEM_SHAPE_MULTIPOLES>
479.03
13.67
2.9
1.22
9.69
2.15
0.02
3.28
-3.06
-2.28
0.54
-0.8
-0.19
-0.23

> <PUBCHEM_SHAPE_SELFOVERLAP>
991.256

> <PUBCHEM_SHAPE_VOLUME>
274.1

> <PUBCHEM_COORDINATE_TYPE>
2
5
10

$$$$
