10046792
  -OEChem-03292013303D

 49 52  0     1  0  0  0  0  0999 V2000
    0.1486    1.3142    2.0019 O   0  0  0  0  0  0  0  0  0  0  0  0
    0.4407   -1.0383    1.6034 O   0  0  0  0  0  0  0  0  0  0  0  0
   -0.3720    2.8213   -1.0881 O   0  0  0  0  0  0  0  0  0  0  0  0
   -2.7172   -1.8675    1.8049 O   0  0  0  0  0  0  0  0  0  0  0  0
    2.0643   -3.0143    0.7663 O   0  0  0  0  0  0  0  0  0  0  0  0
    4.1037   -2.5062   -1.0290 O   0  0  0  0  0  0  0  0  0  0  0  0
   -4.5989    0.2287   -2.0227 O   0  0  0  0  0  0  0  0  0  0  0  0
   -4.6866   -1.7019   -0.0493 O   0  0  0  0  0  0  0  0  0  0  0  0
    3.8950    2.8784   -0.5162 O   0  0  0  0  0  0  0  0  0  0  0  0
    0.7344    1.7106    0.7624 C   0  0  1  0  0  0  0  0  0  0  0  0
   -0.4779    0.0272    1.9092 C   0  0  2  0  0  0  0  0  0  0  0  0
    1.6517    0.6091    0.2751 C   0  0  0  0  0  0  0  0  0  0  0  0
   -1.5951    0.0615    0.8763 C   0  0  0  0  0  0  0  0  0  0  0  0
   -0.4040    1.9454   -0.2298 C   0  0  0  0  0  0  0  0  0  0  0  0
   -1.5561    1.0134   -0.1567 C   0  0  0  0  0  0  0  0  0  0  0  0
    1.4449   -0.7013    0.7316 C   0  0  0  0  0  0  0  0  0  0  0  0
    1.4135    3.0415    1.1189 C   0  0  0  0  0  0  0  0  0  0  0  0
   -0.9524   -0.2175    3.3501 C   0  0  0  0  0  0  0  0  0  0  0  0
    2.6779    0.8397   -0.6521 C   0  0  0  0  0  0  0  0  0  0  0  0
   -2.6544   -0.8577    0.8897 C   0  0  0  0  0  0  0  0  0  0  0  0
    2.2684   -1.7465    0.3064 C   0  0  0  0  0  0  0  0  0  0  0  0
   -2.5656    1.0748   -1.1234 C   0  0  0  0  0  0  0  0  0  0  0  0
    3.4973   -0.2062   -1.0823 C   0  0  0  0  0  0  0  0  0  0  0  0
    3.2963   -1.4968   -0.5994 C   0  0  0  0  0  0  0  0  0  0  0  0
   -3.6621   -0.8010   -0.0760 C   0  0  0  0  0  0  0  0  0  0  0  0
    2.9333    2.1683   -1.2853 C   0  0  0  0  0  0  0  0  0  0  0  0
   -3.6208    0.1669   -1.0763 C   0  0  0  0  0  0  0  0  0  0  0  0
    3.6926   -3.2122   -2.1982 C   0  0  0  0  0  0  0  0  0  0  0  0
   -4.3994   -0.5337   -3.2114 C   0  0  0  0  0  0  0  0  0  0  0  0
    2.3460    2.8754    1.6707 H   0  0  0  0  0  0  0  0  0  0  0  0
    1.6039    3.7114    0.2801 H   0  0  0  0  0  0  0  0  0  0  0  0
    0.7685    3.6193    1.7957 H   0  0  0  0  0  0  0  0  0  0  0  0
   -1.2118   -1.2561    3.5662 H   0  0  0  0  0  0  0  0  0  0  0  0
   -0.1452    0.0262    4.0538 H   0  0  0  0  0  0  0  0  0  0  0  0
   -1.7979    0.4296    3.6097 H   0  0  0  0  0  0  0  0  0  0  0  0
   -2.5349    1.8153   -1.9184 H   0  0  0  0  0  0  0  0  0  0  0  0
    4.2950   -0.0267   -1.7999 H   0  0  0  0  0  0  0  0  0  0  0  0
    3.3594    2.0278   -2.2872 H   0  0  0  0  0  0  0  0  0  0  0  0
    2.0392    2.7647   -1.4555 H   0  0  0  0  0  0  0  0  0  0  0  0
   -1.8183   -2.2229    1.9116 H   0  0  0  0  0  0  0  0  0  0  0  0
    2.7529   -3.5938    0.3975 H   0  0  0  0  0  0  0  0  0  0  0  0
   -4.5512   -2.2980    0.7076 H   0  0  0  0  0  0  0  0  0  0  0  0
    4.0576    3.7223   -0.9712 H   0  0  0  0  0  0  0  0  0  0  0  0
    3.6805   -2.5420   -3.0635 H   0  0  0  0  0  0  0  0  0  0  0  0
    2.7034   -3.6587   -2.0561 H   0  0  0  0  0  0  0  0  0  0  0  0
    4.4136   -4.0125   -2.3861 H   0  0  0  0  0  0  0  0  0  0  0  0
   -4.3098   -1.5990   -2.9766 H   0  0  0  0  0  0  0  0  0  0  0  0
   -3.5061   -0.1894   -3.7421 H   0  0  0  0  0  0  0  0  0  0  0  0
   -5.2681   -0.3906   -3.8599 H   0  0  0  0  0  0  0  0  0  0  0  0
  1 10  1  0  0  0  0
  1 11  1  0  0  0  0
  2 11  1  0  0  0  0
  2 16  1  0  0  0  0
  3 14  2  0  0  0  0
  4 20  1  0  0  0  0
  4 40  1  0  0  0  0
  5 21  1  0  0  0  0
  5 41  1  0  0  0  0
  6 24  1  0  0  0  0
  6 28  1  0  0  0  0
  7 27  1  0  0  0  0
  7 29  1  0  0  0  0
  8 25  1  0  0  0  0
  8 42  1  0  0  0  0
  9 26  1  0  0  0  0
  9 43  1  0  0  0  0
 10 12  1  0  0  0  0
 10 14  1  0  0  0  0
 10 17  1  0  0  0  0
 11 13  1  0  0  0  0
 11 18  1  0  0  0  0
 12 16  2  0  0  0  0
 12 19  1  0  0  0  0
 13 15  1  0  0  0  0
 13 20  2  0  0  0  0
 14 15  1  0  0  0  0
 15 22  2  0  0  0  0
 16 21  1  0  0  0  0
 17 30  1  0  0  0  0
 17 31  1  0  0  0  0
 17 32  1  0  0  0  0
 18 33  1  0  0  0  0
 18 34  1  0  0  0  0
 18 35  1  0  0  0  0
 19 23  2  0  0  0  0
 19 26  1  0  0  0  0
 20 25  1  0  0  0  0
 21 24  2  0  0  0  0
 22 27  1  0  0  0  0
 22 36  1  0  0  0  0
 23 24  1  0  0  0  0
 23 37  1  0  0  0  0
 25 27  2  0  0  0  0
 26 38  1  0  0  0  0
 26 39  1  0  0  0  0
 28 44  1  0  0  0  0
 28 45  1  0  0  0  0
 28 46  1  0  0  0  0
 29 47  1  0  0  0  0
 29 48  1  0  0  0  0
 29 49  1  0  0  0  0
M  END
> <PUBCHEM_COMPOUND_CID>
10046792

> <PUBCHEM_CONFORMER_RMSD>
0.8

> <PUBCHEM_CONFORMER_DIVERSEORDER>
1
2

> <PUBCHEM_MMFF94_PARTIAL_CHARGES>
33
1 -0.56
10 0.48
11 0.7
12 -0.14
13 -0.14
14 0.42
15 0.09
16 0.08
19 -0.14
2 -0.36
20 0.08
21 0.08
22 -0.15
23 -0.15
24 0.08
25 0.08
26 0.42
27 0.08
28 0.28
29 0.28
3 -0.57
36 0.15
37 0.15
4 -0.53
40 0.45
41 0.45
42 0.45
43 0.4
5 -0.53
6 -0.36
7 -0.36
8 -0.53
9 -0.68

> <PUBCHEM_EFFECTIVE_ROTOR_COUNT>
3.4

> <PUBCHEM_PHARMACOPHORE_FEATURES>
14
1 1 acceptor
1 2 acceptor
1 3 acceptor
1 4 donor
1 5 donor
1 6 acceptor
1 7 acceptor
1 8 donor
1 9 acceptor
1 9 donor
6 1 10 11 13 14 15 rings
6 1 2 10 11 12 16 rings
6 12 16 19 21 23 24 rings
6 13 15 20 22 25 27 rings

> <PUBCHEM_HEAVY_ATOM_COUNT>
29

> <PUBCHEM_ATOM_DEF_STEREO_COUNT>
2

> <PUBCHEM_ATOM_UDEF_STEREO_COUNT>
0

> <PUBCHEM_BOND_DEF_STEREO_COUNT>
0

> <PUBCHEM_BOND_UDEF_STEREO_COUNT>
0

> <PUBCHEM_ISOTOPIC_ATOM_COUNT>
0

> <PUBCHEM_COMPONENT_COUNT>
1

> <PUBCHEM_CACTVS_TAUTO_COUNT>
34

> <PUBCHEM_CONFORMER_ID>
00994D4800000001

> <PUBCHEM_MMFF94_ENERGY>
124.3074

> <PUBCHEM_FEATURE_SELFOVERLAP>
72.514

> <PUBCHEM_SHAPE_FINGERPRINT>
10498660 4 17023167328666412333
10764073 3 17034378971098976800
10863032 1 18113901580260003673
11582403 64 17537140812039031216
11720765 8 17682086938589012342
11796584 16 16772654685493689405
12553582 1 18120102688591851666
12788726 201 17765435344423176304
12892183 10 10879985865707902119
13383661 66 16835196152032604150
13544653 18 17703782583495374026
13911987 19 17833575735378172940
13965767 371 8790600467864477151
14251757 17 17967251992254648095
14659021 117 17255116749593247106
15163728 17 14707776082766981279
16945 1 17969221123048698296
17357779 13 18336558109839821238
1813 80 17489317360061210933
20626108 58 17703208655784632695
20691752 17 16950277395235539673
20775438 99 17978473702850501983
20775530 9 17845652521583289031
21285901 2 17535206749405058867
21731516 1 17489587844227186689
21756936 100 11531640015317967766
22182313 1 17750537215459532688
22393880 68 17894911836513498254
22907989 373 16809026422223192862
23379529 103 18271253720198858326
23559900 14 18040709286460305344
238 59 18336546130970090180
25222932 49 16054029295199358231
2748010 2 17897190080883631560
2838139 119 14780989367206830670
3323516 105 18261675973361522329
394222 165 14042046239434758811
4280585 95 18190737540807025454
44802255 64 17102025595881532028
46194498 28 17896328080773264255
463206 1 18201151066519944215
474 4 11891332053993359407
484985 159 16483316825384981590
5262128 65 18265062344663115102
70251023 43 18267321849569469338

> <PUBCHEM_SHAPE_MULTIPOLES>
543.98
7.89
3.28
2.56
3.58
0.11
0.39
4.66
-5.86
-4.18
-0.81
2.13
0.51
0.45

> <PUBCHEM_SHAPE_SELFOVERLAP>
1216.371

> <PUBCHEM_SHAPE_VOLUME>
287.8

> <PUBCHEM_COORDINATE_TYPE>
2
5
10

$$$$
