10047220
  -OEChem-03292013303D

 40 42  0     0  0  0  0  0  0999 V2000
   -3.5408    3.6794   -0.0539 S   0  0  0  0  0  0  0  0  0  0  0  0
    5.7844   -0.6491    0.0584 F   0  0  0  0  0  0  0  0  0  0  0  0
    5.4199    1.1979   -1.0183 F   0  0  0  0  0  0  0  0  0  0  0  0
    5.3644    1.1809    1.1555 F   0  0  0  0  0  0  0  0  0  0  0  0
   -3.4825    4.6148   -1.1684 O   0  0  0  0  0  0  0  0  0  0  0  0
   -4.6659    2.7622    0.0624 O   0  0  0  0  0  0  0  0  0  0  0  0
   -3.2999   -4.7751    1.1369 O   0  0  0  0  0  0  0  0  0  0  0  0
   -3.3701   -4.8427   -1.1239 O   0  0  0  0  0  0  0  0  0  0  0  0
    1.4675    0.5264    0.0001 N   0  0  0  0  0  0  0  0  0  0  0  0
    2.6502    1.1644    0.0221 N   0  0  0  0  0  0  0  0  0  0  0  0
   -3.3919    4.5527    1.4071 N   0  0  0  0  0  0  0  0  0  0  0  0
    1.5727   -0.8351   -0.0072 C   0  0  0  0  0  0  0  0  0  0  0  0
    0.2860    1.2701   -0.0126 C   0  0  0  0  0  0  0  0  0  0  0  0
    0.4528   -1.7438   -0.0299 C   0  0  0  0  0  0  0  0  0  0  0  0
    2.9214   -1.1037    0.0108 C   0  0  0  0  0  0  0  0  0  0  0  0
    3.5345    0.1634    0.0286 C   0  0  0  0  0  0  0  0  0  0  0  0
   -0.8588    0.7453    0.5709 C   0  0  0  0  0  0  0  0  0  0  0  0
    0.2736    2.5239   -0.6086 C   0  0  0  0  0  0  0  0  0  0  0  0
   -2.0631    2.7494   -0.0377 C   0  0  0  0  0  0  0  0  0  0  0  0
   -2.0391    1.4884    0.5583 C   0  0  0  0  0  0  0  0  0  0  0  0
   -0.9067    3.2672   -0.6212 C   0  0  0  0  0  0  0  0  0  0  0  0
   -0.1068   -2.1915    1.1666 C   0  0  0  0  0  0  0  0  0  0  0  0
   -0.0716   -2.1736   -1.2490 C   0  0  0  0  0  0  0  0  0  0  0  0
    4.9763    0.4617    0.0530 C   0  0  0  0  0  0  0  0  0  0  0  0
   -1.1906   -3.0692    1.1443 C   0  0  0  0  0  0  0  0  0  0  0  0
   -1.1555   -3.0513   -1.2715 C   0  0  0  0  0  0  0  0  0  0  0  0
   -1.7151   -3.4991   -0.0747 C   0  0  0  0  0  0  0  0  0  0  0  0
   -2.8455   -4.4137   -0.0978 C   0  0  0  0  0  0  0  0  0  0  0  0
    3.3927   -2.0765    0.0114 H   0  0  0  0  0  0  0  0  0  0  0  0
   -0.8995   -0.1131    1.2080 H   0  0  0  0  0  0  0  0  0  0  0  0
    1.1552    2.9498   -1.0803 H   0  0  0  0  0  0  0  0  0  0  0  0
   -2.9171    1.0873    1.0573 H   0  0  0  0  0  0  0  0  0  0  0  0
   -0.9017    4.2484   -1.0873 H   0  0  0  0  0  0  0  0  0  0  0  0
    0.3012   -1.8823    2.1269 H   0  0  0  0  0  0  0  0  0  0  0  0
    0.3526   -1.8328   -2.1906 H   0  0  0  0  0  0  0  0  0  0  0  0
   -1.5962   -3.3985    2.0967 H   0  0  0  0  0  0  0  0  0  0  0  0
   -1.5489   -3.3733   -2.2321 H   0  0  0  0  0  0  0  0  0  0  0  0
   -3.2058    5.5609    1.3431 H   0  0  0  0  0  0  0  0  0  0  0  0
   -4.0130    4.2930    2.1831 H   0  0  0  0  0  0  0  0  0  0  0  0
   -4.0613   -5.3910    1.0785 H   0  0  0  0  0  0  0  0  0  0  0  0
  1  5  2  0  0  0  0
  1  6  2  0  0  0  0
  1 11  1  0  0  0  0
  1 19  1  0  0  0  0
  2 24  1  0  0  0  0
  3 24  1  0  0  0  0
  4 24  1  0  0  0  0
  7 28  1  0  0  0  0
  7 40  1  0  0  0  0
  8 28  2  0  0  0  0
  9 10  1  0  0  0  0
  9 12  1  0  0  0  0
  9 13  1  0  0  0  0
 10 16  2  0  0  0  0
 11 38  1  0  0  0  0
 11 39  1  0  0  0  0
 12 14  1  0  0  0  0
 12 15  2  0  0  0  0
 13 17  2  0  0  0  0
 13 18  1  0  0  0  0
 14 22  2  0  0  0  0
 14 23  1  0  0  0  0
 15 16  1  0  0  0  0
 15 29  1  0  0  0  0
 16 24  1  0  0  0  0
 17 20  1  0  0  0  0
 17 30  1  0  0  0  0
 18 21  2  0  0  0  0
 18 31  1  0  0  0  0
 19 20  2  0  0  0  0
 19 21  1  0  0  0  0
 20 32  1  0  0  0  0
 21 33  1  0  0  0  0
 22 25  1  0  0  0  0
 22 34  1  0  0  0  0
 23 26  2  0  0  0  0
 23 35  1  0  0  0  0
 25 27  2  0  0  0  0
 25 36  1  0  0  0  0
 26 27  1  0  0  0  0
 26 37  1  0  0  0  0
 27 28  1  0  0  0  0
M  END
> <PUBCHEM_COMPOUND_CID>
10047220

> <PUBCHEM_CONFORMER_RMSD>
0.8

> <PUBCHEM_CONFORMER_DIVERSEORDER>
2
4
1
3

> <PUBCHEM_MMFF94_PARTIAL_CHARGES>
40
1 1.45
10 -0.71
11 -0.98
12 -0.2
13 -0.02
14 0.05
15 -0.15
16 0.11
17 -0.15
18 -0.15
19 -0.01
2 -0.34
20 -0.15
21 -0.15
22 -0.15
23 -0.15
24 1.2
25 -0.15
26 -0.15
27 0.09
28 0.63
29 0.15
3 -0.34
30 0.15
31 0.15
32 0.15
33 0.15
34 0.15
35 0.15
36 0.15
37 0.15
38 0.42
39 0.42
4 -0.34
40 0.5
5 -0.65
6 -0.65
7 -0.65
8 -0.57
9 0.59

> <PUBCHEM_EFFECTIVE_ROTOR_COUNT>
5

> <PUBCHEM_PHARMACOPHORE_FEATURES>
10
1 10 acceptor
1 11 donor
1 5 acceptor
1 6 acceptor
1 7 acceptor
1 8 acceptor
3 7 8 28 anion
5 9 10 12 15 16 rings
6 13 17 18 19 20 21 rings
6 14 22 23 25 26 27 rings

> <PUBCHEM_HEAVY_ATOM_COUNT>
28

> <PUBCHEM_ATOM_DEF_STEREO_COUNT>
0

> <PUBCHEM_ATOM_UDEF_STEREO_COUNT>
0

> <PUBCHEM_BOND_DEF_STEREO_COUNT>
0

> <PUBCHEM_BOND_UDEF_STEREO_COUNT>
0

> <PUBCHEM_ISOTOPIC_ATOM_COUNT>
0

> <PUBCHEM_COMPONENT_COUNT>
1

> <PUBCHEM_CACTVS_TAUTO_COUNT>
1

> <PUBCHEM_CONFORMER_ID>
00994EF400000002

> <PUBCHEM_MMFF94_ENERGY>
69.1173

> <PUBCHEM_FEATURE_SELFOVERLAP>
50.826

> <PUBCHEM_SHAPE_FINGERPRINT>
10050765 1 18410574007934491088
10074138 170 18193528186816253858
10411042 1 18050006898249811074
1100329 8 18264771133174905237
11578080 2 17416953110228368666
11991303 11 18261965033366639934
12160290 23 18122379910274393618
12293681 4 18339070601283823031
12741549 16 17464229992334432606
12788726 201 18263352741363225770
13004483 165 18052247681746435426
13134695 92 17689435313915415062
13140716 1 18122908886909935409
13590594 115 18121503720135860267
13692114 37 18199165326860324662
13757389 114 18264510441577381764
138480 1 16753249013273682319
13911987 19 17114416661744373238
13955234 65 17547575873092089017
14028597 1 17678153070805555186
14556957 393 17828226585828766548
14790565 3 18266463105202970300
14863182 85 17975433325233644237
14866123 147 18409724033010535282
14955137 171 16895108609423012184
15042514 8 18410295843438828786
15081414 286 17474390652280002955
15629462 23 18270380789823951687
15927050 60 18265894662355688034
16087824 20 18410577332065442683
16728300 4 16450928460606594682
16988056 13 17546426230916913487
17138139 8 17769613665250965645
17539 30 18339920527702713086
17859628 70 17402897722383507969
1813 80 17911254020061697006
18365409 1 18411134745394615709
19301676 85 17551250467281999598
19301679 30 18337112379913186410
19427546 62 18266460901668287716
20028762 73 17838040512563753943
21041028 32 18049440645239458726
21049683 118 18122033491282219952
21120745 212 18120672471864887652
21133410 58 16462466658836373557
21133410 62 18116972466047482431
21133410 90 17130154324455583531
21641784 216 17975430306145779636
23175994 123 17902789996393608798
23558518 356 18334013895973775554
23559900 14 17400915792002353955
23929065 36 18196912548300219440
283562 15 18263075690746038298
3178227 256 17761222011902672954
3383291 50 17763180242566338426
38695281 34 18121778335543130433
513202 73 18339940298197533534
57527358 35 15726215263798445782
59025328 239 17053271046116990910
5969126 39 18197212775341325950
59755656 520 18267016164109790844
621550 34 17758399578176063757
6442390 28 18267023843142355792
6669772 16 17982449292130538990
7164475 11 18265055911255799390
7471813 234 17695628837176619247
9658208 31 18342172225070400488
9777508 108 18412255147368811552

> <PUBCHEM_SHAPE_MULTIPOLES>
519.83
8.61
7.8
1.1
7.58
10.06
-0.01
-11.54
-0.43
-11.02
0.43
-0.36
0.39
-0.05

> <PUBCHEM_SHAPE_SELFOVERLAP>
1134.555

> <PUBCHEM_SHAPE_VOLUME>
286.9

> <PUBCHEM_COORDINATE_TYPE>
2
5
10

$$$$
