REMARK  Name = 10048932
REMARK  12 active torsions:
REMARK  status: ('A' for Active; 'I' for Inactive)
REMARK    1  A    between atoms: C_1  and  C_22
REMARK    2  A    between atoms: C_6  and  C_9
REMARK    3  A    between atoms: N_8  and  CA_11
REMARK    4  A    between atoms: CA_11  and  C_13
REMARK    5  A    between atoms: CA_11  and  CB_16
REMARK    6  A    between atoms: C_13  and  O_14
REMARK    7  A    between atoms: CB_16  and  CG_17
REMARK    8  A    between atoms: CG_17  and  CD_19
REMARK    9  A    between atoms: CD_19  and  OE1_20
REMARK   10  A    between atoms: C_22  and  C_23
REMARK   11  A    between atoms: C_23  and  C_24
REMARK   12  A    between atoms: C_24  and  C_29
REMARK                            x       y       z     vdW  Elec       q    Type
REMARK                         _______ _______ _______ _____ _____    ______ ____
ROOT
ATOM      1  C   UNL     1       0.060  -1.734   0.584  0.00  0.00    -0.022 C 
ATOM      2  C   UNL     1      -0.737  -1.798  -0.549  0.00  0.00    -0.004 C 
ATOM      3  C   UNL     1      -0.494  -1.546   1.842  0.00  0.00    -0.004 C 
ATOM      4  C   UNL     1      -2.120  -1.673  -0.421  0.00  0.00    +0.004 C 
ATOM      5  C   UNL     1      -1.877  -1.421   1.969  0.00  0.00    +0.004 C 
ATOM      6  C   UNL     1      -2.691  -1.484   0.838  0.00  0.00    +0.053 C 
ENDROOT
BRANCH   6   9
ATOM      7  O   UNL     1      -4.699  -1.662   2.034  0.00  0.00    -0.270 OA
ATOM      8  N   UNL     1      -4.831  -0.855  -0.135  0.00  0.00    -0.293 N 
ATOM      9  C   ACE A   0      -4.133  -1.355   0.970  0.00  0.00    +0.246 C 
ATOM     10  H   UNL     1      -4.319  -0.632  -0.946  0.00  0.00    +0.150 HD
BRANCH   8  11
ATOM     11  CA  UNL     1      -6.261  -0.647  -0.150  0.00  0.00    +0.172 C 
BRANCH  11  13
ATOM     12  OXT UNL     1      -6.039  -1.195  -2.513  0.00  0.00    -0.248 OA
ATOM     13  C   UNL     1      -6.754  -0.958  -1.548  0.00  0.00    +0.332 C 
BRANCH  13  14
ATOM     14  O   UNL     1      -8.111  -0.984  -1.613  0.00  0.00    -0.479 OA
ATOM     15  H   UNL     1      -8.621  -0.796  -0.849  0.00  0.00    +0.295 HD
ENDBRANCH  13  14
ENDBRANCH  11  13
BRANCH  11  16
ATOM     16  CB  UNL     1      -6.662   0.745   0.353  0.00  0.00    +0.043 C 
BRANCH  16  17
ATOM     17  CG  UNL     1      -6.148   1.929  -0.475  0.00  0.00    +0.112 C 
BRANCH  17  19
ATOM     18  OE2 UNL     1      -7.231   3.465   1.075  0.00  0.00    -0.250 OA
ATOM     19  CD  UNL     1      -6.561   3.279   0.069  0.00  0.00    +0.314 C 
BRANCH  19  20
ATOM     20  OE1 UNL     1      -6.127   4.293  -0.726  0.00  0.00    -0.480 OA
ATOM     21  HE1 UNL     1      -5.615   4.104  -1.487  0.00  0.00    +0.295 HD
ENDBRANCH  19  20
ENDBRANCH  17  19
ENDBRANCH  16  17
ENDBRANCH  11  16
ENDBRANCH   8  11
ENDBRANCH   6   9
BRANCH   1  22
ATOM     22  C   UNL     1       1.556  -1.868   0.447  0.00  0.00    +0.026 C 
BRANCH  22  23
ATOM     23  C   UNL     1       2.229  -0.510   0.236  0.00  0.00    +0.005 C 
BRANCH  23  24
ATOM     24  C   UNL     1       3.739  -0.664   0.063  0.00  0.00    +0.001 C 
BRANCH  24  29
ATOM     25  N   UNL     1       7.943   0.879   0.815  0.00  0.00    -0.337 NA
ATOM     26  N   UNL     1       7.949   0.041  -1.463  0.00  0.00    -0.318 NA
ATOM     27  N   UNL     1       5.929  -0.270  -2.660  0.00  0.00    -0.335 N 
ATOM     28  N   UNL     1       9.954   0.378  -0.284  0.00  0.00    -0.283 N 
ATOM     29  C   UNL     1       4.410   0.681  -0.188  0.00  0.00    +0.015 C 
ATOM     30  C   UNL     1       4.387   1.595   1.059  0.00  0.00    +0.008 C 
ATOM     31  C   UNL     1       5.882   0.544  -0.397  0.00  0.00    +0.116 C 
ATOM     32  C   UNL     1       5.689   1.335   1.835  0.00  0.00    +0.056 C 
ATOM     33  C   UNL     1       6.606   0.922   0.721  0.00  0.00    +0.108 C 
ATOM     34  C   UNL     1       6.600   0.104  -1.478  0.00  0.00    +0.173 C 
ATOM     35  C   UNL     1       8.543   0.435  -0.309  0.00  0.00    +0.196 C 
ATOM     36  H   UNL     1       6.442  -0.587  -3.438  0.00  0.00    +0.144 HD
ATOM     37  H   UNL     1       4.947  -0.214  -2.707  0.00  0.00    +0.144 HD
ATOM     38  H   UNL     1      10.444   0.651   0.525  0.00  0.00    +0.156 HD
ATOM     39  H   UNL     1      10.449   0.065  -1.076  0.00  0.00    +0.156 HD
ENDBRANCH  24  29
ENDBRANCH  23  24
ENDBRANCH  22  23
ENDBRANCH   1  22
TORSDOF 12
