REMARK  Name = 10048965
REMARK  7 active torsions:
REMARK  status: ('A' for Active; 'I' for Inactive)
REMARK    1  A    between atoms: N_5  and  C_18
REMARK    2  A    between atoms: C_14  and  O_33
REMARK    3  A    between atoms: C_19  and  O_24
REMARK    4  A    between atoms: C_20  and  O_26
REMARK    5  A    between atoms: C_21  and  O_28
REMARK    6  A    between atoms: C_23  and  C_30
REMARK    7  A    between atoms: C_30  and  O_31
REMARK                            x       y       z     vdW  Elec       q    Type
REMARK                         _______ _______ _______ _____ _____    ______ ____
ROOT
ATOM      1 CL   UNL     1      -2.131   4.140   0.625  0.00  0.00    -0.066 Cl
ATOM      2 CL   UNL     1       5.868  -2.310  -0.404  0.00  0.00    -0.079 Cl
ATOM      3  O   UNL     1       0.384  -0.156  -0.104  0.00  0.00    -0.440 OA
ATOM      4  O   UNL     1       3.503   2.506   0.422  0.00  0.00    -0.286 OA
ATOM      5  N   UNL     1      -0.986   1.753   0.216  0.00  0.00    -0.245 N 
ATOM      6  C   UNL     1       0.229   1.145   0.126  0.00  0.00    +0.207 A 
ATOM      7  C   UNL     1      -0.804   3.090   0.459  0.00  0.00    +0.113 C 
ATOM      8  C   UNL     1       1.204   2.097   0.312  0.00  0.00    +0.091 A 
ATOM      9  C   UNL     1       0.554   3.333   0.524  0.00  0.00    +0.034 C 
ATOM     10  C   UNL     1       2.593   1.707   0.265  0.00  0.00    +0.206 A 
ATOM     11  C   UNL     1       1.693  -0.606  -0.165  0.00  0.00    +0.149 A 
ATOM     12  C   UNL     1       2.804   0.250   0.006  0.00  0.00    +0.108 A 
ATOM     13  C   UNL     1       1.886  -1.965  -0.405  0.00  0.00    +0.014 C 
ATOM     14  C   UNL     1       4.098  -0.266  -0.066  0.00  0.00    +0.150 C 
ATOM     15  C   UNL     1       3.183  -2.474  -0.476  0.00  0.00    +0.013 C 
ATOM     16  C   UNL     1       4.283  -1.629  -0.308  0.00  0.00    +0.091 C 
ATOM     17  C   UNL     1       0.729  -2.891  -0.589  0.00  0.00    +0.034 C 
ENDROOT
BRANCH   5  18
ATOM     18  C   UNL     1      -2.284   1.061   0.072  0.00  0.00    +0.132 C 
ATOM     19  C   UNL     1      -2.433   0.456  -1.342  0.00  0.00    +0.162 C 
ATOM     20  C   UNL     1      -3.577  -0.560  -1.389  0.00  0.00    +0.170 C 
ATOM     21  C   UNL     1      -3.320  -1.698  -0.390  0.00  0.00    +0.160 C 
ATOM     22  C   UNL     1      -2.492   0.056   1.182  0.00  0.00    -0.008 C 
ATOM     23  C   UNL     1      -2.938  -1.199   0.988  0.00  0.00    +0.011 C 
BRANCH  19  24
ATOM     24  O   UNL     1      -2.696   1.509  -2.270  0.00  0.00    -0.380 OA
ATOM     25  H   UNL     1      -1.971   2.153  -2.241  0.00  0.00    +0.211 HD
ENDBRANCH  19  24
BRANCH  20  26
ATOM     26  O   UNL     1      -4.803   0.105  -1.062  0.00  0.00    -0.379 OA
ATOM     27  H   UNL     1      -4.960   0.822  -1.696  0.00  0.00    +0.211 HD
ENDBRANCH  20  26
BRANCH  21  28
ATOM     28  O   UNL     1      -4.483  -2.519  -0.315  0.00  0.00    -0.378 OA
ATOM     29  H   UNL     1      -4.716  -2.831  -1.203  0.00  0.00    +0.211 HD
ENDBRANCH  21  28
BRANCH  23  30
ATOM     30  C   UNL     1      -3.039  -2.173   2.127  0.00  0.00    +0.161 C 
BRANCH  30  31
ATOM     31  O   UNL     1      -2.217  -3.295   1.867  0.00  0.00    -0.377 OA
ATOM     32  H   UNL     1      -2.284  -3.922   2.604  0.00  0.00    +0.211 HD
ENDBRANCH  30  31
ENDBRANCH  23  30
ENDBRANCH   5  18
BRANCH  14  33
ATOM     33  O   UNL     1       5.193   0.533   0.093  0.00  0.00    -0.504 OA
ATOM     34  H   UNL     1       5.084   1.449   0.255  0.00  0.00    +0.292 HD
ENDBRANCH  14  33
TORSDOF 7
