REMARK  Name = 10043921
REMARK  8 active torsions:
REMARK  status: ('A' for Active; 'I' for Inactive)
REMARK    1  A    between atoms: C_3  and  C_29
REMARK    2  A    between atoms: C_4  and  C_8
REMARK    3  A    between atoms: C_7  and  C_18
REMARK    4  A    between atoms: C_11  and  O_14
REMARK    5  A    between atoms: C_13  and  O_16
REMARK    6  A    between atoms: C_21  and  O_24
REMARK    7  A    between atoms: C_23  and  O_26
REMARK    8  A    between atoms: C_29  and  O_30
REMARK                            x       y       z     vdW  Elec       q    Type
REMARK                         _______ _______ _______ _____ _____    ______ ____
ROOT
ATOM      1  O   UNL     1      -1.727  -2.332   0.659  0.00  0.00    -0.444 OA
ATOM      2  O   UNL     1      -0.591  -2.609   2.638  0.00  0.00    -0.245 OA
ATOM      3  C   UNL     1      -0.144  -1.040  -0.560  0.00  0.00    +0.171 C 
ATOM      4  C   UNL     1      -1.579  -1.552  -0.550  0.00  0.00    +0.206 C 
ATOM      5  C   UNL     1       0.267  -1.234   0.851  0.00  0.00    +0.068 C 
ATOM      6  C   UNL     1      -0.691  -2.130   1.523  0.00  0.00    +0.338 C 
ATOM      7  C   UNL     1       1.299  -0.683   1.496  0.00  0.00    +0.003 C 
ENDROOT
BRANCH   4   8
ATOM      8  C   UNL     1      -2.579  -0.445  -0.503  0.00  0.00    +0.021 C 
ATOM      9  C   UNL     1      -2.503   0.519   0.502  0.00  0.00    +0.039 C 
ATOM     10  C   UNL     1      -3.587  -0.376  -1.464  0.00  0.00    +0.003 C 
ATOM     11  C   UNL     1      -3.438   1.553   0.547  0.00  0.00    +0.167 C 
ATOM     12  C   UNL     1      -4.521   0.659  -1.419  0.00  0.00    +0.040 C 
ATOM     13  C   UNL     1      -4.447   1.623  -0.414  0.00  0.00    +0.167 C 
BRANCH  11  14
ATOM     14  O   UNL     1      -3.356   2.488   1.534  0.00  0.00    -0.503 OA
ATOM     15  H   UNL     1      -2.676   2.434   2.175  0.00  0.00    +0.292 HD
ENDBRANCH  11  14
BRANCH  13  16
ATOM     16  O   UNL     1      -5.365   2.629  -0.381  0.00  0.00    -0.503 OA
ATOM     17  H   UNL     1      -5.322   3.281   0.290  0.00  0.00    +0.292 HD
ENDBRANCH  13  16
ENDBRANCH   4   8
BRANCH   7  18
ATOM     18  C   UNL     1       2.302   0.221   0.905  0.00  0.00    +0.003 C 
ATOM     19  C   UNL     1       3.461  -0.313   0.366  0.00  0.00    +0.040 C 
ATOM     20  C   UNL     1       2.066   1.585   0.900  0.00  0.00    +0.003 C 
ATOM     21  C   UNL     1       4.411   0.542  -0.194  0.00  0.00    +0.167 C 
ATOM     22  C   UNL     1       3.015   2.441   0.341  0.00  0.00    +0.040 C 
ATOM     23  C   UNL     1       4.188   1.919  -0.206  0.00  0.00    +0.167 C 
BRANCH  21  24
ATOM     24  O   UNL     1       5.553   0.021  -0.723  0.00  0.00    -0.503 OA
ATOM     25  H   UNL     1       5.695  -0.905  -0.711  0.00  0.00    +0.292 HD
ENDBRANCH  21  24
BRANCH  23  26
ATOM     26  O   UNL     1       5.108   2.764  -0.749  0.00  0.00    -0.503 OA
ATOM     27  H   UNL     1       5.898   2.421  -1.118  0.00  0.00    +0.292 HD
ENDBRANCH  23  26
ENDBRANCH   7  18
BRANCH   3  29
ATOM     28  O   UNL     1       1.272  -2.942  -1.034  0.00  0.00    -0.250 OA
ATOM     29  C   UNL     1       0.734  -1.911  -1.409  0.00  0.00    +0.322 C 
BRANCH  29  30
ATOM     30  O   UNL     1       0.854  -1.398  -2.658  0.00  0.00    -0.480 OA
ATOM     31  H   UNL     1       0.414  -0.602  -2.881  0.00  0.00    +0.295 HD
ENDBRANCH  29  30
ENDBRANCH   3  29
TORSDOF 8
