10045185
  -OEChem-03292013303D

 46 49  0     1  0  0  0  0  0999 V2000
    1.6705    0.6273   -0.2726 O   0  0  0  0  0  0  0  0  0  0  0  0
    1.9556    3.1489    0.7843 O   0  0  0  0  0  0  0  0  0  0  0  0
    3.7877   -2.8353   -0.0944 O   0  0  0  0  0  0  0  0  0  0  0  0
   -0.5704    1.8237   -0.2592 O   0  0  0  0  0  0  0  0  0  0  0  0
   -3.2215   -2.7829    0.2647 O   0  0  0  0  0  0  0  0  0  0  0  0
   -2.7481    3.1699   -0.2646 O   0  0  0  0  0  0  0  0  0  0  0  0
    3.6633    1.9630   -0.4882 C   0  0  2  0  0  0  0  0  0  0  0  0
    0.9816   -0.5545   -0.1384 C   0  0  0  0  0  0  0  0  0  0  0  0
   -0.4249   -0.5180   -0.0691 C   0  0  0  0  0  0  0  0  0  0  0  0
    3.0516    0.6054   -0.3429 C   0  0  0  0  0  0  0  0  0  0  0  0
    1.6498   -1.7814   -0.0700 C   0  0  0  0  0  0  0  0  0  0  0  0
    3.3580    2.9045    0.6986 C   0  0  2  0  0  0  0  0  0  0  0  0
   -1.1340   -1.7185    0.0679 C   0  0  0  0  0  0  0  0  0  0  0  0
    0.9386   -2.9734    0.0666 C   0  0  0  0  0  0  0  0  0  0  0  0
   -0.4520   -2.9407    0.1356 C   0  0  0  0  0  0  0  0  0  0  0  0
    3.7926   -0.5089   -0.2879 C   0  0  0  0  0  0  0  0  0  0  0  0
    3.1203   -1.8113   -0.1439 C   0  0  0  0  0  0  0  0  0  0  0  0
   -1.1741    0.7651   -0.1389 C   0  0  0  0  0  0  0  0  0  0  0  0
    3.2139    2.5820   -1.8153 C   0  0  0  0  0  0  0  0  0  0  0  0
   -2.6497    0.7507   -0.0632 C   0  0  0  0  0  0  0  0  0  0  0  0
   -2.6101   -1.7281    0.1443 C   0  0  0  0  0  0  0  0  0  0  0  0
   -3.3424   -0.4512    0.0731 C   0  0  0  0  0  0  0  0  0  0  0  0
    3.8558    2.3671    2.0367 C   0  0  0  0  0  0  0  0  0  0  0  0
    1.5817   -4.3206    0.1464 C   0  0  0  0  0  0  0  0  0  0  0  0
   -3.3584    1.9575   -0.1296 C   0  0  0  0  0  0  0  0  0  0  0  0
   -4.7413   -0.4501    0.1433 C   0  0  0  0  0  0  0  0  0  0  0  0
   -4.7519    1.9559   -0.0599 C   0  0  0  0  0  0  0  0  0  0  0  0
   -5.4422    0.7540    0.0765 C   0  0  0  0  0  0  0  0  0  0  0  0
    4.7566    1.8627   -0.5419 H   0  0  0  0  0  0  0  0  0  0  0  0
    3.8372    3.8732    0.5151 H   0  0  0  0  0  0  0  0  0  0  0  0
   -1.0083   -3.8693    0.2421 H   0  0  0  0  0  0  0  0  0  0  0  0
    4.8747   -0.4946   -0.3448 H   0  0  0  0  0  0  0  0  0  0  0  0
    2.1314    2.7473   -1.8524 H   0  0  0  0  0  0  0  0  0  0  0  0
    3.4828    1.9375   -2.6601 H   0  0  0  0  0  0  0  0  0  0  0  0
    3.7027    3.5500   -1.9716 H   0  0  0  0  0  0  0  0  0  0  0  0
    4.9296    2.1591    2.0069 H   0  0  0  0  0  0  0  0  0  0  0  0
    3.3253    1.4556    2.3317 H   0  0  0  0  0  0  0  0  0  0  0  0
    3.6666    3.1006    2.8283 H   0  0  0  0  0  0  0  0  0  0  0  0
    0.8410   -5.1220    0.2529 H   0  0  0  0  0  0  0  0  0  0  0  0
    2.1409   -4.5409   -0.7686 H   0  0  0  0  0  0  0  0  0  0  0  0
    2.2348   -4.3900    1.0224 H   0  0  0  0  0  0  0  0  0  0  0  0
   -5.3026   -1.3745    0.2496 H   0  0  0  0  0  0  0  0  0  0  0  0
    1.5192    2.3255    1.0610 H   0  0  0  0  0  0  0  0  0  0  0  0
   -5.3068    2.8890   -0.1114 H   0  0  0  0  0  0  0  0  0  0  0  0
   -6.5270    0.7539    0.1307 H   0  0  0  0  0  0  0  0  0  0  0  0
   -1.7855    3.0688   -0.3020 H   0  0  0  0  0  0  0  0  0  0  0  0
  1  8  1  0  0  0  0
  1 10  1  0  0  0  0
  2 12  1  0  0  0  0
  2 43  1  0  0  0  0
  3 17  2  0  0  0  0
  4 18  2  0  0  0  0
  5 21  2  0  0  0  0
  6 25  1  0  0  0  0
  6 46  1  0  0  0  0
  7 10  1  0  0  0  0
  7 12  1  0  0  0  0
  7 19  1  0  0  0  0
  7 29  1  0  0  0  0
  8  9  1  0  0  0  0
  8 11  2  0  0  0  0
  9 13  2  0  0  0  0
  9 18  1  0  0  0  0
 10 16  2  0  0  0  0
 11 14  1  0  0  0  0
 11 17  1  0  0  0  0
 12 23  1  0  0  0  0
 12 30  1  0  0  0  0
 13 15  1  0  0  0  0
 13 21  1  0  0  0  0
 14 15  2  0  0  0  0
 14 24  1  0  0  0  0
 15 31  1  0  0  0  0
 16 17  1  0  0  0  0
 16 32  1  0  0  0  0
 18 20  1  0  0  0  0
 19 33  1  0  0  0  0
 19 34  1  0  0  0  0
 19 35  1  0  0  0  0
 20 22  2  0  0  0  0
 20 25  1  0  0  0  0
 21 22  1  0  0  0  0
 22 26  1  0  0  0  0
 23 36  1  0  0  0  0
 23 37  1  0  0  0  0
 23 38  1  0  0  0  0
 24 39  1  0  0  0  0
 24 40  1  0  0  0  0
 24 41  1  0  0  0  0
 25 27  2  0  0  0  0
 26 28  2  0  0  0  0
 26 42  1  0  0  0  0
 27 28  1  0  0  0  0
 27 44  1  0  0  0  0
 28 45  1  0  0  0  0
M  END
> <PUBCHEM_COMPOUND_CID>
10045185

> <PUBCHEM_CONFORMER_RMSD>
0.6

> <PUBCHEM_CONFORMER_DIVERSEORDER>
1
15
13
4
3
11
7
2
14
12
9
8
10
5
6

> <PUBCHEM_MMFF94_PARTIAL_CHARGES>
33
1 -0.16
10 -0.06
11 0.09
12 0.28
13 0.09
14 -0.14
15 -0.15
16 -0.14
17 0.47
18 0.4
2 -0.68
20 0.09
21 0.4
22 0.09
24 0.14
25 0.08
26 -0.15
27 -0.15
28 -0.15
3 -0.57
31 0.15
32 0.15
4 -0.57
42 0.15
43 0.4
44 0.15
45 0.15
46 0.45
5 -0.57
6 -0.53
7 0.14
8 0.08
9 0.09

> <PUBCHEM_EFFECTIVE_ROTOR_COUNT>
2

> <PUBCHEM_PHARMACOPHORE_FEATURES>
12
1 1 acceptor
1 19 hydrophobe
1 2 acceptor
1 2 donor
1 3 acceptor
1 4 acceptor
1 5 acceptor
1 6 donor
6 1 8 10 11 16 17 rings
6 20 22 25 26 27 28 rings
6 8 9 11 13 14 15 rings
6 9 13 18 20 21 22 rings

> <PUBCHEM_HEAVY_ATOM_COUNT>
28

> <PUBCHEM_ATOM_DEF_STEREO_COUNT>
0

> <PUBCHEM_ATOM_UDEF_STEREO_COUNT>
2

> <PUBCHEM_BOND_DEF_STEREO_COUNT>
0

> <PUBCHEM_BOND_UDEF_STEREO_COUNT>
0

> <PUBCHEM_ISOTOPIC_ATOM_COUNT>
0

> <PUBCHEM_COMPONENT_COUNT>
1

> <PUBCHEM_CACTVS_TAUTO_COUNT>
15

> <PUBCHEM_CONFORMER_ID>
0099470100000001

> <PUBCHEM_MMFF94_ENERGY>
85.6324

> <PUBCHEM_FEATURE_SELFOVERLAP>
60.987

> <PUBCHEM_SHAPE_FINGERPRINT>
10319926 262 18196920279552796600
10411042 1 17617098006064714507
10439779 11 18195235621005327498
10616163 171 18409454704121988895
10670039 82 18118133691158319292
10967382 1 18193277377637341799
1100329 8 18338517417790490434
11370993 70 18339637948866711832
11513181 2 18271535302697237046
11578080 2 17345169255667709771
11582403 64 17201341104904315204
11725454 13 17057515122767369592
12173636 292 18338514273800245695
12403259 226 17974005042364345671
12422481 6 18190155989233954464
12788726 201 17250338774500586258
12925494 130 18195245517180618521
13140716 1 18409724067179979714
13617811 41 18120365725901428669
138480 1 18050005489226062510
13878862 14 18118385260610271517
13965767 371 18116412908385111256
14178342 30 18048871094379868856
14466204 15 18265045847968466690
14468879 13 18188778369472046451
14790565 3 18120105123880642805
15196674 1 18409451367248690071
15297060 5 18194146185382072388
17980427 23 17984951913733957474
18681886 176 18270955722651732058
19591789 44 18338801224833884591
19930381 70 18410291385231354377
21133410 127 18040433317231775852
21267235 1 18265343802629411023
21859007 373 17534037706631076909
21860390 5 18199472060766505278
22149856 69 18337127730689590403
22393880 68 18342466979542437830
23227448 37 18412262826891643063
23366157 5 18113903697668642899
23558518 356 18189331432374348242
23559900 14 18410853218165789282
3298306 158 18270682085726020724
335352 9 18265053518157760103
338550 245 18335142037594882644
350125 39 18408888434306190052
469060 322 17975996567597912651
474 4 18041002872690578212
5104073 3 18408889529718062579
5265222 85 17978799236208148972
6443956 14 18121786032557217118
7808743 9 17832990821135955884
84936 182 18342176665586328768
9709674 26 18337961065234188639
9777508 108 18124310768804831586
9981440 41 18264202676678240051

> <PUBCHEM_SHAPE_MULTIPOLES>
541.01
9.44
4.87
0.95
6.45
1.9
0.12
-5.2
0.38
-3.16
0.4
-1.16
-0.81
0.65

> <PUBCHEM_SHAPE_SELFOVERLAP>
1215.107

> <PUBCHEM_SHAPE_VOLUME>
284.1

> <PUBCHEM_COORDINATE_TYPE>
2
5
10

$$$$
