REMARK  Name = 100446
REMARK  5 active torsions:
REMARK  status: ('A' for Active; 'I' for Inactive)
REMARK    1  A    between atoms: C_2  and  N_11
REMARK    2  A    between atoms: C_3  and  N_10
REMARK    3  A    between atoms: N_11  and  N_13
REMARK    4  A    between atoms: C_14  and  C_16
REMARK    5  A    between atoms: C_14  and  C_18
REMARK                            x       y       z     vdW  Elec       q    Type
REMARK                         _______ _______ _______ _____ _____    ______ ____
ROOT
ATOM      1 CL   UNL     1       0.541   2.959   0.000  0.00  0.00    -0.081 Cl
ATOM      2  C   UNL     1       0.162   0.257   0.000  0.00  0.00    +0.076 C 
ATOM      3  C   UNL     1       2.903  -0.259   0.000  0.00  0.00    +0.144 C 
ATOM      4  C   UNL     1       1.071   1.315   0.000  0.00  0.00    +0.074 C 
ATOM      5  C   UNL     1       0.624  -1.059   0.000  0.00  0.00    +0.019 C 
ATOM      6  C   UNL     1       2.441   1.057   0.000  0.00  0.00    +0.037 C 
ATOM      7  C   UNL     1       1.994  -1.317   0.000  0.00  0.00    +0.025 C 
ENDROOT
BRANCH   3  10
ATOM      8  O   UNL     1       4.692  -1.714   0.000  0.00  0.00    -0.126 OA
ATOM      9  O   UNL     1       5.100   0.443  -0.001  0.00  0.00    -0.126 OA
ATOM     10  N   UNL     1       4.298  -0.523   0.000  0.00  0.00    +0.058 N 
ENDBRANCH   3  10
BRANCH   2  11
ATOM     11  N   UNL     1      -1.233   0.486   0.000  0.00  0.00    -0.234 N 
ATOM     12  H   UNL     1      -1.579   1.408   0.000  0.00  0.00    +0.174 HD
BRANCH  11  13
ATOM     13  N   UNL     1      -2.088  -0.551   0.001  0.00  0.00    -0.160 NA
ATOM     14  C   UNL     1      -3.355  -0.303   0.001  0.00  0.00    +0.234 C 
BRANCH  14  16
ATOM     15  N   UNL     1      -4.813  -2.447  -0.002  0.00  0.00    -0.188 NA
ATOM     16  C   UNL     1      -4.160  -1.488   0.000  0.00  0.00    +0.132 C 
ENDBRANCH  14  16
BRANCH  14  18
ATOM     17  N   UNL     1      -4.302   2.113   0.000  0.00  0.00    -0.188 NA
ATOM     18  C   UNL     1      -3.876   1.033   0.000  0.00  0.00    +0.132 C 
ENDBRANCH  14  18
ENDBRANCH  11  13
ENDBRANCH   2  11
TORSDOF 5
