REMARK  Name = 10047220
REMARK  7 active torsions:
REMARK  status: ('A' for Active; 'I' for Inactive)
REMARK    1  A    between atoms: N_1  and  C_6
REMARK    2  A    between atoms: C_3  and  C_18
REMARK    3  A    between atoms: C_5  and  C_31
REMARK    4  A    between atoms: C_9  and  S_12
REMARK    5  A    between atoms: S_12  and  N_15
REMARK    6  A    between atoms: C_23  and  C_25
REMARK    7  A    between atoms: C_25  and  O_26
REMARK                            x       y       z     vdW  Elec       q    Type
REMARK                         _______ _______ _______ _____ _____    ______ ____
ROOT
ATOM      1  N   UNL     1       1.468   0.526   0.000  0.00  0.00    -0.190 N 
ATOM      2  N   UNL     1       2.650   1.164   0.022  0.00  0.00    -0.170 NA
ATOM      3  C   UNL     1       1.573  -0.835  -0.007  0.00  0.00    +0.075 C 
ATOM      4  C   UNL     1       2.921  -1.104   0.011  0.00  0.00    +0.041 C 
ATOM      5  C   UNL     1       3.534   0.163   0.029  0.00  0.00    +0.172 C 
ENDROOT
BRANCH   1   6
ATOM      6  C   UNL     1       0.286   1.270  -0.013  0.00  0.00    +0.074 C 
ATOM      7  C   UNL     1      -0.859   0.745   0.571  0.00  0.00    +0.018 C 
ATOM      8  C   UNL     1       0.274   2.524  -0.609  0.00  0.00    +0.018 C 
ATOM      9  C   UNL     1      -2.063   2.749  -0.038  0.00  0.00    +0.122 C 
ATOM     10  C   UNL     1      -2.039   1.488   0.558  0.00  0.00    +0.021 C 
ATOM     11  C   UNL     1      -0.907   3.267  -0.621  0.00  0.00    +0.021 C 
BRANCH   9  12
ATOM     12  S   UNL     1      -3.541   3.679  -0.054  0.00  0.00    +0.057 S 
ATOM     13  O   UNL     1      -3.482   4.615  -1.168  0.00  0.00    -0.153 OA
ATOM     14  O   UNL     1      -4.666   2.762   0.062  0.00  0.00    -0.153 OA
BRANCH  12  15
ATOM     15  N   UNL     1      -3.392   4.553   1.407  0.00  0.00    -0.203 NA
ATOM     16  H   UNL     1      -4.208   5.153   1.529  0.00  0.00    +0.144 HD
ATOM     17  H   UNL     1      -2.549   5.127   1.376  0.00  0.00    +0.144 HD
ENDBRANCH  12  15
ENDBRANCH   9  12
ENDBRANCH   1   6
BRANCH   3  18
ATOM     18  C   UNL     1       0.453  -1.744  -0.030  0.00  0.00    +0.016 C 
ATOM     19  C   UNL     1      -0.107  -2.192   1.167  0.00  0.00    +0.002 C 
ATOM     20  C   UNL     1      -0.072  -2.174  -1.249  0.00  0.00    +0.002 C 
ATOM     21  C   UNL     1      -1.191  -3.069   1.144  0.00  0.00    +0.006 C 
ATOM     22  C   UNL     1      -1.155  -3.051  -1.272  0.00  0.00    +0.006 C 
ATOM     23  C   UNL     1      -1.715  -3.499  -0.075  0.00  0.00    +0.075 C 
BRANCH  23  25
ATOM     24  O   UNL     1      -3.370  -4.843  -1.124  0.00  0.00    -0.245 OA
ATOM     25  C   UNL     1      -2.845  -4.414  -0.098  0.00  0.00    +0.338 C 
BRANCH  25  26
ATOM     26  O   UNL     1      -3.300  -4.775   1.137  0.00  0.00    -0.477 OA
ATOM     27  H   UNL     1      -2.886  -4.437   1.906  0.00  0.00    +0.295 HD
ENDBRANCH  25  26
ENDBRANCH  23  25
ENDBRANCH   3  18
BRANCH   5  31
ATOM     28  F   UNL     1       5.784  -0.649   0.058  0.00  0.00    -0.164 F 
ATOM     29  F   UNL     1       5.420   1.198  -1.018  0.00  0.00    -0.164 F 
ATOM     30  F   UNL     1       5.364   1.181   1.155  0.00  0.00    -0.164 F 
ATOM     31  C   UNL     1       4.976   0.462   0.053  0.00  0.00    +0.436 C 
ENDBRANCH   5  31
TORSDOF 7
