REMARK  Name = 10045495
REMARK  10 active torsions:
REMARK  status: ('A' for Active; 'I' for Inactive)
REMARK    1  A    between atoms: CA_1  and  C_8
REMARK    2  A    between atoms: CA_1  and  N_14
REMARK    3  A    between atoms: CA_1  and  CB_27
REMARK    4  A    between atoms: CA_4  and  C_10
REMARK    5  A    between atoms: C_10  and  O_11
REMARK    6  A    between atoms: C_15  and  C_18
REMARK    7  A    between atoms: C_19  and  C_22
REMARK    8  A    between atoms: N_21  and  C_24
REMARK    9  A    between atoms: C_24  and  C_25
REMARK   10  A    between atoms: CB_27  and  CG1_29
REMARK                            x       y       z     vdW  Elec       q    Type
REMARK                         _______ _______ _______ _____ _____    ______ ____
ROOT
ATOM      1  CA  UNL     1       0.966   1.079  -0.132  0.00  0.00    +0.149 C 
ENDROOT
BRANCH   1   8
ATOM      2  O   UNL     1       1.344  -0.976   1.011  0.00  0.00    -0.273 OA
ATOM      3  N   UNL     1       3.068  -0.166  -0.304  0.00  0.00    -0.270 N 
ATOM      4  CA  UNL     1       3.938  -1.328  -0.171  0.00  0.00    +0.175 C 
ATOM      5  CB  UNL     1       4.982  -1.157  -1.268  0.00  0.00    +0.033 C 
ATOM      6  CD  UNL     1       3.644   0.823  -1.210  0.00  0.00    +0.094 C 
ATOM      7  CG  UNL     1       5.075   0.358  -1.437  0.00  0.00    +0.024 C 
ATOM      8  C   UNL     1       1.797  -0.120   0.249  0.00  0.00    +0.244 C 
BRANCH   4  10
ATOM      9  OXT UNL     1       4.787  -0.238   1.813  0.00  0.00    -0.248 OA
ATOM     10  C   UNL     1       4.551  -1.266   1.196  0.00  0.00    +0.332 C 
BRANCH  10  11
ATOM     11  O   UNL     1       4.815  -2.513   1.659  0.00  0.00    -0.479 OA
ATOM     12  H   UNL     1       4.609  -3.261   1.133  0.00  0.00    +0.295 HD
ENDBRANCH  10  11
ENDBRANCH   4  10
ENDBRANCH   1   8
BRANCH   1  14
ATOM     13  O   UNL     1      -0.304  -0.227  -2.399  0.00  0.00    -0.272 OA
ATOM     14  N   UNL     1      -0.386   0.611  -0.227  0.00  0.00    -0.296 N 
ATOM     15  C   ACE A   0      -0.907  -0.004  -1.356  0.00  0.00    +0.253 C 
ATOM     16  H   UNL     1      -0.977   0.733   0.552  0.00  0.00    +0.150 HD
BRANCH  15  18
ATOM     17  O   UNL     1      -2.571  -1.774  -1.613  0.00  0.00    -0.335 OA
ATOM     18  C   UNL     1      -2.338  -0.411  -1.233  0.00  0.00    +0.227 C 
ATOM     19  C   UNL     1      -2.738  -1.451  -0.226  0.00  0.00    +0.227 C 
BRANCH  19  22
ATOM     20  O   UNL     1      -4.784  -2.546  -0.024  0.00  0.00    -0.272 OA
ATOM     21  N   UNL     1      -4.574  -0.422   0.907  0.00  0.00    -0.302 N 
ATOM     22  C   UNL     1      -4.131  -1.539   0.223  0.00  0.00    +0.253 C 
ATOM     23  H   UNL     1      -3.946   0.324   1.040  0.00  0.00    +0.150 HD
BRANCH  21  24
ATOM     24  C   UNL     1      -5.913  -0.299   1.436  0.00  0.00    +0.089 C 
BRANCH  24  25
ATOM     25  C   UNL     1      -6.877   0.326   0.434  0.00  0.00    +0.021 C 
ATOM     26  C   UNL     1      -6.446   1.716  -0.009  0.00  0.00    +0.002 C 
ENDBRANCH  24  25
ENDBRANCH  21  24
ENDBRANCH  19  22
ENDBRANCH  15  18
ENDBRANCH   1  14
BRANCH   1  27
ATOM     27  CB  UNL     1       1.168   2.243   0.854  0.00  0.00    +0.027 C 
ATOM     28  CG2 UNL     1       0.848   1.771   2.278  0.00  0.00    +0.002 C 
BRANCH  27  29
ATOM     29  CG1 UNL     1       0.352   3.501   0.479  0.00  0.00    +0.002 C 
ATOM     30  CD1 UNL     1       0.635   4.011  -0.929  0.00  0.00    +0.000 C 
ENDBRANCH  27  29
ENDBRANCH   1  27
TORSDOF 10
