REMARK  Name = 100416
REMARK  5 active torsions:
REMARK  status: ('A' for Active; 'I' for Inactive)
REMARK    1  A    between atoms: N_1  and  C1*_11
REMARK    2  A    between atoms: C_7  and  C_22
REMARK    3  A    between atoms: C3*_13  and  O3*_15
REMARK    4  A    between atoms: C4*_14  and  C5*_17
REMARK    5  A    between atoms: C5*_17  and  O5*_18
REMARK                            x       y       z     vdW  Elec       q    Type
REMARK                         _______ _______ _______ _____ _____    ______ ____
ROOT
ATOM      1  N   UNL     1      -0.225   0.305   0.125  0.00  0.00    -0.252 N 
ATOM      2  N   UNL     1       0.961   2.401   0.254  0.00  0.00    -0.233 NA
ATOM      3  N   UNL     1       3.379   2.141   0.137  0.00  0.00    -0.234 NA
ATOM      4  C   UNL     1       0.920   1.062   0.143  0.00  0.00    +0.122 C 
ATOM      5  C   UNL     1       0.116  -1.022   0.001  0.00  0.00    +0.069 C 
ATOM      6  C   UNL     1       2.009   0.205   0.029  0.00  0.00    +0.135 C 
ATOM      7  C   UNL     1       1.490  -1.112  -0.061  0.00  0.00    +0.059 C 
ATOM      8  C   UNL     1       3.271   0.796   0.029  0.00  0.00    +0.110 C 
ATOM      9  C   UNL     1       2.232   2.850   0.242  0.00  0.00    +0.252 C 
ATOM     10  N   UNL     1       4.437   0.016  -0.082  0.00  0.00    -0.346 N 
ATOM     11  H   UNL     1       5.321   0.449  -0.081  0.00  0.00    +0.143 HD
ATOM     12  H   UNL     1       4.368  -0.963  -0.162  0.00  0.00    +0.143 HD
ENDROOT
BRANCH   1  14
ATOM     13  O4* UNL     1      -2.416  -0.131   0.923  0.00  0.00    -0.335 OA
ATOM     14  C1* UNL     1      -1.589   0.813   0.221  0.00  0.00    +0.199 C 
ATOM     15  C2* UNL     1      -2.258   1.069  -1.122  0.00  0.00    +0.083 C 
ATOM     16  C3* UNL     1      -3.720   0.934  -0.764  0.00  0.00    +0.144 C 
ATOM     17  C4* UNL     1      -3.719  -0.157   0.301  0.00  0.00    +0.173 C 
BRANCH  16  18
ATOM     18  O3* UNL     1      -4.159   2.163  -0.188  0.00  0.00    -0.382 OA
ATOM     19  H3* UNL     1      -4.159   2.856  -0.867  0.00  0.00    +0.210 HD
ENDBRANCH  16  18
BRANCH  17  20
ATOM     20  C5* UNL     1      -3.935  -1.547  -0.282  0.00  0.00    +0.169 C 
BRANCH  20  21
ATOM     21  O5* UNL     1      -3.908  -2.491   0.774  0.00  0.00    -0.379 OA
ATOM     22  H5* UNL     1      -4.045  -3.382   0.415  0.00  0.00    +0.211 HD
ENDBRANCH  20  21
ENDBRANCH  17  20
ENDBRANCH   1  14
BRANCH   7  25
ATOM     23  O   UNL     1       3.451  -2.422  -0.227  0.00  0.00    -0.271 OA
ATOM     24  N   UNL     1       1.457  -3.525  -0.261  0.00  0.00    -0.326 N 
ATOM     25  C   UNL     1       2.205  -2.349  -0.192  0.00  0.00    +0.241 C 
ATOM     26  H   UNL     1       1.912  -4.393  -0.352  0.00  0.00    +0.145 HD
ATOM     27  H   UNL     1       0.474  -3.486  -0.219  0.00  0.00    +0.145 HD
ENDBRANCH   7  25
TORSDOF 5
