REMARK  Name = 100551
REMARK  5 active torsions:
REMARK  status: ('A' for Active; 'I' for Inactive)
REMARK    1  A    between atoms: C2*_2  and  O2*_14
REMARK    2  A    between atoms: C3*_3  and  O3*_16
REMARK    3  A    between atoms: C1*_4  and  N_8
REMARK    4  A    between atoms: C4*_5  and  C5*_18
REMARK    5  A    between atoms: C5*_18  and  O5*_19
REMARK                            x       y       z     vdW  Elec       q    Type
REMARK                         _______ _______ _______ _____ _____    ______ ____
ROOT
ATOM      1  O4* UNL     1      -1.215  -0.475   1.057  0.00  0.00    -0.332 OA
ATOM      2  C2* UNL     1      -1.312   0.969  -0.820  0.00  0.00    +0.187 C 
ATOM      3  C3* UNL     1      -2.715   0.500  -0.496  0.00  0.00    +0.171 C 
ATOM      4  C1* UNL     1      -0.574   0.672   0.474  0.00  0.00    +0.232 C 
ATOM      5  C4* UNL     1      -2.450  -0.735   0.354  0.00  0.00    +0.175 C 
ENDROOT
BRANCH   4   8
ATOM      6  F   UNL     1       2.857  -2.517  -0.559  0.00  0.00    -0.205 F 
ATOM      7  O   UNL     1       1.532   2.541   0.618  0.00  0.00    -0.206 OA
ATOM      8  N   UNL     1       0.813   0.371   0.258  0.00  0.00    -0.204 N 
ATOM      9  N   UNL     1       3.149   1.018   0.128  0.00  0.00    -0.160 NA
ATOM     10  C   UNL     1       1.171  -0.937  -0.049  0.00  0.00    +0.163 C 
ATOM     11  C   UNL     1       1.823   1.374   0.349  0.00  0.00    +0.218 C 
ATOM     12  C   UNL     1       2.436  -1.279  -0.260  0.00  0.00    +0.158 C 
ATOM     13  C   UNL     1       3.428  -0.213  -0.154  0.00  0.00    +0.139 C 
ENDBRANCH   4   8
BRANCH   2  14
ATOM     14  O2* UNL     1      -1.271   2.338  -1.167  0.00  0.00    -0.378 OA
ATOM     15  H2* UNL     1      -1.754   2.475  -1.997  0.00  0.00    +0.211 HD
ENDBRANCH   2  14
BRANCH   3  16
ATOM     16  O3* UNL     1      -3.382   1.462   0.320  0.00  0.00    -0.379 OA
ATOM     17  H3* UNL     1      -3.562   2.259  -0.201  0.00  0.00    +0.211 HD
ENDBRANCH   3  16
BRANCH   5  18
ATOM     18  C5* UNL     1      -2.270  -2.005  -0.467  0.00  0.00    +0.169 C 
BRANCH  18  19
ATOM     19  O5* UNL     1      -2.020  -3.084   0.416  0.00  0.00    -0.379 OA
ATOM     20  H5* UNL     1      -1.903  -3.900  -0.096  0.00  0.00    +0.211 HD
ENDBRANCH  18  19
ENDBRANCH   5  18
TORSDOF 5
