REMARK  Name = 100585
REMARK  4 active torsions:
REMARK  status: ('A' for Active; 'I' for Inactive)
REMARK    1  A    between atoms: C_8  and  C_19
REMARK    2  A    between atoms: CA_9  and  C_32
REMARK    3  A    between atoms: C_26  and  N_28
REMARK    4  A    between atoms: C_32  and  O_33
REMARK                            x       y       z     vdW  Elec       q    Type
REMARK                         _______ _______ _______ _____ _____    ______ ____
ROOT
ATOM      1  N   UNL     1      -0.886   1.512  -0.324  0.00  0.00    -0.351 N 
ATOM      2  N   UNL     1      -1.238  -2.132   0.124  0.00  0.00    -0.396 NA
ATOM      3  C   UNL     1      -2.695   0.245  -0.012  0.00  0.00    +0.004 A 
ATOM      4  C   UNL     1      -1.306   0.218  -0.137  0.00  0.00    +0.085 A 
ATOM      5  C   UNL     1      -3.106   1.611  -0.131  0.00  0.00    +0.013 A 
ATOM      6  C   UNL     1      -1.955   2.377  -0.324  0.00  0.00    +0.056 A 
ATOM      7  C   UNL     1      -3.372  -0.968   0.188  0.00  0.00    +0.083 C 
ATOM      8  C   UNL     1      -0.582  -0.965  -0.070  0.00  0.00    +0.172 C 
ATOM      9  CA  UNL     1      -2.584  -2.110   0.246  0.00  0.00    +0.188 C 
ATOM     10  C   UNL     1      -4.354   2.267  -0.091  0.00  0.00    +0.001 C 
ATOM     11  C   UNL     1      -1.989   3.767  -0.479  0.00  0.00    +0.017 C 
ATOM     12  C   UNL     1      -4.856  -1.063   0.336  0.00  0.00    +0.012 C 
ATOM     13  C   UNL     1      -4.403   3.657  -0.246  0.00  0.00    +0.000 C 
ATOM     14  C   UNL     1      -3.237   4.394  -0.436  0.00  0.00    +0.001 C 
ATOM     15  H   UNL     1       0.053   1.783  -0.441  0.00  0.00    +0.166 HD
ENDROOT
BRANCH   8  19
ATOM     16  O   UNL     1       2.884   2.205   1.067  0.00  0.00    -0.283 OA
ATOM     17  O   UNL     1       5.696  -1.879  -0.916  0.00  0.00    -0.286 OA
ATOM     18  N   UNL     1       1.509   0.082   0.238  0.00  0.00    -0.400 NA
ATOM     19  C   UNL     1       0.849  -1.019  -0.195  0.00  0.00    +0.144 C 
ATOM     20  C   UNL     1       1.483  -2.135  -0.727  0.00  0.00    +0.088 C 
ATOM     21  C   UNL     1       2.857   0.062   0.133  0.00  0.00    +0.174 C 
ATOM     22  C   UNL     1       3.576  -1.003  -0.383  0.00  0.00    +0.068 C 
ATOM     23  C   UNL     1       2.871  -2.123  -0.821  0.00  0.00    -0.013 C 
ATOM     24  C   UNL     1       3.540   1.273   0.612  0.00  0.00    +0.238 C 
ATOM     25  C   UNL     1       5.041  -0.949  -0.464  0.00  0.00    +0.199 C 
ATOM     26  C   UNL     1       5.029   1.325   0.527  0.00  0.00    +0.087 C 
ATOM     27  C   UNL     1       5.701   0.281   0.024  0.00  0.00    +0.060 C 
BRANCH  26  28
ATOM     28  N   UNL     1       5.615   2.470   0.985  0.00  0.00    -0.354 N 
ATOM     29  H   UNL     1       5.058   3.199   1.342  0.00  0.00    +0.142 HD
ATOM     30  H   UNL     1       6.594   2.566   0.957  0.00  0.00    +0.142 HD
ENDBRANCH  26  28
ENDBRANCH   8  19
BRANCH   9  32
ATOM     31  OXT UNL     1      -3.387  -3.950   1.547  0.00  0.00    -0.243 OA
ATOM     32  C   UNL     1      -3.185  -3.421   0.451  0.00  0.00    +0.364 C 
BRANCH  32  33
ATOM     33  O   UNL     1      -3.515  -4.029  -0.721  0.00  0.00    -0.476 OA
ATOM     34  H   UNL     1      -3.347  -3.598  -1.536  0.00  0.00    +0.295 HD
ENDBRANCH  32  33
ENDBRANCH   9  32
TORSDOF 4
