REMARK  Name = 10058919
REMARK  5 active torsions:
REMARK  status: ('A' for Active; 'I' for Inactive)
REMARK    1  A    between atoms: C_1  and  CA_12
REMARK    2  A    between atoms: C_2  and  C_10
REMARK    3  A    between atoms: CA_12  and  N_13
REMARK    4  A    between atoms: CA_12  and  C_18
REMARK    5  A    between atoms: C_18  and  O_19
REMARK                            x       y       z     vdW  Elec       q    Type
REMARK                         _______ _______ _______ _____ _____    ______ ____
ROOT
ATOM      1  C   UNL     1       1.095   0.419   0.243  0.00  0.00    -0.005 C 
ATOM      2  C   UNL     1      -0.833   0.144   0.087  0.00  0.00    +0.077 C 
ATOM      3  C   UNL     1       0.196  -0.636   0.977  0.00  0.00    +0.013 C 
ATOM      4  C   UNL     1      -0.065   1.430   0.551  0.00  0.00    +0.013 C 
ATOM      5  C   UNL     1       0.261   0.051  -1.033  0.00  0.00    +0.013 C 
ENDROOT
BRANCH   2  10
ATOM      6  N   UNL     1      -2.880  -1.223  -0.446  0.00  0.00    -0.114 NA
ATOM      7  N   UNL     1      -3.257   0.894   0.264  0.00  0.00    -0.091 NA
ATOM      8  N   UNL     1      -4.177  -0.893  -0.376  0.00  0.00    -0.140 N 
ATOM      9  N   UNL     1      -4.448   0.352   0.041  0.00  0.00    -0.022 NA
ATOM     10  C   UNL     1      -2.292  -0.064  -0.032  0.00  0.00    +0.048 C 
ATOM     11  H   UNL     1      -4.890  -1.529  -0.616  0.00  0.00    +0.197 HD
ENDBRANCH   2  10
BRANCH   1  12
ATOM     12  CA  UNL     1       2.553   0.629   0.361  0.00  0.00    +0.036 C 
BRANCH  12  13
ATOM     13  N   UNL     1       3.019   1.744  -0.496  0.00  0.00    +0.389 N 
ATOM     14  H1  UNL     1       2.483   2.584  -0.282  0.00  0.00    -0.088 HD
ATOM     15  H2  UNL     1       2.888   1.496  -1.476  0.00  0.00    -0.088 HD
ATOM     16  H3  UNL     1       4.009   1.917  -0.318  0.00  0.00    -0.088 HD
ENDBRANCH  12  13
BRANCH  12  18
ATOM     17  OXT UNL     1       4.189  -0.650  -0.967  0.00  0.00    -0.253 OA
ATOM     18  C   UNL     1       3.409  -0.586  -0.025  0.00  0.00    +0.293 C 
BRANCH  18  19
ATOM     19  O   UNL     1       3.231  -1.611   0.850  0.00  0.00    -0.482 OA
ATOM     20  H   UNL     1       2.624  -1.522   1.558  0.00  0.00    +0.295 HD
ENDBRANCH  18  19
ENDBRANCH  12  18
ENDBRANCH   1  12
TORSDOF 5
