10050884
  -OEChem-03292013303D

 67 70  0     1  0  0  0  0  0999 V2000
    4.7645   -3.1288    0.0946 F   0  0  0  0  0  0  0  0  0  0  0  0
   -6.8364    0.7513    0.1639 O   0  0  0  0  0  0  0  0  0  0  0  0
   -2.5370    2.1877   -1.7036 O   0  0  0  0  0  0  0  0  0  0  0  0
   -3.6703   -1.1077    0.3600 N   0  0  2  0  0  0  0  0  0  0  0  0
   -3.3020    1.8604    0.4531 N   0  0  0  0  0  0  0  0  0  0  0  0
   -1.0394    1.8640    0.0750 N   0  0  0  0  0  0  0  0  0  0  0  0
    4.2011    2.5011    1.3813 N   0  0  0  0  0  0  0  0  0  0  0  0
    4.7658    0.7750    0.1963 N   0  0  0  0  0  0  0  0  0  0  0  0
    5.3703    2.0903    1.8919 N   0  0  0  0  0  0  0  0  0  0  0  0
    5.7106    1.0340    1.1634 N   0  0  0  0  0  0  0  0  0  0  0  0
   -1.5344   -2.2944   -0.0804 C   0  0  1  0  0  0  0  0  0  0  0  0
   -2.8807   -1.8217   -0.6546 C   0  0  0  0  0  0  0  0  0  0  0  0
   -1.7541   -3.1645    1.1620 C   0  0  0  0  0  0  0  0  0  0  0  0
   -2.6436   -2.4432    2.1689 C   0  0  0  0  0  0  0  0  0  0  0  0
   -3.9431   -1.9654    1.5210 C   0  0  0  0  0  0  0  0  0  0  0  0
   -0.7319   -3.0537   -1.1355 C   0  0  0  0  0  0  0  0  0  0  0  0
   -4.9211   -0.6159   -0.2175 C   0  0  0  0  0  0  0  0  0  0  0  0
   -5.4504    0.6368    0.4946 C   0  0  1  0  0  0  0  0  0  0  0  0
   -4.7116    1.9455    0.1449 C   0  0  1  0  0  0  0  0  0  0  0  0
    0.7353   -3.0736   -0.8067 C   0  0  0  0  0  0  0  0  0  0  0  0
   -5.3166    3.1610    0.8454 C   0  0  0  0  0  0  0  0  0  0  0  0
    1.5690   -2.0584   -1.2757 C   0  0  0  0  0  0  0  0  0  0  0  0
    1.2627   -4.1076   -0.0331 C   0  0  0  0  0  0  0  0  0  0  0  0
    2.9300   -2.0772   -0.9711 C   0  0  0  0  0  0  0  0  0  0  0  0
    2.6238   -4.1265    0.2713 C   0  0  0  0  0  0  0  0  0  0  0  0
   -2.3006    1.9906   -0.5141 C   0  0  0  0  0  0  0  0  0  0  0  0
    3.4574   -3.1111   -0.1976 C   0  0  0  0  0  0  0  0  0  0  0  0
    0.2244    1.9337   -0.5563 C   0  0  0  0  0  0  0  0  0  0  0  0
    1.3895    1.7819    0.1955 C   0  0  0  0  0  0  0  0  0  0  0  0
    0.3055    2.1538   -1.9313 C   0  0  0  0  0  0  0  0  0  0  0  0
    2.6355    1.8505   -0.4276 C   0  0  0  0  0  0  0  0  0  0  0  0
    1.5514    2.2221   -2.5546 C   0  0  0  0  0  0  0  0  0  0  0  0
    2.7164    2.0705   -1.8027 C   0  0  0  0  0  0  0  0  0  0  0  0
    3.8408    1.6942    0.3495 C   0  0  0  0  0  0  0  0  0  0  0  0
    3.5191    3.6453    1.9297 C   0  0  0  0  0  0  0  0  0  0  0  0
   -0.9765   -1.3968    0.2245 H   0  0  0  0  0  0  0  0  0  0  0  0
   -2.6753   -1.1474   -1.4961 H   0  0  0  0  0  0  0  0  0  0  0  0
   -3.4434   -2.6775   -1.0518 H   0  0  0  0  0  0  0  0  0  0  0  0
   -0.8056   -3.4024    1.6530 H   0  0  0  0  0  0  0  0  0  0  0  0
   -2.2235   -4.1160    0.8819 H   0  0  0  0  0  0  0  0  0  0  0  0
   -2.1030   -1.5837    2.5857 H   0  0  0  0  0  0  0  0  0  0  0  0
   -2.8720   -3.1131    3.0056 H   0  0  0  0  0  0  0  0  0  0  0  0
   -4.5453   -2.8369    1.2314 H   0  0  0  0  0  0  0  0  0  0  0  0
   -4.5118   -1.4185    2.2811 H   0  0  0  0  0  0  0  0  0  0  0  0
   -1.1068   -4.0778   -1.2608 H   0  0  0  0  0  0  0  0  0  0  0  0
   -0.8549   -2.5794   -2.1185 H   0  0  0  0  0  0  0  0  0  0  0  0
   -5.6862   -1.4046   -0.2333 H   0  0  0  0  0  0  0  0  0  0  0  0
   -4.7826   -0.3455   -1.2740 H   0  0  0  0  0  0  0  0  0  0  0  0
   -5.4123    0.4822    1.5797 H   0  0  0  0  0  0  0  0  0  0  0  0
   -4.8310    2.1201   -0.9317 H   0  0  0  0  0  0  0  0  0  0  0  0
   -5.2964    3.0395    1.9342 H   0  0  0  0  0  0  0  0  0  0  0  0
   -6.3525    3.3313    0.5370 H   0  0  0  0  0  0  0  0  0  0  0  0
   -4.7492    4.0674    0.6058 H   0  0  0  0  0  0  0  0  0  0  0  0
   -3.0299    1.6963    1.4175 H   0  0  0  0  0  0  0  0  0  0  0  0
   -7.2485    1.3484    0.8107 H   0  0  0  0  0  0  0  0  0  0  0  0
    1.1705   -1.2481   -1.8802 H   0  0  0  0  0  0  0  0  0  0  0  0
    0.6279   -4.9107    0.3311 H   0  0  0  0  0  0  0  0  0  0  0  0
    3.5803   -1.2924   -1.3440 H   0  0  0  0  0  0  0  0  0  0  0  0
    3.0353   -4.9323    0.8717 H   0  0  0  0  0  0  0  0  0  0  0  0
   -1.0188    1.6998    1.0782 H   0  0  0  0  0  0  0  0  0  0  0  0
    1.3180    1.6000    1.2661 H   0  0  0  0  0  0  0  0  0  0  0  0
   -0.5497    2.2799   -2.5799 H   0  0  0  0  0  0  0  0  0  0  0  0
    1.6158    2.3930   -3.6253 H   0  0  0  0  0  0  0  0  0  0  0  0
    3.6798    2.1270   -2.3038 H   0  0  0  0  0  0  0  0  0  0  0  0
    3.0594    4.2173    1.1204 H   0  0  0  0  0  0  0  0  0  0  0  0
    4.2438    4.2784    2.4488 H   0  0  0  0  0  0  0  0  0  0  0  0
    2.7630    3.2899    2.6336 H   0  0  0  0  0  0  0  0  0  0  0  0
  1 27  1  0  0  0  0
  2 18  1  0  0  0  0
  2 55  1  0  0  0  0
  3 26  2  0  0  0  0
  4 12  1  0  0  0  0
  4 15  1  0  0  0  0
  4 17  1  0  0  0  0
  5 19  1  0  0  0  0
  5 26  1  0  0  0  0
  5 54  1  0  0  0  0
  6 26  1  0  0  0  0
  6 28  1  0  0  0  0
  6 60  1  0  0  0  0
  7  9  1  0  0  0  0
  7 34  1  0  0  0  0
  7 35  1  0  0  0  0
  8 10  1  0  0  0  0
  8 34  2  0  0  0  0
  9 10  2  0  0  0  0
 11 12  1  0  0  0  0
 11 13  1  0  0  0  0
 11 16  1  0  0  0  0
 11 36  1  0  0  0  0
 12 37  1  0  0  0  0
 12 38  1  0  0  0  0
 13 14  1  0  0  0  0
 13 39  1  0  0  0  0
 13 40  1  0  0  0  0
 14 15  1  0  0  0  0
 14 41  1  0  0  0  0
 14 42  1  0  0  0  0
 15 43  1  0  0  0  0
 15 44  1  0  0  0  0
 16 20  1  0  0  0  0
 16 45  1  0  0  0  0
 16 46  1  0  0  0  0
 17 18  1  0  0  0  0
 17 47  1  0  0  0  0
 17 48  1  0  0  0  0
 18 19  1  0  0  0  0
 18 49  1  0  0  0  0
 19 21  1  0  0  0  0
 19 50  1  0  0  0  0
 20 22  2  0  0  0  0
 20 23  1  0  0  0  0
 21 51  1  0  0  0  0
 21 52  1  0  0  0  0
 21 53  1  0  0  0  0
 22 24  1  0  0  0  0
 22 56  1  0  0  0  0
 23 25  2  0  0  0  0
 23 57  1  0  0  0  0
 24 27  2  0  0  0  0
 24 58  1  0  0  0  0
 25 27  1  0  0  0  0
 25 59  1  0  0  0  0
 28 29  1  0  0  0  0
 28 30  2  0  0  0  0
 29 31  2  0  0  0  0
 29 61  1  0  0  0  0
 30 32  1  0  0  0  0
 30 62  1  0  0  0  0
 31 33  1  0  0  0  0
 31 34  1  0  0  0  0
 32 33  2  0  0  0  0
 32 63  1  0  0  0  0
 33 64  1  0  0  0  0
 35 65  1  0  0  0  0
 35 66  1  0  0  0  0
 35 67  1  0  0  0  0
M  END
> <PUBCHEM_COMPOUND_CID>
10050884

> <PUBCHEM_CONFORMER_RMSD>
1.6

> <PUBCHEM_CONFORMER_DIVERSEORDER>
1
85
44
62
132
157
51
148
141
40
49
115
147
101
161
15
26
118
35
112
99
28
95
124
87
138
36
74
160
96
154
3
162
52
53
72
55
165
139
10
73
135
45
113
104
143
100
79
18
129
107
43
66
67
31
108
106
81
93
146
145
57
167
98
17
111
47
117
16
2
170
59
149
158
50
103
69
159
38
83
63
64
12
109
46
48
156
134
20
163
25
22
102
82
91
130
23
92
155
71
133
80
76
128
151
8
120
131
136
33
150
164
4
142
75
7
41
77
169
152
126
27
166
70
121
58
34
56
9
105
125
24
123
86
78
144
29
97
116
21
54
19
94
171
32
127
119
61
68
168
42
39
37
153
122
13
90
30
84
89
5
137
114
140
11
110
88
65
14
6
60

> <PUBCHEM_MMFF94_PARTIAL_CHARGES>
41
1 -0.19
12 0.27
15 0.27
16 0.14
17 0.27
18 0.28
19 0.3
2 -0.68
20 -0.14
22 -0.15
23 -0.15
24 -0.15
25 -0.15
26 0.69
27 0.19
28 0.12
29 -0.15
3 -0.57
30 -0.15
31 0.05
32 -0.15
33 -0.15
34 0.13
35 0.26
4 -0.81
5 -0.73
54 0.37
55 0.4
56 0.15
57 0.15
58 0.15
59 0.15
6 -0.55
60 0.37
61 0.15
62 0.15
63 0.15
64 0.15
7 0.31
8 -0.34
9 -0.42

> <PUBCHEM_EFFECTIVE_ROTOR_COUNT>
11.2

> <PUBCHEM_PHARMACOPHORE_FEATURES>
11
1 2 acceptor
1 2 donor
1 3 acceptor
1 4 cation
1 5 donor
1 6 donor
3 7 8 34 cation
5 7 8 9 10 34 rings
6 20 22 23 24 25 27 rings
6 28 29 30 31 32 33 rings
6 4 11 12 13 14 15 rings

> <PUBCHEM_HEAVY_ATOM_COUNT>
35

> <PUBCHEM_ATOM_DEF_STEREO_COUNT>
3

> <PUBCHEM_ATOM_UDEF_STEREO_COUNT>
0

> <PUBCHEM_BOND_DEF_STEREO_COUNT>
0

> <PUBCHEM_BOND_UDEF_STEREO_COUNT>
0

> <PUBCHEM_ISOTOPIC_ATOM_COUNT>
0

> <PUBCHEM_COMPONENT_COUNT>
1

> <PUBCHEM_CACTVS_TAUTO_COUNT>
3

> <PUBCHEM_CONFORMER_ID>
00995D4400000001

> <PUBCHEM_MMFF94_ENERGY>
72.3088

> <PUBCHEM_FEATURE_SELFOVERLAP>
55.874

> <PUBCHEM_SHAPE_FINGERPRINT>
1100329 8 18119543033394927495
11513181 2 18131349713170560230
12422481 6 18335697282376611240
12925494 130 18409454657251700331
13402501 40 18192717747994379183
13726171 33 17612631051398890581
14004853 49 18050024473161132072
14725015 67 17971756571472282271
15968369 153 18342749550384687639
16112460 7 18197510519010855369
19311894 1 16318400497220974444
20764821 26 18116454685194175471
21344244 246 18410283745444566151
229767 44 18264194989029203386
23559900 14 18262249845374670647
238918 7 18269843175787175942
24941158 1 17059240084433019214
338550 245 18335710459019933300
373842 8 18334582377581258579
4403749 210 18194384822661135560
5265222 85 18122915484729444388
653340 110 18054218002045641648
9981440 41 18338237188860912483

> <PUBCHEM_SHAPE_MULTIPOLES>
666.4
12.13
6.27
1.83
6.29
3.83
-0.07
-6.57
5.26
-3.52
0.57
-1.16
-1.03
2.03

> <PUBCHEM_SHAPE_SELFOVERLAP>
1408.608

> <PUBCHEM_SHAPE_VOLUME>
375.5

> <PUBCHEM_COORDINATE_TYPE>
2
5
10

$$$$
