REMARK  Name = 10050884
REMARK  9 active torsions:
REMARK  status: ('A' for Active; 'I' for Inactive)
REMARK    1  A    between atoms: C_1  and  N_4
REMARK    2  A    between atoms: C_1  and  C_21
REMARK    3  A    between atoms: N_5  and  C_9
REMARK    4  A    between atoms: C_12  and  C_19
REMARK    5  A    between atoms: C_21  and  O_22
REMARK    6  A    between atoms: C_21  and  C_24
REMARK    7  A    between atoms: C_24  and  N_25
REMARK    8  A    between atoms: C_26  and  C_32
REMARK    9  A    between atoms: C_32  and  C_34
REMARK                            x       y       z     vdW  Elec       q    Type
REMARK                         _______ _______ _______ _____ _____    ______ ____
ROOT
ATOM      1  C   UNL     1      -4.712   1.946   0.145  0.00  0.00    +0.098 C 
ATOM      2  C   UNL     1      -5.317   3.161   0.845  0.00  0.00    +0.024 C 
ENDROOT
BRANCH   1   4
ATOM      3  O   UNL     1      -2.537   2.188  -1.704  0.00  0.00    -0.252 OA
ATOM      4  N   UNL     1      -3.302   1.860   0.453  0.00  0.00    -0.288 N 
ATOM      5  N   UNL     1      -1.039   1.864   0.075  0.00  0.00    -0.268 N 
ATOM      6  C   UNL     1      -2.301   1.991  -0.514  0.00  0.00    +0.304 C 
ATOM      7  H   UNL     1      -3.035   1.703   1.387  0.00  0.00    +0.151 HD
ATOM      8  H   UNL     1      -1.030   1.707   1.047  0.00  0.00    +0.156 HD
BRANCH   5   9
ATOM      9  C   UNL     1       0.224   1.934  -0.556  0.00  0.00    +0.052 C 
ATOM     10  C   UNL     1       1.389   1.782   0.196  0.00  0.00    +0.018 C 
ATOM     11  C   UNL     1       0.305   2.154  -1.931  0.00  0.00    +0.015 C 
ATOM     12  C   UNL     1       2.635   1.851  -0.428  0.00  0.00    +0.039 C 
ATOM     13  C   UNL     1       1.551   2.222  -2.555  0.00  0.00    +0.001 C 
ATOM     14  C   UNL     1       2.716   2.071  -1.803  0.00  0.00    +0.003 C 
BRANCH  12  19
ATOM     15  N   UNL     1       4.201   2.501   1.381  0.00  0.00    -0.211 N 
ATOM     16  N   UNL     1       4.766   0.775   0.196  0.00  0.00    -0.108 NA
ATOM     17  N   UNL     1       5.370   2.090   1.892  0.00  0.00    -0.043 NA
ATOM     18  N   UNL     1       5.711   1.034   1.163  0.00  0.00    -0.023 NA
ATOM     19  C   UNL     1       3.841   1.694   0.349  0.00  0.00    +0.184 A 
ATOM     20  C   UNL     1       3.519   3.645   1.930  0.00  0.00    +0.157 C 
ENDBRANCH  12  19
ENDBRANCH   5   9
ENDBRANCH   1   4
BRANCH   1  21
ATOM     21  C   UNL     1      -5.450   0.637   0.495  0.00  0.00    +0.108 C 
BRANCH  21  22
ATOM     22  O   UNL     1      -6.836   0.751   0.164  0.00  0.00    -0.385 OA
ATOM     23  H   UNL     1      -7.291  -0.076   0.387  0.00  0.00    +0.210 HD
ENDBRANCH  21  22
BRANCH  21  24
ATOM     24  C   UNL     1      -4.921  -0.616  -0.217  0.00  0.00    -0.046 C 
BRANCH  24  25
ATOM     25  N   UNL     1      -3.670  -1.108   0.360  0.00  0.00    +0.389 N 
ATOM     26  C   UNL     1      -1.534  -2.294  -0.080  0.00  0.00    -0.017 C 
ATOM     27  C   UNL     1      -2.881  -1.822  -0.655  0.00  0.00    -0.077 C 
ATOM     28  C   UNL     1      -1.754  -3.164   1.162  0.00  0.00    -0.004 C 
ATOM     29  C   UNL     1      -2.644  -2.443   2.169  0.00  0.00    -0.023 C 
ATOM     30  C   UNL     1      -3.943  -1.965   1.521  0.00  0.00    -0.077 C 
ATOM     31  H   UNL     1      -3.122  -0.310   0.680  0.00  0.00    -0.080 HD
BRANCH  26  32
ATOM     32  C   UNL     1      -0.732  -3.054  -1.135  0.00  0.00    +0.024 C 
BRANCH  32  34
ATOM     33  F   UNL     1       4.764  -3.129   0.095  0.00  0.00    -0.204 F 
ATOM     34  C   UNL     1       0.735  -3.074  -0.807  0.00  0.00    -0.022 C 
ATOM     35  C   UNL     1       1.569  -2.058  -1.276  0.00  0.00    -0.002 C 
ATOM     36  C   UNL     1       1.263  -4.108  -0.033  0.00  0.00    -0.002 C 
ATOM     37  C   UNL     1       2.930  -2.077  -0.971  0.00  0.00    +0.029 C 
ATOM     38  C   UNL     1       2.624  -4.127   0.271  0.00  0.00    +0.029 C 
ATOM     39  C   UNL     1       3.457  -3.111  -0.198  0.00  0.00    +0.140 C 
ENDBRANCH  32  34
ENDBRANCH  26  32
ENDBRANCH  24  25
ENDBRANCH  21  24
ENDBRANCH   1  21
TORSDOF 9
