REMARK  Name = 100510
REMARK  6 active torsions:
REMARK  status: ('A' for Active; 'I' for Inactive)
REMARK    1  A    between atoms: N_2  and  C_14
REMARK    2  A    between atoms: C_3  and  C_5
REMARK    3  A    between atoms: C_5  and  N_8
REMARK    4  A    between atoms: C_14  and  C_15
REMARK    5  A    between atoms: C_15  and  O_16
REMARK    6  A    between atoms: O_16  and  C_18
REMARK                            x       y       z     vdW  Elec       q    Type
REMARK                         _______ _______ _______ _____ _____    ______ ____
ROOT
ATOM      1  O   UNL     1       0.241  -1.673  -1.166  0.00  0.00    -0.273 OA
ATOM      2  N   UNL     1       1.123  -1.947   0.965  0.00  0.00    -0.300 N 
ATOM      3  C   UNL     1       0.101  -1.734   0.052  0.00  0.00    +0.243 C 
ATOM      4  H   UNL     1       0.900  -1.978   1.924  0.00  0.00    +0.150 HD
ENDROOT
BRANCH   3   5
ATOM      5  C   UNL     1      -1.236  -1.579   0.747  0.00  0.00    +0.183 C 
BRANCH   5   8
ATOM      6  O   UNL     1      -2.072   2.470   1.502  0.00  0.00    -0.123 OA
ATOM      7  O   UNL     1      -0.375   1.088   1.331  0.00  0.00    -0.123 OA
ATOM      8  N   UNL     1      -2.160  -0.724   0.009  0.00  0.00    -0.242 N 
ATOM      9  N   UNL     1      -3.222   1.089  -0.664  0.00  0.00    -0.207 NA
ATOM     10  N   UNL     1      -1.556   1.420   1.022  0.00  0.00    +0.091 N 
ATOM     11  C   UNL     1      -2.296   0.621   0.143  0.00  0.00    +0.284 C 
ATOM     12  C   UNL     1      -3.040  -1.154  -0.930  0.00  0.00    +0.089 C 
ATOM     13  C   UNL     1      -3.690  -0.012  -1.336  0.00  0.00    +0.118 C 
ENDBRANCH   5   8
ENDBRANCH   3   5
BRANCH   2  14
ATOM     14  C   UNL     1       2.502  -2.125   0.571  0.00  0.00    +0.137 C 
BRANCH  14  15
ATOM     15  C   UNL     1       3.240  -0.800   0.512  0.00  0.00    +0.230 C 
BRANCH  15  16
ATOM     16  O   UNL     1       2.629   0.039  -0.459  0.00  0.00    -0.447 OA
BRANCH  16  18
ATOM     17  O   UNL     1       4.163   1.707  -0.010  0.00  0.00    -0.250 OA
ATOM     18  C   UNL     1       3.195   1.273  -0.620  0.00  0.00    +0.318 C 
ATOM     19  C   UNL     1       2.451   2.042  -1.670  0.00  0.00    +0.121 C 
ENDBRANCH  16  18
ENDBRANCH  15  16
ENDBRANCH  14  15
ENDBRANCH   2  14
TORSDOF 6
