REMARK  Name = 10059148
REMARK  6 active torsions:
REMARK  status: ('A' for Active; 'I' for Inactive)
REMARK    1  A    between atoms: C_2  and  O_8
REMARK    2  A    between atoms: C_3  and  O_10
REMARK    3  A    between atoms: C_4  and  O_12
REMARK    4  A    between atoms: C_5  and  C_14
REMARK    5  A    between atoms: C_14  and  O_15
REMARK    6  A    between atoms: O_15  and  C_17
REMARK                            x       y       z     vdW  Elec       q    Type
REMARK                         _______ _______ _______ _____ _____    ______ ____
ROOT
ATOM      1  O   UNL     1      -0.322   2.050   0.094  0.00  0.00    -0.289 OA
ATOM      2  C   UNL     1       2.656   0.018   0.583  0.00  0.00    +0.176 C 
ATOM      3  C   UNL     1       1.955   1.326   0.234  0.00  0.00    +0.202 C 
ATOM      4  C   UNL     1       2.370  -1.064  -0.460  0.00  0.00    +0.162 C 
ATOM      5  C   UNL     1       0.012  -0.196  -0.581  0.00  0.00    +0.057 C 
ATOM      6  C   UNL     1       0.478   1.125  -0.055  0.00  0.00    +0.201 C 
ATOM      7  C   UNL     1       0.908  -1.175  -0.776  0.00  0.00    +0.007 C 
ENDROOT
BRANCH   2   8
ATOM      8  O   UNL     1       2.215  -0.422   1.869  0.00  0.00    -0.379 OA
ATOM      9  H   UNL     1       2.398   0.267   2.527  0.00  0.00    +0.211 HD
ENDBRANCH   2   8
BRANCH   3  10
ATOM     10  O   UNL     1       2.506   1.902  -0.938  0.00  0.00    -0.375 OA
ATOM     11  H   UNL     1       3.455   2.053  -0.808  0.00  0.00    +0.211 HD
ENDBRANCH   3  10
BRANCH   4  12
ATOM     12  O   UNL     1       2.867  -2.310   0.022  0.00  0.00    -0.377 OA
ATOM     13  H   UNL     1       3.812  -2.226   0.223  0.00  0.00    +0.211 HD
ENDBRANCH   4  12
BRANCH   5  14
ATOM     14  C   UNL     1      -1.443  -0.340  -0.900  0.00  0.00    +0.238 C 
BRANCH  14  15
ATOM     15  O   UNL     1      -2.215  -0.146   0.272  0.00  0.00    -0.443 OA
BRANCH  15  17
ATOM     16  O   UNL     1      -4.161  -0.493  -0.923  0.00  0.00    -0.250 OA
ATOM     17  C   UNL     1      -3.572  -0.251   0.121  0.00  0.00    +0.318 C 
ATOM     18  C   UNL     1      -4.255  -0.024   1.436  0.00  0.00    +0.121 C 
ENDBRANCH  15  17
ENDBRANCH  14  15
ENDBRANCH   5  14
TORSDOF 6
