REMARK  Name = 100514
REMARK  2 active torsions:
REMARK  status: ('A' for Active; 'I' for Inactive)
REMARK    1  A    between atoms: C_3  and  S_10
REMARK    2  A    between atoms: S_10  and  C_14
REMARK                            x       y       z     vdW  Elec       q    Type
REMARK                         _______ _______ _______ _____ _____    ______ ____
ROOT
ATOM      1  N   UNL     1      -1.097   1.794  -0.105  0.00  0.00    -0.237 NA
ATOM      2  N   UNL     1      -2.631   0.430   0.742  0.00  0.00    -0.232 NA
ATOM      3  C   UNL     1      -0.755   0.540  -0.525  0.00  0.00    +0.178 C 
ATOM      4  C   UNL     1      -1.716  -0.285   0.010  0.00  0.00    +0.223 C 
ATOM      5  C   UNL     1      -2.229   1.678   0.653  0.00  0.00    +0.203 C 
ATOM      6  C   UNL     1      -0.419   3.040  -0.386  0.00  0.00    +0.092 C 
ATOM      7  O   UNL     1      -1.014  -2.337  -0.772  0.00  0.00    -0.125 OA
ATOM      8  O   UNL     1      -2.820  -2.256   0.474  0.00  0.00    -0.125 OA
ATOM      9  N   UNL     1      -1.855  -1.676  -0.100  0.00  0.00    +0.073 N 
ENDROOT
BRANCH   3  10
ATOM     10  S   UNL     1       0.628   0.236  -1.516  0.00  0.00    -0.055 S 
BRANCH  10  14
ATOM     11  N   UNL     1       3.150  -0.315  -0.746  0.00  0.00    -0.213 N 
ATOM     12  N   UNL     1       1.797  -0.017   0.945  0.00  0.00    -0.200 NA
ATOM     13  N   UNL     1       3.947  -0.488   0.320  0.00  0.00    -0.157 NA
ATOM     14  C   UNL     1       1.933  -0.048  -0.311  0.00  0.00    +0.178 C 
ATOM     15  C   UNL     1       3.081  -0.297   1.317  0.00  0.00    +0.219 C 
ATOM     16  H   UNL     1       3.425  -0.376  -1.689  0.00  0.00    +0.177 HD
ENDBRANCH  10  14
ENDBRANCH   3  10
TORSDOF 2
