REMARK  Name = 100552
REMARK  4 active torsions:
REMARK  status: ('A' for Active; 'I' for Inactive)
REMARK    1  A    between atoms: C_2  and  O_18
REMARK    2  A    between atoms: C_3  and  O_20
REMARK    3  A    between atoms: C_4  and  N_7
REMARK    4  A    between atoms: C_5  and  C_17
REMARK                            x       y       z     vdW  Elec       q    Type
REMARK                         _______ _______ _______ _____ _____    ______ ____
ROOT
ATOM      1  O   UNL     1      -1.373  -0.395   0.930  0.00  0.00    -0.333 OA
ATOM      2  C   UNL     1      -1.257   1.162  -0.846  0.00  0.00    +0.188 C 
ATOM      3  C   UNL     1      -2.719   0.962  -0.505  0.00  0.00    +0.170 C 
ATOM      4  C   UNL     1      -0.577   0.687   0.429  0.00  0.00    +0.236 C 
ATOM      5  C   UNL     1      -2.708  -0.272   0.399  0.00  0.00    +0.163 C 
ENDROOT
BRANCH   4   7
ATOM      6  O   UNL     1       1.714   2.291   0.774  0.00  0.00    -0.193 OA
ATOM      7  N   UNL     1       0.775   0.250   0.246  0.00  0.00    -0.178 N 
ATOM      8  N   UNL     1       3.162   0.625   0.245  0.00  0.00    -0.306 NA
ATOM      9  N   UNL     1       4.641  -1.085  -0.299  0.00  0.00    -0.332 N 
ATOM     10  C   UNL     1       1.008  -1.065  -0.133  0.00  0.00    +0.083 C 
ATOM     11  C   UNL     1       1.883   1.117   0.439  0.00  0.00    +0.276 C 
ATOM     12  C   UNL     1       2.231  -1.557  -0.325  0.00  0.00    +0.065 C 
ATOM     13  C   UNL     1       3.361  -0.616  -0.111  0.00  0.00    +0.193 C 
ATOM     14  H   UNL     1       5.409  -0.485  -0.165  0.00  0.00    +0.145 HD
ATOM     15  H   UNL     1       4.788  -2.021  -0.568  0.00  0.00    +0.145 HD
ENDBRANCH   4   7
BRANCH   5  17
ATOM     16 CL   UNL     1      -2.992  -2.939   0.783  0.00  0.00    -0.111 Cl
ATOM     17  C   UNL     1      -3.037  -1.564  -0.337  0.00  0.00    +0.127 C 
ENDBRANCH   5  17
BRANCH   2  18
ATOM     18  O   UNL     1      -0.931   0.325  -1.949  0.00  0.00    -0.378 OA
ATOM     19  H   UNL     1      -1.377   0.651  -2.746  0.00  0.00    +0.211 HD
ENDBRANCH   2  18
BRANCH   3  20
ATOM     20  O   UNL     1      -3.180   2.074   0.259  0.00  0.00    -0.379 OA
ATOM     21  H   UNL     1      -3.193   2.867  -0.299  0.00  0.00    +0.211 HD
ENDBRANCH   3  20
TORSDOF 4
