REMARK  Name = 100521
REMARK  6 active torsions:
REMARK  status: ('A' for Active; 'I' for Inactive)
REMARK    1  A    between atoms: C_2  and  C_18
REMARK    2  A    between atoms: C_3  and  O_16
REMARK    3  A    between atoms: C_5  and  N_8
REMARK    4  A    between atoms: C_18  and  O_19
REMARK    5  A    between atoms: O_19  and  C_21
REMARK    6  A    between atoms: C_21  and  C_22
REMARK                            x       y       z     vdW  Elec       q    Type
REMARK                         _______ _______ _______ _____ _____    ______ ____
ROOT
ATOM      1  O   UNL     1      -0.213  -1.485   0.904  0.00  0.00    -0.333 OA
ATOM      2  C   UNL     1       0.644  -2.336   0.118  0.00  0.00    +0.187 C 
ATOM      3  C   UNL     1      -0.277  -3.230  -0.700  0.00  0.00    +0.146 C 
ATOM      4  C   UNL     1      -1.509  -2.374  -0.885  0.00  0.00    +0.083 C 
ATOM      5  C   UNL     1      -1.557  -1.583   0.412  0.00  0.00    +0.202 C 
ENDROOT
BRANCH   5   8
ATOM      6  O   UNL     1      -4.289  -0.867   0.774  0.00  0.00    -0.252 OA
ATOM      7  O   UNL     1      -3.452   3.528  -0.290  0.00  0.00    -0.270 OA
ATOM      8  N   UNL     1      -2.097  -0.266   0.241  0.00  0.00    -0.219 N 
ATOM      9  N   UNL     1      -3.858   1.322   0.241  0.00  0.00    -0.236 N 
ATOM     10  C   UNL     1      -1.237   0.759  -0.132  0.00  0.00    +0.071 C 
ATOM     11  C   UNL     1      -3.470  -0.007   0.443  0.00  0.00    +0.315 C 
ATOM     12  C   UNL     1      -1.612   2.029  -0.325  0.00  0.00    +0.047 C 
ATOM     13  C   UNL     1      -3.043   2.381  -0.130  0.00  0.00    +0.250 C 
ATOM     14  C   UNL     1      -0.669   3.118  -0.727  0.00  0.00    +0.037 C 
ATOM     15  H   UNL     1      -4.811   1.527   0.377  0.00  0.00    +0.159 HD
ENDBRANCH   5   8
BRANCH   3  16
ATOM     16  O   UNL     1      -0.611  -4.397   0.047  0.00  0.00    -0.382 OA
ATOM     17  H   UNL     1       0.182  -4.944   0.164  0.00  0.00    +0.210 HD
ENDBRANCH   3  16
BRANCH   2  18
ATOM     18  C   UNL     1       1.526  -1.443  -0.746  0.00  0.00    +0.240 C 
BRANCH  18  19
ATOM     19  O   UNL     1       2.346  -0.635   0.104  0.00  0.00    -0.446 OA
BRANCH  19  21
ATOM     20  O   UNL     1       3.296   0.340  -1.750  0.00  0.00    -0.250 OA
ATOM     21  C   UNL     1       3.196   0.224  -0.534  0.00  0.00    +0.316 C 
BRANCH  21  22
ATOM     22  C   UNL     1       4.013   1.026   0.483  0.00  0.00    +0.090 C 
ATOM     23  C   UNL     1       4.835   0.065   1.352  0.00  0.00    +0.011 C 
ATOM     24  C   UNL     1       4.971   1.972  -0.259  0.00  0.00    +0.011 C 
ATOM     25  C   UNL     1       3.067   1.861   1.357  0.00  0.00    +0.011 C 
ENDBRANCH  21  22
ENDBRANCH  19  21
ENDBRANCH  18  19
ENDBRANCH   2  18
TORSDOF 6
