REMARK  Name = 100524
REMARK  6 active torsions:
REMARK  status: ('A' for Active; 'I' for Inactive)
REMARK    1  A    between atoms: O_1  and  C_2
REMARK    2  A    between atoms: O_1  and  P_13
REMARK    3  A    between atoms: C_3  and  N_11
REMARK    4  A    between atoms: P_13  and  O_14
REMARK    5  A    between atoms: P_13  and  N_16
REMARK    6  A    between atoms: N_16  and  C_18
REMARK                            x       y       z     vdW  Elec       q    Type
REMARK                         _______ _______ _______ _____ _____    ______ ____
ROOT
ATOM      1  O   UNL     1       0.228   0.833   0.387  0.00  0.00    -0.431 OA
ENDROOT
BRANCH   1   2
ATOM      2  C   UNL     1      -0.855   0.008   0.238  0.00  0.00    +0.168 C 
ATOM      3  C   UNL     1      -2.102   0.523  -0.107  0.00  0.00    +0.177 C 
ATOM      4  C   UNL     1      -3.026  -1.709  -0.057  0.00  0.00    -0.020 C 
ATOM      5  C   UNL     1      -0.688  -1.359   0.437  0.00  0.00    +0.039 C 
ATOM      6  C   UNL     1      -3.189  -0.338  -0.255  0.00  0.00    +0.023 C 
ATOM      7  C   UNL     1      -1.775  -2.220   0.289  0.00  0.00    -0.001 C 
ATOM      8  C   UNL     1      -4.189  -2.630  -0.215  0.00  0.00    +0.031 C 
BRANCH   3  11
ATOM      9  O   UNL     1      -3.429   2.333  -0.622  0.00  0.00    -0.126 OA
ATOM     10  O   UNL     1      -1.303   2.681  -0.176  0.00  0.00    -0.126 OA
ATOM     11  N   UNL     1      -2.287   1.917  -0.313  0.00  0.00    +0.061 N 
ENDBRANCH   3  11
ENDBRANCH   1   2
BRANCH   1  13
ATOM     12  S   UNL     1       1.931  -0.144   2.659  0.00  0.00    +0.022 S 
ATOM     13  P   UNL     1       1.744   0.392   0.782  0.00  0.00    +0.296 P 
BRANCH  13  14
ATOM     14  O   UNL     1       2.495   1.809   0.460  0.00  0.00    -0.295 OA
ATOM     15  C   UNL     1       2.284   2.467  -0.779  0.00  0.00    +0.184 C 
ENDBRANCH  13  14
BRANCH  13  16
ATOM     16  N   UNL     1       2.262  -0.658  -0.404  0.00  0.00    -0.230 NA
ATOM     17  H   UNL     1       2.205  -0.153  -1.288  0.00  0.00    +0.133 HD
BRANCH  16  18
ATOM     18  C   UNL     1       3.595  -1.239  -0.339  0.00  0.00    +0.062 C 
ATOM     19  C   UNL     1       4.643  -0.203  -0.739  0.00  0.00    +0.018 C 
ATOM     20  C   UNL     1       3.661  -2.463  -1.247  0.00  0.00    +0.018 C 
ENDBRANCH  16  18
ENDBRANCH  13  16
ENDBRANCH   1  13
TORSDOF 6
