100514
  -OEChem-03292013323D

 21 22  0     0  0  0  0  0  0999 V2000
    0.6278    0.2356   -1.5158 S   0  0  0  0  0  0  0  0  0  0  0  0
   -1.0138   -2.3375   -0.7718 O   0  5  0  0  0  0  0  0  0  0  0  0
   -2.8196   -2.2558    0.4739 O   0  0  0  0  0  0  0  0  0  0  0  0
   -1.0965    1.7944   -0.1046 N   0  0  0  0  0  0  0  0  0  0  0  0
   -2.6311    0.4300    0.7416 N   0  0  0  0  0  0  0  0  0  0  0  0
   -1.8550   -1.6759   -0.1001 N   0  3  0  0  0  0  0  0  0  0  0  0
    3.1496   -0.3148   -0.7455 N   0  0  0  0  0  0  0  0  0  0  0  0
    1.7974   -0.0167    0.9451 N   0  0  0  0  0  0  0  0  0  0  0  0
    3.9468   -0.4876    0.3196 N   0  0  0  0  0  0  0  0  0  0  0  0
   -0.7549    0.5399   -0.5254 C   0  0  0  0  0  0  0  0  0  0  0  0
   -1.7162   -0.2849    0.0098 C   0  0  0  0  0  0  0  0  0  0  0  0
   -2.2288    1.6784    0.6528 C   0  0  0  0  0  0  0  0  0  0  0  0
   -0.4191    3.0401   -0.3857 C   0  0  0  0  0  0  0  0  0  0  0  0
    1.9325   -0.0482   -0.3113 C   0  0  0  0  0  0  0  0  0  0  0  0
    3.0810   -0.2971    1.3174 C   0  0  0  0  0  0  0  0  0  0  0  0
   -2.7152    2.5284    1.1119 H   0  0  0  0  0  0  0  0  0  0  0  0
    0.5901    2.9906    0.0306 H   0  0  0  0  0  0  0  0  0  0  0  0
   -0.3908    3.1869   -1.4683 H   0  0  0  0  0  0  0  0  0  0  0  0
   -0.9658    3.8646    0.0795 H   0  0  0  0  0  0  0  0  0  0  0  0
    3.5316   -0.3996   -1.6809 H   0  0  0  0  0  0  0  0  0  0  0  0
    3.3955   -0.3643    2.3485 H   0  0  0  0  0  0  0  0  0  0  0  0
  1 10  1  0  0  0  0
  1 14  1  0  0  0  0
  2  6  1  0  0  0  0
  3  6  2  0  0  0  0
  4 10  1  0  0  0  0
  4 12  1  0  0  0  0
  4 13  1  0  0  0  0
  5 11  1  0  0  0  0
  5 12  2  0  0  0  0
  6 11  1  0  0  0  0
  7  9  1  0  0  0  0
  7 14  1  0  0  0  0
  7 20  1  0  0  0  0
  8 14  2  0  0  0  0
  8 15  1  0  0  0  0
  9 15  2  0  0  0  0
 10 11  2  0  0  0  0
 12 16  1  0  0  0  0
 13 17  1  0  0  0  0
 13 18  1  0  0  0  0
 13 19  1  0  0  0  0
 15 21  1  0  0  0  0
M  CHG  2   2  -1   6   1
M  END
> <PUBCHEM_COMPOUND_CID>
100514

> <PUBCHEM_CONFORMER_RMSD>
0.6

> <PUBCHEM_CONFORMER_DIVERSEORDER>
1
13
10
14
9
4
15
11
12
6
8
3
7
2
5

> <PUBCHEM_MMFF94_PARTIAL_CHARGES>
18
1 -0.11
10 -0.1
11 0.31
12 0.04
13 0.26
14 0.24
15 0.37
16 0.15
2 -0.52
20 0.27
21 0.15
3 -0.52
4 0.05
5 -0.57
6 0.96
7 0.3
8 -0.57
9 -0.71

> <PUBCHEM_EFFECTIVE_ROTOR_COUNT>
3

> <PUBCHEM_PHARMACOPHORE_FEATURES>
9
1 2 acceptor
1 2 anion
1 3 acceptor
1 7 donor
3 4 5 12 cation
3 7 8 14 cation
3 8 9 15 cation
5 4 5 10 11 12 rings
5 7 8 9 14 15 rings

> <PUBCHEM_HEAVY_ATOM_COUNT>
15

> <PUBCHEM_ATOM_DEF_STEREO_COUNT>
0

> <PUBCHEM_ATOM_UDEF_STEREO_COUNT>
0

> <PUBCHEM_BOND_DEF_STEREO_COUNT>
0

> <PUBCHEM_BOND_UDEF_STEREO_COUNT>
0

> <PUBCHEM_ISOTOPIC_ATOM_COUNT>
0

> <PUBCHEM_COMPONENT_COUNT>
1

> <PUBCHEM_CACTVS_TAUTO_COUNT>
3

> <PUBCHEM_CONFORMER_ID>
000188A200000001

> <PUBCHEM_MMFF94_ENERGY>
25.3038

> <PUBCHEM_FEATURE_SELFOVERLAP>
48.67

> <PUBCHEM_SHAPE_FINGERPRINT>
11578080 2 17678157477131147725
12382932 28 18412267220183886802
14817 1 13813421204056614509
15076042 46 18117278047382920384
15375462 189 18041575752571509993
16945 1 18336828580693594684
19049666 15 17629492895238486766
20361792 2 16805322189002699598
20871998 184 18343587351821134495
21650355 55 18409724067000638064
22112679 90 18263663890221121749
23388829 49 17624123210891995613
23402539 116 18271794697541964189
23419403 2 17485045869679241853
23598294 1 18337971063521693814
27216 239 17345448505872109120
5706482 22 18194672671015001937
598444 67 17983587299011527326
77492 1 17749683934227578548
81228 2 18412822491015351217
90316 7 18335139756592935721

> <PUBCHEM_SHAPE_MULTIPOLES>
270.92
5.09
2.46
1.15
4.32
0.38
-0.1
-1.34
1.61
-2.52
-0.21
0.49
0
-0.18

> <PUBCHEM_SHAPE_SELFOVERLAP>
569.621

> <PUBCHEM_SHAPE_VOLUME>
156.5

> <PUBCHEM_COORDINATE_TYPE>
2
5
10

$$$$
