REMARK  Name = 100583
REMARK  5 active torsions:
REMARK  status: ('A' for Active; 'I' for Inactive)
REMARK    1  A    between atoms: C1*_2  and  N_7
REMARK    2  A    between atoms: C2*_3  and  O2*_15
REMARK    3  A    between atoms: C3*_4  and  O3*_17
REMARK    4  A    between atoms: C4*_5  and  C5*_19
REMARK    5  A    between atoms: C5*_19  and  O5*_20
REMARK                            x       y       z     vdW  Elec       q    Type
REMARK                         _______ _______ _______ _____ _____    ______ ____
ROOT
ATOM      1  O4* UNL     1      -1.186  -0.584   0.954  0.00  0.00    -0.333 OA
ATOM      2  C1* UNL     1      -0.523   0.589   0.455  0.00  0.00    +0.226 C 
ATOM      3  C2* UNL     1      -1.334   1.071  -0.735  0.00  0.00    +0.187 C 
ATOM      4  C3* UNL     1      -2.735   0.638  -0.357  0.00  0.00    +0.171 C 
ATOM      5  C4* UNL     1      -2.482  -0.699   0.326  0.00  0.00    +0.175 C 
ENDROOT
BRANCH   2   7
ATOM      6  O   UNL     1       1.586   2.358   0.661  0.00  0.00    -0.253 OA
ATOM      7  N   UNL     1       0.825   0.247   0.099  0.00  0.00    -0.236 N 
ATOM      8  N   UNL     1       3.139   0.888  -0.037  0.00  0.00    -0.285 N 
ATOM      9  C   UNL     1       0.985  -1.073  -0.521  0.00  0.00    +0.123 C 
ATOM     10  C   UNL     1       1.826   1.215   0.247  0.00  0.00    +0.306 C 
ATOM     11  C   UNL     1       2.010  -1.875   0.209  0.00  0.00    -0.007 C 
ATOM     12  C   UNL     1       3.732  -0.321  -0.595  0.00  0.00    +0.117 C 
ATOM     13  C   UNL     1       3.301  -1.526   0.167  0.00  0.00    -0.008 C 
ATOM     14  H   UNL     1       3.788   1.597   0.176  0.00  0.00    +0.151 HD
ENDBRANCH   2   7
BRANCH   3  15
ATOM     15  O2* UNL     1      -1.238   2.468  -0.928  0.00  0.00    -0.378 OA
ATOM     16  H2* UNL     1      -0.327   2.699  -1.168  0.00  0.00    +0.211 HD
ENDBRANCH   3  15
BRANCH   4  17
ATOM     17  O3* UNL     1      -3.284   1.531   0.612  0.00  0.00    -0.379 OA
ATOM     18  H3* UNL     1      -3.454   2.392   0.199  0.00  0.00    +0.211 HD
ENDBRANCH   4  17
BRANCH   5  19
ATOM     19  C5* UNL     1      -2.437  -1.871  -0.645  0.00  0.00    +0.169 C 
BRANCH  19  20
ATOM     20  O5* UNL     1      -2.187  -3.057   0.089  0.00  0.00    -0.379 OA
ATOM     21  H5* UNL     1      -2.156  -3.813  -0.519  0.00  0.00    +0.211 HD
ENDBRANCH  19  20
ENDBRANCH   5  19
TORSDOF 5
