REMARK  Name = 10059959
REMARK  7 active torsions:
REMARK  status: ('A' for Active; 'I' for Inactive)
REMARK    1  A    between atoms: C_1  and  CA_14
REMARK    2  A    between atoms: C_2  and  C_4
REMARK    3  A    between atoms: C_3  and  C_11
REMARK    4  A    between atoms: C_11  and  O_12
REMARK    5  A    between atoms: CA_14  and  N_15
REMARK    6  A    between atoms: CA_14  and  C_20
REMARK    7  A    between atoms: C_20  and  O_21
REMARK                            x       y       z     vdW  Elec       q    Type
REMARK                         _______ _______ _______ _____ _____    ______ ____
ROOT
ATOM      1  C   UNL     1       0.627   0.425   0.232  0.00  0.00    +0.006 C 
ATOM      2  C   UNL     1      -0.469  -0.173  -0.586  0.00  0.00    +0.032 C 
ATOM      3  C   UNL     1       0.387  -1.048   0.282  0.00  0.00    +0.102 C 
ENDROOT
BRANCH   2   4
ATOM      4  C   UNL     1      -1.896   0.027  -0.231  0.00  0.00    -0.022 C 
ATOM      5  C   UNL     1      -2.543   1.221  -0.561  0.00  0.00    -0.004 C 
ATOM      6  C   UNL     1      -2.602  -0.978   0.438  0.00  0.00    -0.004 C 
ATOM      7  C   UNL     1      -3.884   1.409  -0.227  0.00  0.00    -0.000 C 
ATOM      8  C   UNL     1      -3.943  -0.790   0.772  0.00  0.00    -0.000 C 
ATOM      9  C   UNL     1      -4.584   0.404   0.440  0.00  0.00    -0.000 C 
ENDBRANCH   2   4
BRANCH   3  11
ATOM     10  O   UNL     1       1.239  -2.361  -1.493  0.00  0.00    -0.250 OA
ATOM     11  C   UNL     1       1.369  -1.943  -0.352  0.00  0.00    +0.314 C 
BRANCH  11  12
ATOM     12  O   UNL     1       2.408  -2.233   0.468  0.00  0.00    -0.480 OA
ATOM     13  H   UNL     1       2.437  -1.873   1.332  0.00  0.00    +0.295 HD
ENDBRANCH  11  12
ENDBRANCH   3  11
BRANCH   1  14
ATOM     14  CA  UNL     1       1.882   0.923  -0.422  0.00  0.00    +0.037 C 
BRANCH  14  15
ATOM     15  N   UNL     1       1.700   2.296  -0.895  0.00  0.00    +0.389 N 
ATOM     16  H1  UNL     1       0.906   2.333  -1.535  0.00  0.00    -0.088 HD
ATOM     17  H2  UNL     1       2.543   2.604  -1.380  0.00  0.00    -0.088 HD
ATOM     18  H3  UNL     1       1.523   2.909  -0.099  0.00  0.00    -0.088 HD
ENDBRANCH  14  15
BRANCH  14  20
ATOM     19  OXT UNL     1       3.050   0.514   1.681  0.00  0.00    -0.253 OA
ATOM     20  C   UNL     1       3.067   0.912   0.524  0.00  0.00    +0.293 C 
BRANCH  20  21
ATOM     21  O   UNL     1       4.193   1.393  -0.069  0.00  0.00    -0.482 OA
ATOM     22  H   UNL     1       4.165   1.689  -0.957  0.00  0.00    +0.295 HD
ENDBRANCH  20  21
ENDBRANCH  14  20
ENDBRANCH   1  14
TORSDOF 7
