10061827
  -OEChem-03292013303D

 29 30  0     0  0  0  0  0  0999 V2000
   -4.6171   -0.1684    0.1440 S   0  0  0  0  0  0  0  0  0  0  0  0
   -5.4136   -1.4922   -0.3790 O   0  0  0  0  0  0  0  0  0  0  0  0
    4.3113   -2.2888    0.1381 O   0  0  0  0  0  0  0  0  0  0  0  0
   -4.9550    0.9504   -0.7165 O   0  0  0  0  0  0  0  0  0  0  0  0
   -4.7497   -0.0841    1.5869 O   0  0  0  0  0  0  0  0  0  0  0  0
    2.1687   -1.2735   -0.0620 N   0  0  0  0  0  0  0  0  0  0  0  0
   -0.6337   -0.1244   -0.3293 N   0  0  0  0  0  0  0  0  0  0  0  0
    3.9901    0.0538    0.1792 N   0  0  0  0  0  0  0  0  0  0  0  0
    0.4067    1.9969   -0.1448 N   0  0  0  0  0  0  0  0  0  0  0  0
    2.8191    2.2119    0.1239 N   0  0  0  0  0  0  0  0  0  0  0  0
    1.7568    0.0616   -0.0628 C   0  0  0  0  0  0  0  0  0  0  0  0
   -1.9452    0.3726   -0.0417 C   0  0  0  0  0  0  0  0  0  0  0  0
    0.5306    0.6520   -0.1761 C   0  0  0  0  0  0  0  0  0  0  0  0
   -2.9836   -0.7157   -0.2448 C   0  0  0  0  0  0  0  0  0  0  0  0
    2.8618    0.8772    0.0840 C   0  0  0  0  0  0  0  0  0  0  0  0
    3.5818   -1.3084    0.0903 C   0  0  0  0  0  0  0  0  0  0  0  0
    1.3078   -2.4200   -0.1933 C   0  0  0  0  0  0  0  0  0  0  0  0
    1.5632    2.6990    0.0039 C   0  0  0  0  0  0  0  0  0  0  0  0
   -2.1762    1.2259   -0.6905 H   0  0  0  0  0  0  0  0  0  0  0  0
   -1.9897    0.7325    0.9935 H   0  0  0  0  0  0  0  0  0  0  0  0
   -2.7685   -1.5869    0.3831 H   0  0  0  0  0  0  0  0  0  0  0  0
   -2.9877   -1.0400   -1.2916 H   0  0  0  0  0  0  0  0  0  0  0  0
   -0.5584   -0.9248   -0.9454 H   0  0  0  0  0  0  0  0  0  0  0  0
    4.9377    0.3912    0.2935 H   0  0  0  0  0  0  0  0  0  0  0  0
    1.8922   -3.3347   -0.0555 H   0  0  0  0  0  0  0  0  0  0  0  0
    0.8780   -2.4406   -1.1981 H   0  0  0  0  0  0  0  0  0  0  0  0
    0.5262   -2.3920    0.5704 H   0  0  0  0  0  0  0  0  0  0  0  0
    1.4631    3.7779    0.0290 H   0  0  0  0  0  0  0  0  0  0  0  0
   -5.4467   -1.6086   -1.3576 H   0  0  0  0  0  0  0  0  0  0  0  0
  1  2  1  0  0  0  0
  1  4  2  0  0  0  0
  1  5  2  0  0  0  0
  1 14  1  0  0  0  0
  2 29  1  0  0  0  0
  3 16  2  0  0  0  0
  6 11  1  0  0  0  0
  6 16  1  0  0  0  0
  6 17  1  0  0  0  0
  7 12  1  0  0  0  0
  7 13  1  0  0  0  0
  7 23  1  0  0  0  0
  8 15  1  0  0  0  0
  8 16  1  0  0  0  0
  8 24  1  0  0  0  0
  9 13  2  0  0  0  0
  9 18  1  0  0  0  0
 10 15  1  0  0  0  0
 10 18  2  0  0  0  0
 11 13  1  0  0  0  0
 11 15  2  0  0  0  0
 12 14  1  0  0  0  0
 12 19  1  0  0  0  0
 12 20  1  0  0  0  0
 14 21  1  0  0  0  0
 14 22  1  0  0  0  0
 17 25  1  0  0  0  0
 17 26  1  0  0  0  0
 17 27  1  0  0  0  0
 18 28  1  0  0  0  0
M  END
> <PUBCHEM_COMPOUND_CID>
10061827

> <PUBCHEM_CONFORMER_RMSD>
0.6

> <PUBCHEM_CONFORMER_DIVERSEORDER>
1
9
7
10
13
14
6
12
3
5
11
2
8
4

> <PUBCHEM_MMFF94_PARTIAL_CHARGES>
22
1 1.38
10 -0.62
11 0.12
12 0.37
13 0.41
14 0.11
15 0.43
16 0.69
17 0.3
18 0.47
2 -0.68
23 0.4
24 0.37
28 0.15
29 0.5
3 -0.57
4 -0.65
5 -0.65
6 -0.48
7 -0.87
8 -0.55
9 -0.62

> <PUBCHEM_EFFECTIVE_ROTOR_COUNT>
4

> <PUBCHEM_PHARMACOPHORE_FEATURES>
11
1 2 acceptor
1 3 acceptor
1 4 acceptor
1 5 acceptor
1 7 donor
1 8 donor
3 7 9 13 cation
3 9 10 18 cation
4 1 2 4 5 anion
5 6 8 11 15 16 rings
6 9 10 11 13 15 18 rings

> <PUBCHEM_HEAVY_ATOM_COUNT>
18

> <PUBCHEM_ATOM_DEF_STEREO_COUNT>
0

> <PUBCHEM_ATOM_UDEF_STEREO_COUNT>
0

> <PUBCHEM_BOND_DEF_STEREO_COUNT>
0

> <PUBCHEM_BOND_UDEF_STEREO_COUNT>
0

> <PUBCHEM_ISOTOPIC_ATOM_COUNT>
0

> <PUBCHEM_COMPONENT_COUNT>
1

> <PUBCHEM_CACTVS_TAUTO_COUNT>
8

> <PUBCHEM_CONFORMER_ID>
0099880300000001

> <PUBCHEM_MMFF94_ENERGY>
53.7359

> <PUBCHEM_FEATURE_SELFOVERLAP>
56.11

> <PUBCHEM_SHAPE_FINGERPRINT>
10912923 1 17845941826964984611
11471102 20 18410290324089290364
11796584 16 16732978674528423466
12107183 9 18054517898453466697
12236239 1 17775569757707251304
13140716 1 18050556637447955896
13167823 11 18343017831079596095
13533116 47 18341330115259405771
13675066 3 18113620114458705581
13862211 1 18337951199847186522
14251717 144 18411135857115735854
14252887 29 18130229255192508926
14790565 3 17903924705410556460
15196674 1 18410571790829513783
15442244 35 18341052917432000345
17834072 33 18342736368966512895
200 152 18273209799076788381
20028762 73 18201712968311785599
20645477 70 18335696165505843895
20832881 197 18115868507798946651
20871998 22 18127979611594688318
21065198 57 18335984246553692861
21267235 1 18412270505971349686
221490 88 18335707203498272955
2255824 54 18339366373895165516
23559900 14 18409721868415238865
2748010 2 18195509417213690620
33824 294 18337387240232948736
3421961 26 18411415094783627122
4214541 1 18410572873546309797
5104073 3 18413109481104597683
5281201 14 18113335323477326525
6443956 14 18409450245813878564
77779 3 18409729590929733517
8272917 22 18413395345078987293
8863177 126 17969237762042556531
90127 26 17894349990967909205
9709674 26 18261958561009361715

> <PUBCHEM_SHAPE_MULTIPOLES>
325.9
10.46
2.51
0.74
13.96
0.3
-0.16
-3.27
-0.84
-2.82
0.1
0.7
0
0

> <PUBCHEM_SHAPE_SELFOVERLAP>
675.536

> <PUBCHEM_SHAPE_VOLUME>
187.4

> <PUBCHEM_COORDINATE_TYPE>
2
5
10

$$$$
