REMARK  Name = 10063495
REMARK  8 active torsions:
REMARK  status: ('A' for Active; 'I' for Inactive)
REMARK    1  A    between atoms: C_1  and  C_15
REMARK    2  A    between atoms: C_4  and  N_9
REMARK    3  A    between atoms: C_5  and  O_7
REMARK    4  A    between atoms: N_9  and  S_11
REMARK    5  A    between atoms: C_15  and  O_16
REMARK    6  A    between atoms: C_15  and  C_18
REMARK    7  A    between atoms: C_18  and  N_19
REMARK    8  A    between atoms: N_19  and  C_22
REMARK                            x       y       z     vdW  Elec       q    Type
REMARK                         _______ _______ _______ _____ _____    ______ ____
ROOT
ATOM      1  C   UNL     1       0.042   1.549  -0.166  0.00  0.00    +0.004 C 
ATOM      2  C   UNL     1       0.796   0.491  -0.647  0.00  0.00    +0.017 C 
ATOM      3  C   UNL     1       0.621   2.576   0.561  0.00  0.00    +0.001 C 
ATOM      4  C   UNL     1       2.167   0.459  -0.394  0.00  0.00    +0.098 C 
ATOM      5  C   UNL     1       2.765   1.486   0.337  0.00  0.00    +0.148 C 
ATOM      6  C   UNL     1       1.992   2.544   0.815  0.00  0.00    +0.038 C 
ENDROOT
BRANCH   5   7
ATOM      7  O   UNL     1       4.103   1.471   0.597  0.00  0.00    -0.504 OA
ATOM      8  H   UNL     1       4.634   0.766   0.282  0.00  0.00    +0.292 HD
ENDBRANCH   5   7
BRANCH   4   9
ATOM      9  N   UNL     1       2.946  -0.633  -0.887  0.00  0.00    -0.216 N 
ATOM     10  H   UNL     1       3.587  -0.505  -1.624  0.00  0.00    +0.173 HD
BRANCH   9  11
ATOM     11  S   UNL     1       2.734  -2.178  -0.158  0.00  0.00    +0.056 S 
ATOM     12  O   UNL     1       1.351  -2.298   0.264  0.00  0.00    -0.154 OA
ATOM     13  O   UNL     1       3.355  -3.217  -0.955  0.00  0.00    -0.154 OA
ATOM     14  C   UNL     1       3.706  -1.966   1.317  0.00  0.00    +0.200 C 
ENDBRANCH   9  11
ENDBRANCH   4   9
BRANCH   1  15
ATOM     15  C   UNL     1      -1.444   1.585  -0.440  0.00  0.00    +0.112 C 
BRANCH  15  16
ATOM     16  O   UNL     1      -1.639   1.693  -1.850  0.00  0.00    -0.382 OA
ATOM     17  H   UNL     1      -2.590   1.718  -2.044  0.00  0.00    +0.211 HD
ENDBRANCH  15  16
BRANCH  15  18
ATOM     18  C   UNL     1      -2.149   0.333   0.087  0.00  0.00    -0.047 C 
BRANCH  18  19
ATOM     19  N   UNL     1      -3.572   0.415  -0.197  0.00  0.00    +0.388 N 
ATOM     20  H   UNL     1      -3.957   1.244   0.256  0.00  0.00    -0.084 HD
ATOM     21  H   UNL     1      -3.703   0.472  -1.206  0.00  0.00    -0.084 HD
BRANCH  19  22
ATOM     22  C   UNL     1      -4.267  -0.775   0.305  0.00  0.00    -0.046 C 
ATOM     23  C   UNL     1      -5.757  -0.647  -0.027  0.00  0.00    -0.022 C 
ATOM     24  C   UNL     1      -3.679  -2.011  -0.385  0.00  0.00    -0.022 C 
ATOM     25  C   UNL     1      -4.072  -0.877   1.822  0.00  0.00    -0.022 C 
ENDBRANCH  19  22
ENDBRANCH  18  19
ENDBRANCH  15  18
ENDBRANCH   1  15
TORSDOF 8
