REMARK  Name = 10061827
REMARK  3 active torsions:
REMARK  status: ('A' for Active; 'I' for Inactive)
REMARK    1  A    between atoms: N_3  and  C_15
REMARK    2  A    between atoms: C_15  and  C_16
REMARK    3  A    between atoms: C_16  and  S_17
REMARK                            x       y       z     vdW  Elec       q    Type
REMARK                         _______ _______ _______ _____ _____    ______ ____
ROOT
ATOM      1  O   UNL     1       4.311  -2.289   0.138  0.00  0.00    -0.252 OA
ATOM      2  N   UNL     1       2.169  -1.274  -0.062  0.00  0.00    -0.251 N 
ATOM      3  N   UNL     1      -0.634  -0.124  -0.329  0.00  0.00    -0.319 N 
ATOM      4  N   UNL     1       3.990   0.054   0.179  0.00  0.00    -0.255 N 
ATOM      5  N   UNL     1       0.407   1.997  -0.145  0.00  0.00    -0.232 NA
ATOM      6  N   UNL     1       2.819   2.212   0.124  0.00  0.00    -0.232 NA
ATOM      7  C   UNL     1       1.757   0.062  -0.063  0.00  0.00    +0.185 C 
ATOM      8  C   UNL     1       0.531   0.652  -0.176  0.00  0.00    +0.128 C 
ATOM      9  C   UNL     1       2.862   0.877   0.084  0.00  0.00    +0.135 C 
ATOM     10  C   UNL     1       3.582  -1.308   0.090  0.00  0.00    +0.309 C 
ATOM     11  C   UNL     1       1.308  -2.420  -0.193  0.00  0.00    +0.117 C 
ATOM     12  C   UNL     1       1.563   2.699   0.004  0.00  0.00    +0.253 C 
ATOM     13  H   UNL     1      -0.542  -1.051  -0.649  0.00  0.00    +0.148 HD
ATOM     14  H   UNL     1       4.917   0.366   0.290  0.00  0.00    +0.158 HD
ENDROOT
BRANCH   3  15
ATOM     15  C   UNL     1      -1.945   0.373  -0.042  0.00  0.00    +0.114 C 
BRANCH  15  16
ATOM     16  C   UNL     1      -2.984  -0.716  -0.245  0.00  0.00    +0.179 C 
BRANCH  16  17
ATOM     17  S   UNL     1      -4.617  -0.168   0.144  0.00  0.00    +0.024 S 
ATOM     18  O   UNL     1      -5.414  -1.492  -0.379  0.00  0.00    -0.069 OA
ATOM     19  O   UNL     1      -4.955   0.950  -0.717  0.00  0.00    -0.069 OA
ATOM     20  O   UNL     1      -4.750  -0.084   1.587  0.00  0.00    -0.069 OA
ENDBRANCH  16  17
ENDBRANCH  15  16
ENDBRANCH   3  15
TORSDOF 3
