REMARK  Name = 100683
REMARK  5 active torsions:
REMARK  status: ('A' for Active; 'I' for Inactive)
REMARK    1  A    between atoms: N_2  and  C1*_15
REMARK    2  A    between atoms: C2*_16  and  O2*_19
REMARK    3  A    between atoms: C3*_17  and  O3*_21
REMARK    4  A    between atoms: C4*_18  and  C5*_23
REMARK    5  A    between atoms: C5*_23  and  O5*_24
REMARK                            x       y       z     vdW  Elec       q    Type
REMARK                         _______ _______ _______ _____ _____    ______ ____
ROOT
ATOM      1  O   UNL     1      -4.098  -1.969  -0.506  0.00  0.00    -0.191 OA
ATOM      2  N   UNL     1       0.059  -0.394   0.247  0.00  0.00    -0.222 N 
ATOM      3  N   UNL     1      -2.029  -1.067  -0.104  0.00  0.00    -0.142 N 
ATOM      4  N   UNL     1      -1.795   1.200   0.408  0.00  0.00    -0.295 NA
ATOM      5  N   UNL     1      -3.939   0.257  -0.006  0.00  0.00    -0.240 NA
ATOM      6  N   UNL     1      -3.752   2.513   0.500  0.00  0.00    -0.283 N 
ATOM      7  C   UNL     1      -1.258   0.046   0.213  0.00  0.00    +0.277 C 
ATOM      8  C   UNL     1       0.064  -1.747  -0.053  0.00  0.00    +0.088 C 
ATOM      9  C   UNL     1      -1.198  -2.156  -0.263  0.00  0.00    +0.102 C 
ATOM     10  C   UNL     1      -3.400  -0.997  -0.225  0.00  0.00    +0.290 C 
ATOM     11  C   UNL     1      -3.176   1.283   0.291  0.00  0.00    +0.210 C 
ATOM     12  H   UNL     1      -3.188   3.289   0.723  0.00  0.00    +0.156 HD
ATOM     13  H   UNL     1      -4.728   2.619   0.427  0.00  0.00    +0.156 HD
ENDROOT
BRANCH   2  15
ATOM     14  O4* UNL     1       2.287  -0.327   1.055  0.00  0.00    -0.333 OA
ATOM     15  C1* UNL     1       1.216   0.437   0.472  0.00  0.00    +0.229 C 
ATOM     16  C2* UNL     1       1.750   0.992  -0.839  0.00  0.00    +0.187 C 
ATOM     17  C3* UNL     1       3.226   1.153  -0.537  0.00  0.00    +0.171 C 
ATOM     18  C4* UNL     1       3.508  -0.066   0.330  0.00  0.00    +0.175 C 
BRANCH  16  19
ATOM     19  O2* UNL     1       1.123   2.209  -1.189  0.00  0.00    -0.378 OA
ATOM     20  H2* UNL     1       0.184   2.048  -1.371  0.00  0.00    +0.211 HD
ENDBRANCH  16  19
BRANCH  17  21
ATOM     21  O3* UNL     1       3.444   2.318   0.258  0.00  0.00    -0.379 OA
ATOM     22  H3* UNL     1       3.270   3.110  -0.275  0.00  0.00    +0.211 HD
ENDBRANCH  17  21
BRANCH  18  23
ATOM     23  C5* UNL     1       3.857  -1.310  -0.476  0.00  0.00    +0.169 C 
BRANCH  23  24
ATOM     24  O5* UNL     1       4.110  -2.376   0.423  0.00  0.00    -0.379 OA
ATOM     25  H5* UNL     1       4.334  -3.175  -0.078  0.00  0.00    +0.211 HD
ENDBRANCH  23  24
ENDBRANCH  18  23
ENDBRANCH   2  15
TORSDOF 5
