REMARK  Name = 100625
REMARK  8 active torsions:
REMARK  status: ('A' for Active; 'I' for Inactive)
REMARK    1  A    between atoms: C_5  and  C_12
REMARK    2  A    between atoms: C_6  and  O_22
REMARK    3  A    between atoms: C_7  and  O_30
REMARK    4  A    between atoms: C_9  and  O_24
REMARK    5  A    between atoms: C_10  and  O_26
REMARK    6  A    between atoms: C_11  and  O_28
REMARK    7  A    between atoms: C_15  and  O_18
REMARK    8  A    between atoms: C_17  and  O_20
REMARK                            x       y       z     vdW  Elec       q    Type
REMARK                         _______ _______ _______ _____ _____    ______ ____
ROOT
ATOM      1  O   UNL     1      -0.119  -0.543  -0.357  0.00  0.00    -0.447 OA
ATOM      2  O   UNL     1       1.199   3.269   0.206  0.00  0.00    -0.283 OA
ATOM      3  C   UNL     1       1.732   0.985  -0.012  0.00  0.00    +0.117 A 
ATOM      4  C   UNL     1       1.220  -0.295  -0.206  0.00  0.00    +0.188 A 
ATOM      5  C   UNL     1      -1.000   0.526  -0.323  0.00  0.00    +0.182 A 
ATOM      6  C   UNL     1       2.081  -1.392  -0.254  0.00  0.00    +0.210 A 
ATOM      7  C   UNL     1       3.108   1.179   0.136  0.00  0.00    +0.177 A 
ATOM      8  C   UNL     1       0.803   2.123   0.035  0.00  0.00    +0.238 A 
ATOM      9  C   UNL     1      -0.638   1.811  -0.132  0.00  0.00    +0.212 A 
ATOM     10  C   UNL     1       3.455  -1.203  -0.107  0.00  0.00    +0.212 A 
ATOM     11  C   UNL     1       3.967   0.080   0.088  0.00  0.00    +0.209 A 
ENDROOT
BRANCH   5  12
ATOM     12  C   UNL     1      -2.397   0.105  -0.510  0.00  0.00    +0.041 C 
ATOM     13  C   UNL     1      -3.176  -0.240   0.595  0.00  0.00    +0.043 C 
ATOM     14  C   UNL     1      -2.944   0.050  -1.792  0.00  0.00    +0.006 C 
ATOM     15  C   UNL     1      -4.500  -0.639   0.417  0.00  0.00    +0.172 C 
ATOM     16  C   UNL     1      -4.268  -0.349  -1.970  0.00  0.00    +0.040 C 
ATOM     17  C   UNL     1      -5.047  -0.694  -0.865  0.00  0.00    +0.168 C 
BRANCH  15  18
ATOM     18  O   UNL     1      -5.251  -0.974   1.504  0.00  0.00    -0.468 OA
ATOM     19  C   UNL     1      -4.617  -0.891   2.779  0.00  0.00    +0.253 C 
ENDBRANCH  15  18
BRANCH  17  20
ATOM     20  O   UNL     1      -6.339  -1.082  -1.051  0.00  0.00    -0.503 OA
ATOM     21  H   UNL     1      -6.869  -1.315  -0.315  0.00  0.00    +0.292 HD
ENDBRANCH  17  20
ENDBRANCH   5  12
BRANCH   6  22
ATOM     22  O   UNL     1       1.584  -2.648  -0.443  0.00  0.00    -0.465 OA
ATOM     23  C   UNL     1       0.661  -3.132   0.529  0.00  0.00    +0.253 C 
ENDBRANCH   6  22
BRANCH   9  24
ATOM     24  O   UNL     1      -1.501   2.882  -0.065  0.00  0.00    -0.465 OA
ATOM     25  C   UNL     1      -1.920   3.109   1.267  0.00  0.00    +0.253 C 
ENDBRANCH   9  24
BRANCH  10  26
ATOM     26  O   UNL     1       4.298  -2.274  -0.153  0.00  0.00    -0.465 OA
ATOM     27  C   UNL     1       4.583  -2.926   1.082  0.00  0.00    +0.253 C 
ENDBRANCH  10  26
BRANCH  11  28
ATOM     28  O   UNL     1       5.312   0.258   0.231  0.00  0.00    -0.465 OA
ATOM     29  C   UNL     1       6.064   0.488  -0.958  0.00  0.00    +0.253 C 
ENDBRANCH  11  28
BRANCH   7  30
ATOM     30  O   UNL     1       3.648   2.416   0.328  0.00  0.00    -0.503 OA
ATOM     31  H   UNL     1       3.092   3.169   0.364  0.00  0.00    +0.292 HD
ENDBRANCH   7  30
TORSDOF 8
