10063465
  -OEChem-03292013303D

 36 37  0     0  0  0  0  0  0999 V2000
    1.0300   -0.2806   -1.7881 O   0  0  0  0  0  0  0  0  0  0  0  0
   -0.7538    2.8206   -0.7893 O   0  0  0  0  0  0  0  0  0  0  0  0
   -0.3475    1.2343    2.5545 O   0  0  0  0  0  0  0  0  0  0  0  0
   -4.0571   -1.5718   -0.3147 O   0  0  0  0  0  0  0  0  0  0  0  0
   -1.5138   -2.0300    1.8386 O   0  0  0  0  0  0  0  0  0  0  0  0
    3.4914   -0.7427   -2.1228 O   0  0  0  0  0  0  0  0  0  0  0  0
   -1.0643    0.5387   -0.0933 C   0  0  0  0  0  0  0  0  0  0  0  0
    0.3117    0.4769    0.3688 C   0  0  0  0  0  0  0  0  0  0  0  0
   -1.9011   -0.5709    0.0263 C   0  0  0  0  0  0  0  0  0  0  0  0
    1.3223    0.0661   -0.4997 C   0  0  0  0  0  0  0  0  0  0  0  0
   -1.5470    1.7185   -0.6598 C   0  0  0  0  0  0  0  0  0  0  0  0
    0.6197    0.8289    1.6824 C   0  0  0  0  0  0  0  0  0  0  0  0
    2.6429    0.0076   -0.0538 C   0  0  0  0  0  0  0  0  0  0  0  0
   -3.2207   -0.5006   -0.4206 C   0  0  0  0  0  0  0  0  0  0  0  0
    1.9402    0.7703    2.1282 C   0  0  0  0  0  0  0  0  0  0  0  0
    2.9517    0.3595    1.2601 C   0  0  0  0  0  0  0  0  0  0  0  0
   -2.8665    1.7888   -1.1066 C   0  0  0  0  0  0  0  0  0  0  0  0
   -3.7033    0.6793   -0.9870 C   0  0  0  0  0  0  0  0  0  0  0  0
   -1.4186   -1.8170    0.6169 C   0  0  0  0  0  0  0  0  0  0  0  0
    3.7168   -0.4180   -0.9411 C   0  0  0  0  0  0  0  0  0  0  0  0
   -0.7852   -2.8830   -0.2647 C   0  0  0  0  0  0  0  0  0  0  0  0
    5.1524   -0.4752   -0.4342 C   0  0  0  0  0  0  0  0  0  0  0  0
    2.1872    1.0431    3.1507 H   0  0  0  0  0  0  0  0  0  0  0  0
    3.9630    0.3300    1.6527 H   0  0  0  0  0  0  0  0  0  0  0  0
   -3.2491    2.7048   -1.5486 H   0  0  0  0  0  0  0  0  0  0  0  0
   -4.7289    0.7487   -1.3394 H   0  0  0  0  0  0  0  0  0  0  0  0
    0.2529   -3.0345    0.0416 H   0  0  0  0  0  0  0  0  0  0  0  0
   -0.8040   -2.5754   -1.3139 H   0  0  0  0  0  0  0  0  0  0  0  0
   -1.3509   -3.8128   -0.1646 H   0  0  0  0  0  0  0  0  0  0  0  0
    1.7447   -0.8068   -2.1767 H   0  0  0  0  0  0  0  0  0  0  0  0
    5.2371   -1.1920    0.3867 H   0  0  0  0  0  0  0  0  0  0  0  0
    5.4879    0.5197   -0.1303 H   0  0  0  0  0  0  0  0  0  0  0  0
    5.8036   -0.8156   -1.2458 H   0  0  0  0  0  0  0  0  0  0  0  0
    0.1384    2.6570   -0.4463 H   0  0  0  0  0  0  0  0  0  0  0  0
   -1.2227    1.2319    2.1365 H   0  0  0  0  0  0  0  0  0  0  0  0
   -4.9275   -1.3332   -0.6772 H   0  0  0  0  0  0  0  0  0  0  0  0
  1 10  1  0  0  0  0
  1 30  1  0  0  0  0
  2 11  1  0  0  0  0
  2 34  1  0  0  0  0
  3 12  1  0  0  0  0
  3 35  1  0  0  0  0
  4 14  1  0  0  0  0
  4 36  1  0  0  0  0
  5 19  2  0  0  0  0
  6 20  2  0  0  0  0
  7  8  1  0  0  0  0
  7  9  1  0  0  0  0
  7 11  2  0  0  0  0
  8 10  1  0  0  0  0
  8 12  2  0  0  0  0
  9 14  2  0  0  0  0
  9 19  1  0  0  0  0
 10 13  2  0  0  0  0
 11 17  1  0  0  0  0
 12 15  1  0  0  0  0
 13 16  1  0  0  0  0
 13 20  1  0  0  0  0
 14 18  1  0  0  0  0
 15 16  2  0  0  0  0
 15 23  1  0  0  0  0
 16 24  1  0  0  0  0
 17 18  2  0  0  0  0
 17 25  1  0  0  0  0
 18 26  1  0  0  0  0
 19 21  1  0  0  0  0
 20 22  1  0  0  0  0
 21 27  1  0  0  0  0
 21 28  1  0  0  0  0
 21 29  1  0  0  0  0
 22 31  1  0  0  0  0
 22 32  1  0  0  0  0
 22 33  1  0  0  0  0
M  END
> <PUBCHEM_COMPOUND_CID>
10063465

> <PUBCHEM_CONFORMER_RMSD>
0.6

> <PUBCHEM_CONFORMER_DIVERSEORDER>
3
6
16
11
14
12
4
7
15
9
13
1
8
2
10
5

> <PUBCHEM_MMFF94_PARTIAL_CHARGES>
28
1 -0.53
10 0.08
11 0.08
12 0.08
13 0.09
14 0.08
15 -0.15
16 -0.15
17 -0.15
18 -0.15
19 0.42
2 -0.53
20 0.42
21 0.06
22 0.06
23 0.15
24 0.15
25 0.15
26 0.15
3 -0.53
30 0.45
34 0.45
35 0.45
36 0.45
4 -0.53
5 -0.57
6 -0.57
9 0.09

> <PUBCHEM_EFFECTIVE_ROTOR_COUNT>
3

> <PUBCHEM_PHARMACOPHORE_FEATURES>
8
1 1 donor
1 2 donor
1 3 donor
1 4 donor
1 5 acceptor
1 6 acceptor
6 7 9 11 14 17 18 rings
6 8 10 12 13 15 16 rings

> <PUBCHEM_HEAVY_ATOM_COUNT>
22

> <PUBCHEM_ATOM_DEF_STEREO_COUNT>
0

> <PUBCHEM_ATOM_UDEF_STEREO_COUNT>
0

> <PUBCHEM_BOND_DEF_STEREO_COUNT>
0

> <PUBCHEM_BOND_UDEF_STEREO_COUNT>
0

> <PUBCHEM_ISOTOPIC_ATOM_COUNT>
0

> <PUBCHEM_COMPONENT_COUNT>
1

> <PUBCHEM_CACTVS_TAUTO_COUNT>
480

> <PUBCHEM_CONFORMER_ID>
00998E6900000003

> <PUBCHEM_MMFF94_ENERGY>
79.7544

> <PUBCHEM_FEATURE_SELFOVERLAP>
40.598

> <PUBCHEM_SHAPE_FINGERPRINT>
10863032 1 18190170205042771631
11315181 36 18202006483088336158
11370993 70 18334576802861440710
11582403 64 16185993638516899401
11640471 11 16732986388294759916
12236239 1 17022895718707444613
12363563 72 17203052885547272598
12714826 92 18337969981232529618
13538477 17 17385715937068860363
13911987 19 17561083635885905564
15375462 175 18261662706170563433
16752209 62 17968642887654641407
16945 1 17821726147908634521
17357779 13 17346598539279347656
17780758 139 12030115560627341486
18186145 218 18272080570190691289
19862831 5 17095241432125979110
200 152 15697991920935188381
20645476 183 16950561090889463155
20871999 31 18333731316673167605
20905425 154 18194387910541745399
21756936 100 16588607300612625380
23175994 123 17561083600777054544
23402539 116 18334289846968000605
23419403 2 17988082334368530194
23493267 7 17894634742440067171
23526113 38 17916578722698381278
23557571 272 18336537335057020272
23559900 14 18411131412531232454
23598291 2 16733810987703241704
2748010 2 17829322832980501651
298252 57 17749954349442163625
3286 77 17489305351728264167
474 4 15574438734613195636
57527295 17 17558532630927030341
57527585 103 17039277166462593595
77492 1 16950831527626182161
90525 40 17531238427198506483

> <PUBCHEM_SHAPE_MULTIPOLES>
417.53
6.88
2.22
1.91
4.17
0.58
-0.76
1.05
2.82
-1.96
-0.02
1.04
-0.31
1.32

> <PUBCHEM_SHAPE_SELFOVERLAP>
916.364

> <PUBCHEM_SHAPE_VOLUME>
226.2

> <PUBCHEM_COORDINATE_TYPE>
2
5
10

$$$$
