100669
  -OEChem-03292013323D

 43 45  0     0  0  0  0  0  0999 V2000
    6.2450    0.3504    0.0775 O   0  0  0  0  0  0  0  0  0  0  0  0
    4.9843   -1.5364   -0.2076 O   0  0  0  0  0  0  0  0  0  0  0  0
   -0.5095    2.1950    0.2988 N   0  0  0  0  0  0  0  0  0  0  0  0
   -1.4267   -0.4528   -0.0291 N   0  0  0  0  0  0  0  0  0  0  0  0
    2.2211   -0.9551   -0.1417 N   0  0  0  0  0  0  0  0  0  0  0  0
    4.0078    0.5732    0.0951 N   0  0  0  0  0  0  0  0  0  0  0  0
    0.4224   -2.4798   -0.3655 N   0  0  0  0  0  0  0  0  0  0  0  0
   -1.8858    1.9849   -0.0962 C   0  0  0  0  0  0  0  0  0  0  0  0
   -2.2902    0.5191   -0.0288 C   0  0  0  0  0  0  0  0  0  0  0  0
    0.3998    1.1641    0.1440 C   0  0  0  0  0  0  0  0  0  0  0  0
   -0.0601   -0.1426   -0.0345 C   0  0  0  0  0  0  0  0  0  0  0  0
   -3.7477    0.1888   -0.0054 C   0  0  0  0  0  0  0  0  0  0  0  0
    1.7748    1.3948    0.2012 C   0  0  0  0  0  0  0  0  0  0  0  0
    0.8847   -1.1529   -0.1727 C   0  0  0  0  0  0  0  0  0  0  0  0
    2.6323    0.3164    0.0487 C   0  0  0  0  0  0  0  0  0  0  0  0
   -4.6574    1.0284   -0.6414 C   0  0  0  0  0  0  0  0  0  0  0  0
   -4.1864   -0.9569    0.6523 C   0  0  0  0  0  0  0  0  0  0  0  0
   -6.4622   -0.4272    0.0381 C   0  0  0  0  0  0  0  0  0  0  0  0
   -6.0175    0.7198   -0.6196 C   0  0  0  0  0  0  0  0  0  0  0  0
   -5.5465   -1.2656    0.6742 C   0  0  0  0  0  0  0  0  0  0  0  0
   -7.9167   -0.7566    0.0620 C   0  0  0  0  0  0  0  0  0  0  0  0
    5.0594   -0.3267   -0.0300 C   0  0  0  0  0  0  0  0  0  0  0  0
    7.4335   -0.4418   -0.0300 C   0  0  0  0  0  0  0  0  0  0  0  0
    8.6414    0.4598    0.1106 C   0  0  0  0  0  0  0  0  0  0  0  0
   -2.0094    2.3252   -1.1305 H   0  0  0  0  0  0  0  0  0  0  0  0
   -2.5383    2.5827    0.5480 H   0  0  0  0  0  0  0  0  0  0  0  0
   -0.1672    3.1431    0.4002 H   0  0  0  0  0  0  0  0  0  0  0  0
    2.1559    2.4008    0.3540 H   0  0  0  0  0  0  0  0  0  0  0  0
   -4.3396    1.9212   -1.1713 H   0  0  0  0  0  0  0  0  0  0  0  0
   -3.4906   -1.6198    1.1595 H   0  0  0  0  0  0  0  0  0  0  0  0
   -6.7209    1.3784   -1.1222 H   0  0  0  0  0  0  0  0  0  0  0  0
   -5.8806   -2.1622    1.1897 H   0  0  0  0  0  0  0  0  0  0  0  0
    4.2766    1.5436    0.2393 H   0  0  0  0  0  0  0  0  0  0  0  0
   -0.4835   -2.7305    0.0110 H   0  0  0  0  0  0  0  0  0  0  0  0
    1.1245   -3.2036   -0.4562 H   0  0  0  0  0  0  0  0  0  0  0  0
   -8.5280    0.1518    0.0352 H   0  0  0  0  0  0  0  0  0  0  0  0
   -8.1750   -1.3790   -0.8005 H   0  0  0  0  0  0  0  0  0  0  0  0
   -8.1848   -1.2959    0.9769 H   0  0  0  0  0  0  0  0  0  0  0  0
    7.4412   -1.1973    0.7635 H   0  0  0  0  0  0  0  0  0  0  0  0
    7.4538   -0.9382   -1.0065 H   0  0  0  0  0  0  0  0  0  0  0  0
    9.5691   -0.1142    0.0332 H   0  0  0  0  0  0  0  0  0  0  0  0
    8.6378    1.2326   -0.6652 H   0  0  0  0  0  0  0  0  0  0  0  0
    8.6254    0.9778    1.0753 H   0  0  0  0  0  0  0  0  0  0  0  0
  1 22  1  0  0  0  0
  1 23  1  0  0  0  0
  2 22  2  0  0  0  0
  3  8  1  0  0  0  0
  3 10  1  0  0  0  0
  3 27  1  0  0  0  0
  4  9  2  0  0  0  0
  4 11  1  0  0  0  0
  5 14  1  0  0  0  0
  5 15  2  0  0  0  0
  6 15  1  0  0  0  0
  6 22  1  0  0  0  0
  6 33  1  0  0  0  0
  7 14  1  0  0  0  0
  7 34  1  0  0  0  0
  7 35  1  0  0  0  0
  8  9  1  0  0  0  0
  8 25  1  0  0  0  0
  8 26  1  0  0  0  0
  9 12  1  0  0  0  0
 10 11  1  0  0  0  0
 10 13  2  0  0  0  0
 11 14  2  0  0  0  0
 12 16  2  0  0  0  0
 12 17  1  0  0  0  0
 13 15  1  0  0  0  0
 13 28  1  0  0  0  0
 16 19  1  0  0  0  0
 16 29  1  0  0  0  0
 17 20  2  0  0  0  0
 17 30  1  0  0  0  0
 18 19  2  0  0  0  0
 18 20  1  0  0  0  0
 18 21  1  0  0  0  0
 19 31  1  0  0  0  0
 20 32  1  0  0  0  0
 21 36  1  0  0  0  0
 21 37  1  0  0  0  0
 21 38  1  0  0  0  0
 23 24  1  0  0  0  0
 23 39  1  0  0  0  0
 23 40  1  0  0  0  0
 24 41  1  0  0  0  0
 24 42  1  0  0  0  0
 24 43  1  0  0  0  0
M  END
> <PUBCHEM_COMPOUND_CID>
100669

> <PUBCHEM_CONFORMER_RMSD>
0.8

> <PUBCHEM_CONFORMER_DIVERSEORDER>
1
8
6
5
10
12
2
4
9
11
3
7

> <PUBCHEM_MMFF94_PARTIAL_CHARGES>
32
1 -0.43
10 0.1
11 0.18
12 0.09
13 -0.15
14 0.41
15 0.43
16 -0.15
17 -0.15
18 -0.14
19 -0.15
2 -0.57
20 -0.15
21 0.14
22 0.78
23 0.28
27 0.4
28 0.15
29 0.15
3 -0.87
30 0.15
31 0.15
32 0.15
33 0.37
34 0.4
35 0.4
4 -0.63
5 -0.62
6 -0.55
7 -0.9
8 0.43
9 0.3

> <PUBCHEM_EFFECTIVE_ROTOR_COUNT>
5.4

> <PUBCHEM_PHARMACOPHORE_FEATURES>
10
1 2 acceptor
1 3 cation
1 3 donor
1 4 acceptor
1 6 donor
1 7 cation
1 7 donor
6 12 16 17 18 19 20 rings
6 3 4 8 9 10 11 rings
6 5 10 11 13 14 15 rings

> <PUBCHEM_HEAVY_ATOM_COUNT>
24

> <PUBCHEM_ATOM_DEF_STEREO_COUNT>
0

> <PUBCHEM_ATOM_UDEF_STEREO_COUNT>
0

> <PUBCHEM_BOND_DEF_STEREO_COUNT>
0

> <PUBCHEM_BOND_UDEF_STEREO_COUNT>
0

> <PUBCHEM_ISOTOPIC_ATOM_COUNT>
0

> <PUBCHEM_COMPONENT_COUNT>
1

> <PUBCHEM_CACTVS_TAUTO_COUNT>
39

> <PUBCHEM_CONFORMER_ID>
0001893D00000001

> <PUBCHEM_MMFF94_ENERGY>
79.9316

> <PUBCHEM_FEATURE_SELFOVERLAP>
50.778

> <PUBCHEM_SHAPE_FINGERPRINT>
10 15 18410284853403567344
10050765 1 18050849923035844130
11315181 36 18341896290654125801
11524674 6 17132113559001307839
11719270 70 18411413986366229098
11963148 33 18409160034890564307
12166972 35 17894353288843631124
12236239 1 17821728326042485952
12516196 113 18273213101695960929
12838862 33 18340187648798311743
13288520 33 18335421275278552277
13402501 40 18408324393705615963
13533116 47 13973693780834184958
13862211 1 18412825780701993031
14123256 10 18410575084668353670
14251764 18 18413671301539602736
14251764 46 18410573989451693187
15849732 13 18334295379550425116
15927050 60 17695062597299328748
18006028 8 18273214205165056273
18335252 98 18411702076182971054
18681886 176 18408879667814014248
200 152 18131067122161033105
21150785 3 16950564389371436484
21236236 1 18271246015222421897
21267235 1 18411422821561765209
21365058 27 16128375977914876574
21521721 280 17917427661702321784
21792934 111 18342730836658856456
22224240 67 17060616711418969862
23035841 295 18259704497678982409
23402539 116 18040151820979180397
23559900 14 18335133216090798137
249057 3 16225771847400466510
283562 15 18340491045325518648
3004659 81 17967811669290372521
3178227 256 18340777008590156043
335352 9 18411981394400082887
34797466 226 17632864140509684348
350125 39 18411699881027687720
4325135 7 18186802486778682686
474229 33 18412263926260663838
5104073 3 18199745843577692304
59682541 35 18342454876720067706
59755656 215 18409732837371628190
59755656 520 17385438855891809707
67123 10 18260548940232147060
8209 1 18410011039498271884

> <PUBCHEM_SHAPE_MULTIPOLES>
457.27
21.41
1.74
0.68
17.7
0.04
0.01
-3.65
0.15
-0.48
-0.02
-0.38
-0.01
0.76

> <PUBCHEM_SHAPE_SELFOVERLAP>
984.098

> <PUBCHEM_SHAPE_VOLUME>
250.5

> <PUBCHEM_COORDINATE_TYPE>
2
5
10

$$$$
