REMARK  Name = 100652
REMARK  5 active torsions:
REMARK  status: ('A' for Active; 'I' for Inactive)
REMARK    1  A    between atoms: C_2  and  C_18
REMARK    2  A    between atoms: C_3  and  O_16
REMARK    3  A    between atoms: C_5  and  N_8
REMARK    4  A    between atoms: C_18  and  N_20
REMARK    5  A    between atoms: C_21  and  C_24
REMARK                            x       y       z     vdW  Elec       q    Type
REMARK                         _______ _______ _______ _____ _____    ______ ____
ROOT
ATOM      1  O   UNL     1       0.427  -1.022   0.816  0.00  0.00    -0.335 OA
ATOM      2  C   UNL     1       1.481  -1.557  -0.009  0.00  0.00    +0.163 C 
ATOM      3  C   UNL     1       0.865  -2.707  -0.794  0.00  0.00    +0.143 C 
ATOM      4  C   UNL     1      -0.583  -2.296  -0.923  0.00  0.00    +0.083 C 
ATOM      5  C   UNL     1      -0.832  -1.554   0.379  0.00  0.00    +0.202 C 
ENDROOT
BRANCH   5   8
ATOM      6  O   UNL     1      -3.632  -1.755   0.858  0.00  0.00    -0.252 OA
ATOM      7  O   UNL     1      -4.303   2.667  -0.215  0.00  0.00    -0.270 OA
ATOM      8  N   UNL     1      -1.775  -0.483   0.238  0.00  0.00    -0.219 N 
ATOM      9  N   UNL     1      -3.953   0.452   0.320  0.00  0.00    -0.236 N 
ATOM     10  C   UNL     1      -1.308   0.762  -0.164  0.00  0.00    +0.071 C 
ATOM     11  C   UNL     1      -3.148  -0.679   0.498  0.00  0.00    +0.315 C 
ATOM     12  C   UNL     1      -2.080   1.842  -0.334  0.00  0.00    +0.047 C 
ATOM     13  C   UNL     1      -3.540   1.714  -0.078  0.00  0.00    +0.250 C 
ATOM     14  C   UNL     1      -1.557   3.174  -0.768  0.00  0.00    +0.037 C 
ATOM     15  H   UNL     1      -4.915   0.339   0.495  0.00  0.00    +0.159 HD
ENDBRANCH   5   8
BRANCH   3  16
ATOM     16  O   UNL     1       0.957  -3.914  -0.040  0.00  0.00    -0.382 OA
ATOM     17  H   UNL     1       1.888  -4.174   0.041  0.00  0.00    +0.210 HD
ENDBRANCH   3  16
BRANCH   2  18
ATOM     18  C   UNL     1       1.991  -0.434  -0.903  0.00  0.00    +0.122 C 
BRANCH  18  20
ATOM     19  O   UNL     1       4.734  -0.184  -0.087  0.00  0.00    -0.274 OA
ATOM     20  N   UNL     1       2.560   0.632  -0.130  0.00  0.00    -0.301 N 
ATOM     21  C   UNL     1       3.904   0.670   0.220  0.00  0.00    +0.239 C 
ATOM     22  H   UNL     1       1.974   1.366   0.165  0.00  0.00    +0.150 HD
BRANCH  21  24
ATOM     23 CL   UNL     1       5.513   2.779   0.103  0.00  0.00    -0.103 Cl
ATOM     24  C   UNL     1       4.280   1.894   1.015  0.00  0.00    +0.179 C 
ENDBRANCH  21  24
ENDBRANCH  18  20
ENDBRANCH   2  18
TORSDOF 5
