10067740
  -OEChem-03292013303D

 52 53  0     1  0  0  0  0  0999 V2000
   -3.8914    1.5762   -1.0824 O   0  0  0  0  0  0  0  0  0  0  0  0
    1.0987   -1.2531    0.5711 O   0  0  0  0  0  0  0  0  0  0  0  0
   -1.2170    2.1869   -1.9299 O   0  0  0  0  0  0  0  0  0  0  0  0
    4.5218   -2.9767    0.9452 O   0  0  0  0  0  0  0  0  0  0  0  0
   -4.3511   -1.6141    0.1686 O   0  0  0  0  0  0  0  0  0  0  0  0
    4.5569   -0.7634    1.4895 O   0  0  0  0  0  0  0  0  0  0  0  0
   -5.9697    0.0376    0.1828 O   0  0  0  0  0  0  0  0  0  0  0  0
    2.8515   -0.2789   -0.5844 N   0  0  0  0  0  0  0  0  0  0  0  0
   -0.5796    0.5721   -0.3757 N   0  0  0  0  0  0  0  0  0  0  0  0
    3.6880   -1.4699   -0.6531 C   0  0  1  0  0  0  0  0  0  0  0  0
    0.7848    0.9772   -0.2011 C   0  0  1  0  0  0  0  0  0  0  0  0
    4.7423   -1.1426   -1.7042 C   0  0  0  0  0  0  0  0  0  0  0  0
    3.4608    0.8352   -1.3063 C   0  0  0  0  0  0  0  0  0  0  0  0
    4.8787    0.3751   -1.6094 C   0  0  0  0  0  0  0  0  0  0  0  0
    1.0145    1.9484    0.9701 C   0  0  2  0  0  0  0  0  0  0  0  0
    1.5801   -0.2927   -0.0323 C   0  0  0  0  0  0  0  0  0  0  0  0
   -2.8367    0.6207   -1.2540 C   0  0  2  0  0  0  0  0  0  0  0  0
   -3.7029    0.6236   -0.0280 C   0  0  2  0  0  0  0  0  0  0  0  0
    0.2077    1.5688    2.2320 C   0  0  0  0  0  0  0  0  0  0  0  0
   -1.4671    1.2139   -1.2283 C   0  0  0  0  0  0  0  0  0  0  0  0
    0.7064    3.3813    0.5157 C   0  0  0  0  0  0  0  0  0  0  0  0
    4.2957   -1.6621    0.7037 C   0  0  0  0  0  0  0  0  0  0  0  0
   -4.8061   -0.3323    0.1186 C   0  0  0  0  0  0  0  0  0  0  0  0
    0.4931    2.4674    3.4288 C   0  0  0  0  0  0  0  0  0  0  0  0
   -5.3604   -2.6187    0.3119 C   0  0  0  0  0  0  0  0  0  0  0  0
   -4.6991   -3.9799    0.3513 C   0  0  0  0  0  0  0  0  0  0  0  0
    3.0719   -2.3372   -0.9133 H   0  0  0  0  0  0  0  0  0  0  0  0
    1.0773    1.4602   -1.1375 H   0  0  0  0  0  0  0  0  0  0  0  0
    5.6963   -1.6544   -1.5455 H   0  0  0  0  0  0  0  0  0  0  0  0
    4.3688   -1.4106   -2.7000 H   0  0  0  0  0  0  0  0  0  0  0  0
    2.9023    0.9855   -2.2367 H   0  0  0  0  0  0  0  0  0  0  0  0
    3.4358    1.7540   -0.7154 H   0  0  0  0  0  0  0  0  0  0  0  0
    5.2803    0.8241   -2.5222 H   0  0  0  0  0  0  0  0  0  0  0  0
    5.5459    0.6390   -0.7803 H   0  0  0  0  0  0  0  0  0  0  0  0
    2.0792    1.9252    1.2387 H   0  0  0  0  0  0  0  0  0  0  0  0
   -2.9936   -0.1475   -2.0023 H   0  0  0  0  0  0  0  0  0  0  0  0
   -3.2888    1.0041    0.8983 H   0  0  0  0  0  0  0  0  0  0  0  0
   -0.9190   -0.2202    0.1636 H   0  0  0  0  0  0  0  0  0  0  0  0
   -0.8687    1.6054    2.0272 H   0  0  0  0  0  0  0  0  0  0  0  0
    0.4442    0.5373    2.5177 H   0  0  0  0  0  0  0  0  0  0  0  0
    1.2246    3.6202   -0.4193 H   0  0  0  0  0  0  0  0  0  0  0  0
    1.0447    4.1111    1.2580 H   0  0  0  0  0  0  0  0  0  0  0  0
   -0.3668    3.5323    0.3621 H   0  0  0  0  0  0  0  0  0  0  0  0
    1.5658    2.5102    3.6419 H   0  0  0  0  0  0  0  0  0  0  0  0
    0.1281    3.4853    3.2651 H   0  0  0  0  0  0  0  0  0  0  0  0
   -0.0129    2.0770    4.3179 H   0  0  0  0  0  0  0  0  0  0  0  0
    4.9212   -3.1234    1.8290 H   0  0  0  0  0  0  0  0  0  0  0  0
   -6.0503   -2.5667   -0.5378 H   0  0  0  0  0  0  0  0  0  0  0  0
   -5.9148   -2.4492    1.2416 H   0  0  0  0  0  0  0  0  0  0  0  0
   -5.4435   -4.7734    0.4603 H   0  0  0  0  0  0  0  0  0  0  0  0
   -3.9923   -4.0409    1.1855 H   0  0  0  0  0  0  0  0  0  0  0  0
   -4.1255   -4.1562   -0.5647 H   0  0  0  0  0  0  0  0  0  0  0  0
  1 17  1  0  0  0  0
  1 18  1  0  0  0  0
  2 16  2  0  0  0  0
  3 20  2  0  0  0  0
  4 22  1  0  0  0  0
  4 47  1  0  0  0  0
  5 23  1  0  0  0  0
  5 25  1  0  0  0  0
  6 22  2  0  0  0  0
  7 23  2  0  0  0  0
  8 10  1  0  0  0  0
  8 13  1  0  0  0  0
  8 16  1  0  0  0  0
  9 11  1  0  0  0  0
  9 20  1  0  0  0  0
  9 38  1  0  0  0  0
 10 12  1  0  0  0  0
 10 22  1  0  0  0  0
 10 27  1  0  0  0  0
 11 15  1  0  0  0  0
 11 16  1  0  0  0  0
 11 28  1  0  0  0  0
 12 14  1  0  0  0  0
 12 29  1  0  0  0  0
 12 30  1  0  0  0  0
 13 14  1  0  0  0  0
 13 31  1  0  0  0  0
 13 32  1  0  0  0  0
 14 33  1  0  0  0  0
 14 34  1  0  0  0  0
 15 19  1  0  0  0  0
 15 21  1  0  0  0  0
 15 35  1  0  0  0  0
 17 18  1  0  0  0  0
 17 20  1  0  0  0  0
 17 36  1  0  0  0  0
 18 23  1  0  0  0  0
 18 37  1  0  0  0  0
 19 24  1  0  0  0  0
 19 39  1  0  0  0  0
 19 40  1  0  0  0  0
 21 41  1  0  0  0  0
 21 42  1  0  0  0  0
 21 43  1  0  0  0  0
 24 44  1  0  0  0  0
 24 45  1  0  0  0  0
 24 46  1  0  0  0  0
 25 26  1  0  0  0  0
 25 48  1  0  0  0  0
 25 49  1  0  0  0  0
 26 50  1  0  0  0  0
 26 51  1  0  0  0  0
 26 52  1  0  0  0  0
M  END
> <PUBCHEM_COMPOUND_CID>
10067740

> <PUBCHEM_CONFORMER_RMSD>
1

> <PUBCHEM_CONFORMER_DIVERSEORDER>
1
346
50
270
191
72
249
338
165
186
297
170
356
227
281
27
117
164
188
94
322
274
23
141
214
125
283
155
116
210
14
134
190
75
271
172
316
231
234
225
377
177
303
73
138
229
262
130
296
30
357
157
223
108
187
127
86
124
32
146
156
143
330
133
60
162
319
91
381
142
358
255
218
121
259
279
151
284
46
15
290
149
111
312
179
104
351
327
139
215
252
217
93
194
100
148
230
185
212
17
268
163
339
7
349
305
171
267
366
300
318
354
178
205
112
240
207
202
147
337
31
95
325
254
201
246
166
241
355
81
263
216
51
302
102
307
42
276
135
272
114
11
136
348
140
92
128
150
189
53
335
236
38
326
193
97
107
287
180
345
41
375
101
219
47
380
235
195
88
16
110
103
20
129
85
168
89
3
154
198
35
340
8
245
28
247
40
323
44
98
286
360
71
80
324
288
213
220
175
204
145
243
328
342
19
109
55
49
317
269
99
152
96
350
251
250
25
298
54
285
261
79
373
158
161
126
183
222
119
382
334
13
123
371
68
48
115
341
344
275
118
226
237
67
367
277
176
37
24
29
242
184
343
266
74
315
362
174
365
82
260
78
106
291
203
347
378
181
374
233
294
34
211
62
6
57
159
90
379
64
113
313
36
9
52
65
331
21
273
336
314
122
363
45
306
58
197
321
311
293
76
5
359
257
4
10
278
59
173
70
292
238
144
199
239
61
209
56
105
208
12
304
167
69
169
43
253
329
120
206
280
232
131
264
295
299
228
87
376
39
196
370
132
372
256
137
301
308
282
182
310
258
63
84
309
265
364
332
33
289
221
18
352
320
361
77
224
369
192
368
333
248
160
26
2
22
244
353
66
153
200
83

> <PUBCHEM_MMFF94_PARTIAL_CHARGES>
23
1 -0.3
10 0.36
11 0.36
13 0.3
16 0.57
17 0.05
18 0.05
2 -0.57
20 0.63
22 0.66
23 0.72
25 0.28
3 -0.57
36 0.1
37 0.1
38 0.37
4 -0.65
47 0.5
5 -0.43
6 -0.57
7 -0.57
8 -0.66
9 -0.73

> <PUBCHEM_EFFECTIVE_ROTOR_COUNT>
12.6

> <PUBCHEM_PHARMACOPHORE_FEATURES>
11
1 1 acceptor
1 2 acceptor
1 21 hydrophobe
1 24 hydrophobe
1 3 acceptor
1 4 acceptor
1 6 acceptor
1 7 acceptor
1 9 donor
3 4 6 22 anion
5 8 10 12 13 14 rings

> <PUBCHEM_HEAVY_ATOM_COUNT>
26

> <PUBCHEM_ATOM_DEF_STEREO_COUNT>
0

> <PUBCHEM_ATOM_UDEF_STEREO_COUNT>
5

> <PUBCHEM_BOND_DEF_STEREO_COUNT>
0

> <PUBCHEM_BOND_UDEF_STEREO_COUNT>
0

> <PUBCHEM_ISOTOPIC_ATOM_COUNT>
0

> <PUBCHEM_COMPONENT_COUNT>
1

> <PUBCHEM_CACTVS_TAUTO_COUNT>
2

> <PUBCHEM_CONFORMER_ID>
00999F1C00000001

> <PUBCHEM_MMFF94_ENERGY>
44.3518

> <PUBCHEM_FEATURE_SELFOVERLAP>
55.885

> <PUBCHEM_SHAPE_FINGERPRINT>
10764073 3 11526852689839819512
11135609 99 18263918857530957286
11796584 16 18336547105743199662
12553582 1 17489582329726744252
12596602 18 14836112261346229487
12633257 1 16844461599470756223
12788726 201 17703520887317932048
13103583 49 17988103144228858395
14251732 17 9799422091653584477
14251751 18 18334566945489379714
14251764 30 18271536333209481431
14950920 106 17344648152234897771
14955137 171 17632587062466128949
15163728 17 9799414472497522257
17980427 23 12894770559490911265
1813 80 16988555780265571920
18785283 64 18056467589819827336
20197701 30 12468642750365995784
20642791 268 15050860106407525552
20775530 9 18267307723839017419
21033648 29 15194998281158704035
21049683 118 15976088927253038449
21344244 181 16298964060392547825
22849341 161 16415491470693025049
22950370 63 18335708230127111389
23557571 272 16987142835400032576
23559900 14 18337948004718358173
2838139 119 8502375477812822463
314173 85 17060049299005187620
316301 35 18336541741672282339
329604 57 18334579027121217204
3472631 163 10015321100410999507
437795 51 17772757306449833448
513202 73 16413258250954965292
633830 44 15502662533520565844
6371380 46 18341324489058184193
6823239 73 18262789778925634065
7495541 125 18410012169116979348
8863177 126 18341051934132396423

> <PUBCHEM_SHAPE_MULTIPOLES>
484.02
12.53
3.66
2.09
8.58
1.09
1.08
11.83
-1.46
1.85
1.89
-1.46
-1.59
1.07

> <PUBCHEM_SHAPE_SELFOVERLAP>
981.291

> <PUBCHEM_SHAPE_VOLUME>
282.6

> <PUBCHEM_COORDINATE_TYPE>
2
5
10

$$$$
