REMARK  Name = 100666
REMARK  7 active torsions:
REMARK  status: ('A' for Active; 'I' for Inactive)
REMARK    1  A    between atoms: S_1  and  C_4
REMARK    2  A    between atoms: S_1  and  N_14
REMARK    3  A    between atoms: C_6  and  O_10
REMARK    4  A    between atoms: C_8  and  O_12
REMARK    5  A    between atoms: N_14  and  N_15
REMARK    6  A    between atoms: N_15  and  C_19
REMARK    7  A    between atoms: N_16  and  O_23
REMARK                            x       y       z     vdW  Elec       q    Type
REMARK                         _______ _______ _______ _____ _____    ______ ____
ROOT
ATOM      1  S   UNL     1      -0.398  -1.084  -0.701  0.00  0.00    +0.095 S 
ATOM      2  O   UNL     1      -0.223  -2.479  -0.338  0.00  0.00    -0.150 OA
ATOM      3  O   UNL     1      -0.342  -0.676  -2.094  0.00  0.00    -0.150 OA
ENDROOT
BRANCH   1   4
ATOM      4  C   UNL     1      -2.004  -0.643  -0.101  0.00  0.00    +0.128 C 
ATOM      5  C   UNL     1      -2.693   0.386  -0.716  0.00  0.00    +0.060 C 
ATOM      6  C   UNL     1      -3.958   0.733  -0.242  0.00  0.00    +0.174 C 
ATOM      7  C   UNL     1      -2.535  -1.337   0.972  0.00  0.00    +0.023 C 
ATOM      8  C   UNL     1      -4.512   0.046   0.839  0.00  0.00    +0.172 C 
ATOM      9  C   UNL     1      -3.800  -0.989   1.445  0.00  0.00    +0.041 C 
BRANCH   6  10
ATOM     10  O   UNL     1      -4.644   1.746  -0.842  0.00  0.00    -0.468 OA
ATOM     11  C   UNL     1      -4.008   2.397  -1.940  0.00  0.00    +0.253 C 
ENDBRANCH   6  10
BRANCH   8  12
ATOM     12  O   UNL     1      -5.746   0.377   1.311  0.00  0.00    -0.468 OA
ATOM     13  C   UNL     1      -6.862  -0.298   0.736  0.00  0.00    +0.253 C 
ENDBRANCH   8  12
ENDBRANCH   1   4
BRANCH   1  14
ATOM     14  N   UNL     1       0.603  -0.134   0.174  0.00  0.00    +0.038 NA
BRANCH  14  15
ATOM     15  N   UNL     1       1.805  -0.304  -0.112  0.00  0.00    -0.123 NA
BRANCH  15  19
ATOM     16  N   UNL     1       4.714  -0.354  -0.433  0.00  0.00    -0.219 N 
ATOM     17  C   UNL     1       4.001   0.456   0.463  0.00  0.00    +0.105 C 
ATOM     18  C   UNL     1       4.814   1.350   1.304  0.00  0.00    +0.021 C 
ATOM     19  C   UNL     1       2.664   0.470   0.602  0.00  0.00    +0.123 C 
ATOM     20  C   UNL     1       6.096  -0.308  -0.512  0.00  0.00    +0.105 C 
ATOM     21  C   UNL     1       6.157   1.369   1.201  0.00  0.00    +0.003 C 
ATOM     22  C   UNL     1       6.837   0.507   0.255  0.00  0.00    +0.021 C 
BRANCH  16  23
ATOM     23  O   UNL     1       4.034  -1.232  -1.270  0.00  0.00    -0.282 OA
ATOM     24  H   UNL     1       3.080  -1.159  -1.109  0.00  0.00    +0.245 HD
ENDBRANCH  16  23
ENDBRANCH  15  19
ENDBRANCH  14  15
ENDBRANCH   1  14
TORSDOF 7
