REMARK  Name = 10065192
REMARK  4 active torsions:
REMARK  status: ('A' for Active; 'I' for Inactive)
REMARK    1  A    between atoms: N_2  and  C1*_12
REMARK    2  A    between atoms: C3*_13  and  O3*_16
REMARK    3  A    between atoms: C4*_15  and  C5*_18
REMARK    4  A    between atoms: C5*_18  and  O5*_19
REMARK                            x       y       z     vdW  Elec       q    Type
REMARK                         _______ _______ _______ _____ _____    ______ ____
ROOT
ATOM      1 BR   UNL     1       1.629   3.555   0.313  0.00  0.00    +0.062 Br
ATOM      2  N   UNL     1       0.001  -1.357  -0.221  0.00  0.00    -0.238 N 
ATOM      3  N   UNL     1       2.011  -2.327  -0.182  0.00  0.00    -0.240 NA
ATOM      4  N   UNL     1       0.661   0.969   0.025  0.00  0.00    -0.317 NA
ATOM      5  N   UNL     1       3.086   1.192   0.194  0.00  0.00    -0.318 NA
ATOM      6  C   UNL     1       0.911  -0.345  -0.076  0.00  0.00    +0.221 C 
ATOM      7  C   UNL     1       0.713  -2.527  -0.280  0.00  0.00    +0.224 C 
ATOM      8  C   UNL     1       2.149  -0.968  -0.054  0.00  0.00    +0.167 C 
ATOM      9  C   UNL     1       3.263  -0.147   0.087  0.00  0.00    +0.211 C 
ATOM     10  C   UNL     1       1.815   1.659   0.157  0.00  0.00    +0.178 C 
ATOM     11  N   UNL     1       4.558  -0.693   0.119  0.00  0.00    -0.331 N 
ATOM     12  H   UNL     1       5.339  -0.102   0.219  0.00  0.00    +0.145 HD
ATOM     13  H   UNL     1       4.684  -1.667   0.041  0.00  0.00    +0.145 HD
ENDROOT
BRANCH   2  15
ATOM     14  O4* UNL     1      -1.799   0.000  -0.962  0.00  0.00    -0.335 OA
ATOM     15  C1* UNL     1      -1.450  -1.227  -0.299  0.00  0.00    +0.198 C 
ATOM     16  C3* UNL     1      -3.416  -0.449   0.730  0.00  0.00    +0.144 C 
ATOM     17  C2* UNL     1      -2.150  -1.209   1.053  0.00  0.00    +0.083 C 
ATOM     18  C4* UNL     1      -2.957   0.566  -0.312  0.00  0.00    +0.173 C 
BRANCH  16  19
ATOM     19  O3* UNL     1      -4.346  -1.354   0.138  0.00  0.00    -0.382 OA
ATOM     20  H3* UNL     1      -4.637  -1.998   0.802  0.00  0.00    +0.210 HD
ENDBRANCH  16  19
BRANCH  18  21
ATOM     21  C5* UNL     1      -2.549   1.896   0.304  0.00  0.00    +0.169 C 
BRANCH  21  22
ATOM     22  O5* UNL     1      -2.129   2.767  -0.732  0.00  0.00    -0.379 OA
ATOM     23  H5* UNL     1      -1.866   3.619  -0.352  0.00  0.00    +0.211 HD
ENDBRANCH  21  22
ENDBRANCH  18  21
ENDBRANCH   2  15
TORSDOF 4
