REMARK  Name = 10066017
REMARK  11 active torsions:
REMARK  status: ('A' for Active; 'I' for Inactive)
REMARK    1  A    between atoms: C_1  and  N_4
REMARK    2  A    between atoms: C_1  and  C_15
REMARK    3  A    between atoms: C_15  and  C_16
REMARK    4  A    between atoms: C_16  and  C_17
REMARK    5  A    between atoms: C_17  and  C_18
REMARK    6  A    between atoms: C_18  and  C_19
REMARK    7  A    between atoms: C_19  and  C_20
REMARK    8  A    between atoms: C_20  and  C_21
REMARK    9  A    between atoms: C_21  and  P_22
REMARK   10  A    between atoms: P_22  and  O_24
REMARK   11  A    between atoms: P_22  and  O_26
REMARK                            x       y       z     vdW  Elec       q    Type
REMARK                         _______ _______ _______ _____ _____    ______ ____
ROOT
ATOM      1  C   UNL     1      -1.903  -1.014   1.173  0.00  0.00    +0.097 C 
ENDROOT
BRANCH   1   4
ATOM      2  O   UNL     1      -7.304  -0.208  -1.248  0.00  0.00    -0.267 OA
ATOM      3  O   UNL     1      -4.763   3.304   0.419  0.00  0.00    -0.247 OA
ATOM      4  N   UNL     1      -3.212  -1.148   0.541  0.00  0.00    -0.273 N 
ATOM      5  N   UNL     1      -3.873   1.184   0.548  0.00  0.00    -0.295 N 
ATOM      6  N   UNL     1      -6.021   1.544  -0.409  0.00  0.00    -0.275 N 
ATOM      7  C   UNL     1      -4.077  -0.142   0.272  0.00  0.00    +0.121 A 
ATOM      8  C   UNL     1      -5.194  -0.670  -0.323  0.00  0.00    +0.087 A 
ATOM      9  C   UNL     1      -3.751  -2.334   0.129  0.00  0.00    +0.067 C 
ATOM     10  C   UNL     1      -4.992  -2.067  -0.417  0.00  0.00    +0.024 C 
ATOM     11  C   UNL     1      -6.277   0.197  -0.712  0.00  0.00    +0.264 A 
ATOM     12  C   UNL     1      -4.872   2.095   0.204  0.00  0.00    +0.328 A 
ATOM     13  H   UNL     1      -3.041   1.487   0.979  0.00  0.00    +0.172 HD
ATOM     14  H   UNL     1      -6.728   2.184  -0.654  0.00  0.00    +0.173 HD
ENDBRANCH   1   4
BRANCH   1  15
ATOM     15  C   UNL     1      -0.765  -0.789   0.173  0.00  0.00    +0.022 C 
BRANCH  15  16
ATOM     16  C   UNL     1       0.605  -0.669   0.849  0.00  0.00    +0.002 C 
BRANCH  16  17
ATOM     17  C   UNL     1       1.753  -0.433  -0.138  0.00  0.00    +0.000 C 
BRANCH  17  18
ATOM     18  C   UNL     1       3.145  -0.284   0.486  0.00  0.00    +0.000 C 
BRANCH  18  19
ATOM     19  C   UNL     1       4.259  -0.081  -0.545  0.00  0.00    +0.001 C 
BRANCH  19  20
ATOM     20  C   UNL     1       5.629   0.022   0.128  0.00  0.00    +0.013 C 
BRANCH  20  21
ATOM     21  C   UNL     1       6.752   0.197  -0.886  0.00  0.00    +0.116 C 
BRANCH  21  22
ATOM     22  P   UNL     1       8.385   0.390  -0.136  0.00  0.00    +0.337 P 
ATOM     23  O   UNL     1       8.492   1.571   0.763  0.00  0.00    -0.258 OA
BRANCH  22  24
ATOM     24  O   UNL     1       8.625  -1.048   0.546  0.00  0.00    -0.324 OA
ATOM     25  H   UNL     1       9.489  -1.057   0.987  0.00  0.00    +0.220 HD
ENDBRANCH  22  24
BRANCH  22  26
ATOM     26  O   UNL     1       9.359   0.381  -1.417  0.00  0.00    -0.324 OA
ATOM     27  H   UNL     1      10.278   0.481  -1.126  0.00  0.00    +0.220 HD
ENDBRANCH  22  26
ENDBRANCH  21  22
ENDBRANCH  20  21
ENDBRANCH  19  20
ENDBRANCH  18  19
ENDBRANCH  17  18
ENDBRANCH  16  17
ENDBRANCH  15  16
ENDBRANCH   1  15
TORSDOF 11
