REMARK  Name = 10067935
REMARK  7 active torsions:
REMARK  status: ('A' for Active; 'I' for Inactive)
REMARK    1  A    between atoms: N_1  and  C1*_20
REMARK    2  A    between atoms: C_9  and  C_10
REMARK    3  A    between atoms: C_15  and  O_16
REMARK    4  A    between atoms: C2*_19  and  O2*_23
REMARK    5  A    between atoms: C3*_21  and  O3*_25
REMARK    6  A    between atoms: C4*_22  and  C5*_27
REMARK    7  A    between atoms: C5*_27  and  O5*_28
REMARK                            x       y       z     vdW  Elec       q    Type
REMARK                         _______ _______ _______ _____ _____    ______ ____
ROOT
ATOM      1  N   UNL     1       1.932  -0.693  -0.106  0.00  0.00    -0.236 N 
ATOM      2  N   UNL     1       1.963  -2.902   0.207  0.00  0.00    -0.240 NA
ATOM      3  N   UNL     1      -0.467  -0.311  -0.123  0.00  0.00    -0.323 NA
ATOM      4  N   UNL     1      -1.700  -2.393   0.193  0.00  0.00    -0.323 NA
ATOM      5  C   UNL     1       0.625  -1.085  -0.030  0.00  0.00    +0.220 C 
ATOM      6  C   UNL     1       2.697  -1.821   0.042  0.00  0.00    +0.224 C 
ATOM      7  C   UNL     1       0.666  -2.456   0.165  0.00  0.00    +0.167 C 
ATOM      8  C   UNL     1      -0.556  -3.112   0.278  0.00  0.00    +0.211 C 
ATOM      9  C   UNL     1      -1.587  -1.056   0.001  0.00  0.00    +0.141 C 
ATOM     10  N   UNL     1      -0.608  -4.503   0.477  0.00  0.00    -0.331 N 
ATOM     11  H   UNL     1      -1.479  -4.956   0.555  0.00  0.00    +0.145 HD
ATOM     12  H   UNL     1       0.225  -5.023   0.538  0.00  0.00    +0.145 HD
ENDROOT
BRANCH   9  13
ATOM     13  C   UNL     1      -2.830  -0.332  -0.084  0.00  0.00    +0.086 C 
ATOM     14  C   UNL     1      -2.899   0.998   0.338  0.00  0.00    +0.015 C 
ATOM     15  C   UNL     1      -3.975  -0.958  -0.586  0.00  0.00    +0.015 C 
ATOM     16  C   UNL     1      -4.103   1.698   0.257  0.00  0.00    +0.038 C 
ATOM     17  C   UNL     1      -5.178  -0.258  -0.667  0.00  0.00    +0.038 C 
ATOM     18  C   UNL     1      -5.243   1.070  -0.245  0.00  0.00    +0.139 C 
BRANCH  18  19
ATOM     19  O   UNL     1      -6.417   1.752  -0.322  0.00  0.00    -0.471 OA
ATOM     20  C   UNL     1      -6.413   3.107   0.127  0.00  0.00    +0.252 C 
ENDBRANCH  18  19
ENDBRANCH   9  13
BRANCH   1  23
ATOM     21  O4* UNL     1       3.655   0.626  -1.067  0.00  0.00    -0.333 OA
ATOM     22  C2* UNL     1       2.756   1.404   0.982  0.00  0.00    +0.187 C 
ATOM     23  C1* UNL     1       2.431   0.665  -0.308  0.00  0.00    +0.226 C 
ATOM     24  C3* UNL     1       3.780   2.413   0.501  0.00  0.00    +0.171 C 
ATOM     25  C4* UNL     1       4.568   1.611  -0.530  0.00  0.00    +0.175 C 
BRANCH  22  26
ATOM     26  O2* UNL     1       1.609   2.006   1.547  0.00  0.00    -0.378 OA
ATOM     27  H2* UNL     1       0.991   1.317   1.836  0.00  0.00    +0.211 HD
ENDBRANCH  22  26
BRANCH  24  28
ATOM     28  O3* UNL     1       3.115   3.488  -0.163  0.00  0.00    -0.379 OA
ATOM     29  H3* UNL     1       2.610   4.005   0.485  0.00  0.00    +0.211 HD
ENDBRANCH  24  28
BRANCH  25  30
ATOM     30  C5* UNL     1       5.761   0.881   0.071  0.00  0.00    +0.169 C 
BRANCH  30  31
ATOM     31  O5* UNL     1       6.418   0.161  -0.957  0.00  0.00    -0.379 OA
ATOM     32  H5* UNL     1       7.181  -0.309  -0.586  0.00  0.00    +0.211 HD
ENDBRANCH  30  31
ENDBRANCH  25  30
ENDBRANCH   1  23
TORSDOF 7
