REMARK  Name = 10067728
REMARK  6 active torsions:
REMARK  status: ('A' for Active; 'I' for Inactive)
REMARK    1  A    between atoms: C_5  and  C_24
REMARK    2  A    between atoms: C_6  and  C_12
REMARK    3  A    between atoms: C_7  and  N_23
REMARK    4  A    between atoms: C_13  and  N_20
REMARK    5  A    between atoms: C_24  and  C_26
REMARK    6  A    between atoms: C_26  and  O_27
REMARK                            x       y       z     vdW  Elec       q    Type
REMARK                         _______ _______ _______ _____ _____    ______ ____
ROOT
ATOM      1  O   UNL     1      -0.531  -0.314   0.592  0.00  0.00    -0.452 OA
ATOM      2  O   UNL     1      -0.762   3.637  -0.444  0.00  0.00    -0.285 OA
ATOM      3  C   UNL     1      -1.754   0.289   0.423  0.00  0.00    +0.145 A 
ATOM      4  C   UNL     1      -1.903   1.632   0.069  0.00  0.00    +0.075 A 
ATOM      5  C   UNL     1      -2.883  -0.507   0.624  0.00  0.00    +0.024 C 
ATOM      6  C   UNL     1       0.617   0.447   0.394  0.00  0.00    +0.172 A 
ATOM      7  C   UNL     1       0.576   1.744   0.058  0.00  0.00    +0.216 A 
ATOM      8  C   UNL     1      -0.698   2.456  -0.136  0.00  0.00    +0.224 A 
ATOM      9  C   UNL     1      -3.177   2.184  -0.086  0.00  0.00    +0.006 C 
ATOM     10  C   UNL     1      -4.156   0.042   0.470  0.00  0.00    -0.001 C 
ATOM     11  C   UNL     1      -4.302   1.384   0.115  0.00  0.00    -0.000 C 
ENDROOT
BRANCH   6  12
ATOM     12  C   UNL     1       1.842  -0.338   0.606  0.00  0.00    +0.059 C 
ATOM     13  C   UNL     1       2.464  -1.030  -0.435  0.00  0.00    +0.146 C 
ATOM     14  C   UNL     1       2.386  -0.383   1.891  0.00  0.00    +0.005 C 
ATOM     15  C   UNL     1       3.626  -1.764  -0.192  0.00  0.00    +0.024 C 
ATOM     16  C   UNL     1       3.547  -1.117   2.135  0.00  0.00    +0.000 C 
ATOM     17  C   UNL     1       4.167  -1.807   1.093  0.00  0.00    +0.002 C 
BRANCH  13  20
ATOM     18  O   UNL     1       2.534  -1.644  -2.657  0.00  0.00    -0.126 OA
ATOM     19  O   UNL     1       0.895  -0.349  -1.982  0.00  0.00    -0.126 OA
ATOM     20  N   UNL     1       1.938  -1.007  -1.758  0.00  0.00    +0.058 N 
ENDBRANCH  13  20
ENDBRANCH   6  12
BRANCH   7  23
ATOM     21  O   UNL     1       2.847   1.849   0.083  0.00  0.00    -0.126 OA
ATOM     22  O   UNL     1       1.701   3.663  -0.412  0.00  0.00    -0.126 OA
ATOM     23  N   UNL     1       1.790   2.468  -0.102  0.00  0.00    +0.064 N 
ENDBRANCH   7  23
BRANCH   5  24
ATOM     24  C   UNL     1      -2.756  -1.946   1.004  0.00  0.00    +0.139 C 
BRANCH  24  26
ATOM     25  O   UNL     1      -2.780  -2.536  -1.359  0.00  0.00    -0.250 OA
ATOM     26  C   UNL     1      -2.695  -2.880  -0.188  0.00  0.00    +0.318 C 
BRANCH  26  27
ATOM     27  O   UNL     1      -2.533  -4.174   0.193  0.00  0.00    -0.480 OA
ATOM     28  H   UNL     1      -2.472  -4.391   1.103  0.00  0.00    +0.295 HD
ENDBRANCH  26  27
ENDBRANCH  24  26
ENDBRANCH   5  24
TORSDOF 6
