REMARK  Name = 10066780
REMARK  5 active torsions:
REMARK  status: ('A' for Active; 'I' for Inactive)
REMARK    1  A    between atoms: C_1  and  N_8
REMARK    2  A    between atoms: C_2  and  C_17
REMARK    3  A    between atoms: C_9  and  C_11
REMARK    4  A    between atoms: C_11  and  C_14
REMARK    5  A    between atoms: C_17  and  C_27
REMARK                            x       y       z     vdW  Elec       q    Type
REMARK                         _______ _______ _______ _____ _____    ______ ____
ROOT
ATOM      1  C   UNK A   2      -2.063  -1.357   0.138  0.00  0.00    +0.053 C 
ATOM      2  C   UNK A   2      -0.715  -1.680   0.143  0.00  0.00    +0.052 C 
ATOM      3  C   UNK A   2      -3.038  -2.339   0.211  0.00  0.00    +0.015 C 
ATOM      4  C   UNK A   2      -0.333  -3.019   0.224  0.00  0.00    +0.004 C 
ATOM      5  C   UNK A   2      -2.656  -3.678   0.291  0.00  0.00    +0.001 C 
ATOM      6  C   UNK A   2      -1.303  -4.018   0.298  0.00  0.00    +0.000 C 
ENDROOT
BRANCH   1   8
ATOM      7  O   UNK A   2      -4.805  -0.183   0.074  0.00  0.00    -0.274 OA
ATOM      8  N   UNK A   2      -2.474  -0.005   0.055  0.00  0.00    -0.284 N 
ATOM      9  C   UNK A   2      -3.777   0.490   0.037  0.00  0.00    +0.229 C 
ATOM     10  H   UNK A   2      -1.755   0.665   0.005  0.00  0.00    +0.155 HD
BRANCH   9  11
ATOM     11  C   UNK A   2      -3.838   2.036  -0.061  0.00  0.00    +0.088 C 
ATOM     12  C   UNK A   2      -3.276   2.668   1.226  0.00  0.00    +0.014 C 
ATOM     13  C   UNK A   2      -5.306   2.487  -0.199  0.00  0.00    +0.014 C 
BRANCH  11  14
ATOM     14  C   UNK A   2      -3.120   2.417  -1.344  0.00  0.00    -0.018 C 
ATOM     15  C   UNK A   2      -2.038   3.195  -1.467  0.00  0.00    -0.004 C 
ENDBRANCH  11  14
ENDBRANCH   9  11
ENDBRANCH   1   8
BRANCH   2  17
ATOM     16  O   UNK A   2       0.128   0.480   0.507  0.00  0.00    -0.286 OA
ATOM     17  C   UNK A   2       0.325  -0.661   0.066  0.00  0.00    +0.198 C 
BRANCH  17  27
ATOM     18  O   ALA A   1       3.905   1.971   2.174  0.00  0.00    -0.273 OA
ATOM     19  O   UNK A   2       4.107  -1.699  -1.716  0.00  0.00    -0.269 OA
ATOM     20  N   ALA A   1       5.140  -0.095  -0.443  0.00  0.00    -0.294 N 
ATOM     21  N   UNK A   2       2.801   0.483   0.825  0.00  0.00    -0.279 N 
ATOM     22  CA  ALA A   1       5.066   1.189   0.225  0.00  0.00    +0.149 C 
ATOM     23  C   UNK A   2       2.767  -0.414  -0.214  0.00  0.00    +0.108 C 
ATOM     24  C   ALA A   1       3.910   1.210   1.206  0.00  0.00    +0.244 C 
ATOM     25  C   UNK A   2       4.040  -0.793  -0.890  0.00  0.00    +0.260 C 
ATOM     26  CB  ALA A   1       4.926   2.327  -0.779  0.00  0.00    +0.031 C 
ATOM     27  C   UNK A   2       1.628  -1.012  -0.586  0.00  0.00    +0.061 C 
ATOM     28  H   ALA A   1       6.030  -0.492  -0.586  0.00  0.00    +0.150 HD
ATOM     29  H   UNK A   2       1.971   0.617   1.337  0.00  0.00    +0.155 HD
ENDBRANCH  17  27
ENDBRANCH   2  17
TORSDOF 5
