REMARK  Name = 10069555
REMARK  8 active torsions:
REMARK  status: ('A' for Active; 'I' for Inactive)
REMARK    1  A    between atoms: C_3  and  C_18
REMARK    2  A    between atoms: C_6  and  O_13
REMARK    3  A    between atoms: C_7  and  O_15
REMARK    4  A    between atoms: C_18  and  C_19
REMARK    5  A    between atoms: C_20  and  C_30
REMARK    6  A    between atoms: C_21  and  O_25
REMARK    7  A    between atoms: C_24  and  O_27
REMARK    8  A    between atoms: C_30  and  O_31
REMARK                            x       y       z     vdW  Elec       q    Type
REMARK                         _______ _______ _______ _____ _____    ______ ____
ROOT
ATOM      1  O   UNL     1      -5.417  -0.076  -0.121  0.00  0.00    -0.425 OA
ATOM      2  O   UNL     1      -4.466   0.550  -2.066  0.00  0.00    -0.244 OA
ATOM      3  C   UNL     1      -0.591  -0.150  -0.510  0.00  0.00    +0.106 C 
ATOM      4  C   UNL     1      -3.002  -0.114  -0.313  0.00  0.00    +0.110 C 
ATOM      5  C   UNL     1      -2.906  -0.570   1.006  0.00  0.00    +0.015 C 
ATOM      6  C   UNL     1      -1.844   0.096  -1.071  0.00  0.00    +0.146 C 
ATOM      7  C   UNL     1      -0.491  -0.604   0.804  0.00  0.00    +0.140 C 
ATOM      8  C   UNL     1      -1.645  -0.814   1.561  0.00  0.00    +0.037 C 
ATOM      9  C   UNL     1      -4.116  -0.784   1.783  0.00  0.00    +0.033 C 
ATOM     10  C   UNL     1      -4.328   0.150  -0.917  0.00  0.00    +0.348 C 
ATOM     11  C   UNL     1      -5.300  -0.537   1.210  0.00  0.00    +0.127 C 
ATOM     12  C   UNL     1      -6.609  -0.720   1.906  0.00  0.00    +0.073 C 
ENDROOT
BRANCH   6  13
ATOM     13  O   UNL     1      -1.900   0.539  -2.361  0.00  0.00    -0.505 OA
ATOM     14  H   UNL     1      -1.109   0.671  -2.846  0.00  0.00    +0.292 HD
ENDBRANCH   6  13
BRANCH   7  15
ATOM     15  O   UNL     1       0.724  -0.849   1.371  0.00  0.00    -0.505 OA
ATOM     16  H   UNL     1       1.508  -0.713   0.876  0.00  0.00    +0.292 HD
ENDBRANCH   7  15
BRANCH   3  18
ATOM     17  O   UNL     1       0.618   0.480  -2.455  0.00  0.00    -0.286 OA
ATOM     18  C   UNL     1       0.621   0.066  -1.294  0.00  0.00    +0.205 C 
BRANCH  18  19
ATOM     19  C   UNL     1       1.956  -0.194  -0.700  0.00  0.00    +0.079 C 
ATOM     20  C   UNL     1       2.618   0.823  -0.038  0.00  0.00    +0.085 C 
ATOM     21  C   UNL     1       2.504  -1.458  -0.828  0.00  0.00    +0.140 C 
ATOM     22  C   UNL     1       3.872   0.568   0.516  0.00  0.00    +0.044 C 
ATOM     23  C   UNL     1       3.758  -1.712  -0.273  0.00  0.00    +0.074 C 
ATOM     24  C   UNL     1       4.442  -0.699   0.399  0.00  0.00    +0.142 C 
BRANCH  21  25
ATOM     25  O   UNL     1       1.853  -2.462  -1.480  0.00  0.00    -0.505 OA
ATOM     26  H   UNL     1       1.010  -2.307  -1.857  0.00  0.00    +0.292 HD
ENDBRANCH  21  25
BRANCH  24  27
ATOM     27  O   UNL     1       5.667  -0.948   0.939  0.00  0.00    -0.471 OA
ATOM     28  C   UNL     1       6.191  -2.265   0.781  0.00  0.00    +0.252 C 
ENDBRANCH  24  27
BRANCH  20  30
ATOM     29  O   UNL     1       1.283   2.679  -0.714  0.00  0.00    -0.245 OA
ATOM     30  C   UNL     1       2.051   2.158   0.103  0.00  0.00    +0.342 C 
BRANCH  30  31
ATOM     31  O   UNL     1       2.474   2.762   1.254  0.00  0.00    -0.441 OA
ATOM     32  C   UNL     1       1.982   4.083   1.507  0.00  0.00    +0.256 C 
ENDBRANCH  30  31
ENDBRANCH  20  30
ENDBRANCH  18  19
ENDBRANCH   3  18
TORSDOF 8
