100666
  -OEChem-03292013323D

 38 39  0     0  0  0  0  0  0999 V2000
   -0.3976   -1.0840   -0.7010 S   0  0  0  0  0  0  0  0  0  0  0  0
   -4.6437    1.7459   -0.8422 O   0  0  0  0  0  0  0  0  0  0  0  0
   -5.7457    0.3766    1.3114 O   0  0  0  0  0  0  0  0  0  0  0  0
   -0.2233   -2.4788   -0.3378 O   0  0  0  0  0  0  0  0  0  0  0  0
   -0.3420   -0.6758   -2.0935 O   0  0  0  0  0  0  0  0  0  0  0  0
    4.0337   -1.2316   -1.2703 O   0  0  0  0  0  0  0  0  0  0  0  0
    0.6032   -0.1339    0.1739 N   0  0  0  0  0  0  0  0  0  0  0  0
    4.7138   -0.3536   -0.4335 N   0  0  0  0  0  0  0  0  0  0  0  0
    1.8048   -0.3039   -0.1124 N   0  0  0  0  0  0  0  0  0  0  0  0
   -2.0044   -0.6431   -0.1005 C   0  0  0  0  0  0  0  0  0  0  0  0
   -2.6934    0.3855   -0.7155 C   0  0  0  0  0  0  0  0  0  0  0  0
   -3.9584    0.7333   -0.2417 C   0  0  0  0  0  0  0  0  0  0  0  0
   -2.5349   -1.3365    0.9715 C   0  0  0  0  0  0  0  0  0  0  0  0
   -4.5116    0.0460    0.8388 C   0  0  0  0  0  0  0  0  0  0  0  0
   -3.7999   -0.9889    1.4454 C   0  0  0  0  0  0  0  0  0  0  0  0
    4.0014    0.4562    0.4629 C   0  0  0  0  0  0  0  0  0  0  0  0
    4.8145    1.3497    1.3039 C   0  0  0  0  0  0  0  0  0  0  0  0
    2.6640    0.4700    0.6016 C   0  0  0  0  0  0  0  0  0  0  0  0
    6.0955   -0.3077   -0.5119 C   0  0  0  0  0  0  0  0  0  0  0  0
    6.1566    1.3690    1.2006 C   0  0  0  0  0  0  0  0  0  0  0  0
    6.8372    0.5066    0.2548 C   0  0  0  0  0  0  0  0  0  0  0  0
   -4.0075    2.3972   -1.9401 C   0  0  0  0  0  0  0  0  0  0  0  0
   -6.8624   -0.2984    0.7355 C   0  0  0  0  0  0  0  0  0  0  0  0
   -2.2154    0.8949   -1.5431 H   0  0  0  0  0  0  0  0  0  0  0  0
   -1.9938   -2.1383    1.4641 H   0  0  0  0  0  0  0  0  0  0  0  0
   -4.2236   -1.5265    2.2895 H   0  0  0  0  0  0  0  0  0  0  0  0
    4.3192    2.0013    2.0172 H   0  0  0  0  0  0  0  0  0  0  0  0
    2.2162    1.1426    1.3329 H   0  0  0  0  0  0  0  0  0  0  0  0
    6.5334   -0.9796   -1.2404 H   0  0  0  0  0  0  0  0  0  0  0  0
    6.7572    2.0263    1.8191 H   0  0  0  0  0  0  0  0  0  0  0  0
    7.9173    0.5371    0.1877 H   0  0  0  0  0  0  0  0  0  0  0  0
   -3.8429    1.7105   -2.7774 H   0  0  0  0  0  0  0  0  0  0  0  0
   -3.0889    2.9072   -1.6302 H   0  0  0  0  0  0  0  0  0  0  0  0
   -4.6948    3.1717   -2.2965 H   0  0  0  0  0  0  0  0  0  0  0  0
   -7.7726    0.0790    1.2094 H   0  0  0  0  0  0  0  0  0  0  0  0
   -6.7942   -1.3757    0.9168 H   0  0  0  0  0  0  0  0  0  0  0  0
   -6.9199   -0.1010   -0.3395 H   0  0  0  0  0  0  0  0  0  0  0  0
    3.8626   -0.6749   -2.0496 H   0  0  0  0  0  0  0  0  0  0  0  0
  1  4  2  0  0  0  0
  1  5  2  0  0  0  0
  1  7  1  0  0  0  0
  1 10  1  0  0  0  0
  2 12  1  0  0  0  0
  2 22  1  0  0  0  0
  3 14  1  0  0  0  0
  3 23  1  0  0  0  0
  6  8  1  0  0  0  0
  6 38  1  0  0  0  0
  7  9  2  0  0  0  0
  8 16  1  0  0  0  0
  8 19  1  0  0  0  0
  9 18  1  0  0  0  0
 10 11  2  0  0  0  0
 10 13  1  0  0  0  0
 11 12  1  0  0  0  0
 11 24  1  0  0  0  0
 12 14  2  0  0  0  0
 13 15  2  0  0  0  0
 13 25  1  0  0  0  0
 14 15  1  0  0  0  0
 15 26  1  0  0  0  0
 16 17  1  0  0  0  0
 16 18  2  3  0  0  0
 17 20  2  0  0  0  0
 17 27  1  0  0  0  0
 18 28  1  0  0  0  0
 19 21  2  0  0  0  0
 19 29  1  0  0  0  0
 20 21  1  0  0  0  0
 20 30  1  0  0  0  0
 21 31  1  0  0  0  0
 22 32  1  0  0  0  0
 22 33  1  0  0  0  0
 22 34  1  0  0  0  0
 23 35  1  0  0  0  0
 23 36  1  0  0  0  0
 23 37  1  0  0  0  0
M  END
> <PUBCHEM_COMPOUND_CID>
100666

> <PUBCHEM_CONFORMER_RMSD>
0.8

> <PUBCHEM_CONFORMER_DIVERSEORDER>
2
12
8
7
11
13
4
1
14
6
3
9
10
5

> <PUBCHEM_MMFF94_PARTIAL_CHARGES>
32
1 1.5
10 -0.01
11 -0.15
12 0.08
13 -0.15
14 0.08
15 -0.15
16 0.1
17 -0.15
18 0.02
19 -0.05
2 -0.36
20 -0.15
21 -0.15
22 0.28
23 0.28
24 0.15
25 0.15
26 0.15
27 0.15
28 0.15
29 0.15
3 -0.36
30 0.15
31 0.15
38 0.4
4 -0.65
5 -0.65
6 -0.38
7 -0.19
8 -0.22
9 -0.17

> <PUBCHEM_EFFECTIVE_ROTOR_COUNT>
5.2

> <PUBCHEM_PHARMACOPHORE_FEATURES>
8
1 2 acceptor
1 3 acceptor
1 4 acceptor
1 5 acceptor
1 6 anion
1 7 donor
6 10 11 12 13 14 15 rings
6 8 16 17 19 20 21 rings

> <PUBCHEM_HEAVY_ATOM_COUNT>
23

> <PUBCHEM_ATOM_DEF_STEREO_COUNT>
0

> <PUBCHEM_ATOM_UDEF_STEREO_COUNT>
0

> <PUBCHEM_BOND_DEF_STEREO_COUNT>
0

> <PUBCHEM_BOND_UDEF_STEREO_COUNT>
1

> <PUBCHEM_ISOTOPIC_ATOM_COUNT>
0

> <PUBCHEM_COMPONENT_COUNT>
1

> <PUBCHEM_CACTVS_TAUTO_COUNT>
1

> <PUBCHEM_CONFORMER_ID>
0001893A00000002

> <PUBCHEM_MMFF94_ENERGY>
66.3508

> <PUBCHEM_FEATURE_SELFOVERLAP>
40.619

> <PUBCHEM_SHAPE_FINGERPRINT>
10 15 18187364367686349368
11089746 13 15554445224159173530
11315181 36 16225770726999584221
12236239 1 15913329082849211206
12403259 415 18411983524825187333
12507560 40 18114462258502987451
12596602 18 16515684446399678440
12616971 3 14634873033222911654
13533116 47 15984830290319304430
14341114 328 16225766311551508506
15183329 4 17275099523007707212
15348495 7 18263363745490911704
15716309 27 14851601094214658736
17780758 139 16443347602631254217
17844677 252 17968100845528579796
1813 80 13695872476145526594
18335252 98 16558755650624458391
19377110 9 15502372327402791260
19489759 90 18040715870533958817
20157964 124 17203619172400431230
20281389 69 18410852179359009264
20645477 56 18341326773183771878
21033648 144 17202468052598873800
21033648 29 18341598326670549776
21267235 1 14056991716850498658
22224240 67 18411984676504520979
23198884 109 15769775771037843057
23402539 116 15769775762342329064
23522609 53 15286220367306121390
23559900 14 17897173411683526518
23622692 88 17458346368523473591
2838139 119 17203325606922036008
300161 21 16272208613657561970
3545911 37 18412829087953359674
4073 2 18270963578663666674
4325135 7 13695587763401200330
5104073 3 17823414894963925585
5385378 56 18341059510001279595
57724786 102 17988926729545822760
59755656 520 17703788141578863303

> <PUBCHEM_SHAPE_MULTIPOLES>
432.89
18.18
1.72
1.51
12.16
0.53
-0.22
4.84
5.57
-1.97
-0.57
-0.06
0.14
2.51

> <PUBCHEM_SHAPE_SELFOVERLAP>
902.141

> <PUBCHEM_SHAPE_VOLUME>
246.5

> <PUBCHEM_COORDINATE_TYPE>
2
5
10

$$$$
