REMARK  Name = 10066397
REMARK  10 active torsions:
REMARK  status: ('A' for Active; 'I' for Inactive)
REMARK    1  A    between atoms: C_1  and  C_16
REMARK    2  A    between atoms: C_2  and  O_12
REMARK    3  A    between atoms: C_4  and  N_8
REMARK    4  A    between atoms: C_5  and  O_14
REMARK    5  A    between atoms: C_16  and  O_17
REMARK    6  A    between atoms: C_16  and  C_19
REMARK    7  A    between atoms: C_19  and  C_21
REMARK    8  A    between atoms: C_22  and  C_24
REMARK    9  A    between atoms: C_25  and  C_27
REMARK   10  A    between atoms: C_27  and  O_28
REMARK                            x       y       z     vdW  Elec       q    Type
REMARK                         _______ _______ _______ _____ _____    ______ ____
ROOT
ATOM      1  C   UNL     1       1.732   1.365   0.154  0.00  0.00    +0.043 C 
ATOM      2  C   UNL     1       2.050   0.233   0.884  0.00  0.00    +0.145 C 
ATOM      3  C   UNL     1       1.857   1.397  -1.224  0.00  0.00    +0.038 C 
ATOM      4  C   UNL     1       2.508  -0.902   0.216  0.00  0.00    +0.087 C 
ATOM      5  C   UNL     1       2.315   0.262  -1.893  0.00  0.00    +0.135 C 
ATOM      6  C   UNL     1       2.640  -0.888  -1.173  0.00  0.00    +0.054 C 
ENDROOT
BRANCH   4   8
ATOM      7  O   UNL     1       3.527  -3.562  -0.761  0.00  0.00    -0.275 OA
ATOM      8  N   UNL     1       2.839  -2.061   0.922  0.00  0.00    -0.281 N 
ATOM      9  C   UNL     1       3.310  -3.278   0.413  0.00  0.00    +0.227 C 
ATOM     10  C   UNL     1       3.550  -4.285   1.508  0.00  0.00    +0.095 C 
ATOM     11  H   UNL     1       2.727  -2.017   1.899  0.00  0.00    +0.155 HD
ENDBRANCH   4   8
BRANCH   2  12
ATOM     12  O   UNL     1       1.919   0.223   2.243  0.00  0.00    -0.504 OA
ATOM     13  H   UNL     1       1.612   0.987   2.689  0.00  0.00    +0.292 HD
ENDBRANCH   2  12
BRANCH   5  14
ATOM     14  O   UNL     1       2.443   0.275  -3.248  0.00  0.00    -0.505 OA
ATOM     15  H   UNL     1       2.225   1.047  -3.732  0.00  0.00    +0.292 HD
ENDBRANCH   5  14
BRANCH   1  16
ATOM     16  C   UNL     1       1.231   2.608   0.861  0.00  0.00    +0.140 C 
BRANCH  16  17
ATOM     17  O   UNL     1       2.208   3.632   0.664  0.00  0.00    -0.380 OA
ATOM     18  H   UNL     1       1.918   4.445   1.106  0.00  0.00    +0.211 HD
ENDBRANCH  16  17
BRANCH  16  19
ATOM     19  C   UNL     1      -0.156   3.077   0.353  0.00  0.00    +0.053 C 
ATOM     20  C   UNL     1      -0.587   4.391   1.019  0.00  0.00    +0.008 C 
BRANCH  19  21
ATOM     21  C   UNL     1      -1.214   2.027   0.628  0.00  0.00    -0.028 C 
ATOM     22  C   UNL     1      -2.015   1.386  -0.250  0.00  0.00    -0.026 C 
ATOM     23  C   UNL     1      -1.993   1.617  -1.739  0.00  0.00    +0.031 C 
BRANCH  22  24
ATOM     24  C   UNL     1      -2.962   0.394   0.265  0.00  0.00    +0.002 C 
ATOM     25  C   UNL     1      -3.827  -0.332  -0.461  0.00  0.00    +0.082 C 
BRANCH  25  27
ATOM     26  O   UNL     1      -4.755  -1.515   1.416  0.00  0.00    -0.245 OA
ATOM     27  C   UNL     1      -4.721  -1.300   0.215  0.00  0.00    +0.342 C 
BRANCH  27  28
ATOM     28  O   UNL     1      -5.484  -1.894  -0.743  0.00  0.00    -0.441 OA
ATOM     29  C   UNL     1      -6.416  -2.871  -0.269  0.00  0.00    +0.256 C 
ENDBRANCH  27  28
ENDBRANCH  25  27
ENDBRANCH  22  24
ENDBRANCH  19  21
ENDBRANCH  16  19
ENDBRANCH   1  16
TORSDOF 10
