REMARK  Name = 10067740
REMARK  10 active torsions:
REMARK  status: ('A' for Active; 'I' for Inactive)
REMARK    1  A    between atoms: CA_1  and  C_8
REMARK    2  A    between atoms: CA_1  and  N_14
REMARK    3  A    between atoms: CA_1  and  CB_25
REMARK    4  A    between atoms: CA_4  and  C_10
REMARK    5  A    between atoms: C_10  and  O_11
REMARK    6  A    between atoms: C_15  and  C_18
REMARK    7  A    between atoms: C_19  and  C_21
REMARK    8  A    between atoms: C_21  and  O_22
REMARK    9  A    between atoms: O_22  and  C_23
REMARK   10  A    between atoms: CB_25  and  CG1_27
REMARK                            x       y       z     vdW  Elec       q    Type
REMARK                         _______ _______ _______ _____ _____    ______ ____
ROOT
ATOM      1  CA  UNL     1       0.785   0.977  -0.201  0.00  0.00    +0.149 C 
ENDROOT
BRANCH   1   8
ATOM      2  O   UNL     1       1.099  -1.253   0.571  0.00  0.00    -0.273 OA
ATOM      3  N   UNL     1       2.852  -0.279  -0.584  0.00  0.00    -0.270 N 
ATOM      4  CA  UNL     1       3.688  -1.470  -0.653  0.00  0.00    +0.175 C 
ATOM      5  CB  UNL     1       4.742  -1.143  -1.704  0.00  0.00    +0.033 C 
ATOM      6  CD  UNL     1       3.461   0.835  -1.306  0.00  0.00    +0.094 C 
ATOM      7  CG  UNL     1       4.879   0.375  -1.609  0.00  0.00    +0.024 C 
ATOM      8  C   UNL     1       1.580  -0.293  -0.032  0.00  0.00    +0.244 C 
BRANCH   4  10
ATOM      9  OXT UNL     1       4.557  -0.763   1.490  0.00  0.00    -0.248 OA
ATOM     10  C   UNL     1       4.296  -1.662   0.704  0.00  0.00    +0.332 C 
BRANCH  10  11
ATOM     11  O   UNL     1       4.522  -2.977   0.945  0.00  0.00    -0.479 OA
ATOM     12  H   UNL     1       4.298  -3.617   0.299  0.00  0.00    +0.295 HD
ENDBRANCH  10  11
ENDBRANCH   4  10
ENDBRANCH   1   8
BRANCH   1  14
ATOM     13  O   UNL     1      -1.217   2.187  -1.930  0.00  0.00    -0.272 OA
ATOM     14  N   UNL     1      -0.580   0.572  -0.376  0.00  0.00    -0.296 N 
ATOM     15  C   ACE A   0      -1.467   1.214  -1.228  0.00  0.00    +0.253 C 
ATOM     16  H   UNL     1      -0.904  -0.203   0.137  0.00  0.00    +0.150 HD
BRANCH  15  18
ATOM     17  O   UNL     1      -3.891   1.576  -1.082  0.00  0.00    -0.333 OA
ATOM     18  C   UNL     1      -2.837   0.621  -1.254  0.00  0.00    +0.229 C 
ATOM     19  C   UNL     1      -3.703   0.624  -0.028  0.00  0.00    +0.250 C 
BRANCH  19  21
ATOM     20  O   UNL     1      -5.970   0.038   0.183  0.00  0.00    -0.247 OA
ATOM     21  C   UNL     1      -4.806  -0.332   0.119  0.00  0.00    +0.347 C 
BRANCH  21  22
ATOM     22  O   UNL     1      -4.351  -1.614   0.169  0.00  0.00    -0.447 OA
BRANCH  22  23
ATOM     23  C   UNL     1      -5.360  -2.619   0.312  0.00  0.00    +0.209 C 
ATOM     24  C   UNL     1      -4.699  -3.980   0.351  0.00  0.00    +0.051 C 
ENDBRANCH  22  23
ENDBRANCH  21  22
ENDBRANCH  19  21
ENDBRANCH  15  18
ENDBRANCH   1  14
BRANCH   1  25
ATOM     25  CB  UNL     1       1.014   1.948   0.970  0.00  0.00    +0.027 C 
ATOM     26  CG2 UNL     1       0.706   3.381   0.516  0.00  0.00    +0.002 C 
BRANCH  25  27
ATOM     27  CG1 UNL     1       0.208   1.569   2.232  0.00  0.00    +0.002 C 
ATOM     28  CD1 UNL     1       0.493   2.467   3.429  0.00  0.00    +0.000 C 
ENDBRANCH  25  27
ENDBRANCH   1  25
TORSDOF 10
