10061431
  -OEChem-03292013303D

 30 32  0     0  0  0  0  0  0999 V2000
    4.5983   -2.0002   -0.0142 O   0  0  0  0  0  0  0  0  0  0  0  0
   -4.5982   -2.0003    0.0130 O   0  0  0  0  0  0  0  0  0  0  0  0
    1.3675   -0.5638    0.0020 N   0  0  0  0  0  0  0  0  0  0  0  0
   -1.3676   -0.5638   -0.0013 N   0  0  0  0  0  0  0  0  0  0  0  0
    2.5440   -2.9647    0.0036 N   0  0  0  0  0  0  0  0  0  0  0  0
   -2.5439   -2.9647   -0.0033 N   0  0  0  0  0  0  0  0  0  0  0  0
    0.6967    0.6067    0.0010 C   0  0  0  0  0  0  0  0  0  0  0  0
   -0.6967    0.6067   -0.0007 C   0  0  0  0  0  0  0  0  0  0  0  0
    1.3922    1.8368    0.0017 C   0  0  0  0  0  0  0  0  0  0  0  0
   -1.3923    1.8369   -0.0017 C   0  0  0  0  0  0  0  0  0  0  0  0
    0.6938    3.0478    0.0006 C   0  0  0  0  0  0  0  0  0  0  0  0
   -0.6937    3.0479   -0.0010 C   0  0  0  0  0  0  0  0  0  0  0  0
    2.7938    1.8162    0.0033 C   0  0  0  0  0  0  0  0  0  0  0  0
   -2.7937    1.8162   -0.0035 C   0  0  0  0  0  0  0  0  0  0  0  0
    2.7201   -0.5437    0.0036 C   0  0  0  0  0  0  0  0  0  0  0  0
   -2.7202   -0.5438   -0.0030 C   0  0  0  0  0  0  0  0  0  0  0  0
    3.4748    0.6092    0.0043 C   0  0  0  0  0  0  0  0  0  0  0  0
   -3.4749    0.6093   -0.0041 C   0  0  0  0  0  0  0  0  0  0  0  0
    3.3672   -1.8443    0.0043 C   0  0  0  0  0  0  0  0  0  0  0  0
   -3.3671   -1.8444   -0.0045 C   0  0  0  0  0  0  0  0  0  0  0  0
    1.2225    3.9980    0.0012 H   0  0  0  0  0  0  0  0  0  0  0  0
   -1.2225    3.9982   -0.0018 H   0  0  0  0  0  0  0  0  0  0  0  0
    3.3633    2.7429    0.0039 H   0  0  0  0  0  0  0  0  0  0  0  0
   -3.3633    2.7430   -0.0044 H   0  0  0  0  0  0  0  0  0  0  0  0
    4.5590    0.5972    0.0057 H   0  0  0  0  0  0  0  0  0  0  0  0
   -4.5592    0.5972   -0.0058 H   0  0  0  0  0  0  0  0  0  0  0  0
    1.5315   -2.8911    0.0093 H   0  0  0  0  0  0  0  0  0  0  0  0
    2.9364   -3.9003   -0.0034 H   0  0  0  0  0  0  0  0  0  0  0  0
   -1.5315   -2.8909   -0.0082 H   0  0  0  0  0  0  0  0  0  0  0  0
   -2.9362   -3.9003    0.0033 H   0  0  0  0  0  0  0  0  0  0  0  0
  1 19  2  0  0  0  0
  2 20  2  0  0  0  0
  3  7  1  0  0  0  0
  3 15  2  0  0  0  0
  4  8  1  0  0  0  0
  4 16  2  0  0  0  0
  5 19  1  0  0  0  0
  5 27  1  0  0  0  0
  5 28  1  0  0  0  0
  6 20  1  0  0  0  0
  6 29  1  0  0  0  0
  6 30  1  0  0  0  0
  7  8  1  0  0  0  0
  7  9  2  0  0  0  0
  8 10  2  0  0  0  0
  9 11  1  0  0  0  0
  9 13  1  0  0  0  0
 10 12  1  0  0  0  0
 10 14  1  0  0  0  0
 11 12  2  0  0  0  0
 11 21  1  0  0  0  0
 12 22  1  0  0  0  0
 13 17  2  0  0  0  0
 13 23  1  0  0  0  0
 14 18  2  0  0  0  0
 14 24  1  0  0  0  0
 15 17  1  0  0  0  0
 15 19  1  0  0  0  0
 16 18  1  0  0  0  0
 16 20  1  0  0  0  0
 17 25  1  0  0  0  0
 18 26  1  0  0  0  0
M  END
> <PUBCHEM_COMPOUND_CID>
10061431

> <PUBCHEM_CONFORMER_RMSD>
0.6

> <PUBCHEM_CONFORMER_DIVERSEORDER>
1
5
3
4
6
2

> <PUBCHEM_MMFF94_PARTIAL_CHARGES>
28
1 -0.57
11 -0.15
12 -0.15
13 -0.15
14 -0.15
15 0.4
16 0.4
17 -0.15
18 -0.15
19 0.54
2 -0.57
20 0.54
21 0.15
22 0.15
23 0.15
24 0.15
25 0.15
26 0.15
27 0.37
28 0.37
29 0.37
3 -0.62
30 0.37
4 -0.62
5 -0.8
6 -0.8
7 0.31
8 0.31

> <PUBCHEM_EFFECTIVE_ROTOR_COUNT>
2

> <PUBCHEM_PHARMACOPHORE_FEATURES>
9
1 1 acceptor
1 2 acceptor
1 3 acceptor
1 4 acceptor
1 5 donor
1 6 donor
6 3 7 9 13 15 17 rings
6 4 8 10 14 16 18 rings
6 7 8 9 10 11 12 rings

> <PUBCHEM_HEAVY_ATOM_COUNT>
20

> <PUBCHEM_ATOM_DEF_STEREO_COUNT>
0

> <PUBCHEM_ATOM_UDEF_STEREO_COUNT>
0

> <PUBCHEM_BOND_DEF_STEREO_COUNT>
0

> <PUBCHEM_BOND_UDEF_STEREO_COUNT>
0

> <PUBCHEM_ISOTOPIC_ATOM_COUNT>
0

> <PUBCHEM_COMPONENT_COUNT>
1

> <PUBCHEM_CACTVS_TAUTO_COUNT>
3

> <PUBCHEM_CONFORMER_ID>
0099867700000001

> <PUBCHEM_MMFF94_ENERGY>
61.8501

> <PUBCHEM_FEATURE_SELFOVERLAP>
45.742

> <PUBCHEM_SHAPE_FINGERPRINT>
10411042 1 18410575084668918823
10616163 171 18412267246064837318
10693767 8 17623536806955316255
10967382 1 18266740375147410240
1100329 8 18267586810571078177
12506688 2 18341615983185787601
12553582 1 18410578387493351790
12839892 36 18195507389751750536
13140716 1 18341895147396298481
138480 1 14879752547324295840
14178342 30 18339912784077535120
14223421 5 18411412929877750560
14251705 54 18410293661252615938
14790565 3 17691131430844993592
14863182 85 17397832761682016613
14866123 147 17908707233140066291
15042514 8 18266463096670239537
15196674 1 18410573985151620037
15352361 1 18410854360622088126
15442244 35 18411703162276843113
16945 1 18410855460128928324
17492 89 18410292540356316235
17804303 29 18269276751126051804
19141452 34 18340208466821709465
20281475 54 18410579487004966572
20291156 8 18410575084663085410
20645477 70 17974840972260914791
21267235 1 18410583880756179079
21279426 13 18335692833413043415
21478907 32 18410572877730565681
21501502 16 18410862061503873988
221490 88 18336271227309302938
2255824 54 17903922497422261061
23184049 29 18410857620707714884
2334 1 18411136965169838445
23559900 14 18339914923277027880
2748010 2 18411974767292340924
3084891 72 17835232355581853005
335352 9 18266741273159903709
3421961 26 18267304412102266475
46194498 28 17460303589557413471
5104073 3 18413669101867780808
54173680 148 18267022760757713256
58807428 26 17189541871294836968
59682541 52 17766243812884522559
7364860 26 18124032592115266097
8809292 202 18336268933564521840
9709674 26 18335423520834493195

> <PUBCHEM_SHAPE_MULTIPOLES>
379.93
7.41
3.83
0.59
0
0.38
0
5.73
0
0
0
0
-0.05
0.01

> <PUBCHEM_SHAPE_SELFOVERLAP>
858.033

> <PUBCHEM_SHAPE_VOLUME>
198.5

> <PUBCHEM_COORDINATE_TYPE>
2
5
10

$$$$
