REMARK  Name = 100602
REMARK  9 active torsions:
REMARK  status: ('A' for Active; 'I' for Inactive)
REMARK    1  A    between atoms: S_1  and  S_2
REMARK    2  A    between atoms: S_1  and  C_11
REMARK    3  A    between atoms: S_2  and  C_3
REMARK    4  A    between atoms: C_3  and  C_4
REMARK    5  A    between atoms: C_4  and  N_6
REMARK    6  A    between atoms: C_7  and  C_9
REMARK    7  A    between atoms: C_11  and  C_12
REMARK    8  A    between atoms: C_12  and  N_14
REMARK    9  A    between atoms: C_15  and  C_17
REMARK                            x       y       z     vdW  Elec       q    Type
REMARK                         _______ _______ _______ _____ _____    ______ ____
ROOT
ATOM      1  S   UNL     1      -0.752   0.134   0.705  0.00  0.00    -0.080 S 
ENDROOT
BRANCH   1   2
ATOM      2  S   UNL     1       0.755   0.133  -0.692  0.00  0.00    -0.080 S 
BRANCH   2   3
ATOM      3  C   UNL     1       1.875   1.389  -0.026  0.00  0.00    +0.090 C 
BRANCH   3   4
ATOM      4  C   UNL     1       2.748   0.844   1.096  0.00  0.00    +0.102 C 
BRANCH   4   6
ATOM      5  O   UNL     1       5.406   0.946  -0.009  0.00  0.00    -0.270 OA
ATOM      6  N   UNL     1       3.555  -0.274   0.689  0.00  0.00    -0.300 N 
ATOM      7  C   UNL     1       4.831  -0.124   0.164  0.00  0.00    +0.246 C 
ATOM      8  H   UNL     1       3.187  -1.182   0.785  0.00  0.00    +0.150 HD
BRANCH   7   9
ATOM      9  C   UNL     1       5.452  -1.431  -0.182  0.00  0.00    +0.058 C 
ATOM     10  C   UNL     1       6.683  -1.480  -0.700  0.00  0.00    +0.005 C 
ENDBRANCH   7   9
ENDBRANCH   4   6
ENDBRANCH   3   4
ENDBRANCH   2   3
ENDBRANCH   1   2
BRANCH   1  11
ATOM     11  C   UNL     1      -1.876   1.391   0.025  0.00  0.00    +0.090 C 
BRANCH  11  12
ATOM     12  C   UNL     1      -2.745   0.839  -1.097  0.00  0.00    +0.102 C 
BRANCH  12  14
ATOM     13  O   UNL     1      -5.407   0.946  -0.003  0.00  0.00    -0.270 OA
ATOM     14  N   UNL     1      -3.556  -0.283  -0.684  0.00  0.00    -0.300 N 
ATOM     15  C   UNL     1      -4.831  -0.125  -0.168  0.00  0.00    +0.246 C 
ATOM     16  H   UNL     1      -3.190  -1.192  -0.773  0.00  0.00    +0.150 HD
BRANCH  15  17
ATOM     17  C   UNL     1      -5.452  -1.429   0.184  0.00  0.00    +0.058 C 
ATOM     18  C   UNL     1      -6.685  -1.475   0.698  0.00  0.00    +0.005 C 
ENDBRANCH  15  17
ENDBRANCH  12  14
ENDBRANCH  11  12
ENDBRANCH   1  11
TORSDOF 9
