10065192
  -OEChem-03292013303D

 31 33  0     1  0  0  0  0  0999 V2000
    1.6291    3.5552    0.3133 Br  0  0  0  0  0  0  0  0  0  0  0  0
   -1.7988    0.0002   -0.9623 O   0  0  0  0  0  0  0  0  0  0  0  0
   -4.3459   -1.3537    0.1379 O   0  0  0  0  0  0  0  0  0  0  0  0
   -2.1292    2.7666   -0.7321 O   0  0  0  0  0  0  0  0  0  0  0  0
    0.0006   -1.3565   -0.2214 N   0  0  0  0  0  0  0  0  0  0  0  0
    2.0109   -2.3274   -0.1822 N   0  0  0  0  0  0  0  0  0  0  0  0
    0.6613    0.9687    0.0248 N   0  0  0  0  0  0  0  0  0  0  0  0
    3.0857    1.1916    0.1942 N   0  0  0  0  0  0  0  0  0  0  0  0
    4.5578   -0.6932    0.1187 N   0  0  0  0  0  0  0  0  0  0  0  0
   -1.4499   -1.2270   -0.2986 C   0  0  1  0  0  0  0  0  0  0  0  0
   -3.4160   -0.4489    0.7295 C   0  0  1  0  0  0  0  0  0  0  0  0
   -2.1498   -1.2087    1.0527 C   0  0  0  0  0  0  0  0  0  0  0  0
   -2.9569    0.5655   -0.3124 C   0  0  1  0  0  0  0  0  0  0  0  0
   -2.5488    1.8964    0.3042 C   0  0  0  0  0  0  0  0  0  0  0  0
    0.9107   -0.3455   -0.0759 C   0  0  0  0  0  0  0  0  0  0  0  0
    0.7131   -2.5275   -0.2797 C   0  0  0  0  0  0  0  0  0  0  0  0
    2.1486   -0.9681   -0.0544 C   0  0  0  0  0  0  0  0  0  0  0  0
    3.2630   -0.1472    0.0867 C   0  0  0  0  0  0  0  0  0  0  0  0
    1.8146    1.6595    0.1572 C   0  0  0  0  0  0  0  0  0  0  0  0
   -1.8105   -2.0514   -0.9256 H   0  0  0  0  0  0  0  0  0  0  0  0
   -3.8956   -0.0048    1.6056 H   0  0  0  0  0  0  0  0  0  0  0  0
   -1.5585   -0.6548    1.7916 H   0  0  0  0  0  0  0  0  0  0  0  0
   -2.3209   -2.2207    1.4323 H   0  0  0  0  0  0  0  0  0  0  0  0
   -3.7100    0.7298   -1.0915 H   0  0  0  0  0  0  0  0  0  0  0  0
   -1.7199    1.7805    1.0083 H   0  0  0  0  0  0  0  0  0  0  0  0
   -3.3946    2.3572    0.8243 H   0  0  0  0  0  0  0  0  0  0  0  0
    0.2325   -3.4898   -0.3920 H   0  0  0  0  0  0  0  0  0  0  0  0
   -3.9966   -1.6502   -0.7191 H   0  0  0  0  0  0  0  0  0  0  0  0
   -1.8744    3.6073   -0.3150 H   0  0  0  0  0  0  0  0  0  0  0  0
    4.6931   -1.6920    0.0396 H   0  0  0  0  0  0  0  0  0  0  0  0
    5.3514   -0.0757    0.2231 H   0  0  0  0  0  0  0  0  0  0  0  0
  1 19  1  0  0  0  0
  2 10  1  0  0  0  0
  2 13  1  0  0  0  0
  3 11  1  0  0  0  0
  3 28  1  0  0  0  0
  4 14  1  0  0  0  0
  4 29  1  0  0  0  0
  5 10  1  0  0  0  0
  5 15  1  0  0  0  0
  5 16  1  0  0  0  0
  6 16  2  0  0  0  0
  6 17  1  0  0  0  0
  7 15  2  0  0  0  0
  7 19  1  0  0  0  0
  8 18  1  0  0  0  0
  8 19  2  0  0  0  0
  9 18  1  0  0  0  0
  9 30  1  0  0  0  0
  9 31  1  0  0  0  0
 10 12  1  0  0  0  0
 10 20  1  0  0  0  0
 11 12  1  0  0  0  0
 11 13  1  0  0  0  0
 11 21  1  0  0  0  0
 12 22  1  0  0  0  0
 12 23  1  0  0  0  0
 13 14  1  0  0  0  0
 13 24  1  0  0  0  0
 14 25  1  0  0  0  0
 14 26  1  0  0  0  0
 15 17  1  0  0  0  0
 16 27  1  0  0  0  0
 17 18  2  0  0  0  0
M  END
> <PUBCHEM_COMPOUND_CID>
10065192

> <PUBCHEM_CONFORMER_RMSD>
0.6

> <PUBCHEM_CONFORMER_DIVERSEORDER>
1
7
9
15
12
3
13
4
5
10
8
11
2
6
14

> <PUBCHEM_MMFF94_PARTIAL_CHARGES>
23
1 -0.11
10 0.54
11 0.28
13 0.28
14 0.28
15 0.11
16 0.04
17 0.23
18 0.41
19 0.73
2 -0.56
27 0.15
28 0.4
29 0.4
3 -0.68
30 0.4
31 0.4
4 -0.68
5 0.05
6 -0.57
7 -0.57
8 -0.62
9 -0.9

> <PUBCHEM_EFFECTIVE_ROTOR_COUNT>
3

> <PUBCHEM_PHARMACOPHORE_FEATURES>
14
1 1 hydrophobe
1 2 acceptor
1 3 acceptor
1 3 donor
1 4 acceptor
1 4 donor
1 9 cation
1 9 donor
3 5 6 16 cation
3 5 7 15 cation
3 7 8 19 cation
5 2 10 11 12 13 rings
5 5 6 15 16 17 rings
6 7 8 15 17 18 19 rings

> <PUBCHEM_HEAVY_ATOM_COUNT>
19

> <PUBCHEM_ATOM_DEF_STEREO_COUNT>
3

> <PUBCHEM_ATOM_UDEF_STEREO_COUNT>
0

> <PUBCHEM_BOND_DEF_STEREO_COUNT>
0

> <PUBCHEM_BOND_UDEF_STEREO_COUNT>
0

> <PUBCHEM_ISOTOPIC_ATOM_COUNT>
0

> <PUBCHEM_COMPONENT_COUNT>
1

> <PUBCHEM_CACTVS_TAUTO_COUNT>
3

> <PUBCHEM_CONFORMER_ID>
0099952800000001

> <PUBCHEM_MMFF94_ENERGY>
39.5167

> <PUBCHEM_FEATURE_SELFOVERLAP>
71.654

> <PUBCHEM_SHAPE_FINGERPRINT>
10366900 7 18186811304468179019
10608611 8 18409166571887505335
10967382 1 18339360893590664228
11471102 20 18411980295041533022
12403259 226 18410290345521772865
12403260 363 18339634637441567355
12633257 1 18334869319945543891
13132413 78 18342456993970463948
13140716 1 18122062267272828562
14026960 21 18265338497996121299
14223421 5 18409733954331546153
14790565 3 18410865373820685412
15042514 8 16104449144917611370
15196674 1 18411138039011947704
15375462 6 18410014359924963495
15442244 35 18123189004666651738
16945 1 18411976992185432126
17802600 8 18411416228412270129
18186145 218 18059582437773246506
19049666 15 18189901911521295507
19930381 70 18123466343975017217
200 152 18201429299270547599
21501502 16 18336549304988007339
21524375 3 18128820935252600542
22094290 62 18340485694159796520
22854114 111 18341334490965722259
2334 1 17691402331616463300
23402539 116 18409724089103423367
23559900 14 18409441505713634665
238 59 18123437623391416509
2748010 2 18197778804200937366
3286 77 18333731350948412294
350125 39 18410579521449224397
44154327 71 18048603912780461069
7364860 26 18340488992610628080
7832392 63 18125441912782229417
8809292 202 18118970182871930368
9709674 26 18410016528836267507

> <PUBCHEM_SHAPE_MULTIPOLES>
354.44
6.54
3.36
0.78
0.83
2.43
-0.04
-0.5
-0.7
-1.2
0.09
0.37
0.04
0.54

> <PUBCHEM_SHAPE_SELFOVERLAP>
754.735

> <PUBCHEM_SHAPE_VOLUME>
203.5

> <PUBCHEM_COORDINATE_TYPE>
2
5
10

$$$$
