REMARK  Name = 10062887
REMARK  5 active torsions:
REMARK  status: ('A' for Active; 'I' for Inactive)
REMARK    1  A    between atoms: C_5  and  C_15
REMARK    2  A    between atoms: C_9  and  O_11
REMARK    3  A    between atoms: C_10  and  O_13
REMARK    4  A    between atoms: C_15  and  C_16
REMARK    5  A    between atoms: C_16  and  N_17
REMARK                            x       y       z     vdW  Elec       q    Type
REMARK                         _______ _______ _______ _____ _____    ______ ____
ROOT
ATOM      1  S   UNL     1      -1.297   2.561   0.451  0.00  0.00    +0.129 S 
ATOM      2  S   UNL     1       1.804   2.163   0.713  0.00  0.00    -0.042 S 
ATOM      3  S   UNL     1       0.450   3.577   0.110  0.00  0.00    +0.018 S 
ATOM      4  O   UNL     1      -1.995   2.805  -0.854  0.00  0.00    -0.240 OA
ATOM      5  C   UNL     1       1.337  -0.549   0.322  0.00  0.00    -0.014 C 
ATOM      6  C   UNL     1       0.783   0.728   0.419  0.00  0.00    +0.044 C 
ATOM      7  C   UNL     1      -0.607   0.898   0.307  0.00  0.00    +0.110 C 
ATOM      8  C   UNL     1       0.504  -1.649   0.107  0.00  0.00    +0.036 C 
ATOM      9  C   UNL     1      -1.437  -0.203   0.095  0.00  0.00    +0.182 C 
ATOM     10  C   UNL     1      -0.877  -1.476  -0.006  0.00  0.00    +0.173 C 
ENDROOT
BRANCH   9  11
ATOM     11  O   UNL     1      -2.788  -0.058  -0.009  0.00  0.00    -0.468 OA
ATOM     12  C   UNL     1      -3.393  -0.487  -1.227  0.00  0.00    +0.253 C 
ENDBRANCH   9  11
BRANCH  10  13
ATOM     13  O   UNL     1      -1.669  -2.566  -0.213  0.00  0.00    -0.468 OA
ATOM     14  C   UNL     1      -2.164  -3.236   0.944  0.00  0.00    +0.253 C 
ENDBRANCH  10  13
BRANCH   5  15
ATOM     15  C   UNL     1       2.808  -0.791   0.440  0.00  0.00    +0.003 C 
BRANCH  15  16
ATOM     16  C   UNL     1       3.548  -0.724  -0.900  0.00  0.00    -0.081 C 
BRANCH  16  17
ATOM     17  N   UNL     1       4.990  -0.992  -0.700  0.00  0.00    +0.381 N 
ATOM     18  H   UNL     1       5.473  -0.944  -1.597  0.00  0.00    -0.089 HD
ATOM     19  H   UNL     1       5.111  -1.921  -0.298  0.00  0.00    -0.089 HD
ATOM     20  H   UNL     1       5.381  -0.294  -0.066  0.00  0.00    -0.089 HD
ENDBRANCH  16  17
ENDBRANCH  15  16
ENDBRANCH   5  15
TORSDOF 5
