REMARK  Name = 100658
REMARK  11 active torsions:
REMARK  status: ('A' for Active; 'I' for Inactive)
REMARK    1  A    between atoms: C_1  and  C_2
REMARK    2  A    between atoms: C_1  and  C_15
REMARK    3  A    between atoms: C_2  and  C_3
REMARK    4  A    between atoms: C_3  and  C_4
REMARK    5  A    between atoms: C_4  and  C_6
REMARK    6  A    between atoms: C_6  and  O_7
REMARK    7  A    between atoms: O_7  and  N_10
REMARK    8  A    between atoms: C_15  and  C_16
REMARK    9  A    between atoms: C_16  and  C_18
REMARK   10  A    between atoms: C_18  and  O_19
REMARK   11  A    between atoms: O_19  and  N_22
REMARK                            x       y       z     vdW  Elec       q    Type
REMARK                         _______ _______ _______ _____ _____    ______ ____
ROOT
ATOM      1  C   UNL     1      -0.583   0.211   0.492  0.00  0.00    +0.001 C 
ENDROOT
BRANCH   1   2
ATOM      2  C   UNL     1       0.585   0.204  -0.497  0.00  0.00    +0.001 C 
BRANCH   2   3
ATOM      3  C   UNL     1       1.931   0.214   0.234  0.00  0.00    +0.012 C 
BRANCH   3   4
ATOM      4  C   UNL     1       3.118   0.174  -0.728  0.00  0.00    +0.112 C 
BRANCH   4   6
ATOM      5  O   UNL     1       4.612   0.135   1.191  0.00  0.00    -0.248 OA
ATOM      6  C   UNL     1       4.455   0.111  -0.022  0.00  0.00    +0.340 C 
BRANCH   6   7
ATOM      7  O   UNL     1       5.444  -0.006  -0.959  0.00  0.00    -0.336 OA
BRANCH   7  10
ATOM      8  O   UNL     1       7.224   2.197  -0.484  0.00  0.00    -0.267 OA
ATOM      9  O   UNL     1       6.828  -2.382  -0.129  0.00  0.00    -0.267 OA
ATOM     10  N   UNL     1       6.719  -0.070  -0.356  0.00  0.00    -0.054 N 
ATOM     11  C   UNL     1       8.735   0.594   0.519  0.00  0.00    +0.066 C 
ATOM     12  C   UNL     1       8.604  -0.926   0.637  0.00  0.00    +0.066 C 
ATOM     13  C   UNL     1       7.477   1.043  -0.174  0.00  0.00    +0.287 C 
ATOM     14  C   UNL     1       7.279  -1.254   0.004  0.00  0.00    +0.287 C 
ENDBRANCH   7  10
ENDBRANCH   6   7
ENDBRANCH   4   6
ENDBRANCH   3   4
ENDBRANCH   2   3
ENDBRANCH   1   2
BRANCH   1  15
ATOM     15  C   UNL     1      -1.929   0.157  -0.238  0.00  0.00    +0.012 C 
BRANCH  15  16
ATOM     16  C   UNL     1      -3.115   0.130   0.725  0.00  0.00    +0.112 C 
BRANCH  16  18
ATOM     17  O   UNL     1      -4.611   0.114  -1.192  0.00  0.00    -0.248 OA
ATOM     18  C   UNL     1      -4.454   0.085   0.021  0.00  0.00    +0.340 C 
BRANCH  18  19
ATOM     19  O   UNL     1      -5.443  -0.022   0.958  0.00  0.00    -0.336 OA
BRANCH  19  22
ATOM     20  O   UNL     1      -7.196   2.204   0.491  0.00  0.00    -0.267 OA
ATOM     21  O   UNL     1      -6.858  -2.378   0.125  0.00  0.00    -0.267 OA
ATOM     22  N   UNL     1      -6.720  -0.068   0.357  0.00  0.00    -0.054 N 
ATOM     23  C   UNL     1      -8.728   0.623  -0.513  0.00  0.00    +0.066 C 
ATOM     24  C   UNL     1      -8.616  -0.898  -0.635  0.00  0.00    +0.066 C 
ATOM     25  C   UNL     1      -7.464   1.054   0.179  0.00  0.00    +0.287 C 
ATOM     26  C   UNL     1      -7.294  -1.245  -0.005  0.00  0.00    +0.287 C 
ENDBRANCH  19  22
ENDBRANCH  18  19
ENDBRANCH  16  18
ENDBRANCH  15  16
ENDBRANCH   1  15
TORSDOF 11
