100699
  -OEChem-03292013323D

 53 58  0     1  0  0  0  0  0999 V2000
   -4.9921   -1.8487    0.4084 S   0  0  1  0  0  0  0  0  0  0  0  0
   -1.0049   -0.6816    0.9361 O   0  0  0  0  0  0  0  0  0  0  0  0
    4.6784    0.7690   -0.6596 O   0  0  0  0  0  0  0  0  0  0  0  0
    1.9429   -2.1427   -0.7655 O   0  0  0  0  0  0  0  0  0  0  0  0
   -2.4227    1.9489   -0.1591 O   0  0  0  0  0  0  0  0  0  0  0  0
    4.1870   -2.3082   -1.2411 O   0  0  0  0  0  0  0  0  0  0  0  0
   -2.6818   -1.3729   -1.6410 O   0  0  0  0  0  0  0  0  0  0  0  0
   -1.9799    3.9514    0.8049 O   0  0  0  0  0  0  0  0  0  0  0  0
   -6.1933   -1.0745   -0.0327 O   0  0  0  0  0  0  0  0  0  0  0  0
    2.0132   -0.3638    0.7358 C   0  0  2  0  0  0  0  0  0  0  0  0
    1.7728    0.9312   -0.1246 C   0  0  1  0  0  0  0  0  0  0  0  0
    3.4266   -0.9659    0.6547 C   0  0  2  0  0  0  0  0  0  0  0  0
   -0.7083    0.2656   -0.1011 C   0  0  2  0  0  0  0  0  0  0  0  0
   -0.2114   -1.1700   -0.1592 C   0  0  1  0  0  0  0  0  0  0  0  0
    1.1636   -1.5444    0.2843 C   0  0  1  0  0  0  0  0  0  0  0  0
    4.5283    0.0564    0.5757 C   0  0  2  0  0  0  0  0  0  0  0  0
    4.2027    1.5206    0.4591 C   0  0  2  0  0  0  0  0  0  0  0  0
    0.2958    1.3405    0.0720 C   0  0  0  0  0  0  0  0  0  0  0  0
    2.7871    1.9998    0.3693 C   0  0  0  0  0  0  0  0  0  0  0  0
   -1.9324    0.7505   -0.8282 C   0  0  1  0  0  0  0  0  0  0  0  0
    3.2781   -1.8683   -0.5539 C   0  0  0  0  0  0  0  0  0  0  0  0
    1.9169    0.7676   -1.6661 C   0  0  0  0  0  0  0  0  0  0  0  0
    3.7149   -1.8808    1.8685 C   0  0  0  0  0  0  0  0  0  0  0  0
   -0.1271    2.5966    0.2937 C   0  0  0  0  0  0  0  0  0  0  0  0
   -3.0997   -0.2252   -0.8945 C   0  0  2  0  0  0  0  0  0  0  0  0
   -1.5752    2.8899    0.3424 C   0  0  0  0  0  0  0  0  0  0  0  0
   -3.6012   -0.6719    0.4902 C   0  0  0  0  0  0  0  0  0  0  0  0
   -4.2633    0.4174   -1.6649 C   0  0  0  0  0  0  0  0  0  0  0  0
   -5.1148   -2.0864    2.1963 C   0  0  0  0  0  0  0  0  0  0  0  0
    1.7668   -0.1124    1.7781 H   0  0  0  0  0  0  0  0  0  0  0  0
   -0.6428   -1.9153   -0.8033 H   0  0  0  0  0  0  0  0  0  0  0  0
    1.0606   -2.2981    1.0741 H   0  0  0  0  0  0  0  0  0  0  0  0
    5.4477   -0.2335    1.0676 H   0  0  0  0  0  0  0  0  0  0  0  0
    4.8729    2.2438    0.9029 H   0  0  0  0  0  0  0  0  0  0  0  0
    2.5036    2.3360    1.3755 H   0  0  0  0  0  0  0  0  0  0  0  0
    2.7620    2.8871   -0.2754 H   0  0  0  0  0  0  0  0  0  0  0  0
   -1.6398    1.0359   -1.8484 H   0  0  0  0  0  0  0  0  0  0  0  0
    1.8125    1.7396   -2.1653 H   0  0  0  0  0  0  0  0  0  0  0  0
    2.8735    0.3546   -1.9839 H   0  0  0  0  0  0  0  0  0  0  0  0
    1.1504    0.1164   -2.0999 H   0  0  0  0  0  0  0  0  0  0  0  0
    3.6958   -1.3065    2.8018 H   0  0  0  0  0  0  0  0  0  0  0  0
    3.0040   -2.7073    1.9641 H   0  0  0  0  0  0  0  0  0  0  0  0
    4.7086   -2.3378    1.7836 H   0  0  0  0  0  0  0  0  0  0  0  0
    0.5443    3.4357    0.4253 H   0  0  0  0  0  0  0  0  0  0  0  0
   -3.9076    0.1797    1.1061 H   0  0  0  0  0  0  0  0  0  0  0  0
   -2.9040   -1.2858    1.0457 H   0  0  0  0  0  0  0  0  0  0  0  0
   -4.9671   -0.3265   -2.0517 H   0  0  0  0  0  0  0  0  0  0  0  0
   -3.8892    0.9278   -2.5615 H   0  0  0  0  0  0  0  0  0  0  0  0
   -4.8040    1.1582   -1.0669 H   0  0  0  0  0  0  0  0  0  0  0  0
   -2.8066   -2.1766   -1.1111 H   0  0  0  0  0  0  0  0  0  0  0  0
   -4.2022   -2.5565    2.5699 H   0  0  0  0  0  0  0  0  0  0  0  0
   -5.9645   -2.7422    2.4010 H   0  0  0  0  0  0  0  0  0  0  0  0
   -5.2738   -1.1261    2.6926 H   0  0  0  0  0  0  0  0  0  0  0  0
  1  9  2  0  0  0  0
  1 27  1  0  0  0  0
  1 29  1  0  0  0  0
  2 13  1  0  0  0  0
  2 14  1  0  0  0  0
  3 16  1  0  0  0  0
  3 17  1  0  0  0  0
  4 15  1  0  0  0  0
  4 21  1  0  0  0  0
  5 20  1  0  0  0  0
  5 26  1  0  0  0  0
  6 21  2  0  0  0  0
  7 25  1  0  0  0  0
  7 50  1  0  0  0  0
  8 26  2  0  0  0  0
 10 11  1  0  0  0  0
 10 12  1  0  0  0  0
 10 15  1  0  0  0  0
 10 30  1  0  0  0  0
 11 18  1  0  0  0  0
 11 19  1  0  0  0  0
 11 22  1  0  0  0  0
 12 16  1  0  0  0  0
 12 21  1  0  0  0  0
 12 23  1  0  0  0  0
 13 14  1  0  0  0  0
 13 18  1  0  0  0  0
 13 20  1  0  0  0  0
 14 15  1  0  0  0  0
 14 31  1  0  0  0  0
 15 32  1  0  0  0  0
 16 17  1  0  0  0  0
 16 33  1  0  0  0  0
 17 19  1  0  0  0  0
 17 34  1  0  0  0  0
 18 24  2  0  0  0  0
 19 35  1  0  0  0  0
 19 36  1  0  0  0  0
 20 25  1  0  0  0  0
 20 37  1  0  0  0  0
 22 38  1  0  0  0  0
 22 39  1  0  0  0  0
 22 40  1  0  0  0  0
 23 41  1  0  0  0  0
 23 42  1  0  0  0  0
 23 43  1  0  0  0  0
 24 26  1  0  0  0  0
 24 44  1  0  0  0  0
 25 27  1  0  0  0  0
 25 28  1  0  0  0  0
 27 45  1  0  0  0  0
 27 46  1  0  0  0  0
 28 47  1  0  0  0  0
 28 48  1  0  0  0  0
 28 49  1  0  0  0  0
 29 51  1  0  0  0  0
 29 52  1  0  0  0  0
 29 53  1  0  0  0  0
M  END
> <PUBCHEM_COMPOUND_CID>
100699

> <PUBCHEM_CONFORMER_RMSD>
0.8

> <PUBCHEM_CONFORMER_DIVERSEORDER>
1
2

> <PUBCHEM_MMFF94_PARTIAL_CHARGES>
30
1 0.11
11 0.14
12 0.16
13 0.09
14 -0.05
15 0.38
16 -0.05
17 -0.05
18 -0.18
19 0.09
2 -0.3
20 0.38
21 0.66
24 -0.14
25 0.28
26 0.71
27 0.19
29 0.19
3 -0.3
31 0.1
33 0.1
34 0.1
4 -0.43
44 0.15
5 -0.43
50 0.4
6 -0.57
7 -0.68
8 -0.57
9 -0.5

> <PUBCHEM_EFFECTIVE_ROTOR_COUNT>
4.2

> <PUBCHEM_PHARMACOPHORE_FEATURES>
11
1 2 acceptor
1 3 acceptor
1 6 acceptor
1 7 acceptor
1 7 donor
1 8 acceptor
1 9 acceptor
5 4 10 12 15 21 rings
6 5 13 18 20 24 26 rings
7 2 10 11 13 14 15 18 rings
7 3 10 11 12 16 17 19 rings

> <PUBCHEM_HEAVY_ATOM_COUNT>
29

> <PUBCHEM_ATOM_DEF_STEREO_COUNT>
9

> <PUBCHEM_ATOM_UDEF_STEREO_COUNT>
2

> <PUBCHEM_BOND_DEF_STEREO_COUNT>
0

> <PUBCHEM_BOND_UDEF_STEREO_COUNT>
0

> <PUBCHEM_ISOTOPIC_ATOM_COUNT>
0

> <PUBCHEM_COMPONENT_COUNT>
1

> <PUBCHEM_CACTVS_TAUTO_COUNT>
1

> <PUBCHEM_CONFORMER_ID>
0001895B00000001

> <PUBCHEM_MMFF94_ENERGY>
107.5178

> <PUBCHEM_FEATURE_SELFOVERLAP>
56.009

> <PUBCHEM_SHAPE_FINGERPRINT>
10673678 19 17243026914427615500
10863032 1 18058160623378741460
11578080 2 12685962352992505884
11595378 159 16845026649204158795
11796584 16 17313376885951658987
12166972 35 17530683221361062780
12236239 1 17417817287676209683
12422481 6 17845669040538516499
12516196 113 18411139182275140883
12553582 1 18272078448471384013
12633257 1 17976813186878238088
12788726 201 18412258415569664641
13140716 1 17977660145759960088
13224815 77 18410011009444063302
13402501 40 18115027540908643515
13544653 18 18260832631026925595
13782708 43 17822292457455520283
14178342 30 17979619161789678306
14223421 5 18341609283327066376
14787075 74 18115869770529926323
14790565 3 17400367144611554045
14840074 17 18059860622625673685
14955137 171 18197225947605154337
15196674 1 18409443661444299821
15927050 60 17332246905711903005
16945 1 18341332279885785240
17349148 13 18186236242875488968
17492 89 18339640027773717070
1813 80 17967537882689886789
20691752 17 17314237670359395328
21267235 1 18410857655452743878
21623969 137 18336829796348901939
221490 88 18269557152703648006
23557571 272 18334013916883745907
23558518 356 18261965028644631664
23559900 14 18115294597532123338
25222932 49 18124875913402541783
312423 11 18263083232497295018
3380486 145 17973743650744739683
350125 39 18341898446205501184
392239 28 18056739143711968448
463206 1 18194396925488221719
5104073 3 18338791230402926017
5283173 99 18041266683163353709
59755656 215 18337115652366314902
7832392 63 17909826540277643792
9709674 26 18341328877817967268

> <PUBCHEM_SHAPE_MULTIPOLES>
553.7
10.6
3.2
1.44
7.1
1.86
0
-5.63
-1.2
0.47
-0.88
0.61
-0.57
0.83

> <PUBCHEM_SHAPE_SELFOVERLAP>
1213.622

> <PUBCHEM_SHAPE_VOLUME>
305.2

> <PUBCHEM_COORDINATE_TYPE>
2
5
10

$$$$
