100681
  -OEChem-03292013323D

 42 44  0     0  0  0  0  0  0999 V2000
    4.5166    1.0462   -0.4083 O   0  0  0  0  0  0  0  0  0  0  0  0
    4.5116   -1.4341   -1.8555 O   0  0  0  0  0  0  0  0  0  0  0  0
    6.7947    0.9796    1.3393 O   0  0  0  0  0  0  0  0  0  0  0  0
    3.2241    0.0256    1.2103 O   0  0  0  0  0  0  0  0  0  0  0  0
   -6.0907    1.9008   -0.2818 O   0  0  0  0  0  0  0  0  0  0  0  0
   -5.2258   -2.5818    0.5087 O   0  0  0  0  0  0  0  0  0  0  0  0
    5.4120   -0.0316   -0.2336 N   0  0  0  0  0  0  0  0  0  0  0  0
   -5.1477   -0.2517    0.0582 N   0  0  0  0  0  0  0  0  0  0  0  0
    0.4504    0.7223   -0.5418 C   0  0  0  0  0  0  0  0  0  0  0  0
    1.0295    1.7491    0.4422 C   0  0  0  0  0  0  0  0  0  0  0  0
   -1.0262    0.4653   -0.3834 C   0  0  0  0  0  0  0  0  0  0  0  0
    2.4973    2.0967    0.1852 C   0  0  0  0  0  0  0  0  0  0  0  0
    6.3983   -2.0890   -0.4880 C   0  0  0  0  0  0  0  0  0  0  0  0
    7.1562   -1.2877    0.5727 C   0  0  0  0  0  0  0  0  0  0  0  0
    5.3123   -1.1671   -0.9729 C   0  0  0  0  0  0  0  0  0  0  0  0
    6.4579    0.0441    0.6302 C   0  0  0  0  0  0  0  0  0  0  0  0
   -3.7444   -0.0074   -0.0923 C   0  0  0  0  0  0  0  0  0  0  0  0
   -1.4559   -0.5377    0.4730 C   0  0  0  0  0  0  0  0  0  0  0  0
   -1.9326    1.2358   -1.0969 C   0  0  0  0  0  0  0  0  0  0  0  0
    3.4270    0.9249    0.4043 C   0  0  0  0  0  0  0  0  0  0  0  0
   -2.8227   -0.7754    0.6194 C   0  0  0  0  0  0  0  0  0  0  0  0
   -3.2993    0.9981   -0.9504 C   0  0  0  0  0  0  0  0  0  0  0  0
   -6.1391    0.7006   -0.0680 C   0  0  0  0  0  0  0  0  0  0  0  0
   -5.7154   -1.4752    0.3521 C   0  0  0  0  0  0  0  0  0  0  0  0
   -7.4194    0.0146    0.1595 C   0  0  0  0  0  0  0  0  0  0  0  0
   -7.1690   -1.2650    0.4180 C   0  0  0  0  0  0  0  0  0  0  0  0
    0.9881   -0.2300   -0.4481 H   0  0  0  0  0  0  0  0  0  0  0  0
    0.6424    1.0575   -1.5700 H   0  0  0  0  0  0  0  0  0  0  0  0
    0.9089    1.3773    1.4676 H   0  0  0  0  0  0  0  0  0  0  0  0
    0.4435    2.6751    0.3803 H   0  0  0  0  0  0  0  0  0  0  0  0
    2.8146    2.9004    0.8583 H   0  0  0  0  0  0  0  0  0  0  0  0
    2.6034    2.4541   -0.8457 H   0  0  0  0  0  0  0  0  0  0  0  0
    5.9540   -2.9927   -0.0610 H   0  0  0  0  0  0  0  0  0  0  0  0
    7.0522   -2.3622   -1.3213 H   0  0  0  0  0  0  0  0  0  0  0  0
    8.2033   -1.1455    0.2896 H   0  0  0  0  0  0  0  0  0  0  0  0
    7.1055   -1.7752    1.5506 H   0  0  0  0  0  0  0  0  0  0  0  0
   -0.7457   -1.1352    1.0376 H   0  0  0  0  0  0  0  0  0  0  0  0
   -1.5956    2.0186   -1.7705 H   0  0  0  0  0  0  0  0  0  0  0  0
   -3.1340   -1.5468    1.3169 H   0  0  0  0  0  0  0  0  0  0  0  0
   -3.9869    1.5965   -1.5401 H   0  0  0  0  0  0  0  0  0  0  0  0
   -8.3828    0.4951    0.1271 H   0  0  0  0  0  0  0  0  0  0  0  0
   -7.8880   -2.0382    0.6311 H   0  0  0  0  0  0  0  0  0  0  0  0
  1  7  1  0  0  0  0
  1 20  1  0  0  0  0
  2 15  2  0  0  0  0
  3 16  2  0  0  0  0
  4 20  2  0  0  0  0
  5 23  2  0  0  0  0
  6 24  2  0  0  0  0
  7 15  1  0  0  0  0
  7 16  1  0  0  0  0
  8 17  1  0  0  0  0
  8 23  1  0  0  0  0
  8 24  1  0  0  0  0
  9 10  1  0  0  0  0
  9 11  1  0  0  0  0
  9 27  1  0  0  0  0
  9 28  1  0  0  0  0
 10 12  1  0  0  0  0
 10 29  1  0  0  0  0
 10 30  1  0  0  0  0
 11 18  2  0  0  0  0
 11 19  1  0  0  0  0
 12 20  1  0  0  0  0
 12 31  1  0  0  0  0
 12 32  1  0  0  0  0
 13 14  1  0  0  0  0
 13 15  1  0  0  0  0
 13 33  1  0  0  0  0
 13 34  1  0  0  0  0
 14 16  1  0  0  0  0
 14 35  1  0  0  0  0
 14 36  1  0  0  0  0
 17 21  2  0  0  0  0
 17 22  1  0  0  0  0
 18 21  1  0  0  0  0
 18 37  1  0  0  0  0
 19 22  2  0  0  0  0
 19 38  1  0  0  0  0
 21 39  1  0  0  0  0
 22 40  1  0  0  0  0
 23 25  1  0  0  0  0
 24 26  1  0  0  0  0
 25 26  2  0  0  0  0
 25 41  1  0  0  0  0
 26 42  1  0  0  0  0
M  END
> <PUBCHEM_COMPOUND_CID>
100681

> <PUBCHEM_CONFORMER_RMSD>
0.8

> <PUBCHEM_CONFORMER_DIVERSEORDER>
1
269
33
60
303
54
261
214
87
127
335
26
216
14
326
255
238
95
71
79
300
339
34
316
132
188
297
249
254
38
383
312
287
362
69
353
50
345
365
299
138
239
321
153
225
61
338
101
175
322
357
354
343
6
374
72
358
116
155
190
277
90
233
307
174
16
386
264
194
148
384
166
298
141
98
76
159
368
262
270
93
369
129
110
324
218
89
144
44
252
320
63
122
213
158
137
111
169
146
86
185
165
78
10
187
74
177
85
112
325
143
46
182
344
142
379
375
189
241
376
364
49
18
198
355
192
117
210
125
311
332
267
219
180
171
19
314
94
215
302
200
27
106
308
102
139
337
342
195
288
184
253
157
4
278
352
24
77
176
118
237
68
306
363
245
104
151
55
92
282
147
280
84
152
97
160
9
381
378
331
367
156
279
183
240
145
285
67
263
234
52
243
292
167
91
123
230
36
229
366
286
232
149
359
273
206
341
236
349
199
258
356
380
73
372
7
309
228
377
30
162
201
42
83
53
361
191
134
370
66
301
336
223
56
226
136
11
313
235
333
231
207
329
21
211
186
360
57
28
318
99
131
244
178
373
135
385
37
205
113
221
119
305
114
40
274
276
80
346
15
227
13
283
315
328
197
103
100
164
293
161
109
65
387
45
319
150
217
266
82
317
371
96
247
323
20
259
304
290
382
32
62
212
347
121
242
172
31
291
48
275
173
115
41
271
268
334
25
350
126
340
181
351
170
265
3
246
5
17
281
35
348
59
154
260
203
105
140
39
168
29
2
193
12
108
133
289
8
294
310
47
256
88
196
58
209
163
248
51
208
220
204
327
64
179
22
330
251
107
70
23
128
257
222
284
81
224
250
202
130
75
295
43
296
124
272
120

> <PUBCHEM_MMFF94_PARTIAL_CHARGES>
31
1 -0.19
11 -0.14
12 0.06
13 0.06
14 0.06
15 0.57
16 0.57
17 0.12
18 -0.15
19 -0.15
2 -0.57
20 0.66
21 -0.15
22 -0.15
23 0.62
24 0.62
25 -0.14
26 -0.14
3 -0.57
37 0.15
38 0.15
39 0.15
4 -0.57
40 0.15
41 0.15
42 0.15
5 -0.57
6 -0.57
7 -0.08
8 -0.24
9 0.14

> <PUBCHEM_EFFECTIVE_ROTOR_COUNT>
7.8

> <PUBCHEM_PHARMACOPHORE_FEATURES>
8
1 2 acceptor
1 3 acceptor
1 4 acceptor
1 5 acceptor
1 6 acceptor
5 7 13 14 15 16 rings
5 8 23 24 25 26 rings
6 11 17 18 19 21 22 rings

> <PUBCHEM_HEAVY_ATOM_COUNT>
26

> <PUBCHEM_ATOM_DEF_STEREO_COUNT>
0

> <PUBCHEM_ATOM_UDEF_STEREO_COUNT>
0

> <PUBCHEM_BOND_DEF_STEREO_COUNT>
0

> <PUBCHEM_BOND_UDEF_STEREO_COUNT>
0

> <PUBCHEM_ISOTOPIC_ATOM_COUNT>
0

> <PUBCHEM_COMPONENT_COUNT>
1

> <PUBCHEM_CACTVS_TAUTO_COUNT>
3

> <PUBCHEM_CONFORMER_ID>
0001894900000001

> <PUBCHEM_MMFF94_ENERGY>
59.5512

> <PUBCHEM_FEATURE_SELFOVERLAP>
40.6

> <PUBCHEM_SHAPE_FINGERPRINT>
10299344 5 17822010904103215736
10638233 991 14851609885980987623
11524674 6 17846498158295396631
11991303 11 13767935649271769593
12516196 113 18272369776303837000
13533116 47 17918275376619918640
13617811 41 16732702748501499479
13673619 4 18186801383014857356
13685833 64 18413389830646960128
13782708 43 18334857246597301679
13885169 127 18409446956032667849
13914758 101 17703797977238444617
14216079 64 18408322185606953663
14251757 52 12319443434246768362
14251764 18 14405181776677262169
14344974 204 18118974835145731643
14420673 8 18335422383353624067
14556957 393 14634869708760359711
14617045 38 17821727225782006323
14856354 85 15936415550795542843
15183329 4 18186520990332455920
15352257 5 18408886226239806319
15419008 42 18055351327771767533
15419008 91 18337089225121994716
15510800 12 18058457509036123806
1979834 28 17275391980532214582
19841028 212 18336263419776944082
21130935 74 18343302569756775994
21150785 3 13118001115485687065
21267235 1 17894916269910875073
21623969 137 18131634474329468998
21781051 124 16950860183774576035
23035841 295 17676486155464375841
23522609 53 17750540423695478701
23559900 14 18335980986626451833
3004659 81 18113057134646319572
34797466 226 17603590759483820316
4073 2 17969224606251234362
4339292 15 15410598334701952965
437815 12 18410013247391569825
439807 62 18187646869334537722
465052 167 18342741832001266308
5758199 1 12319742470769466181
59682541 52 13045936868881145280
59755656 215 18260830384590510579
9831232 110 18408608041419022102

> <PUBCHEM_SHAPE_MULTIPOLES>
489.89
23.93
2.03
1.05
3.35
0.33
0.17
9.09
-2.5
0.07
0.04
1.19
0.08
1.92

> <PUBCHEM_SHAPE_SELFOVERLAP>
1055.823

> <PUBCHEM_SHAPE_VOLUME>
267.2

> <PUBCHEM_COORDINATE_TYPE>
2
5
10

$$$$
