REMARK  Name = 10061431
REMARK  2 active torsions:
REMARK  status: ('A' for Active; 'I' for Inactive)
REMARK    1  A    between atoms: C_11  and  C_17
REMARK    2  A    between atoms: C_12  and  C_22
REMARK                            x       y       z     vdW  Elec       q    Type
REMARK                         _______ _______ _______ _____ _____    ______ ____
ROOT
ATOM      1  N   UNL     1       1.367  -0.564   0.002  0.00  0.00    -0.395 NA
ATOM      2  N   UNL     1      -1.368  -0.564  -0.001  0.00  0.00    -0.395 NA
ATOM      3  C   UNL     1       0.697   0.607   0.001  0.00  0.00    +0.161 C 
ATOM      4  C   UNL     1      -0.697   0.607  -0.001  0.00  0.00    +0.161 C 
ATOM      5  C   UNL     1       1.392   1.837   0.002  0.00  0.00    +0.032 C 
ATOM      6  C   UNL     1      -1.392   1.837  -0.002  0.00  0.00    +0.032 C 
ATOM      7  C   UNL     1       0.694   3.048   0.001  0.00  0.00    +0.003 C 
ATOM      8  C   UNL     1      -0.694   3.048  -0.001  0.00  0.00    +0.003 C 
ATOM      9  C   UNL     1       2.794   1.816   0.003  0.00  0.00    +0.005 C 
ATOM     10  C   UNL     1      -2.794   1.816  -0.004  0.00  0.00    +0.005 C 
ATOM     11  C   UNL     1       2.720  -0.544   0.004  0.00  0.00    +0.184 C 
ATOM     12  C   UNL     1      -2.720  -0.544  -0.003  0.00  0.00    +0.184 C 
ATOM     13  C   UNL     1       3.475   0.609   0.004  0.00  0.00    +0.037 C 
ATOM     14  C   UNL     1      -3.475   0.609  -0.004  0.00  0.00    +0.037 C 
ENDROOT
BRANCH  11  17
ATOM     15  O   UNL     1       4.598  -2.000  -0.014  0.00  0.00    -0.268 OA
ATOM     16  N   UNL     1       2.544  -2.965   0.004  0.00  0.00    -0.323 N 
ATOM     17  C   UNL     1       3.367  -1.844   0.004  0.00  0.00    +0.273 C 
ATOM     18  H   UNL     1       2.940  -3.866   0.004  0.00  0.00    +0.145 HD
ATOM     19  H   UNL     1       1.565  -2.857   0.003  0.00  0.00    +0.145 HD
ENDBRANCH  11  17
BRANCH  12  22
ATOM     20  O   UNL     1      -4.598  -2.000   0.013  0.00  0.00    -0.268 OA
ATOM     21  N   UNL     1      -2.544  -2.965  -0.003  0.00  0.00    -0.323 N 
ATOM     22  C   UNL     1      -3.367  -1.844  -0.004  0.00  0.00    +0.273 C 
ATOM     23  H   UNL     1      -2.939  -3.866  -0.004  0.00  0.00    +0.145 HD
ATOM     24  H   UNL     1      -1.565  -2.857  -0.002  0.00  0.00    +0.145 HD
ENDBRANCH  12  22
TORSDOF 2
