REMARK  Name = 100669
REMARK  3 active torsions:
REMARK  status: ('A' for Active; 'I' for Inactive)
REMARK    1  A    between atoms: C_7  and  C_16
REMARK    2  A    between atoms: C_13  and  O_26
REMARK    3  A    between atoms: O_26  and  C_27
REMARK                            x       y       z     vdW  Elec       q    Type
REMARK                         _______ _______ _______ _____ _____    ______ ____
ROOT
ATOM      1  O   UNL     1       4.984  -1.536  -0.208  0.00  0.00    -0.226 OA
ATOM      2  N   UNL     1      -0.509   2.195   0.299  0.00  0.00    -0.325 N 
ATOM      3  N   UNL     1      -1.427  -0.453  -0.029  0.00  0.00    -0.399 NA
ATOM      4  N   UNL     1       2.221  -0.955  -0.142  0.00  0.00    -0.370 NA
ATOM      5  N   UNL     1       4.008   0.573   0.095  0.00  0.00    -0.225 N 
ATOM      6  C   UNL     1      -1.886   1.985  -0.096  0.00  0.00    +0.147 C 
ATOM      7  C   UNL     1      -2.290   0.519  -0.029  0.00  0.00    +0.129 C 
ATOM      8  C   UNL     1       0.400   1.164   0.144  0.00  0.00    +0.083 C 
ATOM      9  C   UNL     1      -0.060  -0.143  -0.035  0.00  0.00    +0.187 C 
ATOM     10  C   UNL     1       1.775   1.395   0.201  0.00  0.00    +0.065 C 
ATOM     11  C   UNL     1       0.885  -1.153  -0.173  0.00  0.00    +0.210 C 
ATOM     12  C   UNL     1       2.632   0.316   0.049  0.00  0.00    +0.191 C 
ATOM     13  C   UNL     1       5.059  -0.327  -0.030  0.00  0.00    +0.407 C 
ATOM     14  H   UNL     1      -0.224   3.060   0.673  0.00  0.00    +0.147 HD
ATOM     15  H   UNL     1       4.263   1.514   0.234  0.00  0.00    +0.161 HD
ATOM     16  N   UNL     1       0.422  -2.480  -0.365  0.00  0.00    -0.331 N 
ATOM     17  H   UNL     1       1.068  -3.216  -0.467  0.00  0.00    +0.145 HD
ATOM     18  H   UNL     1      -0.544  -2.664  -0.398  0.00  0.00    +0.145 HD
ENDROOT
BRANCH   7  19
ATOM     19  C   UNL     1      -3.748   0.189  -0.005  0.00  0.00    +0.027 C 
ATOM     20  C   UNL     1      -4.657   1.028  -0.641  0.00  0.00    +0.002 C 
ATOM     21  C   UNL     1      -4.186  -0.957   0.652  0.00  0.00    +0.002 C 
ATOM     22  C   UNL     1      -6.462  -0.427   0.038  0.00  0.00    -0.022 C 
ATOM     23  C   UNL     1      -6.018   0.720  -0.620  0.00  0.00    -0.004 C 
ATOM     24  C   UNL     1      -5.546  -1.266   0.674  0.00  0.00    -0.004 C 
ATOM     25  C   UNL     1      -7.917  -0.757   0.062  0.00  0.00    +0.031 C 
ENDBRANCH   7  19
BRANCH  13  26
ATOM     26  O   UNL     1       6.245   0.350   0.077  0.00  0.00    -0.434 OA
BRANCH  26  27
ATOM     27  C   UNL     1       7.434  -0.442  -0.030  0.00  0.00    +0.210 C 
ATOM     28  C   UNL     1       8.641   0.460   0.111  0.00  0.00    +0.051 C 
ENDBRANCH  26  27
ENDBRANCH  13  26
TORSDOF 3
