REMARK  Name = 100606
REMARK  12 active torsions:
REMARK  status: ('A' for Active; 'I' for Inactive)
REMARK    1  A    between atoms: C_1  and  C_2
REMARK    2  A    between atoms: C_1  and  C_12
REMARK    3  A    between atoms: C_2  and  C_3
REMARK    4  A    between atoms: C_3  and  C_4
REMARK    5  A    between atoms: C_4  and  O_5
REMARK    6  A    between atoms: O_5  and  S_6
REMARK    7  A    between atoms: S_6  and  N_9
REMARK    8  A    between atoms: C_12  and  C_13
REMARK    9  A    between atoms: C_13  and  C_14
REMARK   10  A    between atoms: C_14  and  O_15
REMARK   11  A    between atoms: O_15  and  S_16
REMARK   12  A    between atoms: S_16  and  N_19
REMARK                            x       y       z     vdW  Elec       q    Type
REMARK                         _______ _______ _______ _____ _____    ______ ____
ROOT
ATOM      1  C   UNL     1       0.006   0.504   0.051  0.00  0.00    +0.000 C 
ENDROOT
BRANCH   1   2
ATOM      2  C   UNL     1      -1.258  -0.358   0.057  0.00  0.00    +0.003 C 
BRANCH   2   3
ATOM      3  C   UNL     1      -2.521   0.508   0.043  0.00  0.00    +0.035 C 
BRANCH   3   4
ATOM      4  C   UNL     1      -3.794  -0.330   0.022  0.00  0.00    +0.174 C 
BRANCH   4   5
ATOM      5  O   UNL     1      -4.933   0.518  -0.001  0.00  0.00    -0.230 OA
BRANCH   5   6
ATOM      6  S   UNL     1      -6.432  -0.134  -0.026  0.00  0.00    +0.045 S 
ATOM      7  O   UNL     1      -6.601  -0.856  -1.274  0.00  0.00    -0.056 OA
ATOM      8  O   UNL     1      -6.626  -0.818   1.240  0.00  0.00    -0.056 OA
BRANCH   6   9
ATOM      9  N   UNL     1      -7.478   1.224  -0.049  0.00  0.00    -0.204 NA
ATOM     10  H   UNL     1      -7.364   1.726  -0.929  0.00  0.00    +0.144 HD
ATOM     11  H   UNL     1      -7.248   1.843   0.728  0.00  0.00    +0.144 HD
ENDBRANCH   6   9
ENDBRANCH   5   6
ENDBRANCH   4   5
ENDBRANCH   3   4
ENDBRANCH   2   3
ENDBRANCH   1   2
BRANCH   1  12
ATOM     12  C   UNL     1       1.269  -0.359   0.025  0.00  0.00    +0.003 C 
BRANCH  12  13
ATOM     13  C   UNL     1       2.529   0.502  -0.014  0.00  0.00    +0.035 C 
BRANCH  13  14
ATOM     14  C   UNL     1       3.791  -0.348   0.003  0.00  0.00    +0.174 C 
BRANCH  14  15
ATOM     15  O   UNL     1       4.924   0.509  -0.020  0.00  0.00    -0.230 OA
BRANCH  15  16
ATOM     16  S   UNL     1       6.428  -0.132  -0.008  0.00  0.00    +0.045 S 
ATOM     17  O   UNL     1       6.629  -0.819   1.254  0.00  0.00    -0.056 OA
ATOM     18  O   UNL     1       6.601  -0.847  -1.260  0.00  0.00    -0.056 OA
BRANCH  16  19
ATOM     19  N   UNL     1       7.465   1.234  -0.043  0.00  0.00    -0.204 NA
ATOM     20  H   UNL     1       7.365   1.759   0.826  0.00  0.00    +0.144 HD
ATOM     21  H   UNL     1       7.214   1.831  -0.832  0.00  0.00    +0.144 HD
ENDBRANCH  16  19
ENDBRANCH  15  16
ENDBRANCH  14  15
ENDBRANCH  13  14
ENDBRANCH  12  13
ENDBRANCH   1  12
TORSDOF 12
