REMARK  Name = 100682
REMARK  7 active torsions:
REMARK  status: ('A' for Active; 'I' for Inactive)
REMARK    1  A    between atoms: C_1  and  C_3
REMARK    2  A    between atoms: C_1  and  C_12
REMARK    3  A    between atoms: C_3  and  O_4
REMARK    4  A    between atoms: O_4  and  N_7
REMARK    5  A    between atoms: C_12  and  S_13
REMARK    6  A    between atoms: S_13  and  S_14
REMARK    7  A    between atoms: S_14  and  C_16
REMARK                            x       y       z     vdW  Elec       q    Type
REMARK                         _______ _______ _______ _____ _____    ______ ____
ROOT
ATOM      1  C   UNL     1      -0.968  -2.997  -0.419  0.00  0.00    +0.124 C 
ENDROOT
BRANCH   1   3
ATOM      2  O   UNL     1      -2.282  -1.762   1.214  0.00  0.00    -0.248 OA
ATOM      3  C   UNL     1      -1.684  -1.790   0.147  0.00  0.00    +0.341 C 
BRANCH   3   4
ATOM      4  O   UNL     1      -1.550  -0.749  -0.729  0.00  0.00    -0.336 OA
BRANCH   4   7
ATOM      5  O   UNL     1      -0.395   1.313   0.902  0.00  0.00    -0.267 OA
ATOM      6  O   UNL     1      -4.228   0.088  -1.347  0.00  0.00    -0.267 OA
ATOM      7  N   UNL     1      -2.201   0.411  -0.253  0.00  0.00    -0.054 N 
ATOM      8  C   UNL     1      -2.564   2.387   0.858  0.00  0.00    +0.066 C 
ATOM      9  C   UNL     1      -3.837   1.980   0.112  0.00  0.00    +0.066 C 
ATOM     10  C   UNL     1      -1.556   1.322   0.521  0.00  0.00    +0.287 C 
ATOM     11  C   UNL     1      -3.479   0.707  -0.607  0.00  0.00    +0.287 C 
ENDBRANCH   4   7
ENDBRANCH   3   4
ENDBRANCH   1   3
BRANCH   1  12
ATOM     12  C   UNL     1       0.522  -2.730  -0.604  0.00  0.00    +0.081 C 
BRANCH  12  13
ATOM     13  S   UNL     1       1.304  -2.332   0.984  0.00  0.00    -0.076 S 
BRANCH  13  14
ATOM     14  S   UNL     1       3.258  -2.032   0.417  0.00  0.00    -0.036 S 
BRANCH  14  16
ATOM     15  N   UNL     1       2.946   0.544   1.074  0.00  0.00    -0.237 NA
ATOM     16  C   UNL     1       3.272  -0.285   0.057  0.00  0.00    +0.116 C 
ATOM     17  C   UNL     1       3.605   0.145  -1.218  0.00  0.00    +0.026 C 
ATOM     18  C   UNL     1       3.605   1.513  -1.464  0.00  0.00    +0.004 C 
ATOM     19  C   UNL     1       3.275   2.398  -0.443  0.00  0.00    +0.021 C 
ATOM     20  C   UNL     1       2.956   1.867   0.797  0.00  0.00    +0.099 C 
ENDBRANCH  14  16
ENDBRANCH  13  14
ENDBRANCH  12  13
ENDBRANCH   1  12
TORSDOF 7
