REMARK  Name = 100681
REMARK  7 active torsions:
REMARK  status: ('A' for Active; 'I' for Inactive)
REMARK    1  A    between atoms: C_1  and  C_2
REMARK    2  A    between atoms: C_1  and  C_15
REMARK    3  A    between atoms: C_3  and  N_10
REMARK    4  A    between atoms: C_15  and  C_16
REMARK    5  A    between atoms: C_16  and  C_18
REMARK    6  A    between atoms: C_18  and  O_19
REMARK    7  A    between atoms: O_19  and  N_22
REMARK                            x       y       z     vdW  Elec       q    Type
REMARK                         _______ _______ _______ _____ _____    ______ ____
ROOT
ATOM      1  C   UNL     1       0.450   0.722  -0.542  0.00  0.00    +0.027 C 
ENDROOT
BRANCH   1   2
ATOM      2  C   UNL     1      -1.026   0.465  -0.383  0.00  0.00    -0.022 C 
ATOM      3  C   UNL     1      -3.744  -0.007  -0.092  0.00  0.00    +0.061 C 
ATOM      4  C   UNL     1      -1.456  -0.538   0.473  0.00  0.00    -0.003 C 
ATOM      5  C   UNL     1      -1.933   1.236  -1.097  0.00  0.00    -0.003 C 
ATOM      6  C   UNL     1      -2.823  -0.775   0.619  0.00  0.00    +0.015 C 
ATOM      7  C   UNL     1      -3.299   0.998  -0.950  0.00  0.00    +0.015 C 
BRANCH   3  10
ATOM      8  O   UNL     1      -6.091   1.901  -0.282  0.00  0.00    -0.269 OA
ATOM      9  O   UNL     1      -5.226  -2.582   0.509  0.00  0.00    -0.269 OA
ATOM     10  N   UNL     1      -5.148  -0.252   0.058  0.00  0.00    -0.201 N 
ATOM     11  C   UNL     1      -6.139   0.701  -0.068  0.00  0.00    +0.259 C 
ATOM     12  C   UNL     1      -5.715  -1.475   0.352  0.00  0.00    +0.259 C 
ATOM     13  C   UNL     1      -7.419   0.015   0.160  0.00  0.00    +0.063 C 
ATOM     14  C   UNL     1      -7.169  -1.265   0.418  0.00  0.00    +0.063 C 
ENDBRANCH   3  10
ENDBRANCH   1   2
BRANCH   1  15
ATOM     15  C   UNL     1       1.030   1.749   0.442  0.00  0.00    +0.016 C 
BRANCH  15  16
ATOM     16  C   UNL     1       2.497   2.097   0.185  0.00  0.00    +0.112 C 
BRANCH  16  18
ATOM     17  O   UNL     1       3.224   0.026   1.210  0.00  0.00    -0.248 OA
ATOM     18  C   UNL     1       3.427   0.925   0.404  0.00  0.00    +0.340 C 
BRANCH  18  19
ATOM     19  O   UNL     1       4.517   1.046  -0.408  0.00  0.00    -0.336 OA
BRANCH  19  22
ATOM     20  O   UNL     1       4.512  -1.434  -1.855  0.00  0.00    -0.267 OA
ATOM     21  O   UNL     1       6.795   0.980   1.339  0.00  0.00    -0.267 OA
ATOM     22  N   UNL     1       5.412  -0.032  -0.234  0.00  0.00    -0.054 N 
ATOM     23  C   UNL     1       6.398  -2.089  -0.488  0.00  0.00    +0.066 C 
ATOM     24  C   UNL     1       7.156  -1.288   0.573  0.00  0.00    +0.066 C 
ATOM     25  C   UNL     1       5.312  -1.167  -0.973  0.00  0.00    +0.287 C 
ATOM     26  C   UNL     1       6.458   0.044   0.630  0.00  0.00    +0.287 C 
ENDBRANCH  19  22
ENDBRANCH  18  19
ENDBRANCH  16  18
ENDBRANCH  15  16
ENDBRANCH   1  15
TORSDOF 7
