REMARK  Name = 10069845
REMARK  10 active torsions:
REMARK  status: ('A' for Active; 'I' for Inactive)
REMARK    1  A    between atoms: N_1  and  C_8
REMARK    2  A    between atoms: N_1  and  CA_20
REMARK    3  A    between atoms: C_7  and  C_17
REMARK    4  A    between atoms: C_17  and  O_18
REMARK    5  A    between atoms: CA_20  and  C_22
REMARK    6  A    between atoms: CA_20  and  C_25
REMARK    7  A    between atoms: C_22  and  O_23
REMARK    8  A    between atoms: C_25  and  C_26
REMARK    9  A    between atoms: C_26  and  C_27
REMARK   10  A    between atoms: C_32  and  O_33
REMARK                            x       y       z     vdW  Elec       q    Type
REMARK                         _______ _______ _______ _____ _____    ______ ____
ROOT
ATOM      1  N   UNL     1      -0.019  -1.492   0.910  0.00  0.00    +0.399 N 
ATOM      2  H1  UNL     1       0.214  -2.456   1.150  0.00  0.00    -0.083 HD
ATOM      3  H2  UNL     1       0.185  -0.871   1.693  0.00  0.00    -0.083 HD
ENDROOT
BRANCH   1   8
ATOM      4  O   UNL     1      -1.112   0.903   1.232  0.00  0.00    -0.276 OA
ATOM      5  N   UNL     1      -3.986  -0.641  -0.229  0.00  0.00    -0.202 NA
ATOM      6  N   UNL     1      -3.179   0.364   0.355  0.00  0.00    -0.214 N 
ATOM      7  C   UNL     1      -3.727   1.712   0.536  0.00  0.00    +0.190 C 
ATOM      8  C   UNL     1      -1.451  -1.406   0.606  0.00  0.00    +0.019 C 
ATOM      9  C   UNL     1      -4.990  -0.082  -1.135  0.00  0.00    +0.092 C 
ATOM     10  C   UNL     1      -4.557  -1.524   0.793  0.00  0.00    +0.092 C 
ATOM     11  C   UNL     1      -5.250   1.754   0.612  0.00  0.00    +0.034 C 
ATOM     12  C   UNL     1      -2.222  -2.304   1.581  0.00  0.00    -0.011 C 
ATOM     13  C   UNL     1      -5.935   0.916  -0.468  0.00  0.00    +0.021 C 
ATOM     14  C   UNL     1      -3.614  -2.694   1.078  0.00  0.00    +0.017 C 
ATOM     15  C   UNL     1      -1.879   0.057   0.762  0.00  0.00    +0.219 C 
BRANCH   7  17
ATOM     16  O   UNL     1      -2.515   2.219  -1.497  0.00  0.00    -0.248 OA
ATOM     17  C   UNL     1      -3.218   2.593  -0.570  0.00  0.00    +0.334 C 
BRANCH  17  18
ATOM     18  O   UNL     1      -3.644   3.868  -0.400  0.00  0.00    -0.479 OA
ATOM     19  H   UNL     1      -4.182   4.089   0.335  0.00  0.00    +0.295 HD
ENDBRANCH  17  18
ENDBRANCH   7  17
ENDBRANCH   1   8
BRANCH   1  20
ATOM     20  CA  UNL     1       0.779  -1.078  -0.234  0.00  0.00    +0.041 C 
BRANCH  20  22
ATOM     21  OXT UNL     1       0.833  -3.433  -0.851  0.00  0.00    -0.253 OA
ATOM     22  C   UNL     1       0.826  -2.256  -1.191  0.00  0.00    +0.293 C 
BRANCH  22  23
ATOM     23  O   UNL     1       0.833  -1.869  -2.492  0.00  0.00    -0.482 OA
ATOM     24  H   UNL     1       0.827  -0.957  -2.710  0.00  0.00    +0.295 HD
ENDBRANCH  22  23
ENDBRANCH  20  22
BRANCH  20  25
ATOM     25  C   UNL     1       2.188  -0.697   0.244  0.00  0.00    -0.006 C 
BRANCH  25  26
ATOM     26  C   UNL     1       3.131  -0.218  -0.871  0.00  0.00    +0.025 C 
BRANCH  26  27
ATOM     27  C   UNL     1       4.490   0.229  -0.392  0.00  0.00    -0.022 C 
ATOM     28  C   UNL     1       4.702   1.562  -0.039  0.00  0.00    -0.001 C 
ATOM     29  C   UNL     1       5.535  -0.691  -0.303  0.00  0.00    -0.001 C 
ATOM     30  C   UNL     1       5.959   1.974   0.404  0.00  0.00    +0.036 C 
ATOM     31  C   UNL     1       6.791  -0.278   0.140  0.00  0.00    +0.036 C 
ATOM     32  C   UNL     1       7.003   1.054   0.493  0.00  0.00    +0.134 C 
BRANCH  32  33
ATOM     33  O   UNL     1       8.229   1.457   0.925  0.00  0.00    -0.506 OA
ATOM     34  H   UNL     1       8.372   2.352   1.163  0.00  0.00    +0.292 HD
ENDBRANCH  32  33
ENDBRANCH  26  27
ENDBRANCH  25  26
ENDBRANCH  20  25
ENDBRANCH   1  20
TORSDOF 10
