REMARK  Name = 100699
REMARK  4 active torsions:
REMARK  status: ('A' for Active; 'I' for Inactive)
REMARK    1  A    between atoms: C_17  and  C_23
REMARK    2  A    between atoms: C_23  and  O_25
REMARK    3  A    between atoms: C_23  and  C_27
REMARK    4  A    between atoms: C_27  and  S_28
REMARK                            x       y       z     vdW  Elec       q    Type
REMARK                         _______ _______ _______ _____ _____    ______ ____
ROOT
ATOM      1  O   UNL     1      -1.005  -0.682   0.936  0.00  0.00    -0.345 OA
ATOM      2  O   UNL     1       4.678   0.769  -0.660  0.00  0.00    -0.353 OA
ATOM      3  O   UNL     1       1.943  -2.143  -0.765  0.00  0.00    -0.450 OA
ATOM      4  O   UNL     1      -2.423   1.949  -0.159  0.00  0.00    -0.444 OA
ATOM      5  O   UNL     1       4.187  -2.308  -1.241  0.00  0.00    -0.250 OA
ATOM      6  O   UNL     1      -1.980   3.951   0.805  0.00  0.00    -0.245 OA
ATOM      7  C   UNL     1       2.013  -0.364   0.736  0.00  0.00    +0.059 C 
ATOM      8  C   UNL     1       1.773   0.931  -0.125  0.00  0.00    +0.024 C 
ATOM      9  C   UNL     1       3.427  -0.966   0.655  0.00  0.00    +0.120 C 
ATOM     10  C   UNL     1      -0.708   0.266  -0.101  0.00  0.00    +0.175 C 
ATOM     11  C   UNL     1      -0.211  -1.170  -0.159  0.00  0.00    +0.187 C 
ATOM     12  C   UNL     1       1.164  -1.544   0.284  0.00  0.00    +0.199 C 
ATOM     13  C   UNL     1       4.528   0.056   0.576  0.00  0.00    +0.152 C 
ATOM     14  C   UNL     1       4.203   1.521   0.459  0.00  0.00    +0.143 C 
ATOM     15  C   UNL     1       0.296   1.341   0.072  0.00  0.00    -0.008 C 
ATOM     16  C   UNL     1       2.787   2.000   0.369  0.00  0.00    +0.036 C 
ATOM     17  C   UNL     1      -1.932   0.750  -0.828  0.00  0.00    +0.225 C 
ATOM     18  C   UNL     1       3.278  -1.868  -0.554  0.00  0.00    +0.318 C 
ATOM     19  C   UNL     1       1.917   0.768  -1.666  0.00  0.00    +0.004 C 
ATOM     20  C   UNL     1       3.715  -1.881   1.869  0.00  0.00    +0.014 C 
ATOM     21  C   UNL     1      -0.127   2.597   0.294  0.00  0.00    +0.076 C 
ATOM     22  C   UNL     1      -1.575   2.890   0.342  0.00  0.00    +0.341 C 
ENDROOT
BRANCH  17  23
ATOM     23  C   UNL     1      -3.100  -0.225  -0.894  0.00  0.00    +0.140 C 
ATOM     24  C   UNL     1      -4.263   0.417  -1.665  0.00  0.00    +0.034 C 
BRANCH  23  25
ATOM     25  O   UNL     1      -2.682  -1.373  -1.641  0.00  0.00    -0.382 OA
ATOM     26  H   UNL     1      -1.945  -1.806  -1.182  0.00  0.00    +0.210 HD
ENDBRANCH  23  25
BRANCH  23  27
ATOM     27  C   UNL     1      -3.601  -0.672   0.490  0.00  0.00    +0.122 C 
BRANCH  27  28
ATOM     28  S   UNL     1      -4.992  -1.849   0.408  0.00  0.00    +0.045 S 
ATOM     29  O   UNL     1      -6.193  -1.075  -0.033  0.00  0.00    -0.256 OA
ATOM     30  C   UNL     1      -5.115  -2.086   2.196  0.00  0.00    +0.106 C 
ENDBRANCH  27  28
ENDBRANCH  23  27
ENDBRANCH  17  23
TORSDOF 4
