10069555
  -OEChem-03292013303D

 45 47  0     0  0  0  0  0  0999 V2000
   -5.4166   -0.0760   -0.1213 O   0  0  0  0  0  0  0  0  0  0  0  0
   -1.8997    0.5389   -2.3614 O   0  0  0  0  0  0  0  0  0  0  0  0
    0.7241   -0.8487    1.3708 O   0  0  0  0  0  0  0  0  0  0  0  0
    0.6177    0.4805   -2.4551 O   0  0  0  0  0  0  0  0  0  0  0  0
    1.8530   -2.4623   -1.4795 O   0  0  0  0  0  0  0  0  0  0  0  0
    5.6671   -0.9476    0.9385 O   0  0  0  0  0  0  0  0  0  0  0  0
   -4.4658    0.5504   -2.0656 O   0  0  0  0  0  0  0  0  0  0  0  0
    2.4738    2.7621    1.2544 O   0  0  0  0  0  0  0  0  0  0  0  0
    1.2832    2.6794   -0.7140 O   0  0  0  0  0  0  0  0  0  0  0  0
   -0.5912   -0.1499   -0.5098 C   0  0  0  0  0  0  0  0  0  0  0  0
   -3.0015   -0.1141   -0.3126 C   0  0  0  0  0  0  0  0  0  0  0  0
   -2.9059   -0.5695    1.0055 C   0  0  0  0  0  0  0  0  0  0  0  0
   -1.8442    0.0961   -1.0713 C   0  0  0  0  0  0  0  0  0  0  0  0
    1.9556   -0.1944   -0.6996 C   0  0  0  0  0  0  0  0  0  0  0  0
   -0.4912   -0.6040    0.8040 C   0  0  0  0  0  0  0  0  0  0  0  0
    0.6208    0.0663   -1.2935 C   0  0  0  0  0  0  0  0  0  0  0  0
   -1.6445   -0.8137    1.5611 C   0  0  0  0  0  0  0  0  0  0  0  0
   -4.1162   -0.7838    1.7827 C   0  0  0  0  0  0  0  0  0  0  0  0
    2.6177    0.8228   -0.0376 C   0  0  0  0  0  0  0  0  0  0  0  0
   -4.3283    0.1499   -0.9173 C   0  0  0  0  0  0  0  0  0  0  0  0
    2.5038   -1.4577   -0.8276 C   0  0  0  0  0  0  0  0  0  0  0  0
   -5.3000   -0.5373    1.2102 C   0  0  0  0  0  0  0  0  0  0  0  0
    3.8720    0.5684    0.5165 C   0  0  0  0  0  0  0  0  0  0  0  0
    3.7584   -1.7122   -0.2734 C   0  0  0  0  0  0  0  0  0  0  0  0
    4.4425   -0.6992    0.3988 C   0  0  0  0  0  0  0  0  0  0  0  0
   -6.6088   -0.7203    1.9056 C   0  0  0  0  0  0  0  0  0  0  0  0
    2.0508    2.1582    0.1032 C   0  0  0  0  0  0  0  0  0  0  0  0
    6.1909   -2.2652    0.7810 C   0  0  0  0  0  0  0  0  0  0  0  0
    1.9823    4.0827    1.5072 C   0  0  0  0  0  0  0  0  0  0  0  0
   -1.5616   -1.1681    2.5865 H   0  0  0  0  0  0  0  0  0  0  0  0
   -4.0356   -1.1375    2.8044 H   0  0  0  0  0  0  0  0  0  0  0  0
    4.4342    1.3428    1.0328 H   0  0  0  0  0  0  0  0  0  0  0  0
    4.1490   -2.7169   -0.3978 H   0  0  0  0  0  0  0  0  0  0  0  0
   -7.1524    0.2291    1.9435 H   0  0  0  0  0  0  0  0  0  0  0  0
   -7.2235   -1.4492    1.3680 H   0  0  0  0  0  0  0  0  0  0  0  0
   -6.4826   -1.0778    2.9328 H   0  0  0  0  0  0  0  0  0  0  0  0
   -1.1060    0.2754   -2.8518 H   0  0  0  0  0  0  0  0  0  0  0  0
    0.5948   -1.1548    2.2847 H   0  0  0  0  0  0  0  0  0  0  0  0
    1.0141   -2.1447   -1.8497 H   0  0  0  0  0  0  0  0  0  0  0  0
    6.3568   -2.5091   -0.2739 H   0  0  0  0  0  0  0  0  0  0  0  0
    5.5667   -3.0098    1.2867 H   0  0  0  0  0  0  0  0  0  0  0  0
    7.1701   -2.2842    1.2707 H   0  0  0  0  0  0  0  0  0  0  0  0
    0.8915    4.0693    1.5903 H   0  0  0  0  0  0  0  0  0  0  0  0
    2.4039    4.4273    2.4550 H   0  0  0  0  0  0  0  0  0  0  0  0
    2.3011    4.7624    0.7113 H   0  0  0  0  0  0  0  0  0  0  0  0
  1 20  1  0  0  0  0
  1 22  1  0  0  0  0
  2 13  1  0  0  0  0
  2 37  1  0  0  0  0
  3 15  1  0  0  0  0
  3 38  1  0  0  0  0
  4 16  2  0  0  0  0
  5 21  1  0  0  0  0
  5 39  1  0  0  0  0
  6 25  1  0  0  0  0
  6 28  1  0  0  0  0
  7 20  2  0  0  0  0
  8 27  1  0  0  0  0
  8 29  1  0  0  0  0
  9 27  2  0  0  0  0
 10 13  1  0  0  0  0
 10 15  2  0  0  0  0
 10 16  1  0  0  0  0
 11 12  1  0  0  0  0
 11 13  2  0  0  0  0
 11 20  1  0  0  0  0
 12 17  2  0  0  0  0
 12 18  1  0  0  0  0
 14 16  1  0  0  0  0
 14 19  2  0  0  0  0
 14 21  1  0  0  0  0
 15 17  1  0  0  0  0
 17 30  1  0  0  0  0
 18 22  2  0  0  0  0
 18 31  1  0  0  0  0
 19 23  1  0  0  0  0
 19 27  1  0  0  0  0
 21 24  2  0  0  0  0
 22 26  1  0  0  0  0
 23 25  2  0  0  0  0
 23 32  1  0  0  0  0
 24 25  1  0  0  0  0
 24 33  1  0  0  0  0
 26 34  1  0  0  0  0
 26 35  1  0  0  0  0
 26 36  1  0  0  0  0
 28 40  1  0  0  0  0
 28 41  1  0  0  0  0
 28 42  1  0  0  0  0
 29 43  1  0  0  0  0
 29 44  1  0  0  0  0
 29 45  1  0  0  0  0
M  END
> <PUBCHEM_COMPOUND_CID>
10069555

> <PUBCHEM_CONFORMER_RMSD>
0.8

> <PUBCHEM_CONFORMER_DIVERSEORDER>
4
16
5
19
12
15
7
18
10
13
6
14
17
9
8
1
11
2
3

> <PUBCHEM_MMFF94_PARTIAL_CHARGES>
36
1 -0.23
10 0.09
11 0.09
12 0.03
13 0.08
14 0.09
15 0.08
16 0.4
17 -0.15
18 -0.18
19 0.09
2 -0.53
20 0.63
21 0.08
22 -0.06
23 -0.15
24 -0.15
25 0.08
26 0.14
27 0.63
28 0.28
29 0.28
3 -0.53
30 0.15
31 0.15
32 0.15
33 0.15
37 0.45
38 0.45
39 0.45
4 -0.57
5 -0.53
6 -0.36
7 -0.57
8 -0.43
9 -0.57

> <PUBCHEM_EFFECTIVE_ROTOR_COUNT>
5

> <PUBCHEM_PHARMACOPHORE_FEATURES>
10
1 2 donor
1 3 donor
1 4 acceptor
1 5 donor
1 6 acceptor
1 7 acceptor
1 9 acceptor
6 1 11 12 18 20 22 rings
6 10 11 12 13 15 17 rings
6 14 19 21 23 24 25 rings

> <PUBCHEM_HEAVY_ATOM_COUNT>
29

> <PUBCHEM_ATOM_DEF_STEREO_COUNT>
0

> <PUBCHEM_ATOM_UDEF_STEREO_COUNT>
0

> <PUBCHEM_BOND_DEF_STEREO_COUNT>
0

> <PUBCHEM_BOND_UDEF_STEREO_COUNT>
0

> <PUBCHEM_ISOTOPIC_ATOM_COUNT>
0

> <PUBCHEM_COMPONENT_COUNT>
1

> <PUBCHEM_CACTVS_TAUTO_COUNT>
80

> <PUBCHEM_CONFORMER_ID>
0099A63300000004

> <PUBCHEM_MMFF94_ENERGY>
120.6896

> <PUBCHEM_FEATURE_SELFOVERLAP>
50.776

> <PUBCHEM_SHAPE_FINGERPRINT>
10076449 9 18261119543907376302
10498660 4 14045753612033374939
11545043 162 17749105587022291489
11578080 2 17976276929645336905
11640471 11 17201920564274555660
11796584 16 17168421559064816338
12035758 1 18334846243476522402
12166972 35 17530974591673599133
12236239 1 16845566513803283070
12293681 4 18194116309325738900
12403259 118 17632590335832563033
12403259 415 17967531302863389757
12422481 6 17560255604455643313
12616971 3 17846502560594052681
12633257 1 18342460369598506658
13134695 92 18341888611062969032
13402501 40 17821729416400235794
13583140 156 18268710683084246559
13782708 43 18113336418472726611
14739800 52 15480391007036163352
14849402 71 18270403926765263048
15840311 113 16845853490252993416
16752209 62 15791728629088477787
17138139 8 13191481580459964193
17349148 13 17561088011676546187
17980427 23 16773788216972094000
1813 80 17702681942781621926
20511986 3 16486685858309567131
20715895 44 17057823815052439121
21033648 144 18199177576165101173
21033648 29 18041266760272447521
21065201 7 17095519625979771169
21120745 212 15164618160724938076
21267235 1 16443357472666735747
21781051 124 15285943398040287099
22122407 14 17987820578473354313
23175994 123 18336541634487575180
23559900 14 17240769522882404389
3004659 81 15357704088946337054
335352 9 16660364762784275839
3411729 13 16372708477103618756
34934 24 14333131828366923399
4340502 62 17846228756339898479
4409770 3 15324542538841895046
474 4 17916586582151130793
5104073 3 18129099094704567163
513202 73 17771631149024190998
5265222 85 17385737906660646066
59755656 215 16732980908191310443
6086070 43 18188756272377413521
6823239 73 17168144567537986349
7495541 125 18187087269075493806

> <PUBCHEM_SHAPE_MULTIPOLES>
543.98
12.46
2.57
1.99
7.31
2.94
0.55
-5.86
-5.37
-4.5
-1.01
1.76
0.16
1.27

> <PUBCHEM_SHAPE_SELFOVERLAP>
1209.587

> <PUBCHEM_SHAPE_VOLUME>
288.6

> <PUBCHEM_COORDINATE_TYPE>
2
5
10

$$$$
