REMARK  Name = 10063465
REMARK  7 active torsions:
REMARK  status: ('A' for Active; 'I' for Inactive)
REMARK    1  A    between atoms: C_1  and  C_7
REMARK    2  A    between atoms: C_2  and  C_21
REMARK    3  A    between atoms: C_3  and  O_23
REMARK    4  A    between atoms: C_4  and  O_25
REMARK    5  A    between atoms: C_8  and  O_16
REMARK    6  A    between atoms: C_9  and  O_18
REMARK    7  A    between atoms: C_10  and  C_14
REMARK                            x       y       z     vdW  Elec       q    Type
REMARK                         _______ _______ _______ _____ _____    ______ ____
ROOT
ATOM      1  C   UNL     1      -1.064   0.539  -0.093  0.00  0.00    +0.045 C 
ATOM      2  C   UNL     1      -1.901  -0.571   0.026  0.00  0.00    +0.071 C 
ATOM      3  C   UNL     1      -1.547   1.718  -0.660  0.00  0.00    +0.134 C 
ATOM      4  C   UNL     1      -3.221  -0.501  -0.421  0.00  0.00    +0.137 C 
ATOM      5  C   UNL     1      -2.866   1.789  -1.107  0.00  0.00    +0.040 C 
ATOM      6  C   UNL     1      -3.703   0.679  -0.987  0.00  0.00    +0.040 C 
ENDROOT
BRANCH   1   7
ATOM      7  C   UNL     1       0.312   0.477   0.369  0.00  0.00    +0.071 C 
ATOM      8  C   UNL     1       1.322   0.066  -0.500  0.00  0.00    +0.139 C 
ATOM      9  C   UNL     1       0.620   0.829   1.682  0.00  0.00    +0.137 C 
ATOM     10  C   UNL     1       2.643   0.008  -0.054  0.00  0.00    +0.069 C 
ATOM     11  C   UNL     1       1.940   0.770   2.128  0.00  0.00    +0.037 C 
ATOM     12  C   UNL     1       2.952   0.359   1.260  0.00  0.00    +0.009 C 
BRANCH  10  14
ATOM     13  O   UNL     1       3.491  -0.743  -2.123  0.00  0.00    -0.291 OA
ATOM     14  C   UNL     1       3.717  -0.418  -0.941  0.00  0.00    +0.176 C 
ATOM     15  C   UNL     1       5.152  -0.475  -0.434  0.00  0.00    +0.077 C 
ENDBRANCH  10  14
BRANCH   8  16
ATOM     16  O   UNL     1       1.030  -0.281  -1.788  0.00  0.00    -0.505 OA
ATOM     17  H   UNL     1       0.145  -0.244  -2.094  0.00  0.00    +0.292 HD
ENDBRANCH   8  16
BRANCH   9  18
ATOM     18  O   UNL     1      -0.347   1.234   2.554  0.00  0.00    -0.505 OA
ATOM     19  H   UNL     1      -1.241   1.281   2.275  0.00  0.00    +0.292 HD
ENDBRANCH   9  18
ENDBRANCH   1   7
BRANCH   2  21
ATOM     20  O   UNL     1      -1.514  -2.030   1.839  0.00  0.00    -0.291 OA
ATOM     21  C   UNL     1      -1.419  -1.817   0.617  0.00  0.00    +0.177 C 
ATOM     22  C   UNL     1      -0.785  -2.883  -0.265  0.00  0.00    +0.077 C 
ENDBRANCH   2  21
BRANCH   3  23
ATOM     23  O   UNL     1      -0.754   2.821  -0.789  0.00  0.00    -0.506 OA
ATOM     24  H   UNL     1       0.136   2.795  -0.496  0.00  0.00    +0.292 HD
ENDBRANCH   3  23
BRANCH   4  25
ATOM     25  O   UNL     1      -4.057  -1.572  -0.315  0.00  0.00    -0.505 OA
ATOM     26  H   UNL     1      -3.748  -2.372   0.063  0.00  0.00    +0.292 HD
ENDBRANCH   4  25
TORSDOF 7
