REMARK  Name = 10067324
REMARK  8 active torsions:
REMARK  status: ('A' for Active; 'I' for Inactive)
REMARK    1  A    between atoms: C_6  and  S_11
REMARK    2  A    between atoms: C_8  and  C_21
REMARK    3  A    between atoms: C_9  and  C_24
REMARK    4  A    between atoms: S_11  and  C_13
REMARK    5  A    between atoms: C_13  and  C_14
REMARK    6  A    between atoms: C_14  and  N_16
REMARK    7  A    between atoms: C_21  and  O_22
REMARK    8  A    between atoms: C_24  and  O_25
REMARK                            x       y       z     vdW  Elec       q    Type
REMARK                         _______ _______ _______ _____ _____    ______ ____
ROOT
ATOM      1  O   UNL     1      -2.723  -2.425  -0.538  0.00  0.00    -0.270 OA
ATOM      2  N   UNL     1      -1.430  -0.854   0.688  0.00  0.00    -0.247 N 
ATOM      3  C   UNL     1      -2.034   0.478   0.887  0.00  0.00    +0.111 C 
ATOM      4  C   UNL     1      -1.066   1.445   0.195  0.00  0.00    +0.061 C 
ATOM      5  C   UNL     1      -3.226  -0.103   0.159  0.00  0.00    +0.045 C 
ATOM      6  C   UNL     1       0.105   0.556  -0.130  0.00  0.00    +0.056 C 
ATOM      7  C   UNL     1      -2.506  -1.374   0.030  0.00  0.00    +0.250 C 
ATOM      8  C   UNL     1      -0.175  -0.721   0.157  0.00  0.00    +0.135 C 
ATOM      9  C   UNL     1      -4.426   0.319  -0.225  0.00  0.00    -0.013 C 
ATOM     10  C   UNL     1      -5.414  -0.561  -0.977  0.00  0.00    +0.029 C 
ENDROOT
BRANCH   6  11
ATOM     11  S   UNL     1       1.607   1.106  -0.868  0.00  0.00    +0.064 S 
ATOM     12  O   UNL     1       1.317   2.451  -1.481  0.00  0.00    -0.252 OA
BRANCH  11  13
ATOM     13  C   UNL     1       2.537   1.389   0.660  0.00  0.00    +0.117 C 
BRANCH  13  14
ATOM     14  C   UNL     1       3.944   1.886   0.375  0.00  0.00    +0.104 C 
BRANCH  14  16
ATOM     15  O   UNL     1       5.635  -0.228   1.422  0.00  0.00    -0.275 OA
ATOM     16  N   UNL     1       4.724   0.939  -0.376  0.00  0.00    -0.303 N 
ATOM     17  C   UNL     1       5.508  -0.043   0.214  0.00  0.00    +0.223 C 
ATOM     18  C   UNL     1       6.198  -0.915  -0.800  0.00  0.00    +0.095 C 
ATOM     19  H   UNL     1       4.701   0.989  -1.359  0.00  0.00    +0.149 HD
ENDBRANCH  14  16
ENDBRANCH  13  14
ENDBRANCH  11  13
ENDBRANCH   6  11
BRANCH   8  21
ATOM     20  O   UNL     1       1.432  -2.024  -1.013  0.00  0.00    -0.244 OA
ATOM     21  C   UNL     1       0.641  -1.905  -0.091  0.00  0.00    +0.352 C 
BRANCH  21  22
ATOM     22  O   UNL     1       0.388  -2.841   0.851  0.00  0.00    -0.476 OA
ATOM     23  H   UNL     1      -0.236  -2.668   1.527  0.00  0.00    +0.295 HD
ENDBRANCH  21  22
ENDBRANCH   8  21
BRANCH   9  24
ATOM     24  C   UNL     1      -4.931   1.733   0.029  0.00  0.00    +0.159 C 
BRANCH  24  25
ATOM     25  O   UNL     1      -6.104   1.694   0.830  0.00  0.00    -0.378 OA
ATOM     26  H   UNL     1      -6.418   2.597   0.987  0.00  0.00    +0.211 HD
ENDBRANCH  24  25
ENDBRANCH   9  24
TORSDOF 8
