10073180
  -OEChem-03292013303D

 61 65  0     1  0  0  0  0  0999 V2000
    5.1629   -0.8847   -0.7327 O   0  0  0  0  0  0  0  0  0  0  0  0
    3.0727   -0.0630    0.0276 O   0  0  0  0  0  0  0  0  0  0  0  0
    7.3392    1.5165    1.0285 O   0  0  0  0  0  0  0  0  0  0  0  0
   -4.1317   -2.0444    1.1475 O   0  0  0  0  0  0  0  0  0  0  0  0
   -0.7853    3.2254   -0.0132 O   0  0  0  0  0  0  0  0  0  0  0  0
   -2.3165   -2.5040   -0.6059 O   0  0  0  0  0  0  0  0  0  0  0  0
    1.0553    1.5055   -0.3135 O   0  0  0  0  0  0  0  0  0  0  0  0
    4.6006    2.3203    0.8898 N   0  0  0  0  0  0  0  0  0  0  0  0
   -6.2138    0.6422   -0.2774 C   0  0  1  0  0  0  0  0  0  0  0  0
    5.3651    1.9886   -0.3162 C   0  0  1  0  0  0  0  0  0  0  0  0
    6.5071    1.0078   -0.0073 C   0  0  2  0  0  0  0  0  0  0  0  0
   -5.3745    1.7177    0.4141 C   0  0  0  0  0  0  0  0  0  0  0  0
    4.4481    1.3634   -1.3765 C   0  0  0  0  0  0  0  0  0  0  0  0
    5.9748   -0.3900    0.3371 C   0  0  2  0  0  0  0  0  0  0  0  0
   -5.9458   -0.7090    0.3794 C   0  0  0  0  0  0  0  0  0  0  0  0
    4.0276   -0.0690   -1.0283 C   0  0  1  0  0  0  0  0  0  0  0  0
   -3.9119    1.3843    0.2713 C   0  0  0  0  0  0  0  0  0  0  0  0
   -3.4644    0.0484    0.2611 C   0  0  0  0  0  0  0  0  0  0  0  0
   -7.7002    0.9874   -0.2223 C   0  0  0  0  0  0  0  0  0  0  0  0
   -4.4745   -0.9966    0.6051 C   0  0  0  0  0  0  0  0  0  0  0  0
   -2.0981   -0.2339    0.0425 C   0  0  0  0  0  0  0  0  0  0  0  0
   -1.1834    0.8283   -0.0303 C   0  0  0  0  0  0  0  0  0  0  0  0
   -2.9841    2.4267    0.1694 C   0  0  0  0  0  0  0  0  0  0  0  0
    7.1095   -1.3885    0.5460 C   0  0  0  0  0  0  0  0  0  0  0  0
    0.7649   -0.8060   -0.0671 C   0  0  0  0  0  0  0  0  0  0  0  0
   -1.6263    2.1530    0.0382 C   0  0  0  0  0  0  0  0  0  0  0  0
   -1.5824   -1.6045   -0.2175 C   0  0  0  0  0  0  0  0  0  0  0  0
   -0.1375   -1.8671   -0.0871 C   0  0  0  0  0  0  0  0  0  0  0  0
    2.1386   -1.0560    0.0228 C   0  0  0  0  0  0  0  0  0  0  0  0
    0.2701    0.5787   -0.1569 C   0  0  0  0  0  0  0  0  0  0  0  0
   -8.5371   -0.0913   -0.8771 C   0  0  0  0  0  0  0  0  0  0  0  0
    0.3297   -3.1845   -0.0206 C   0  0  0  0  0  0  0  0  0  0  0  0
    2.6020   -2.3699    0.0956 C   0  0  0  0  0  0  0  0  0  0  0  0
    1.6994   -3.4321    0.0740 C   0  0  0  0  0  0  0  0  0  0  0  0
   -5.9083    0.5832   -1.3324 H   0  0  0  0  0  0  0  0  0  0  0  0
    5.7872    2.9255   -0.6990 H   0  0  0  0  0  0  0  0  0  0  0  0
    7.1251    0.9401   -0.9132 H   0  0  0  0  0  0  0  0  0  0  0  0
   -5.6235    1.7947    1.4798 H   0  0  0  0  0  0  0  0  0  0  0  0
   -5.5835    2.6904   -0.0484 H   0  0  0  0  0  0  0  0  0  0  0  0
    3.5659    1.9946   -1.5368 H   0  0  0  0  0  0  0  0  0  0  0  0
    5.0060    1.3380   -2.3218 H   0  0  0  0  0  0  0  0  0  0  0  0
    5.3849   -0.3676    1.2618 H   0  0  0  0  0  0  0  0  0  0  0  0
   -6.3312   -1.5220   -0.2459 H   0  0  0  0  0  0  0  0  0  0  0  0
   -6.4353   -0.7590    1.3599 H   0  0  0  0  0  0  0  0  0  0  0  0
    3.5628   -0.4902   -1.9299 H   0  0  0  0  0  0  0  0  0  0  0  0
   -7.8722    1.9381   -0.7413 H   0  0  0  0  0  0  0  0  0  0  0  0
   -8.0304    1.1264    0.8143 H   0  0  0  0  0  0  0  0  0  0  0  0
   -3.3227    3.4600    0.2053 H   0  0  0  0  0  0  0  0  0  0  0  0
    6.7041   -2.3943    0.7030 H   0  0  0  0  0  0  0  0  0  0  0  0
    7.7506   -1.4450   -0.3406 H   0  0  0  0  0  0  0  0  0  0  0  0
    7.7259   -1.1310    1.4119 H   0  0  0  0  0  0  0  0  0  0  0  0
    3.8853    3.0097    0.6631 H   0  0  0  0  0  0  0  0  0  0  0  0
    5.2172    2.7560    1.5742 H   0  0  0  0  0  0  0  0  0  0  0  0
   -8.1761   -0.3248   -1.8840 H   0  0  0  0  0  0  0  0  0  0  0  0
   -8.5550   -1.0129   -0.2876 H   0  0  0  0  0  0  0  0  0  0  0  0
   -9.5744    0.2487   -0.9670 H   0  0  0  0  0  0  0  0  0  0  0  0
    8.1623    1.0000    1.0312 H   0  0  0  0  0  0  0  0  0  0  0  0
   -0.3557   -4.0276   -0.0366 H   0  0  0  0  0  0  0  0  0  0  0  0
    3.6583   -2.5988    0.1924 H   0  0  0  0  0  0  0  0  0  0  0  0
    2.0624   -4.4540    0.1345 H   0  0  0  0  0  0  0  0  0  0  0  0
    0.1396    2.9411    0.0301 H   0  0  0  0  0  0  0  0  0  0  0  0
  1 14  1  0  0  0  0
  1 16  1  0  0  0  0
  2 16  1  0  0  0  0
  2 29  1  0  0  0  0
  3 11  1  0  0  0  0
  3 57  1  0  0  0  0
  4 20  2  0  0  0  0
  5 26  1  0  0  0  0
  5 61  1  0  0  0  0
  6 27  2  0  0  0  0
  7 30  2  0  0  0  0
  8 10  1  0  0  0  0
  8 52  1  0  0  0  0
  8 53  1  0  0  0  0
  9 12  1  0  0  0  0
  9 15  1  0  0  0  0
  9 19  1  0  0  0  0
  9 35  1  0  0  0  0
 10 11  1  0  0  0  0
 10 13  1  0  0  0  0
 10 36  1  0  0  0  0
 11 14  1  0  0  0  0
 11 37  1  0  0  0  0
 12 17  1  0  0  0  0
 12 38  1  0  0  0  0
 12 39  1  0  0  0  0
 13 16  1  0  0  0  0
 13 40  1  0  0  0  0
 13 41  1  0  0  0  0
 14 24  1  0  0  0  0
 14 42  1  0  0  0  0
 15 20  1  0  0  0  0
 15 43  1  0  0  0  0
 15 44  1  0  0  0  0
 16 45  1  0  0  0  0
 17 18  1  0  0  0  0
 17 23  2  0  0  0  0
 18 20  1  0  0  0  0
 18 21  2  0  0  0  0
 19 31  1  0  0  0  0
 19 46  1  0  0  0  0
 19 47  1  0  0  0  0
 21 22  1  0  0  0  0
 21 27  1  0  0  0  0
 22 26  2  0  0  0  0
 22 30  1  0  0  0  0
 23 26  1  0  0  0  0
 23 48  1  0  0  0  0
 24 49  1  0  0  0  0
 24 50  1  0  0  0  0
 24 51  1  0  0  0  0
 25 28  2  0  0  0  0
 25 29  1  0  0  0  0
 25 30  1  0  0  0  0
 27 28  1  0  0  0  0
 28 32  1  0  0  0  0
 29 33  2  0  0  0  0
 31 54  1  0  0  0  0
 31 55  1  0  0  0  0
 31 56  1  0  0  0  0
 32 34  2  0  0  0  0
 32 58  1  0  0  0  0
 33 34  1  0  0  0  0
 33 59  1  0  0  0  0
 34 60  1  0  0  0  0
M  END
> <PUBCHEM_COMPOUND_CID>
10073180

> <PUBCHEM_CONFORMER_RMSD>
0.8

> <PUBCHEM_CONFORMER_DIVERSEORDER>
1
33
75
42
50
67
83
5
65
8
84
60
78
4
61
68
53
66
70
32
77
74
31
36
85
39
47
18
72
26
9
48
81
59
80
10
35
21
58
25
12
62
63
17
15
20
55
24
56
69
23
22
34
73
43
38
19
27
14
49
51
29
3
82
40
30
57
28
76
79
54
64
41
6
2
45
46
11
37
71
52
7
16
13
44

> <PUBCHEM_MMFF94_PARTIAL_CHARGES>
37
1 -0.56
10 0.27
11 0.28
12 0.14
14 0.28
15 0.06
16 0.56
17 -0.14
18 0.09
2 -0.36
20 0.42
21 0.09
22 0.09
23 -0.15
25 0.09
26 0.08
27 0.4
28 0.09
29 0.08
3 -0.68
30 0.4
32 -0.15
33 -0.15
34 -0.15
4 -0.57
48 0.15
5 -0.53
52 0.36
53 0.36
57 0.4
58 0.15
59 0.15
6 -0.57
60 0.15
61 0.45
7 -0.57
8 -0.99

> <PUBCHEM_EFFECTIVE_ROTOR_COUNT>
4.8

> <PUBCHEM_PHARMACOPHORE_FEATURES>
16
1 1 acceptor
1 2 acceptor
1 3 acceptor
1 3 donor
1 31 hydrophobe
1 4 acceptor
1 5 donor
1 6 acceptor
1 7 acceptor
1 8 cation
1 8 donor
6 1 10 11 13 14 16 rings
6 17 18 21 22 23 26 rings
6 21 22 25 27 28 30 rings
6 25 28 29 32 33 34 rings
6 9 12 15 17 18 20 rings

> <PUBCHEM_HEAVY_ATOM_COUNT>
34

> <PUBCHEM_ATOM_DEF_STEREO_COUNT>
5

> <PUBCHEM_ATOM_UDEF_STEREO_COUNT>
0

> <PUBCHEM_BOND_DEF_STEREO_COUNT>
0

> <PUBCHEM_BOND_UDEF_STEREO_COUNT>
0

> <PUBCHEM_ISOTOPIC_ATOM_COUNT>
0

> <PUBCHEM_COMPONENT_COUNT>
1

> <PUBCHEM_CACTVS_TAUTO_COUNT>
27

> <PUBCHEM_CONFORMER_ID>
0099B45C00000001

> <PUBCHEM_MMFF94_ENERGY>
109.0062

> <PUBCHEM_FEATURE_SELFOVERLAP>
81.328

> <PUBCHEM_SHAPE_FINGERPRINT>
10 15 18408601479241334272
10006869 2 18338791230450599334
10050765 1 18050285873665831581
10411042 1 17763183944385178559
10835480 77 18262513681548885877
10906281 52 18268447758878142449
1100329 8 18266463285364009404
11135609 187 18337106766806791169
11135926 11 18409443662256638087
11136131 41 18261669260012161003
11578080 2 16662034825819147383
11719270 70 18408884023211616962
12236239 1 17967536791783893958
12422481 6 17530966882228201172
12838862 33 18338502110769582069
13402501 40 18413390955791566592
13617811 41 18409444800017607677
13692114 37 18412820300762248838
13811026 1 18335423469801352747
14117953 113 18334018293840900444
14394314 77 18270124505395070473
1454969 45 18411979157217980607
14790565 3 18338243750958776788
15131766 46 15938970926928423950
15419008 145 18188761731649878416
15927050 60 17691975177428431028
18608769 82 18410858806815508163
19611394 137 18042701661706955339
20721686 56 18336551499700945819
21033648 29 17631152252555173216
21150785 3 16200431381714602773
21792934 111 18410283701418759016
22311459 1 18411699876494758965
23559900 14 18337951303095271921
23569917 315 18410018697510590950
24771293 8 18272094889596390425
24771750 20 17825969284278467501
3178227 256 18338532918912810129
335352 9 18410297991513327398
338550 245 18334863861400962268
34797466 226 17131839772121531908
350125 39 18408886214108791262
3680242 22 18336268964431068528
392239 28 18342187669134480672
4073 2 18040443221346237962
4093350 32 17060062531730790085
5104073 3 18262809453922709403
59755656 215 18408606937728042439
6009941 240 17313107458484703603
9961470 85 18053096521476381528
9981440 41 18333740117045846442

> <PUBCHEM_SHAPE_MULTIPOLES>
653.64
19.73
3.31
0.86
3.49
0.92
-0.06
-6.06
0.16
-1.33
0.21
-0.32
-0.07
0.09

> <PUBCHEM_SHAPE_SELFOVERLAP>
1447.806

> <PUBCHEM_SHAPE_VOLUME>
346.2

> <PUBCHEM_COORDINATE_TYPE>
2
5
10

$$$$
