REMARK  Name = 10073180
REMARK  6 active torsions:
REMARK  status: ('A' for Active; 'I' for Inactive)
REMARK    1  A    between atoms: C_4  and  C_24
REMARK    2  A    between atoms: C_14  and  O_22
REMARK    3  A    between atoms: C_17  and  O_26
REMARK    4  A    between atoms: O_26  and  C_32
REMARK    5  A    between atoms: C_28  and  N_34
REMARK    6  A    between atoms: C_29  and  O_38
REMARK                            x       y       z     vdW  Elec       q    Type
REMARK                         _______ _______ _______ _____ _____    ______ ____
ROOT
ATOM      1  O   UNL     1      -4.132  -2.044   1.147  0.00  0.00    -0.291 OA
ATOM      2  O   UNL     1      -2.317  -2.504  -0.606  0.00  0.00    -0.287 OA
ATOM      3  O   UNL     1       1.055   1.506  -0.314  0.00  0.00    -0.286 OA
ATOM      4  C   UNL     1      -6.214   0.642  -0.277  0.00  0.00    +0.012 C 
ATOM      5  C   UNL     1      -5.375   1.718   0.414  0.00  0.00    +0.027 C 
ATOM      6  C   UNL     1      -5.946  -0.709   0.379  0.00  0.00    +0.069 C 
ATOM      7  C   UNL     1      -3.912   1.384   0.271  0.00  0.00    -0.016 C 
ATOM      8  C   UNL     1      -3.464   0.048   0.261  0.00  0.00    +0.034 C 
ATOM      9  C   UNL     1      -4.474  -0.997   0.605  0.00  0.00    +0.173 C 
ATOM     10  C   UNL     1      -2.098  -0.234   0.043  0.00  0.00    +0.047 C 
ATOM     11  C   UNL     1      -1.183   0.828  -0.030  0.00  0.00    +0.076 C 
ATOM     12  C   UNL     1      -2.984   2.427   0.169  0.00  0.00    +0.033 C 
ATOM     13  C   UNL     1       0.765  -0.806  -0.067  0.00  0.00    +0.076 C 
ATOM     14  C   UNL     1      -1.626   2.153   0.038  0.00  0.00    +0.136 C 
ATOM     15  C   UNL     1      -1.582  -1.605  -0.217  0.00  0.00    +0.196 C 
ATOM     16  C   UNL     1      -0.138  -1.867  -0.087  0.00  0.00    +0.045 C 
ATOM     17  C   UNL     1       2.139  -1.056   0.023  0.00  0.00    +0.144 C 
ATOM     18  C   UNL     1       0.270   0.579  -0.157  0.00  0.00    +0.202 C 
ATOM     19  C   UNL     1       0.330  -3.184  -0.021  0.00  0.00    +0.003 C 
ATOM     20  C   UNL     1       2.602  -2.370   0.096  0.00  0.00    +0.037 C 
ATOM     21  C   UNL     1       1.699  -3.432   0.074  0.00  0.00    +0.003 C 
ENDROOT
BRANCH  14  22
ATOM     22  O   UNL     1      -0.785   3.225  -0.013  0.00  0.00    -0.505 OA
ATOM     23  H   UNL     1       0.138   3.093  -0.101  0.00  0.00    +0.292 HD
ENDBRANCH  14  22
BRANCH   4  24
ATOM     24  C   UNL     1      -7.700   0.987  -0.222  0.00  0.00    +0.001 C 
ATOM     25  C   UNL     1      -8.537  -0.091  -0.877  0.00  0.00    +0.000 C 
ENDBRANCH   4  24
BRANCH  17  26
ATOM     26  O   UNL     1       3.073  -0.063   0.028  0.00  0.00    -0.452 OA
BRANCH  26  32
ATOM     27  O   UNL     1       5.163  -0.885  -0.733  0.00  0.00    -0.321 OA
ATOM     28  C   UNL     1       5.365   1.989  -0.316  0.00  0.00    -0.030 C 
ATOM     29  C   UNL     1       6.507   1.008  -0.007  0.00  0.00    +0.118 C 
ATOM     30  C   UNL     1       4.448   1.363  -1.377  0.00  0.00    +0.057 C 
ATOM     31  C   UNL     1       5.975  -0.390   0.337  0.00  0.00    +0.143 C 
ATOM     32  C   UNL     1       4.028  -0.069  -1.028  0.00  0.00    +0.286 C 
ATOM     33  C   UNL     1       7.109  -1.389   0.546  0.00  0.00    +0.035 C 
BRANCH  28  34
ATOM     34  N   UNL     1       4.601   2.320   0.890  0.00  0.00    +0.384 N 
ATOM     35  H   UNL     1       5.223   2.734   1.584  0.00  0.00    -0.089 HD
ATOM     36  H   UNL     1       4.182   1.472   1.271  0.00  0.00    -0.089 HD
ATOM     37  H   UNL     1       3.865   2.986   0.653  0.00  0.00    -0.089 HD
ENDBRANCH  28  34
BRANCH  29  38
ATOM     38  O   UNL     1       7.339   1.516   1.028  0.00  0.00    -0.384 OA
ATOM     39  H   UNL     1       7.659   2.398   0.782  0.00  0.00    +0.210 HD
ENDBRANCH  29  38
ENDBRANCH  26  32
ENDBRANCH  17  26
TORSDOF 6
