REMARK  Name = 10071572
REMARK  5 active torsions:
REMARK  status: ('A' for Active; 'I' for Inactive)
REMARK    1  A    between atoms: C_4  and  C_26
REMARK    2  A    between atoms: C_13  and  O_29
REMARK    3  A    between atoms: C_15  and  O_31
REMARK    4  A    between atoms: C_18  and  O_33
REMARK    5  A    between atoms: C_19  and  O_35
REMARK                            x       y       z     vdW  Elec       q    Type
REMARK                         _______ _______ _______ _____ _____    ______ ____
ROOT
ATOM      1  O   UNL     1      -0.371  -0.477   0.160  0.00  0.00    -0.453 OA
ATOM      2  O   UNL     1      -5.171  -0.165  -0.226  0.00  0.00    -0.478 OA
ATOM      3  O   UNL     1      -0.136   3.527   0.846  0.00  0.00    -0.287 OA
ATOM      4  C   UNL     1       3.490   1.322   0.078  0.00  0.00    +0.048 C 
ATOM      5  C   UNL     1       2.358   2.093   0.785  0.00  0.00    +0.041 C 
ATOM      6  C   UNL     1       3.317  -0.178   0.221  0.00  0.00    +0.024 C 
ATOM      7  C   UNL     1       1.006   1.464   0.582  0.00  0.00    +0.052 A 
ATOM      8  C   UNL     1       0.843   0.149   0.356  0.00  0.00    +0.147 A 
ATOM      9  C   UNL     1       2.026  -0.739   0.332  0.00  0.00    +0.067 C 
ATOM     10  C   UNL     1      -0.200   2.325   0.628  0.00  0.00    +0.200 A 
ATOM     11  C   UNL     1      -1.520   0.277   0.176  0.00  0.00    +0.154 A 
ATOM     12  C   UNL     1      -1.492   1.655   0.401  0.00  0.00    +0.107 A 
ATOM     13  C   UNL     1       4.443  -1.016   0.194  0.00  0.00    +0.164 C 
ATOM     14  C   UNL     1      -2.745  -0.380  -0.040  0.00  0.00    +0.069 C 
ATOM     15  C   UNL     1       1.898  -2.134   0.418  0.00  0.00    +0.139 C 
ATOM     16  C   UNL     1      -5.307  -1.585  -0.440  0.00  0.00    +0.152 C 
ATOM     17  C   UNL     1      -3.928   0.368  -0.026  0.00  0.00    +0.145 C 
ATOM     18  C   UNL     1      -2.676   2.393   0.412  0.00  0.00    +0.143 C 
ATOM     19  C   UNL     1       4.296  -2.398   0.285  0.00  0.00    +0.170 C 
ATOM     20  C   UNL     1      -2.822  -1.815  -0.280  0.00  0.00    +0.005 C 
ATOM     21  C   UNL     1      -4.021  -2.372  -0.465  0.00  0.00    +0.013 C 
ATOM     22  C   UNL     1      -3.892   1.747   0.198  0.00  0.00    +0.074 C 
ATOM     23  C   UNL     1       3.026  -2.956   0.396  0.00  0.00    +0.076 C 
ATOM     24  C   UNL     1      -6.026  -1.749  -1.785  0.00  0.00    +0.048 C 
ATOM     25  C   UNL     1      -6.200  -2.110   0.690  0.00  0.00    +0.048 C 
ENDROOT
BRANCH   4  26
ATOM     26  C   UNL     1       3.590   1.725  -1.367  0.00  0.00    -0.040 C 
ATOM     27  C   UNL     1       2.427   1.440  -2.263  0.00  0.00    +0.027 C 
ATOM     28  C   UNL     1       4.715   2.320  -1.788  0.00  0.00    -0.009 C 
ENDBRANCH   4  26
BRANCH  13  29
ATOM     29  O   UNL     1       5.698  -0.491   0.073  0.00  0.00    -0.503 OA
ATOM     30  H   UNL     1       5.814   0.436   0.011  0.00  0.00    +0.292 HD
ENDBRANCH  13  29
BRANCH  15  31
ATOM     31  O   UNL     1       0.696  -2.764   0.561  0.00  0.00    -0.505 OA
ATOM     32  H   UNL     1      -0.096  -2.263   0.582  0.00  0.00    +0.292 HD
ENDBRANCH  15  31
BRANCH  18  33
ATOM     33  O   UNL     1      -2.705   3.739   0.625  0.00  0.00    -0.505 OA
ATOM     34  H   UNL     1      -1.907   4.207   0.773  0.00  0.00    +0.292 HD
ENDBRANCH  18  33
BRANCH  19  35
ATOM     35  O   UNL     1       5.386  -3.216   0.262  0.00  0.00    -0.503 OA
ATOM     36  H   UNL     1       6.245  -2.849   0.188  0.00  0.00    +0.292 HD
ENDBRANCH  19  35
TORSDOF 5
