REMARK  Name = 10072666
REMARK  7 active torsions:
REMARK  status: ('A' for Active; 'I' for Inactive)
REMARK    1  A    between atoms: N_1  and  C_18
REMARK    2  A    between atoms: C_2  and  C_11
REMARK    3  A    between atoms: C_18  and  C_19
REMARK    4  A    between atoms: C_19  and  C_20
REMARK    5  A    between atoms: C_20  and  O_21
REMARK    6  A    between atoms: O_21  and  C_24
REMARK    7  A    between atoms: N_23  and  C_28
REMARK                            x       y       z     vdW  Elec       q    Type
REMARK                         _______ _______ _______ _____ _____    ______ ____
ROOT
ATOM      1  N   UNL     1       1.699   1.119  -0.670  0.00  0.00    +0.387 N 
ATOM      2  C   UNL     1       4.508   0.470  -0.128  0.00  0.00    +0.039 C 
ATOM      3  C   UNL     1       4.091   1.622  -1.057  0.00  0.00    -0.017 C 
ATOM      4  C   UNL     1       3.391  -0.585  -0.072  0.00  0.00    -0.017 C 
ATOM      5  C   UNL     1       2.718   2.177  -0.671  0.00  0.00    -0.077 C 
ATOM      6  C   UNL     1       2.044   0.051   0.278  0.00  0.00    -0.077 C 
ATOM      7  H   UNL     1       1.667   0.711  -1.605  0.00  0.00    -0.080 HD
ENDROOT
BRANCH   2  11
ATOM      8  F   UNL     1      10.901  -0.835   1.500  0.00  0.00    -0.204 F 
ATOM      9  O   UNL     1       7.326  -1.130  -1.703  0.00  0.00    -0.354 OA
ATOM     10  N   UNL     1       6.004  -0.701  -1.683  0.00  0.00    -0.081 NA
ATOM     11  C   UNL     1       5.851  -0.120  -0.494  0.00  0.00    +0.100 A 
ATOM     12  C   UNL     1       7.018  -0.143   0.283  0.00  0.00    +0.054 A 
ATOM     13  C   UNL     1       7.928  -0.796  -0.529  0.00  0.00    +0.179 A 
ATOM     14  C   UNL     1       7.428   0.294   1.552  0.00  0.00    +0.007 C 
ATOM     15  C   UNL     1       9.248  -1.058  -0.175  0.00  0.00    +0.070 C 
ATOM     16  C   UNL     1       8.752   0.047   1.941  0.00  0.00    +0.030 C 
ATOM     17  C   UNL     1       9.643  -0.617   1.092  0.00  0.00    +0.143 C 
ENDBRANCH   2  11
BRANCH   1  18
ATOM     18  C   UNL     1       0.383   1.676  -0.356  0.00  0.00    -0.074 C 
BRANCH  18  19
ATOM     19  C   UNL     1      -0.690   0.598  -0.474  0.00  0.00    +0.025 C 
BRANCH  19  20
ATOM     20  C   UNL     1      -2.075   1.154  -0.173  0.00  0.00    +0.208 C 
BRANCH  20  21
ATOM     21  O   UNL     1      -3.029   0.111  -0.313  0.00  0.00    -0.435 OA
BRANCH  21  24
ATOM     22  O   UNL     1      -4.698   1.573   0.241  0.00  0.00    -0.226 OA
ATOM     23  N   UNL     1      -5.133  -0.674  -0.253  0.00  0.00    -0.250 N 
ATOM     24  C   UNL     1      -4.341   0.445  -0.075  0.00  0.00    +0.405 C 
ATOM     25  H   UNL     1      -4.661  -1.499  -0.510  0.00  0.00    +0.158 HD
BRANCH  23  28
ATOM     26  S   UNL     1      -9.820   1.409   0.809  0.00  0.00    -0.086 S 
ATOM     27  N   UNL     1     -10.677  -0.976   0.329  0.00  0.00    -0.262 NA
ATOM     28  C   UNL     1      -6.535  -0.779  -0.112  0.00  0.00    +0.050 C 
ATOM     29  C   UNL     1      -7.259   0.349   0.248  0.00  0.00    +0.022 C 
ATOM     30  C   UNL     1      -7.141  -2.001  -0.337  0.00  0.00    -0.005 C 
ATOM     31  C   UNL     1      -8.651   0.216   0.380  0.00  0.00    +0.042 C 
ATOM     32  C   UNL     1      -9.300  -1.002   0.160  0.00  0.00    +0.065 C 
ATOM     33  C   UNL     1      -8.527  -2.126  -0.204  0.00  0.00    +0.073 C 
ATOM     34  C   UNL     1     -11.055   0.234   0.669  0.00  0.00    +0.187 C 
ENDBRANCH  23  28
ENDBRANCH  21  24
ENDBRANCH  20  21
ENDBRANCH  19  20
ENDBRANCH  18  19
ENDBRANCH   1  18
TORSDOF 7
