REMARK  Name = 10072444
REMARK  9 active torsions:
REMARK  status: ('A' for Active; 'I' for Inactive)
REMARK    1  A    between atoms: C_4  and  C_17
REMARK    2  A    between atoms: C_6  and  C_36
REMARK    3  A    between atoms: C_11  and  O_32
REMARK    4  A    between atoms: C_13  and  O_34
REMARK    5  A    between atoms: C_18  and  O_26
REMARK    6  A    between atoms: C_19  and  O_28
REMARK    7  A    between atoms: C_20  and  C_24
REMARK    8  A    between atoms: C_22  and  O_30
REMARK    9  A    between atoms: C_36  and  O_37
REMARK                            x       y       z     vdW  Elec       q    Type
REMARK                         _______ _______ _______ _____ _____    ______ ____
ROOT
ATOM      1  O   UNL     1      -0.092   1.643   0.560  0.00  0.00    -0.287 OA
ATOM      2  O   UNL     1      -4.323  -1.466  -0.428  0.00  0.00    -0.286 OA
ATOM      3  C   UNL     1      -0.892  -0.565   0.197  0.00  0.00    +0.045 C 
ATOM      4  C   UNL     1       0.374  -1.149   0.329  0.00  0.00    +0.008 C 
ATOM      5  C   UNL     1      -2.006  -1.366  -0.062  0.00  0.00    +0.076 C 
ATOM      6  C   UNL     1       0.520  -2.531   0.202  0.00  0.00    +0.010 C 
ATOM      7  C   UNL     1      -1.038   0.899   0.334  0.00  0.00    +0.196 C 
ATOM      8  C   UNL     1      -2.379   1.502   0.194  0.00  0.00    +0.045 C 
ATOM      9  C   UNL     1      -3.492   0.701  -0.065  0.00  0.00    +0.076 C 
ATOM     10  C   UNL     1      -3.347  -0.763  -0.203  0.00  0.00    +0.202 C 
ATOM     11  C   UNL     1      -1.854  -2.752  -0.190  0.00  0.00    +0.137 C 
ATOM     12  C   UNL     1      -0.591  -3.330  -0.057  0.00  0.00    +0.035 C 
ATOM     13  C   UNL     1      -4.758   1.285  -0.195  0.00  0.00    +0.137 C 
ATOM     14  C   UNL     1      -2.531   2.888   0.324  0.00  0.00    +0.003 C 
ATOM     15  C   UNL     1      -4.905   2.666  -0.065  0.00  0.00    +0.037 C 
ATOM     16  C   UNL     1      -3.794   3.466   0.194  0.00  0.00    +0.003 C 
ENDROOT
BRANCH   4  17
ATOM     17  C   UNL     1       1.582  -0.384   0.598  0.00  0.00    +0.068 C 
ATOM     18  C   UNL     1       2.342   0.111  -0.459  0.00  0.00    +0.147 C 
ATOM     19  C   UNL     1       1.973  -0.148   1.914  0.00  0.00    +0.140 C 
ATOM     20  C   UNL     1       3.500   0.844  -0.199  0.00  0.00    +0.102 C 
ATOM     21  C   UNL     1       3.131   0.585   2.175  0.00  0.00    +0.073 C 
ATOM     22  C   UNL     1       3.894   1.081   1.118  0.00  0.00    +0.142 C 
BRANCH  20  24
ATOM     23  O   UNL     1       4.085   2.493  -1.782  0.00  0.00    -0.291 OA
ATOM     24  C   UNL     1       4.301   1.364  -1.302  0.00  0.00    +0.179 C 
ATOM     25  C   UNL     1       5.427   0.525  -1.891  0.00  0.00    +0.077 C 
ENDBRANCH  20  24
BRANCH  18  26
ATOM     26  O   UNL     1       1.963  -0.117  -1.752  0.00  0.00    -0.471 OA
ATOM     27  C   UNL     1       1.103   0.847  -2.350  0.00  0.00    +0.252 C 
ENDBRANCH  18  26
BRANCH  19  28
ATOM     28  O   UNL     1       1.247  -0.620   2.968  0.00  0.00    -0.505 OA
ATOM     29  H   UNL     1       0.466  -1.115   2.815  0.00  0.00    +0.292 HD
ENDBRANCH  19  28
BRANCH  22  30
ATOM     30  O   UNL     1       5.022   1.795   1.395  0.00  0.00    -0.505 OA
ATOM     31  H   UNL     1       5.545   2.135   0.695  0.00  0.00    +0.292 HD
ENDBRANCH  22  30
ENDBRANCH   4  17
BRANCH  11  32
ATOM     32  O   UNL     1      -2.897  -3.594  -0.442  0.00  0.00    -0.505 OA
ATOM     33  H   UNL     1      -3.763  -3.250  -0.538  0.00  0.00    +0.292 HD
ENDBRANCH  11  32
BRANCH  13  34
ATOM     34  O   UNL     1      -5.887   0.564  -0.448  0.00  0.00    -0.505 OA
ATOM     35  H   UNL     1      -5.837  -0.367  -0.543  0.00  0.00    +0.292 HD
ENDBRANCH  13  34
BRANCH   6  36
ATOM     36  C   UNL     1       1.851  -3.204   0.333  0.00  0.00    +0.164 C 
BRANCH  36  37
ATOM     37  O   UNL     1       2.469  -3.269  -0.945  0.00  0.00    -0.377 OA
ATOM     38  H   UNL     1       3.332  -3.705  -0.865  0.00  0.00    +0.211 HD
ENDBRANCH  36  37
ENDBRANCH   6  36
TORSDOF 9
