REMARK  Name = 100721
REMARK  6 active torsions:
REMARK  status: ('A' for Active; 'I' for Inactive)
REMARK    1  A    between atoms: C_6  and  O_24
REMARK    2  A    between atoms: C_7  and  C_30
REMARK    3  A    between atoms: C_9  and  O_26
REMARK    4  A    between atoms: C_22  and  O_28
REMARK    5  A    between atoms: C_30  and  C_31
REMARK    6  A    between atoms: C_31  and  O_34
REMARK                            x       y       z     vdW  Elec       q    Type
REMARK                         _______ _______ _______ _____ _____    ______ ____
ROOT
ATOM      1  O   UNL     1      -2.964   1.810  -1.625  0.00  0.00    -0.273 OA
ATOM      2  O   UNL     1      -2.777  -2.308   1.716  0.00  0.00    -0.270 OA
ATOM      3  N   UNL     1      -1.646   0.289  -0.425  0.00  0.00    -0.247 N 
ATOM      4  N   UNL     1      -3.914  -0.996   0.200  0.00  0.00    -0.270 N 
ATOM      5  N   UNL     1       1.985   0.955  -0.693  0.00  0.00    -0.355 N 
ATOM      6  C   UNL     1      -1.494  -1.145   0.001  0.00  0.00    +0.251 C 
ATOM      7  C   UNL     1      -0.508   1.246  -0.365  0.00  0.00    +0.118 C 
ATOM      8  C   UNL     1      -3.921  -0.321  -1.083  0.00  0.00    +0.152 C 
ATOM      9  C   UNL     1      -0.239  -1.436   0.883  0.00  0.00    +0.185 C 
ATOM     10  C   UNL     1       0.775   0.508  -0.248  0.00  0.00    +0.050 A 
ATOM     11  C   UNL     1      -2.832   0.729  -1.051  0.00  0.00    +0.246 C 
ATOM     12  C   UNL     1       0.946  -0.730   0.324  0.00  0.00    +0.023 A 
ATOM     13  C   UNL     1      -2.773  -1.534   0.761  0.00  0.00    +0.271 C 
ATOM     14  C   UNL     1      -5.336   0.237  -1.196  0.00  0.00    +0.031 C 
ATOM     15  C   UNL     1      -5.256  -1.172   0.730  0.00  0.00    +0.094 C 
ATOM     16  C   UNL     1      -6.167  -0.786  -0.427  0.00  0.00    +0.024 C 
ATOM     17  C   UNL     1       2.332  -1.052   0.242  0.00  0.00    +0.015 A 
ATOM     18  C   UNL     1       2.957   0.022  -0.404  0.00  0.00    +0.059 A 
ATOM     19  C   UNL     1       3.130  -2.143   0.646  0.00  0.00    +0.004 C 
ATOM     20  C   UNL     1       4.333   0.054  -0.663  0.00  0.00    +0.054 C 
ATOM     21  C   UNL     1       4.506  -2.124   0.392  0.00  0.00    +0.037 C 
ATOM     22  C   UNL     1       5.097  -1.041  -0.254  0.00  0.00    +0.140 C 
ATOM     23  H   UNL     1       2.140   1.813  -1.151  0.00  0.00    +0.166 HD
ENDROOT
BRANCH   6  24
ATOM     24  O   UNL     1      -1.425  -1.948  -1.176  0.00  0.00    -0.362 OA
ATOM     25  H   UNL     1      -0.625  -1.722  -1.675  0.00  0.00    +0.213 HD
ENDBRANCH   6  24
BRANCH   9  26
ATOM     26  O   UNL     1      -0.047  -2.846   0.974  0.00  0.00    -0.376 OA
ATOM     27  H   UNL     1      -0.844  -3.258   1.342  0.00  0.00    +0.211 HD
ENDBRANCH   9  26
BRANCH  22  28
ATOM     28  O   UNL     1       6.440  -1.046  -0.488  0.00  0.00    -0.471 OA
ATOM     29  C   UNL     1       6.985   0.091  -1.153  0.00  0.00    +0.252 C 
ENDBRANCH  22  28
BRANCH   7  30
ATOM     30  C   UNL     1      -0.692   2.207   0.811  0.00  0.00    +0.053 C 
BRANCH  30  31
ATOM     31  C   UNL     1       0.360   3.329   0.884  0.00  0.00    +0.090 C 
ATOM     32  C   UNL     1       0.135   4.264   2.073  0.00  0.00    +0.029 C 
ATOM     33  C   UNL     1       0.347   4.136  -0.418  0.00  0.00    +0.029 C 
BRANCH  31  34
ATOM     34  O   UNL     1       1.660   2.754   1.032  0.00  0.00    -0.387 OA
ATOM     35  H   UNL     1       1.693   2.236   1.851  0.00  0.00    +0.210 HD
ENDBRANCH  31  34
ENDBRANCH  30  31
ENDBRANCH   7  30
TORSDOF 6
