REMARK  Name = 100766
REMARK  15 active torsions:
REMARK  status: ('A' for Active; 'I' for Inactive)
REMARK    1  A    between atoms: C_2  and  C_22
REMARK    2  A    between atoms: C_3  and  O_18
REMARK    3  A    between atoms: C_4  and  O_20
REMARK    4  A    between atoms: C_5  and  N_6
REMARK    5  A    between atoms: C_22  and  S_23
REMARK    6  A    between atoms: S_23  and  C_24
REMARK    7  A    between atoms: C_24  and  C_25
REMARK    8  A    between atoms: C_24  and  C_34
REMARK    9  A    between atoms: C_25  and  C_26
REMARK   10  A    between atoms: C_26  and  C_27
REMARK   11  A    between atoms: C_27  and  C_28
REMARK   12  A    between atoms: C_28  and  C_29
REMARK   13  A    between atoms: C_29  and  N_30
REMARK   14  A    between atoms: C_34  and  C_35
REMARK   15  A    between atoms: C_35  and  N_36
REMARK                            x       y       z     vdW  Elec       q    Type
REMARK                         _______ _______ _______ _____ _____    ______ ____
ROOT
ATOM      1  O   UNL     1      -0.189  -1.967  -0.987  0.00  0.00    -0.335 OA
ATOM      2  C   UNL     1      -1.397  -2.590  -0.492  0.00  0.00    +0.157 C 
ATOM      3  C   UNL     1      -1.002  -3.363   0.762  0.00  0.00    +0.169 C 
ATOM      4  C   UNL     1       0.179  -2.564   1.276  0.00  0.00    +0.187 C 
ATOM      5  C   UNL     1       0.864  -2.167  -0.024  0.00  0.00    +0.225 C 
ENDROOT
BRANCH   5   6
ATOM      6  N   UNL     1       1.676  -0.957   0.077  0.00  0.00    -0.247 N 
ATOM      7  N   UNL     1       2.206   1.172   0.485  0.00  0.00    -0.242 NA
ATOM      8  N   UNL     1       3.830  -1.781  -0.686  0.00  0.00    -0.228 NA
ATOM      9  N   UNL     1       5.514  -0.015  -0.667  0.00  0.00    -0.229 NA
ATOM     10  C   UNL     1       3.002  -0.829  -0.230  0.00  0.00    +0.152 C 
ATOM     11  C   UNL     1       1.244   0.273   0.502  0.00  0.00    +0.223 C 
ATOM     12  C   UNL     1       3.310   0.497   0.030  0.00  0.00    +0.140 C 
ATOM     13  C   UNL     1       4.623   0.895  -0.205  0.00  0.00    +0.143 C 
ATOM     14  C   UNL     1       5.069  -1.278  -0.875  0.00  0.00    +0.253 C 
ATOM     15  N   UNL     1       5.024   2.221   0.033  0.00  0.00    -0.342 N 
ATOM     16  H   UNL     1       5.955   2.491  -0.137  0.00  0.00    +0.144 HD
ATOM     17  H   UNL     1       4.374   2.879   0.369  0.00  0.00    +0.144 HD
ENDBRANCH   5   6
BRANCH   3  18
ATOM     18  O   UNL     1      -0.565  -4.667   0.380  0.00  0.00    -0.379 OA
ATOM     19  H   UNL     1      -1.321  -5.178   0.051  0.00  0.00    +0.211 HD
ENDBRANCH   3  18
BRANCH   4  20
ATOM     20  O   UNL     1       1.034  -3.316   2.113  0.00  0.00    -0.378 OA
ATOM     21  H   UNL     1       0.564  -3.550   2.928  0.00  0.00    +0.211 HD
ENDBRANCH   4  20
BRANCH   2  22
ATOM     22  C   UNL     1      -2.422  -1.498  -0.218  0.00  0.00    +0.090 C 
BRANCH  22  23
ATOM     23  S   UNL     1      -2.850  -0.633  -1.743  0.00  0.00    -0.139 S 
BRANCH  23  24
ATOM     24  C   UNL     1      -4.054   0.551  -1.028  0.00  0.00    +0.046 C 
BRANCH  24  25
ATOM     25  C   UNL     1      -3.364   1.493  -0.023  0.00  0.00    +0.011 C 
BRANCH  25  26
ATOM     26  C   UNL     1      -2.158   2.273  -0.563  0.00  0.00    +0.001 C 
BRANCH  26  27
ATOM     27  C   UNL     1      -1.611   3.240   0.493  0.00  0.00    -0.002 C 
BRANCH  27  28
ATOM     28  C   UNL     1      -0.387   3.998  -0.031  0.00  0.00    -0.024 C 
BRANCH  28  29
ATOM     29  C   UNL     1       0.159   5.033   0.955  0.00  0.00    -0.086 C 
BRANCH  29  30
ATOM     30  N   UNL     1       1.286   5.779   0.408  0.00  0.00    +0.380 N 
ATOM     31  H   UNL     1       1.614   6.454   1.098  0.00  0.00    -0.089 HD
ATOM     32  H   UNL     1       0.990   6.271  -0.435  0.00  0.00    -0.089 HD
ATOM     33  H   UNL     1       2.041   5.133   0.178  0.00  0.00    -0.089 HD
ENDBRANCH  29  30
ENDBRANCH  28  29
ENDBRANCH  27  28
ENDBRANCH  26  27
ENDBRANCH  25  26
ENDBRANCH  24  25
BRANCH  24  34
ATOM     34  C   UNL     1      -5.243  -0.254  -0.474  0.00  0.00    -0.013 C 
BRANCH  34  35
ATOM     35  C   UNL     1      -6.341   0.637   0.115  0.00  0.00    -0.085 C 
BRANCH  35  36
ATOM     36  N   UNL     1      -7.439  -0.182   0.619  0.00  0.00    +0.380 N 
ATOM     37  H   UNL     1      -8.162   0.422   1.008  0.00  0.00    -0.089 HD
ATOM     38  H   UNL     1      -7.091  -0.807   1.345  0.00  0.00    -0.089 HD
ATOM     39  H   UNL     1      -7.830  -0.733  -0.145  0.00  0.00    -0.089 HD
ENDBRANCH  35  36
ENDBRANCH  34  35
ENDBRANCH  24  34
ENDBRANCH  23  24
ENDBRANCH  22  23
ENDBRANCH   2  22
TORSDOF 15
