REMARK  Name = 10073783
REMARK  11 active torsions:
REMARK  status: ('A' for Active; 'I' for Inactive)
REMARK    1  A    between atoms: C_2  and  C_27
REMARK    2  A    between atoms: C_3  and  C_7
REMARK    3  A    between atoms: C_6  and  C_17
REMARK    4  A    between atoms: C_10  and  O_13
REMARK    5  A    between atoms: C_12  and  O_15
REMARK    6  A    between atoms: C_20  and  O_23
REMARK    7  A    between atoms: C_22  and  O_25
REMARK    8  A    between atoms: C_27  and  O_28
REMARK    9  A    between atoms: O_28  and  C_30
REMARK   10  A    between atoms: C_30  and  C_31
REMARK   11  A    between atoms: C_36  and  O_37
REMARK                            x       y       z     vdW  Elec       q    Type
REMARK                         _______ _______ _______ _____ _____    ______ ____
ROOT
ATOM      1  O   UNL     1       0.063  -3.368  -2.203  0.00  0.00    -0.347 OA
ATOM      2  C   UNL     1       0.757  -1.271  -1.210  0.00  0.00    +0.096 C 
ATOM      3  C   UNL     1      -0.441  -2.131  -1.655  0.00  0.00    +0.145 C 
ATOM      4  C   UNL     1       1.909  -2.192  -1.444  0.00  0.00    -0.009 C 
ATOM      5  C   UNL     1       1.477  -3.256  -2.383  0.00  0.00    +0.165 C 
ATOM      6  C   UNL     1       3.091  -2.140  -0.820  0.00  0.00    -0.006 C 
ENDROOT
BRANCH   3   7
ATOM      7  C   UNL     1      -1.394  -2.437  -0.521  0.00  0.00    +0.008 C 
ATOM      8  C   UNL     1      -2.496  -1.612  -0.291  0.00  0.00    +0.038 C 
ATOM      9  C   UNL     1      -1.174  -3.546   0.299  0.00  0.00    +0.001 C 
ATOM     10  C   UNL     1      -3.375  -1.893   0.755  0.00  0.00    +0.172 C 
ATOM     11  C   UNL     1      -2.052  -3.827   1.345  0.00  0.00    +0.040 C 
ATOM     12  C   UNL     1      -3.153  -3.001   1.573  0.00  0.00    +0.168 C 
BRANCH  10  13
ATOM     13  O   UNL     1      -4.447  -1.080   0.968  0.00  0.00    -0.468 OA
ATOM     14  C   UNL     1      -4.257   0.025   1.850  0.00  0.00    +0.253 C 
ENDBRANCH  10  13
BRANCH  12  15
ATOM     15  O   UNL     1      -4.004  -3.287   2.598  0.00  0.00    -0.503 OA
ATOM     16  H   UNL     1      -4.745  -2.737   2.758  0.00  0.00    +0.292 HD
ENDBRANCH  12  15
ENDBRANCH   3   7
BRANCH   6  17
ATOM     17  C   UNL     1       3.526  -1.087   0.113  0.00  0.00    +0.003 C 
ATOM     18  C   UNL     1       4.206   0.016  -0.376  0.00  0.00    +0.040 C 
ATOM     19  C   UNL     1       3.247  -1.220   1.464  0.00  0.00    +0.003 C 
ATOM     20  C   UNL     1       4.619   1.013   0.508  0.00  0.00    +0.172 C 
ATOM     21  C   UNL     1       3.659  -0.223   2.349  0.00  0.00    +0.040 C 
ATOM     22  C   UNL     1       4.345   0.893   1.870  0.00  0.00    +0.168 C 
BRANCH  20  23
ATOM     23  O   UNL     1       5.288   2.099   0.029  0.00  0.00    -0.468 OA
ATOM     24  C   UNL     1       4.502   3.221  -0.367  0.00  0.00    +0.253 C 
ENDBRANCH  20  23
BRANCH  22  25
ATOM     25  O   UNL     1       4.742   1.860   2.744  0.00  0.00    -0.503 OA
ATOM     26  H   UNL     1       5.203   2.614   2.431  0.00  0.00    +0.292 HD
ENDBRANCH  22  25
ENDBRANCH   6  17
BRANCH   2  27
ATOM     27  C   UNL     1       0.871   0.005  -2.043  0.00  0.00    +0.216 C 
BRANCH  27  28
ATOM     28  O   UNL     1      -0.257   0.820  -1.778  0.00  0.00    -0.445 OA
BRANCH  28  30
ATOM     29  O   UNL     1       0.860   1.858  -0.052  0.00  0.00    -0.245 OA
ATOM     30  C   UNL     1      -0.131   1.709  -0.751  0.00  0.00    +0.341 C 
BRANCH  30  31
ATOM     31  C   UNL     1      -1.377   2.498  -0.576  0.00  0.00    +0.076 C 
ATOM     32  C   UNL     1      -1.428   3.449   0.423  0.00  0.00    +0.010 C 
ATOM     33  C   UNL     1      -2.444   2.257  -1.417  0.00  0.00    +0.010 C 
ATOM     34  C   UNL     1      -2.598   4.191   0.588  0.00  0.00    +0.037 C 
ATOM     35  C   UNL     1      -3.613   2.999  -1.252  0.00  0.00    +0.037 C 
ATOM     36  C   UNL     1      -3.690   3.966  -0.249  0.00  0.00    +0.134 C 
BRANCH  36  37
ATOM     37  O   UNL     1      -4.831   4.691  -0.090  0.00  0.00    -0.506 OA
ATOM     38  H   UNL     1      -4.883   5.341   0.583  0.00  0.00    +0.292 HD
ENDBRANCH  36  37
ENDBRANCH  30  31
ENDBRANCH  28  30
ENDBRANCH  27  28
ENDBRANCH   2  27
TORSDOF 11
