10071919
  -OEChem-03292013303D

 60 61  0     0  0  0  0  0  0999 V2000
    3.7622   -2.7587   -0.4114 Cl  0  0  0  0  0  0  0  0  0  0  0  0
   -0.9060   -1.2750    0.1833 O   0  0  0  0  0  0  0  0  0  0  0  0
   -3.2050    1.3016   -0.0773 O   0  0  0  0  0  0  0  0  0  0  0  0
   -0.6679   -2.5660   -1.7057 O   0  0  0  0  0  0  0  0  0  0  0  0
   -4.8186    1.5288    1.5465 O   0  0  0  0  0  0  0  0  0  0  0  0
    1.5932    1.5638    0.9377 N   0  0  0  0  0  0  0  0  0  0  0  0
    3.3191    2.8799    0.4287 N   0  0  0  0  0  0  0  0  0  0  0  0
    2.5210   -0.5958    0.3248 N   0  0  0  0  0  0  0  0  0  0  0  0
    4.7980   -0.3735   -0.5248 N   0  0  0  0  0  0  0  0  0  0  0  0
    5.9040    1.7410   -0.6986 N   0  0  0  0  0  0  0  0  0  0  0  0
   -0.8046    1.1575    0.2900 C   0  0  0  0  0  0  0  0  0  0  0  0
    0.2654    1.1722    1.4004 C   0  0  0  0  0  0  0  0  0  0  0  0
   -0.7249   -0.0996   -0.5940 C   0  0  0  0  0  0  0  0  0  0  0  0
   -2.1926    1.3004    0.9344 C   0  0  0  0  0  0  0  0  0  0  0  0
   -1.0649   -3.6478    0.4494 C   0  0  0  0  0  0  0  0  0  0  0  0
   -5.4721    1.4103   -0.8054 C   0  0  0  0  0  0  0  0  0  0  0  0
    2.5719    0.7375    0.4633 C   0  0  0  0  0  0  0  0  0  0  0  0
   -0.8551   -2.4631   -0.4993 C   0  0  0  0  0  0  0  0  0  0  0  0
   -4.4902    1.4237    0.3708 C   0  0  0  0  0  0  0  0  0  0  0  0
    2.0891    2.8400    0.8969 C   0  0  0  0  0  0  0  0  0  0  0  0
   -2.4371   -3.5261    1.1253 C   0  0  0  0  0  0  0  0  0  0  0  0
    0.0512   -3.6652    1.5024 C   0  0  0  0  0  0  0  0  0  0  0  0
   -1.0169   -4.9599   -0.3502 C   0  0  0  0  0  0  0  0  0  0  0  0
   -5.1793    2.5987   -1.7311 C   0  0  0  0  0  0  0  0  0  0  0  0
   -6.9097    1.5335   -0.2748 C   0  0  0  0  0  0  0  0  0  0  0  0
   -5.3353    0.0881   -1.5718 C   0  0  0  0  0  0  0  0  0  0  0  0
    3.6335    1.5727    0.1538 C   0  0  0  0  0  0  0  0  0  0  0  0
    4.7788    0.9709   -0.3578 C   0  0  0  0  0  0  0  0  0  0  0  0
    3.6843   -1.0631   -0.1783 C   0  0  0  0  0  0  0  0  0  0  0  0
    7.1087    1.1734   -1.2271 C   0  0  0  0  0  0  0  0  0  0  0  0
   -0.6578    2.0206   -0.3735 H   0  0  0  0  0  0  0  0  0  0  0  0
    0.3603    0.1999    1.8970 H   0  0  0  0  0  0  0  0  0  0  0  0
    0.0008    1.8993    2.1788 H   0  0  0  0  0  0  0  0  0  0  0  0
   -1.4975   -0.0594   -1.3715 H   0  0  0  0  0  0  0  0  0  0  0  0
    0.2452   -0.1401   -1.1006 H   0  0  0  0  0  0  0  0  0  0  0  0
   -2.3789    0.4727    1.6297 H   0  0  0  0  0  0  0  0  0  0  0  0
   -2.2476    2.2456    1.4883 H   0  0  0  0  0  0  0  0  0  0  0  0
    1.5112    3.6960    1.2177 H   0  0  0  0  0  0  0  0  0  0  0  0
   -2.6432   -4.3917    1.7646 H   0  0  0  0  0  0  0  0  0  0  0  0
   -2.4995   -2.6295    1.7525 H   0  0  0  0  0  0  0  0  0  0  0  0
   -3.2381   -3.4563    0.3803 H   0  0  0  0  0  0  0  0  0  0  0  0
   -0.0471   -4.5279    2.1707 H   0  0  0  0  0  0  0  0  0  0  0  0
    1.0377   -3.7153    1.0290 H   0  0  0  0  0  0  0  0  0  0  0  0
    0.0350   -2.7620    2.1228 H   0  0  0  0  0  0  0  0  0  0  0  0
   -1.7959   -4.9841   -1.1210 H   0  0  0  0  0  0  0  0  0  0  0  0
   -0.0522   -5.0814   -0.8566 H   0  0  0  0  0  0  0  0  0  0  0  0
   -1.1639   -5.8286    0.3014 H   0  0  0  0  0  0  0  0  0  0  0  0
   -5.9032    2.6501   -2.5520 H   0  0  0  0  0  0  0  0  0  0  0  0
   -5.2225    3.5458   -1.1813 H   0  0  0  0  0  0  0  0  0  0  0  0
   -4.1801    2.5272   -2.1756 H   0  0  0  0  0  0  0  0  0  0  0  0
   -7.6381    1.5262   -1.0934 H   0  0  0  0  0  0  0  0  0  0  0  0
   -7.0475    2.4648    0.2870 H   0  0  0  0  0  0  0  0  0  0  0  0
   -7.1565    0.7054    0.3998 H   0  0  0  0  0  0  0  0  0  0  0  0
   -6.0692    0.0214   -2.3826 H   0  0  0  0  0  0  0  0  0  0  0  0
   -4.3400   -0.0195   -2.0178 H   0  0  0  0  0  0  0  0  0  0  0  0
   -5.4862   -0.7700   -0.9065 H   0  0  0  0  0  0  0  0  0  0  0  0
    5.8493    2.7435   -0.5582 H   0  0  0  0  0  0  0  0  0  0  0  0
    6.9196    0.6598   -2.1752 H   0  0  0  0  0  0  0  0  0  0  0  0
    7.5537    0.4651   -0.5208 H   0  0  0  0  0  0  0  0  0  0  0  0
    7.8415    1.9642   -1.4148 H   0  0  0  0  0  0  0  0  0  0  0  0
  1 29  1  0  0  0  0
  2 13  1  0  0  0  0
  2 18  1  0  0  0  0
  3 14  1  0  0  0  0
  3 19  1  0  0  0  0
  4 18  2  0  0  0  0
  5 19  2  0  0  0  0
  6 12  1  0  0  0  0
  6 17  1  0  0  0  0
  6 20  1  0  0  0  0
  7 20  2  0  0  0  0
  7 27  1  0  0  0  0
  8 17  2  0  0  0  0
  8 29  1  0  0  0  0
  9 28  1  0  0  0  0
  9 29  2  0  0  0  0
 10 28  1  0  0  0  0
 10 30  1  0  0  0  0
 10 57  1  0  0  0  0
 11 12  1  0  0  0  0
 11 13  1  0  0  0  0
 11 14  1  0  0  0  0
 11 31  1  0  0  0  0
 12 32  1  0  0  0  0
 12 33  1  0  0  0  0
 13 34  1  0  0  0  0
 13 35  1  0  0  0  0
 14 36  1  0  0  0  0
 14 37  1  0  0  0  0
 15 18  1  0  0  0  0
 15 21  1  0  0  0  0
 15 22  1  0  0  0  0
 15 23  1  0  0  0  0
 16 19  1  0  0  0  0
 16 24  1  0  0  0  0
 16 25  1  0  0  0  0
 16 26  1  0  0  0  0
 17 27  1  0  0  0  0
 20 38  1  0  0  0  0
 21 39  1  0  0  0  0
 21 40  1  0  0  0  0
 21 41  1  0  0  0  0
 22 42  1  0  0  0  0
 22 43  1  0  0  0  0
 22 44  1  0  0  0  0
 23 45  1  0  0  0  0
 23 46  1  0  0  0  0
 23 47  1  0  0  0  0
 24 48  1  0  0  0  0
 24 49  1  0  0  0  0
 24 50  1  0  0  0  0
 25 51  1  0  0  0  0
 25 52  1  0  0  0  0
 25 53  1  0  0  0  0
 26 54  1  0  0  0  0
 26 55  1  0  0  0  0
 26 56  1  0  0  0  0
 27 28  2  0  0  0  0
 30 58  1  0  0  0  0
 30 59  1  0  0  0  0
 30 60  1  0  0  0  0
M  END
> <PUBCHEM_COMPOUND_CID>
10071919

> <PUBCHEM_CONFORMER_RMSD>
1.2

> <PUBCHEM_CONFORMER_DIVERSEORDER>
1
47
58
16
12
50
23
48
24
51
3
29
42
26
49
41
4
7
73
59
40
34
74
44
57
11
14
9
39
21
65
67
28
62
13
27
64
33
43
69
53
19
55
17
36
71
22
37
10
72
63
38
52
75
78
46
60
5
61
76
54
18
6
8
30
31
70
2
35
66
68
32
25
77
45
20
15
56

> <PUBCHEM_MMFF94_PARTIAL_CHARGES>
25
1 -0.18
10 -0.87
12 0.26
13 0.28
14 0.28
15 0.06
16 0.06
17 0.11
18 0.66
19 0.66
2 -0.43
20 0.04
27 0.23
28 0.41
29 0.8
3 -0.43
30 0.37
38 0.15
4 -0.57
5 -0.57
57 0.4
6 0.05
7 -0.57
8 -0.57
9 -0.62

> <PUBCHEM_EFFECTIVE_ROTOR_COUNT>
11

> <PUBCHEM_PHARMACOPHORE_FEATURES>
11
1 10 cation
1 10 donor
1 4 acceptor
1 5 acceptor
3 6 7 20 cation
3 6 8 17 cation
3 8 9 29 cation
4 15 21 22 23 hydrophobe
4 16 24 25 26 hydrophobe
5 6 7 17 20 27 rings
6 8 9 17 27 28 29 rings

> <PUBCHEM_HEAVY_ATOM_COUNT>
30

> <PUBCHEM_ATOM_DEF_STEREO_COUNT>
0

> <PUBCHEM_ATOM_UDEF_STEREO_COUNT>
0

> <PUBCHEM_BOND_DEF_STEREO_COUNT>
0

> <PUBCHEM_BOND_UDEF_STEREO_COUNT>
0

> <PUBCHEM_ISOTOPIC_ATOM_COUNT>
0

> <PUBCHEM_COMPONENT_COUNT>
1

> <PUBCHEM_CACTVS_TAUTO_COUNT>
3

> <PUBCHEM_CONFORMER_ID>
0099AF6F00000001

> <PUBCHEM_MMFF94_ENERGY>
61.2351

> <PUBCHEM_FEATURE_SELFOVERLAP>
56.425

> <PUBCHEM_SHAPE_FINGERPRINT>
107951 10 18335701671554177823
1100329 8 18338794503395371610
11007060 377 18201438107768677449
11135609 187 18343018856885988720
11488393 25 17973999545101787779
11991303 11 18261677081600371479
12788726 201 17560249016012786640
13540713 4 17914050065362300112
13911987 19 18408882915426812757
15131766 46 16734974452212279404
15183329 4 18130787841264355309
15775530 1 17551774242447615609
15927050 60 18411696616662905087
17138139 8 17844503652786705271
17980427 23 13623542246990722033
19319366 153 17894627020590204858
20028762 73 17986385594654103559
20197701 30 18410567375729591191
21033648 29 18335688443218975469
23559900 14 18130221679113337992
249057 3 18408327666760514756
27425 322 17241052101238448144
3298306 158 18337103454753866859
340366 18 18261117417060068028
3759504 43 18336260228098420365
4015057 19 17274538866034618392
4058900 60 18263932038062265641
59755656 520 18408597085025528055
6669772 16 18411984620000156622

> <PUBCHEM_SHAPE_MULTIPOLES>
570.87
14.23
5.27
1.38
1.45
7.65
-0.09
-13.38
-6.04
1.21
0.58
0.91
-0.06
0.79

> <PUBCHEM_SHAPE_SELFOVERLAP>
1168.34

> <PUBCHEM_SHAPE_VOLUME>
334.6

> <PUBCHEM_COORDINATE_TYPE>
2
5
10

$$$$
