REMARK  Name = 100708
REMARK  7 active torsions:
REMARK  status: ('A' for Active; 'I' for Inactive)
REMARK    1  A    between atoms: C_1  and  N_4
REMARK    2  A    between atoms: C_1  and  C_19
REMARK    3  A    between atoms: N_5  and  C_11
REMARK    4  A    between atoms: C_11  and  N_13
REMARK    5  A    between atoms: C_19  and  N_22
REMARK    6  A    between atoms: N_23  and  C_29
REMARK    7  A    between atoms: C_29  and  N_31
REMARK                            x       y       z     vdW  Elec       q    Type
REMARK                         _______ _______ _______ _____ _____    ______ ____
ROOT
ATOM      1  C   UNL     1      -0.303  -0.596   0.696  0.00  0.00    -0.099 C 
ENDROOT
BRANCH   1   4
ATOM      2  O   UNL     1      -4.440   0.872   2.398  0.00  0.00    -0.277 OA
ATOM      3  O   UNL     1      -4.309  -2.714  -0.577  0.00  0.00    -0.277 OA
ATOM      4  N   UNL     1      -1.764  -0.582   0.617  0.00  0.00    +0.397 N 
ATOM      5  N   UNL     1      -4.440  -0.865   0.842  0.00  0.00    -0.255 N 
ATOM      6  C   UNL     1      -2.332  -0.094   1.870  0.00  0.00    +0.011 C 
ATOM      7  C   UNL     1      -2.267  -1.924   0.344  0.00  0.00    +0.011 C 
ATOM      8  C   UNL     1      -3.828   0.041   1.721  0.00  0.00    +0.208 C 
ATOM      9  C   UNL     1      -3.762  -1.868   0.134  0.00  0.00    +0.208 C 
ATOM     10  H   UNL     1      -2.042   0.041  -0.142  0.00  0.00    -0.078 HD
BRANCH   5  11
ATOM     11  C   UNL     1      -5.887  -0.768   0.694  0.00  0.00    +0.028 C 
BRANCH  11  13
ATOM     12  O   UNL     1      -7.718   2.244  -1.585  0.00  0.00    -0.358 OA
ATOM     13  N   UNL     1      -6.224   0.542   0.139  0.00  0.00    +0.403 N 
ATOM     14  C   UNL     1      -7.625   0.884   0.422  0.00  0.00    -0.042 C 
ATOM     15  C   UNL     1      -5.981   0.573  -1.310  0.00  0.00    -0.042 C 
ATOM     16  C   UNL     1      -7.957   2.248  -0.177  0.00  0.00    +0.120 C 
ATOM     17  C   UNL     1      -6.351   1.945  -1.867  0.00  0.00    +0.120 C 
ATOM     18  H   UNL     1      -5.623   1.234   0.585  0.00  0.00    -0.077 HD
ENDBRANCH  11  13
ENDBRANCH   5  11
ENDBRANCH   1   4
BRANCH   1  19
ATOM     19  C   UNL     1       0.300  -0.554  -0.705  0.00  0.00    -0.099 C 
BRANCH  19  22
ATOM     20  O   UNL     1       4.446   0.912  -2.385  0.00  0.00    -0.277 OA
ATOM     21  O   UNL     1       4.292  -2.716   0.537  0.00  0.00    -0.277 OA
ATOM     22  N   UNL     1       1.761  -0.550  -0.626  0.00  0.00    +0.397 N 
ATOM     23  N   UNL     1       4.434  -0.847  -0.855  0.00  0.00    -0.255 N 
ATOM     24  C   UNL     1       2.332  -0.048  -1.871  0.00  0.00    +0.011 C 
ATOM     25  C   UNL     1       2.255  -1.900  -0.372  0.00  0.00    +0.011 C 
ATOM     26  C   UNL     1       3.829   0.076  -1.720  0.00  0.00    +0.208 C 
ATOM     27  C   UNL     1       3.751  -1.856  -0.161  0.00  0.00    +0.208 C 
ATOM     28  H   UNL     1       2.042   0.059   0.142  0.00  0.00    -0.078 HD
BRANCH  23  29
ATOM     29  C   UNL     1       5.882  -0.761  -0.705  0.00  0.00    +0.028 C 
BRANCH  29  31
ATOM     30  O   UNL     1       7.732   2.205   1.618  0.00  0.00    -0.358 OA
ATOM     31  N   UNL     1       6.227   0.538  -0.131  0.00  0.00    +0.403 N 
ATOM     32  C   UNL     1       5.984   0.550   1.318  0.00  0.00    -0.042 C 
ATOM     33  C   UNL     1       7.630   0.875  -0.408  0.00  0.00    -0.042 C 
ATOM     34  C   UNL     1       6.362   1.911   1.896  0.00  0.00    +0.120 C 
ATOM     35  C   UNL     1       7.971   2.228   0.210  0.00  0.00    +0.120 C 
ATOM     36  H   UNL     1       5.631   1.241  -0.567  0.00  0.00    -0.077 HD
ENDBRANCH  29  31
ENDBRANCH  23  29
ENDBRANCH  19  22
ENDBRANCH   1  19
TORSDOF 7
