REMARK  Name = 100788
REMARK  6 active torsions:
REMARK  status: ('A' for Active; 'I' for Inactive)
REMARK    1  A    between atoms: C_2  and  O_16
REMARK    2  A    between atoms: C_3  and  O_18
REMARK    3  A    between atoms: C_4  and  C_20
REMARK    4  A    between atoms: C_5  and  C_8
REMARK    5  A    between atoms: C_9  and  C_13
REMARK    6  A    between atoms: C_20  and  O_21
REMARK                            x       y       z     vdW  Elec       q    Type
REMARK                         _______ _______ _______ _____ _____    ______ ____
ROOT
ATOM      1  O   UNL     1      -1.507  -0.328   1.189  0.00  0.00    -0.343 OA
ATOM      2  C   UNL     1      -2.333   0.335  -0.919  0.00  0.00    +0.170 C 
ATOM      3  C   UNL     1      -1.759   1.563  -0.244  0.00  0.00    +0.174 C 
ATOM      4  C   UNL     1      -2.592  -0.566   0.277  0.00  0.00    +0.174 C 
ATOM      5  C   UNL     1      -0.958   0.982   0.920  0.00  0.00    +0.202 C 
ENDROOT
BRANCH   5   8
ATOM      6  S   UNL     1       1.590   2.091   1.179  0.00  0.00    -0.077 S 
ATOM      7  N   UNL     1       1.097  -0.211   0.111  0.00  0.00    -0.396 NA
ATOM      8  C   UNL     1       0.530   0.832   0.683  0.00  0.00    +0.164 C 
ATOM      9  C   UNL     1       2.462  -0.009   0.057  0.00  0.00    +0.173 C 
ATOM     10  C   UNL     1       2.917   1.180   0.587  0.00  0.00    +0.128 C 
BRANCH   9  13
ATOM     11  O   UNL     1       4.561  -0.889  -0.585  0.00  0.00    -0.268 OA
ATOM     12  N   UNL     1       2.721  -2.161  -1.024  0.00  0.00    -0.323 N 
ATOM     13  C   UNL     1       3.320  -1.003  -0.525  0.00  0.00    +0.269 C 
ATOM     14  H   UNL     1       3.276  -2.866  -1.430  0.00  0.00    +0.145 HD
ATOM     15  H   UNL     1       1.745  -2.273  -0.970  0.00  0.00    +0.145 HD
ENDBRANCH   9  13
ENDBRANCH   5   8
BRANCH   2  16
ATOM     16  O   UNL     1      -3.525   0.650  -1.613  0.00  0.00    -0.379 OA
ATOM     17  H   UNL     1      -3.318   1.224  -2.367  0.00  0.00    +0.211 HD
ENDBRANCH   2  16
BRANCH   3  18
ATOM     18  O   UNL     1      -0.989   2.355  -1.126  0.00  0.00    -0.379 OA
ATOM     19  H   UNL     1      -1.556   2.691  -1.838  0.00  0.00    +0.211 HD
ENDBRANCH   3  18
BRANCH   4  20
ATOM     20  C   UNL     1      -2.651  -2.041  -0.076  0.00  0.00    +0.169 C 
BRANCH  20  21
ATOM     21  O   UNL     1      -2.885  -2.782   1.109  0.00  0.00    -0.379 OA
ATOM     22  H   UNL     1      -2.925  -3.727   0.896  0.00  0.00    +0.211 HD
ENDBRANCH  20  21
ENDBRANCH   4  20
TORSDOF 6
