REMARK  Name = 10071409
REMARK  9 active torsions:
REMARK  status: ('A' for Active; 'I' for Inactive)
REMARK    1  A    between atoms: C_3  and  C_21
REMARK    2  A    between atoms: C_4  and  O_9
REMARK    3  A    between atoms: C_6  and  N_11
REMARK    4  A    between atoms: N_11  and  CA_13
REMARK    5  A    between atoms: CA_13  and  C_15
REMARK    6  A    between atoms: CA_13  and  CB_18
REMARK    7  A    between atoms: C_15  and  O_16
REMARK    8  A    between atoms: CB_18  and  OG_19
REMARK    9  A    between atoms: C_21  and  C_23
REMARK                            x       y       z     vdW  Elec       q    Type
REMARK                         _______ _______ _______ _____ _____    ______ ____
ROOT
ATOM      1  O   UNK A   0      -1.277   3.590   0.145  0.00  0.00    -0.283 OA
ATOM      2  O   UNK A   0       0.981   4.056   1.475  0.00  0.00    -0.283 OA
ATOM      3  C   UNK A   0      -0.381   1.668  -0.964  0.00  0.00    +0.055 C 
ATOM      4  C   UNK A   0       0.734   0.920  -1.096  0.00  0.00    +0.146 C 
ATOM      5  C   UNK A   0      -0.333   2.836  -0.040  0.00  0.00    +0.233 C 
ATOM      6  C   UNK A   0       1.983   1.183  -0.376  0.00  0.00    +0.082 C 
ATOM      7  C   UNK A   0       0.937   3.108   0.706  0.00  0.00    +0.235 C 
ATOM      8  C   UNK A   0       2.082   2.216   0.476  0.00  0.00    +0.063 C 
ENDROOT
BRANCH   4   9
ATOM      9  O   UNK A   0       0.813  -0.177  -1.936  0.00  0.00    -0.504 OA
ATOM     10  H   UNK A   0       0.069  -0.433  -2.444  0.00  0.00    +0.292 HD
ENDBRANCH   4   9
BRANCH   6  11
ATOM     11  N   SER A   1       3.046   0.344  -0.598  0.00  0.00    -0.321 N 
ATOM     12  H   SER A   1       3.142  -0.067  -1.488  0.00  0.00    +0.147 HD
BRANCH  11  13
ATOM     13  CA  SER A   1       4.026   0.037   0.406  0.00  0.00    +0.199 C 
BRANCH  13  15
ATOM     14  OXT SER A   1       5.046  -1.308  -1.349  0.00  0.00    -0.248 OA
ATOM     15  C   SER A   1       5.074  -0.866  -0.208  0.00  0.00    +0.334 C 
BRANCH  15  16
ATOM     16  O   SER A   1       6.078  -1.147   0.665  0.00  0.00    -0.479 OA
ATOM     17  H   SER A   1       6.060  -0.788   1.530  0.00  0.00    +0.295 HD
ENDBRANCH  15  16
ENDBRANCH  13  15
BRANCH  13  18
ATOM     18  CB  SER A   1       3.351  -0.641   1.593  0.00  0.00    +0.168 C 
BRANCH  18  19
ATOM     19  OG  SER A   1       2.701  -1.825   1.147  0.00  0.00    -0.380 OA
ATOM     20  H   SER A   1       2.271  -2.260   1.900  0.00  0.00    +0.211 HD
ENDBRANCH  18  19
ENDBRANCH  13  18
ENDBRANCH  11  13
ENDBRANCH   6  11
BRANCH   3  21
ATOM     21  C   UNK A   0      -1.677   1.458  -1.639  0.00  0.00    +0.033 C 
BRANCH  21  23
ATOM     22  C   UNK A   0      -1.885  -0.839  -0.567  0.00  0.00    +0.004 C 
ATOM     23  C   UNK A   0      -2.605   0.553  -0.775  0.00  0.00    +0.005 C 
ATOM     24  C   UNK A   0      -2.480  -1.792   0.540  0.00  0.00    +0.015 C 
ATOM     25  C   UNK A   0      -2.787   1.247   0.623  0.00  0.00    +0.000 C 
ATOM     26  C   UNK A   0      -2.606  -0.975   1.846  0.00  0.00    +0.004 C 
ATOM     27  C   UNK A   0      -3.401   0.316   1.679  0.00  0.00    +0.000 C 
ATOM     28  C   UNK A   0      -1.618  -1.638  -1.860  0.00  0.00    +0.005 C 
ATOM     29  C   UNK A   0      -1.532  -2.999   0.723  0.00  0.00    -0.049 C 
ATOM     30  C   UNK A   0      -3.938   0.451  -1.543  0.00  0.00    +0.000 C 
ATOM     31  C   UNK A   0      -3.855  -2.405   0.182  0.00  0.00    +0.004 C 
ATOM     32  C   UNK A   0      -0.609  -2.761  -1.612  0.00  0.00    +0.025 C 
ATOM     33  C   UNK A   0      -3.599   2.551   0.594  0.00  0.00    +0.000 C 
ATOM     34  C   UNK A   0      -0.713  -3.408  -0.266  0.00  0.00    -0.035 C 
ATOM     35  C   UNK A   0      -1.554  -3.754   2.027  0.00  0.00    +0.026 C 
ENDBRANCH  21  23
ENDBRANCH   3  21
TORSDOF 9
