REMARK  Name = 10072906
REMARK  5 active torsions:
REMARK  status: ('A' for Active; 'I' for Inactive)
REMARK    1  A    between atoms: C_8  and  C_29
REMARK    2  A    between atoms: C_13  and  O_26
REMARK    3  A    between atoms: C_29  and  C_30
REMARK    4  A    between atoms: C_30  and  O_31
REMARK    5  A    between atoms: O_31  and  C_33
REMARK                            x       y       z     vdW  Elec       q    Type
REMARK                         _______ _______ _______ _____ _____    ______ ____
ROOT
ATOM      1  F   UNL     1      -2.015   0.016   1.172  0.00  0.00    -0.237 F 
ATOM      2  O   UNL     1       2.293   3.237   0.464  0.00  0.00    -0.465 OA
ATOM      3  O   UNL     1      -6.756  -0.726   1.974  0.00  0.00    -0.287 OA
ATOM      4  N   UNL     1       2.325   1.105   1.298  0.00  0.00    -0.235 NA
ATOM      5  C   UNL     1       0.987   0.208  -0.648  0.00  0.00    +0.032 C 
ATOM      6  C   UNL     1      -0.095   1.298  -0.475  0.00  0.00    +0.009 C 
ATOM      7  C   UNL     1      -1.483   0.859  -0.963  0.00  0.00    +0.034 C 
ATOM      8  C   UNL     1       2.244   0.982  -0.169  0.00  0.00    +0.178 C 
ATOM      9  C   UNL     1      -1.937  -0.403  -0.149  0.00  0.00    +0.164 C 
ATOM     10  C   UNL     1       0.553   2.539  -1.092  0.00  0.00    +0.046 C 
ATOM     11  C   UNL     1       0.567  -1.006   0.202  0.00  0.00    +0.034 C 
ATOM     12  C   UNL     1       2.033   2.421  -0.673  0.00  0.00    +0.194 C 
ATOM     13  C   UNL     1      -0.851  -1.522  -0.131  0.00  0.00    +0.141 C 
ATOM     14  C   UNL     1      -3.401  -0.855  -0.535  0.00  0.00    +0.064 C 
ATOM     15  C   UNL     1      -2.491   2.013  -0.809  0.00  0.00    +0.007 C 
ATOM     16  C   UNL     1       1.209  -0.204  -2.132  0.00  0.00    +0.003 C 
ATOM     17  C   UNL     1      -3.912   1.592  -1.166  0.00  0.00    +0.023 C 
ATOM     18  C   UNL     1      -4.312   0.369  -0.381  0.00  0.00    -0.035 C 
ATOM     19  C   UNL     1      -3.552  -1.376  -1.982  0.00  0.00    +0.011 C 
ATOM     20  C   UNL     1      -3.854  -1.993   0.368  0.00  0.00    -0.017 C 
ATOM     21  C   UNL     1       2.379   2.380   1.505  0.00  0.00    +0.196 C 
ATOM     22  C   UNL     1      -5.384   0.405   0.426  0.00  0.00    +0.034 C 
ATOM     23  C   UNL     1      -4.919  -1.963   1.175  0.00  0.00    +0.038 C 
ATOM     24  C   UNL     1       2.512   3.025   2.834  0.00  0.00    +0.094 C 
ATOM     25  C   UNL     1      -5.768  -0.760   1.249  0.00  0.00    +0.195 C 
ENDROOT
BRANCH  13  26
ATOM     26  O   UNL     1      -0.811  -2.309  -1.310  0.00  0.00    -0.382 OA
ATOM     27  H   UNL     1      -1.704  -2.631  -1.514  0.00  0.00    +0.210 HD
ENDBRANCH  13  26
BRANCH   8  29
ATOM     28  O   UNL     1       4.361   1.021  -1.266  0.00  0.00    -0.290 OA
ATOM     29  C   UNL     1       3.558   0.385  -0.585  0.00  0.00    +0.218 C 
BRANCH  29  30
ATOM     30  C   UNL     1       3.828  -1.030  -0.120  0.00  0.00    +0.274 C 
BRANCH  30  31
ATOM     31  O   UNL     1       5.212  -1.237   0.068  0.00  0.00    -0.440 OA
BRANCH  31  33
ATOM     32  O   UNL     1       4.825  -3.422   0.713  0.00  0.00    -0.250 OA
ATOM     33  C   UNL     1       5.584  -2.488   0.491  0.00  0.00    +0.318 C 
ATOM     34  C   UNL     1       7.073  -2.561   0.646  0.00  0.00    +0.121 C 
ENDBRANCH  31  33
ENDBRANCH  30  31
ENDBRANCH  29  30
ENDBRANCH   8  29
TORSDOF 5
