100708
  -OEChem-03292013323D

 64 67  0     0  0  0  0  0  0999 V2000
   -7.7181    2.2441   -1.5848 O   0  0  0  0  0  0  0  0  0  0  0  0
    7.7318    2.2054    1.6180 O   0  0  0  0  0  0  0  0  0  0  0  0
   -4.4400    0.8715    2.3976 O   0  0  0  0  0  0  0  0  0  0  0  0
   -4.3095   -2.7140   -0.5770 O   0  0  0  0  0  0  0  0  0  0  0  0
    4.4460    0.9120   -2.3846 O   0  0  0  0  0  0  0  0  0  0  0  0
    4.2923   -2.7158    0.5372 O   0  0  0  0  0  0  0  0  0  0  0  0
   -1.7645   -0.5818    0.6170 N   0  0  0  0  0  0  0  0  0  0  0  0
    1.7610   -0.5504   -0.6259 N   0  0  0  0  0  0  0  0  0  0  0  0
   -4.4397   -0.8653    0.8419 N   0  0  0  0  0  0  0  0  0  0  0  0
    4.4345   -0.8473   -0.8545 N   0  0  0  0  0  0  0  0  0  0  0  0
   -6.2240    0.5419    0.1390 N   0  0  0  0  0  0  0  0  0  0  0  0
    6.2274    0.5382   -0.1309 N   0  0  0  0  0  0  0  0  0  0  0  0
   -0.3031   -0.5959    0.6959 C   0  0  0  0  0  0  0  0  0  0  0  0
    0.2996   -0.5542   -0.7051 C   0  0  0  0  0  0  0  0  0  0  0  0
   -2.3317   -0.0938    1.8699 C   0  0  0  0  0  0  0  0  0  0  0  0
   -2.2672   -1.9244    0.3440 C   0  0  0  0  0  0  0  0  0  0  0  0
    2.3315   -0.0477   -1.8713 C   0  0  0  0  0  0  0  0  0  0  0  0
    2.2553   -1.9000   -0.3725 C   0  0  0  0  0  0  0  0  0  0  0  0
   -5.8871   -0.7676    0.6936 C   0  0  0  0  0  0  0  0  0  0  0  0
    5.8823   -0.7609   -0.7046 C   0  0  0  0  0  0  0  0  0  0  0  0
   -3.8283    0.0413    1.7211 C   0  0  0  0  0  0  0  0  0  0  0  0
   -3.7623   -1.8680    0.1338 C   0  0  0  0  0  0  0  0  0  0  0  0
    3.8288    0.0759   -1.7204 C   0  0  0  0  0  0  0  0  0  0  0  0
    3.7505   -1.8562   -0.1612 C   0  0  0  0  0  0  0  0  0  0  0  0
   -7.6250    0.8837    0.4220 C   0  0  0  0  0  0  0  0  0  0  0  0
   -5.9809    0.5733   -1.3098 C   0  0  0  0  0  0  0  0  0  0  0  0
    5.9841    0.5497    1.3183 C   0  0  0  0  0  0  0  0  0  0  0  0
    7.6305    0.8752   -0.4085 C   0  0  0  0  0  0  0  0  0  0  0  0
   -7.9567    2.2475   -0.1768 C   0  0  0  0  0  0  0  0  0  0  0  0
   -6.3506    1.9449   -1.8671 C   0  0  0  0  0  0  0  0  0  0  0  0
    6.3624    1.9108    1.8957 C   0  0  0  0  0  0  0  0  0  0  0  0
    7.9707    2.2280    0.2102 C   0  0  0  0  0  0  0  0  0  0  0  0
    0.0505    0.3009    1.2240 H   0  0  0  0  0  0  0  0  0  0  0  0
    0.0411   -1.4528    1.2864 H   0  0  0  0  0  0  0  0  0  0  0  0
   -0.0506   -1.3759   -1.3411 H   0  0  0  0  0  0  0  0  0  0  0  0
   -0.0489    0.3736   -1.1801 H   0  0  0  0  0  0  0  0  0  0  0  0
   -2.1165   -0.7539    2.7189 H   0  0  0  0  0  0  0  0  0  0  0  0
   -1.9441    0.9066    2.0977 H   0  0  0  0  0  0  0  0  0  0  0  0
   -1.8387   -2.3300   -0.5785 H   0  0  0  0  0  0  0  0  0  0  0  0
   -2.0573   -2.6284    1.1589 H   0  0  0  0  0  0  0  0  0  0  0  0
    2.1126   -0.6940   -2.7298 H   0  0  0  0  0  0  0  0  0  0  0  0
    1.9496    0.9580   -2.0847 H   0  0  0  0  0  0  0  0  0  0  0  0
    1.8285   -2.3197    0.5439 H   0  0  0  0  0  0  0  0  0  0  0  0
    2.0410   -2.5901   -1.1980 H   0  0  0  0  0  0  0  0  0  0  0  0
   -6.2982   -0.8638    1.7071 H   0  0  0  0  0  0  0  0  0  0  0  0
   -6.3001   -1.5907    0.0993 H   0  0  0  0  0  0  0  0  0  0  0  0
    6.2930   -0.8449   -1.7194 H   0  0  0  0  0  0  0  0  0  0  0  0
    6.2900   -1.5953   -0.1223 H   0  0  0  0  0  0  0  0  0  0  0  0
   -7.7979    0.9226    1.5035 H   0  0  0  0  0  0  0  0  0  0  0  0
   -8.2936    0.1240   -0.0033 H   0  0  0  0  0  0  0  0  0  0  0  0
   -6.5803   -0.1960   -1.8142 H   0  0  0  0  0  0  0  0  0  0  0  0
   -4.9257    0.3818   -1.5336 H   0  0  0  0  0  0  0  0  0  0  0  0
    6.5785   -0.2305    1.8115 H   0  0  0  0  0  0  0  0  0  0  0  0
    4.9276    0.3616    1.5391 H   0  0  0  0  0  0  0  0  0  0  0  0
    7.8041    0.9289   -1.4894 H   0  0  0  0  0  0  0  0  0  0  0  0
    8.2943    0.1051    0.0057 H   0  0  0  0  0  0  0  0  0  0  0  0
   -9.0157    2.4759   -0.0195 H   0  0  0  0  0  0  0  0  0  0  0  0
   -7.3714    3.0482    0.2917 H   0  0  0  0  0  0  0  0  0  0  0  0
   -5.7103    2.7348   -1.4559 H   0  0  0  0  0  0  0  0  0  0  0  0
   -6.2267    1.9510   -2.9548 H   0  0  0  0  0  0  0  0  0  0  0  0
    5.7270    2.7105    1.4958 H   0  0  0  0  0  0  0  0  0  0  0  0
    6.2382    1.9019    2.9833 H   0  0  0  0  0  0  0  0  0  0  0  0
    9.0311    2.4521    0.0564 H   0  0  0  0  0  0  0  0  0  0  0  0
    7.3906    3.0391   -0.2466 H   0  0  0  0  0  0  0  0  0  0  0  0
  1 29  1  0  0  0  0
  1 30  1  0  0  0  0
  2 31  1  0  0  0  0
  2 32  1  0  0  0  0
  3 21  2  0  0  0  0
  4 22  2  0  0  0  0
  5 23  2  0  0  0  0
  6 24  2  0  0  0  0
  7 13  1  0  0  0  0
  7 15  1  0  0  0  0
  7 16  1  0  0  0  0
  8 14  1  0  0  0  0
  8 17  1  0  0  0  0
  8 18  1  0  0  0  0
  9 19  1  0  0  0  0
  9 21  1  0  0  0  0
  9 22  1  0  0  0  0
 10 20  1  0  0  0  0
 10 23  1  0  0  0  0
 10 24  1  0  0  0  0
 11 19  1  0  0  0  0
 11 25  1  0  0  0  0
 11 26  1  0  0  0  0
 12 20  1  0  0  0  0
 12 27  1  0  0  0  0
 12 28  1  0  0  0  0
 13 14  1  0  0  0  0
 13 33  1  0  0  0  0
 13 34  1  0  0  0  0
 14 35  1  0  0  0  0
 14 36  1  0  0  0  0
 15 21  1  0  0  0  0
 15 37  1  0  0  0  0
 15 38  1  0  0  0  0
 16 22  1  0  0  0  0
 16 39  1  0  0  0  0
 16 40  1  0  0  0  0
 17 23  1  0  0  0  0
 17 41  1  0  0  0  0
 17 42  1  0  0  0  0
 18 24  1  0  0  0  0
 18 43  1  0  0  0  0
 18 44  1  0  0  0  0
 19 45  1  0  0  0  0
 19 46  1  0  0  0  0
 20 47  1  0  0  0  0
 20 48  1  0  0  0  0
 25 29  1  0  0  0  0
 25 49  1  0  0  0  0
 25 50  1  0  0  0  0
 26 30  1  0  0  0  0
 26 51  1  0  0  0  0
 26 52  1  0  0  0  0
 27 31  1  0  0  0  0
 27 53  1  0  0  0  0
 27 54  1  0  0  0  0
 28 32  1  0  0  0  0
 28 55  1  0  0  0  0
 28 56  1  0  0  0  0
 29 57  1  0  0  0  0
 29 58  1  0  0  0  0
 30 59  1  0  0  0  0
 30 60  1  0  0  0  0
 31 61  1  0  0  0  0
 31 62  1  0  0  0  0
 32 63  1  0  0  0  0
 32 64  1  0  0  0  0
M  END
> <PUBCHEM_COMPOUND_CID>
100708

> <PUBCHEM_CONFORMER_RMSD>
1.6

> <PUBCHEM_CONFORMER_DIVERSEORDER>
1
9
4
7
12
11
6
2
5
3
13
14
10
8

> <PUBCHEM_MMFF94_PARTIAL_CHARGES>
32
1 -0.56
10 -0.42
11 -0.81
12 -0.81
13 0.27
14 0.27
15 0.33
16 0.33
17 0.33
18 0.33
19 0.57
2 -0.56
20 0.57
21 0.57
22 0.57
23 0.57
24 0.57
25 0.27
26 0.27
27 0.27
28 0.27
29 0.28
3 -0.57
30 0.28
31 0.28
32 0.28
4 -0.57
5 -0.57
6 -0.57
7 -0.81
8 -0.81
9 -0.42

> <PUBCHEM_EFFECTIVE_ROTOR_COUNT>
11

> <PUBCHEM_PHARMACOPHORE_FEATURES>
14
1 1 acceptor
1 11 cation
1 12 cation
1 2 acceptor
1 3 acceptor
1 4 acceptor
1 5 acceptor
1 6 acceptor
1 7 cation
1 8 cation
6 1 11 25 26 29 30 rings
6 2 12 27 28 31 32 rings
6 7 9 15 16 21 22 rings
6 8 10 17 18 23 24 rings

> <PUBCHEM_HEAVY_ATOM_COUNT>
32

> <PUBCHEM_ATOM_DEF_STEREO_COUNT>
0

> <PUBCHEM_ATOM_UDEF_STEREO_COUNT>
0

> <PUBCHEM_BOND_DEF_STEREO_COUNT>
0

> <PUBCHEM_BOND_UDEF_STEREO_COUNT>
0

> <PUBCHEM_ISOTOPIC_ATOM_COUNT>
0

> <PUBCHEM_COMPONENT_COUNT>
1

> <PUBCHEM_CACTVS_TAUTO_COUNT>
1

> <PUBCHEM_CONFORMER_ID>
0001896400000001

> <PUBCHEM_MMFF94_ENERGY>
68.1291

> <PUBCHEM_FEATURE_SELFOVERLAP>
71.052

> <PUBCHEM_SHAPE_FINGERPRINT>
10429389 143 18341893021851996392
10835480 77 18272370875504065963
11456790 92 15574714685856353252
11578821 258 18412548742459219785
11761917 142 18042396924876789109
11991303 11 14979954809092856660
14028597 1 15719382906705981936
14400156 162 11242249620281936973
14429380 56 17346875663697066656
14444916 359 9367347046353488769
1454969 45 16200152092617932184
14598715 104 18335412474347503729
15183329 4 17822017484568087359
15361156 5 16056891217183250307
15419008 145 16153699899740488093
16991971 28 12031782578720244833
16993089 31 10375872978575910905
1754911 235 16630811014904654240
18335252 114 16845297159894214192
20105231 36 9007057976393479112
20511986 3 18410853261105698766
21033648 29 17967251996375911990
21150785 3 15698001829324506728
21298829 104 18186802478199551014
21315759 40 13912332295809071643
21756936 100 17313105246882487955
21781051 124 9439398064558616224
23559900 14 17775562074644067595
23569943 247 10230110709745390932
2838139 119 17822293423906804351
300161 21 18411143536501917518
34797466 226 16630261254779656122
3918712 181 18272364326454874496
4093350 32 17822005368328605250
4169191 19 18131355227939768217
4516262 110 17917989517320277644
497634 4 12751243563212956907
49967989 163 15984242162982349191
504579 68 16272205301657566948
5104073 3 15647347380225189057
5385378 56 15502374487417803667
54039377 194 7925915889556085090
57634706 306 17988635350700834170
9896288 288 7997428126265090399
999808 66 8214144062405398093

> <PUBCHEM_SHAPE_MULTIPOLES>
593.44
27.53
2.54
1.97
0.19
0.12
-0.02
-20.79
-0.18
-0.11
0.02
0.05
-0.93
3.09

> <PUBCHEM_SHAPE_SELFOVERLAP>
1231.995

> <PUBCHEM_SHAPE_VOLUME>
335.5

> <PUBCHEM_COORDINATE_TYPE>
2
5
10

$$$$
