REMARK  Name = 10071919
REMARK  10 active torsions:
REMARK  status: ('A' for Active; 'I' for Inactive)
REMARK    1  A    between atoms: C_1  and  C_2
REMARK    2  A    between atoms: C_1  and  C_16
REMARK    3  A    between atoms: C_1  and  C_24
REMARK    4  A    between atoms: C_2  and  N_4
REMARK    5  A    between atoms: C_16  and  O_17
REMARK    6  A    between atoms: O_17  and  C_19
REMARK    7  A    between atoms: C_19  and  C_20
REMARK    8  A    between atoms: C_24  and  O_25
REMARK    9  A    between atoms: O_25  and  C_27
REMARK   10  A    between atoms: C_27  and  C_28
REMARK                            x       y       z     vdW  Elec       q    Type
REMARK                         _______ _______ _______ _____ _____    ______ ____
ROOT
ATOM      1  C   UNL     1      -0.805   1.157   0.290  0.00  0.00    +0.107 C 
ENDROOT
BRANCH   1   2
ATOM      2  C   UNL     1       0.265   1.172   1.400  0.00  0.00    +0.102 C 
BRANCH   2   4
ATOM      3 CL   UNL     1       3.762  -2.759  -0.411  0.00  0.00    +0.024 Cl
ATOM      4  N   UNL     1       1.593   1.564   0.938  0.00  0.00    -0.261 N 
ATOM      5  N   UNL     1       3.319   2.880   0.429  0.00  0.00    -0.240 NA
ATOM      6  N   UNL     1       2.521  -0.596   0.325  0.00  0.00    -0.314 NA
ATOM      7  N   UNL     1       4.798  -0.373  -0.525  0.00  0.00    -0.314 NA
ATOM      8  C   UNL     1       2.572   0.738   0.463  0.00  0.00    +0.219 C 
ATOM      9  C   UNL     1       2.089   2.840   0.897  0.00  0.00    +0.222 C 
ATOM     10  C   UNL     1       3.634   1.573   0.154  0.00  0.00    +0.167 C 
ATOM     11  C   UNL     1       4.779   0.971  -0.358  0.00  0.00    +0.215 C 
ATOM     12  C   UNL     1       3.684  -1.063  -0.178  0.00  0.00    +0.207 C 
ATOM     13  N   UNL     1       5.904   1.741  -0.699  0.00  0.00    -0.305 N 
ATOM     14  C   UNL     1       7.109   1.173  -1.227  0.00  0.00    +0.110 C 
ATOM     15  H   UNL     1       5.862   2.716  -0.568  0.00  0.00    +0.149 HD
ENDBRANCH   2   4
ENDBRANCH   1   2
BRANCH   1  16
ATOM     16  C   UNL     1      -0.725  -0.100  -0.594  0.00  0.00    +0.214 C 
BRANCH  16  17
ATOM     17  O   UNL     1      -0.906  -1.275   0.183  0.00  0.00    -0.448 OA
BRANCH  17  19
ATOM     18  O   UNL     1      -0.668  -2.566  -1.706  0.00  0.00    -0.250 OA
ATOM     19  C   UNL     1      -0.855  -2.463  -0.499  0.00  0.00    +0.316 C 
BRANCH  19  20
ATOM     20  C   UNL     1      -1.065  -3.648   0.449  0.00  0.00    +0.090 C 
ATOM     21  C   UNL     1      -2.437  -3.526   1.125  0.00  0.00    +0.011 C 
ATOM     22  C   UNL     1       0.051  -3.665   1.502  0.00  0.00    +0.011 C 
ATOM     23  C   UNL     1      -1.017  -4.960  -0.350  0.00  0.00    +0.011 C 
ENDBRANCH  19  20
ENDBRANCH  17  19
ENDBRANCH  16  17
ENDBRANCH   1  16
BRANCH   1  24
ATOM     24  C   UNL     1      -2.193   1.300   0.934  0.00  0.00    +0.214 C 
BRANCH  24  25
ATOM     25  O   UNL     1      -3.205   1.302  -0.077  0.00  0.00    -0.448 OA
BRANCH  25  27
ATOM     26  O   UNL     1      -4.819   1.529   1.546  0.00  0.00    -0.250 OA
ATOM     27  C   UNL     1      -4.490   1.424   0.371  0.00  0.00    +0.316 C 
BRANCH  27  28
ATOM     28  C   UNL     1      -5.472   1.410  -0.805  0.00  0.00    +0.090 C 
ATOM     29  C   UNL     1      -5.179   2.599  -1.731  0.00  0.00    +0.011 C 
ATOM     30  C   UNL     1      -6.910   1.534  -0.275  0.00  0.00    +0.011 C 
ATOM     31  C   UNL     1      -5.335   0.088  -1.572  0.00  0.00    +0.011 C 
ENDBRANCH  27  28
ENDBRANCH  25  27
ENDBRANCH  24  25
ENDBRANCH   1  24
TORSDOF 10
