10072444
  -OEChem-03292013303D

 51 54  0     0  0  0  0  0  0999 V2000
   -2.8966   -3.5937   -0.4418 O   0  0  0  0  0  0  0  0  0  0  0  0
    1.9632   -0.1172   -1.7516 O   0  0  0  0  0  0  0  0  0  0  0  0
   -0.0921    1.6435    0.5598 O   0  0  0  0  0  0  0  0  0  0  0  0
   -4.3232   -1.4660   -0.4276 O   0  0  0  0  0  0  0  0  0  0  0  0
    2.4687   -3.2693   -0.9449 O   0  0  0  0  0  0  0  0  0  0  0  0
    1.2470   -0.6204    2.9681 O   0  0  0  0  0  0  0  0  0  0  0  0
   -5.8871    0.5637   -0.4482 O   0  0  0  0  0  0  0  0  0  0  0  0
    5.0220    1.7951    1.3947 O   0  0  0  0  0  0  0  0  0  0  0  0
    4.0848    2.4925   -1.7815 O   0  0  0  0  0  0  0  0  0  0  0  0
   -0.8918   -0.5647    0.1973 C   0  0  0  0  0  0  0  0  0  0  0  0
    0.3736   -1.1489    0.3292 C   0  0  0  0  0  0  0  0  0  0  0  0
   -2.0055   -1.3662   -0.0621 C   0  0  0  0  0  0  0  0  0  0  0  0
    0.5202   -2.5306    0.2016 C   0  0  0  0  0  0  0  0  0  0  0  0
    1.5819   -0.3836    0.5981 C   0  0  0  0  0  0  0  0  0  0  0  0
   -1.0376    0.8988    0.3341 C   0  0  0  0  0  0  0  0  0  0  0  0
   -2.3787    1.5021    0.1943 C   0  0  0  0  0  0  0  0  0  0  0  0
   -3.4924    0.7005   -0.0648 C   0  0  0  0  0  0  0  0  0  0  0  0
   -3.3466   -0.7629   -0.2025 C   0  0  0  0  0  0  0  0  0  0  0  0
   -1.8537   -2.7522   -0.1897 C   0  0  0  0  0  0  0  0  0  0  0  0
   -0.5909   -3.3305   -0.0573 C   0  0  0  0  0  0  0  0  0  0  0  0
    2.3424    0.1107   -0.4592 C   0  0  0  0  0  0  0  0  0  0  0  0
    1.8509   -3.2040    0.3325 C   0  0  0  0  0  0  0  0  0  0  0  0
    1.9731   -0.1483    1.9144 C   0  0  0  0  0  0  0  0  0  0  0  0
    3.5001    0.8439   -0.1990 C   0  0  0  0  0  0  0  0  0  0  0  0
   -4.7580    1.2847   -0.1949 C   0  0  0  0  0  0  0  0  0  0  0  0
   -2.5306    2.8879    0.3235 C   0  0  0  0  0  0  0  0  0  0  0  0
    3.1308    0.5850    2.1745 C   0  0  0  0  0  0  0  0  0  0  0  0
    3.8943    1.0811    1.1178 C   0  0  0  0  0  0  0  0  0  0  0  0
   -4.9050    2.6661   -0.0653 C   0  0  0  0  0  0  0  0  0  0  0  0
   -3.7937    3.4660    0.1935 C   0  0  0  0  0  0  0  0  0  0  0  0
    4.3010    1.3643   -1.3018 C   0  0  0  0  0  0  0  0  0  0  0  0
    5.4269    0.5255   -1.8908 C   0  0  0  0  0  0  0  0  0  0  0  0
    1.1027    0.8473   -2.3503 C   0  0  0  0  0  0  0  0  0  0  0  0
   -0.4714   -4.4069   -0.1590 H   0  0  0  0  0  0  0  0  0  0  0  0
    2.5331   -2.7246    1.0383 H   0  0  0  0  0  0  0  0  0  0  0  0
    1.7276   -4.2304    0.6980 H   0  0  0  0  0  0  0  0  0  0  0  0
   -1.6820    3.5361    0.5249 H   0  0  0  0  0  0  0  0  0  0  0  0
    3.4382    0.7700    3.2007 H   0  0  0  0  0  0  0  0  0  0  0  0
   -5.8842    3.1271   -0.1649 H   0  0  0  0  0  0  0  0  0  0  0  0
   -3.9108    4.5412    0.2940 H   0  0  0  0  0  0  0  0  0  0  0  0
   -2.5741   -4.5097   -0.4914 H   0  0  0  0  0  0  0  0  0  0  0  0
    1.7979   -3.5151   -1.6043 H   0  0  0  0  0  0  0  0  0  0  0  0
    0.4622   -1.1039    2.6667 H   0  0  0  0  0  0  0  0  0  0  0  0
   -5.6827   -0.3800   -0.5265 H   0  0  0  0  0  0  0  0  0  0  0  0
    5.2192    0.3373   -2.9472 H   0  0  0  0  0  0  0  0  0  0  0  0
    5.5014   -0.4338   -1.3709 H   0  0  0  0  0  0  0  0  0  0  0  0
    6.3723    1.0617   -1.7764 H   0  0  0  0  0  0  0  0  0  0  0  0
    1.1261    1.8131   -1.8349 H   0  0  0  0  0  0  0  0  0  0  0  0
    0.0810    0.4609   -2.3793 H   0  0  0  0  0  0  0  0  0  0  0  0
    1.4349    1.0027   -3.3810 H   0  0  0  0  0  0  0  0  0  0  0  0
    5.4452    2.0986    0.5757 H   0  0  0  0  0  0  0  0  0  0  0  0
  1 19  1  0  0  0  0
  1 41  1  0  0  0  0
  2 21  1  0  0  0  0
  2 33  1  0  0  0  0
  3 15  2  0  0  0  0
  4 18  2  0  0  0  0
  5 22  1  0  0  0  0
  5 42  1  0  0  0  0
  6 23  1  0  0  0  0
  6 43  1  0  0  0  0
  7 25  1  0  0  0  0
  7 44  1  0  0  0  0
  8 28  1  0  0  0  0
  8 51  1  0  0  0  0
  9 31  2  0  0  0  0
 10 11  2  0  0  0  0
 10 12  1  0  0  0  0
 10 15  1  0  0  0  0
 11 13  1  0  0  0  0
 11 14  1  0  0  0  0
 12 18  1  0  0  0  0
 12 19  2  0  0  0  0
 13 20  2  0  0  0  0
 13 22  1  0  0  0  0
 14 21  2  0  0  0  0
 14 23  1  0  0  0  0
 15 16  1  0  0  0  0
 16 17  2  0  0  0  0
 16 26  1  0  0  0  0
 17 18  1  0  0  0  0
 17 25  1  0  0  0  0
 19 20  1  0  0  0  0
 20 34  1  0  0  0  0
 21 24  1  0  0  0  0
 22 35  1  0  0  0  0
 22 36  1  0  0  0  0
 23 27  2  0  0  0  0
 24 28  2  0  0  0  0
 24 31  1  0  0  0  0
 25 29  2  0  0  0  0
 26 30  2  0  0  0  0
 26 37  1  0  0  0  0
 27 28  1  0  0  0  0
 27 38  1  0  0  0  0
 29 30  1  0  0  0  0
 29 39  1  0  0  0  0
 30 40  1  0  0  0  0
 31 32  1  0  0  0  0
 32 45  1  0  0  0  0
 32 46  1  0  0  0  0
 32 47  1  0  0  0  0
 33 48  1  0  0  0  0
 33 49  1  0  0  0  0
 33 50  1  0  0  0  0
M  END
> <PUBCHEM_COMPOUND_CID>
10072444

> <PUBCHEM_CONFORMER_RMSD>
0.8

> <PUBCHEM_CONFORMER_DIVERSEORDER>
1
3
2
4

> <PUBCHEM_MMFF94_PARTIAL_CHARGES>
41
1 -0.53
10 0.09
12 0.09
13 -0.14
15 0.4
16 0.09
17 0.09
18 0.4
19 0.08
2 -0.36
20 -0.15
21 0.08
22 0.42
23 0.08
24 0.09
25 0.08
26 -0.15
27 -0.15
28 0.08
29 -0.15
3 -0.57
30 -0.15
31 0.42
32 0.06
33 0.28
34 0.15
37 0.15
38 0.15
39 0.15
4 -0.57
40 0.15
41 0.45
42 0.4
43 0.45
44 0.45
5 -0.68
51 0.45
6 -0.53
7 -0.53
8 -0.53
9 -0.57

> <PUBCHEM_EFFECTIVE_ROTOR_COUNT>
4

> <PUBCHEM_PHARMACOPHORE_FEATURES>
14
1 1 donor
1 2 acceptor
1 3 acceptor
1 4 acceptor
1 5 acceptor
1 5 donor
1 6 donor
1 7 donor
1 8 donor
1 9 acceptor
6 10 11 12 13 19 20 rings
6 10 12 15 16 17 18 rings
6 14 21 23 24 27 28 rings
6 16 17 25 26 29 30 rings

> <PUBCHEM_HEAVY_ATOM_COUNT>
33

> <PUBCHEM_ATOM_DEF_STEREO_COUNT>
0

> <PUBCHEM_ATOM_UDEF_STEREO_COUNT>
0

> <PUBCHEM_BOND_DEF_STEREO_COUNT>
0

> <PUBCHEM_BOND_UDEF_STEREO_COUNT>
0

> <PUBCHEM_ISOTOPIC_ATOM_COUNT>
0

> <PUBCHEM_COMPONENT_COUNT>
1

> <PUBCHEM_CACTVS_TAUTO_COUNT>
852

> <PUBCHEM_CONFORMER_ID>
0099B17C00000001

> <PUBCHEM_MMFF94_ENERGY>
134.4279

> <PUBCHEM_FEATURE_SELFOVERLAP>
71.093

> <PUBCHEM_SHAPE_FINGERPRINT>
10165383 225 18127999484060123089
10411042 1 17690831689762678723
10498660 4 18413386531896130457
10670039 82 18409169921893704148
11513181 2 18201996591246359151
11582403 64 16339995717064987898
11640471 11 17894639192089521812
11725454 13 16986559135847642778
1200032 147 17973187057100621632
12236239 1 17894901979953411632
12422481 6 17460018613560279556
12553582 1 18195240242849567083
12788726 201 17974011944245317482
13140716 1 17977377562755657035
13617811 41 18409724072208702837
13782708 43 17346323768330323159
13965767 371 18042112159727496076
14739800 52 18049149271186732880
14790565 3 18411706465634812153
14840074 17 17530693112217669421
14955137 171 17831599930215487835
15131766 46 16516256286929908068
15297060 5 18341906185557324696
16752209 62 18338794636285493899
20511986 3 17822836684681003845
20642791 178 17907305355408541394
20691752 17 17532090492833611027
20715895 44 17535726526880321861
21033650 10 18190193467229237982
21756936 100 17913460667105641896
22149856 69 18267877078306147897
22393880 68 18272938202213739566
23366157 5 18044934571853662483
23559900 14 18055064368116498563
3052486 1 18338791329165872794
3178227 256 17835254346146595171
338550 245 18337947870666822306
350125 39 18195524788152569747
38570 142 17458645423117786388
44802255 64 17626965402297576500
469060 322 18193575560812268763
474 4 17894633625674606697
5104073 3 18266459794441893353
5265222 85 18126846239283286722
57527295 17 16844741815167188141
6287921 2 18121499047073980269
6669772 16 17131821085108898742
7808743 9 18410292544556006792
9849439 229 18266735793177610409
9981440 41 18407758140537346259

> <PUBCHEM_SHAPE_MULTIPOLES>
626.3
10.15
4.03
1.75
2.56
2.36
0.33
-7.65
-2.08
2.21
-0.44
-2.86
-0.52
-0.75

> <PUBCHEM_SHAPE_SELFOVERLAP>
1417.915

> <PUBCHEM_SHAPE_VOLUME>
326.3

> <PUBCHEM_COORDINATE_TYPE>
2
5
10

$$$$
