REMARK  Name = 10083297
REMARK  4 active torsions:
REMARK  status: ('A' for Active; 'I' for Inactive)
REMARK    1  A    between atoms: C_2  and  O_16
REMARK    2  A    between atoms: C_3  and  O_18
REMARK    3  A    between atoms: C_4  and  N_8
REMARK    4  A    between atoms: C_5  and  C_15
REMARK                            x       y       z     vdW  Elec       q    Type
REMARK                         _______ _______ _______ _____ _____    ______ ____
ROOT
ATOM      1  O   UNL     1      -1.316   0.390   0.993  0.00  0.00    -0.332 OA
ATOM      2  C   UNL     1      -0.889  -0.441  -1.222  0.00  0.00    +0.187 C 
ATOM      3  C   UNL     1      -2.184   0.347  -1.207  0.00  0.00    +0.171 C 
ATOM      4  C   UNL     1      -0.313  -0.243   0.180  0.00  0.00    +0.228 C 
ATOM      5  C   UNL     1      -2.556   0.424   0.267  0.00  0.00    +0.182 C 
ENDROOT
BRANCH   4   8
ATOM      6  O   UNL     1       3.648  -1.627   0.601  0.00  0.00    -0.123 OA
ATOM      7  O   UNL     1       1.798  -2.064  -0.496  0.00  0.00    -0.123 OA
ATOM      8  N   UNL     1       0.909   0.565   0.199  0.00  0.00    -0.226 N 
ATOM      9  N   UNL     1       3.068   1.097   0.196  0.00  0.00    -0.207 NA
ATOM     10  N   UNL     1       2.561  -1.239   0.085  0.00  0.00    +0.091 N 
ATOM     11  C   UNL     1       2.199   0.111   0.158  0.00  0.00    +0.286 C 
ATOM     12  C   UNL     1       0.961   1.931   0.269  0.00  0.00    +0.091 C 
ATOM     13  C   UNL     1       2.302   2.234   0.266  0.00  0.00    +0.118 C 
ENDBRANCH   4   8
BRANCH   5  15
ATOM     14  F   UNL     1      -3.672  -0.586   2.058  0.00  0.00    -0.232 F 
ATOM     15  C   UNL     1      -3.419  -0.742   0.734  0.00  0.00    +0.225 C 
ENDBRANCH   5  15
BRANCH   2  16
ATOM     16  O   UNL     1      -1.164  -1.827  -1.406  0.00  0.00    -0.378 OA
ATOM     17  H   UNL     1      -1.531  -1.969  -2.292  0.00  0.00    +0.211 HD
ENDBRANCH   2  16
BRANCH   3  18
ATOM     18  O   UNL     1      -1.933   1.670  -1.673  0.00  0.00    -0.379 OA
ATOM     19  H   UNL     1      -1.694   1.642  -2.613  0.00  0.00    +0.211 HD
ENDBRANCH   3  18
TORSDOF 4
