10089766
  -OEChem-03292013303D

 48 49  0     1  0  0  0  0  0999 V2000
    2.1791   -0.6194   -0.0885 O   0  0  0  0  0  0  0  0  0  0  0  0
    0.2773    1.1010    1.2911 O   0  0  0  0  0  0  0  0  0  0  0  0
   -2.7800   -0.5573   -2.7654 O   0  0  0  0  0  0  0  0  0  0  0  0
   -1.7848    1.5501    2.7840 O   0  0  0  0  0  0  0  0  0  0  0  0
   -4.9564   -0.1590   -1.3934 O   0  0  0  0  0  0  0  0  0  0  0  0
    1.0408   -2.3461   -1.1113 O   0  0  0  0  0  0  0  0  0  0  0  0
    1.6336    0.3033   -1.0252 C   0  0  1  0  0  0  0  0  0  0  0  0
    0.1396    0.2733   -0.9097 C   0  0  0  0  0  0  0  0  0  0  0  0
    2.2471    1.6927   -0.8138 C   0  0  0  0  0  0  0  0  0  0  0  0
   -1.9218    0.7030    0.5139 C   0  0  0  0  0  0  0  0  0  0  0  0
   -0.4511    0.7248    0.3798 C   0  0  0  0  0  0  0  0  0  0  0  0
   -2.7266    0.2713   -0.5415 C   0  0  0  0  0  0  0  0  0  0  0  0
   -0.6464   -0.1376   -1.9115 C   0  0  0  0  0  0  0  0  0  0  0  0
   -2.1195   -0.1709   -1.8089 C   0  0  0  0  0  0  0  0  0  0  0  0
    3.7387    1.7428   -1.0242 C   0  0  0  0  0  0  0  0  0  0  0  0
   -2.5114    1.1199    1.7135 C   0  0  0  0  0  0  0  0  0  0  0  0
   -4.1192    0.2558   -0.4006 C   0  0  0  0  0  0  0  0  0  0  0  0
    1.7970   -1.9250   -0.2466 C   0  0  0  0  0  0  0  0  0  0  0  0
    2.4579   -2.7682    0.8198 C   0  0  0  0  0  0  0  0  0  0  0  0
    4.7085    1.6046   -0.1002 C   0  0  0  0  0  0  0  0  0  0  0  0
   -3.8999    1.1032    1.8513 C   0  0  0  0  0  0  0  0  0  0  0  0
   -4.7020    0.6722    0.7964 C   0  0  0  0  0  0  0  0  0  0  0  0
    1.5956   -3.9628    1.2201 C   0  0  0  0  0  0  0  0  0  0  0  0
    6.1840    1.6652   -0.3768 C   0  0  0  0  0  0  0  0  0  0  0  0
    4.3564    1.3816    1.3465 C   0  0  0  0  0  0  0  0  0  0  0  0
    0.2632   -3.5186    1.8012 C   0  0  0  0  0  0  0  0  0  0  0  0
    1.9395   -0.0300   -2.0279 H   0  0  0  0  0  0  0  0  0  0  0  0
    2.0167    2.1140    0.1669 H   0  0  0  0  0  0  0  0  0  0  0  0
    1.7951    2.3938   -1.5289 H   0  0  0  0  0  0  0  0  0  0  0  0
   -0.2244   -0.4639   -2.8573 H   0  0  0  0  0  0  0  0  0  0  0  0
    4.0453    1.8928   -2.0583 H   0  0  0  0  0  0  0  0  0  0  0  0
    3.4219   -3.1103    0.4289 H   0  0  0  0  0  0  0  0  0  0  0  0
    2.6484   -2.1494    1.7046 H   0  0  0  0  0  0  0  0  0  0  0  0
   -4.3642    1.4247    2.7799 H   0  0  0  0  0  0  0  0  0  0  0  0
   -5.7824    0.6623    0.9149 H   0  0  0  0  0  0  0  0  0  0  0  0
    1.4155   -4.6105    0.3544 H   0  0  0  0  0  0  0  0  0  0  0  0
    2.1342   -4.5595    1.9650 H   0  0  0  0  0  0  0  0  0  0  0  0
    6.3876    1.8417   -1.4381 H   0  0  0  0  0  0  0  0  0  0  0  0
    6.6644    0.7224   -0.0963 H   0  0  0  0  0  0  0  0  0  0  0  0
    6.6463    2.4779    0.1924 H   0  0  0  0  0  0  0  0  0  0  0  0
    4.6913    2.2352    1.9456 H   0  0  0  0  0  0  0  0  0  0  0  0
    4.8689    0.4863    1.7166 H   0  0  0  0  0  0  0  0  0  0  0  0
    3.2947    1.2349    1.5499 H   0  0  0  0  0  0  0  0  0  0  0  0
   -0.3008   -4.3902    2.1490 H   0  0  0  0  0  0  0  0  0  0  0  0
    0.4097   -2.8513    2.6567 H   0  0  0  0  0  0  0  0  0  0  0  0
   -0.3567   -2.9999    1.0640 H   0  0  0  0  0  0  0  0  0  0  0  0
   -0.8360    1.5180    2.5907 H   0  0  0  0  0  0  0  0  0  0  0  0
   -4.4531   -0.4289   -2.1762 H   0  0  0  0  0  0  0  0  0  0  0  0
  1  7  1  0  0  0  0
  1 18  1  0  0  0  0
  2 11  2  0  0  0  0
  3 14  2  0  0  0  0
  4 16  1  0  0  0  0
  4 47  1  0  0  0  0
  5 17  1  0  0  0  0
  5 48  1  0  0  0  0
  6 18  2  0  0  0  0
  7  8  1  0  0  0  0
  7  9  1  0  0  0  0
  7 27  1  0  0  0  0
  8 11  1  0  0  0  0
  8 13  2  0  0  0  0
  9 15  1  0  0  0  0
  9 28  1  0  0  0  0
  9 29  1  0  0  0  0
 10 11  1  0  0  0  0
 10 12  1  0  0  0  0
 10 16  2  0  0  0  0
 12 14  1  0  0  0  0
 12 17  2  0  0  0  0
 13 14  1  0  0  0  0
 13 30  1  0  0  0  0
 15 20  2  0  0  0  0
 15 31  1  0  0  0  0
 16 21  1  0  0  0  0
 17 22  1  0  0  0  0
 18 19  1  0  0  0  0
 19 23  1  0  0  0  0
 19 32  1  0  0  0  0
 19 33  1  0  0  0  0
 20 24  1  0  0  0  0
 20 25  1  0  0  0  0
 21 22  2  0  0  0  0
 21 34  1  0  0  0  0
 22 35  1  0  0  0  0
 23 26  1  0  0  0  0
 23 36  1  0  0  0  0
 23 37  1  0  0  0  0
 24 38  1  0  0  0  0
 24 39  1  0  0  0  0
 24 40  1  0  0  0  0
 25 41  1  0  0  0  0
 25 42  1  0  0  0  0
 25 43  1  0  0  0  0
 26 44  1  0  0  0  0
 26 45  1  0  0  0  0
 26 46  1  0  0  0  0
M  END
> <PUBCHEM_COMPOUND_CID>
10089766

> <PUBCHEM_CONFORMER_RMSD>
0.8

> <PUBCHEM_CONFORMER_DIVERSEORDER>
2
198
144
195
186
184
67
177
22
156
174
72
121
122
92
193
90
51
131
132
25
165
74
13
94
110
84
139
57
65
23
141
145
9
170
188
49
33
86
39
95
128
181
79
98
136
83
162
46
149
66
97
16
159
180
44
175
130
196
36
172
6
105
190
77
81
70
26
164
151
37
137
52
133
168
35
69
12
59
21
160
134
93
150
167
20
126
58
5
138
109
143
120
45
96
129
157
48
147
53
171
111
173
87
54
127
7
185
125
187
40
189
85
178
123
38
142
19
182
114
41
15
169
1
103
11
179
10
34
115
91
50
191
104
140
117
112
152
56
124
116
76
99
146
107
183
61
28
4
75
153
64
118
27
24
135
3
155
192
161
163
8
55
62
100
80
166
63
47
71
60
113
29
89
101
14
119
43
31
82
108
32
106
68
88
18
176
194
17
148
158
197
78
102
42
154
73
30

> <PUBCHEM_MMFF94_PARTIAL_CHARGES>
30
1 -0.43
10 0.09
11 0.47
12 0.09
13 -0.14
14 0.47
15 -0.29
16 0.08
17 0.08
18 0.66
19 0.06
2 -0.57
20 -0.28
21 -0.15
22 -0.15
24 0.14
25 0.14
3 -0.57
30 0.15
31 0.15
34 0.15
35 0.15
4 -0.53
47 0.45
48 0.45
5 -0.53
6 -0.57
7 0.42
8 -0.12
9 0.14

> <PUBCHEM_EFFECTIVE_ROTOR_COUNT>
7

> <PUBCHEM_PHARMACOPHORE_FEATURES>
9
1 2 acceptor
1 26 hydrophobe
1 3 acceptor
1 4 donor
1 5 donor
1 6 acceptor
3 20 24 25 hydrophobe
6 10 12 16 17 21 22 rings
6 8 10 11 12 13 14 rings

> <PUBCHEM_HEAVY_ATOM_COUNT>
26

> <PUBCHEM_ATOM_DEF_STEREO_COUNT>
1

> <PUBCHEM_ATOM_UDEF_STEREO_COUNT>
0

> <PUBCHEM_BOND_DEF_STEREO_COUNT>
0

> <PUBCHEM_BOND_UDEF_STEREO_COUNT>
0

> <PUBCHEM_ISOTOPIC_ATOM_COUNT>
0

> <PUBCHEM_COMPONENT_COUNT>
1

> <PUBCHEM_CACTVS_TAUTO_COUNT>
12

> <PUBCHEM_CONFORMER_ID>
0099F52600000002

> <PUBCHEM_MMFF94_ENERGY>
57.6976

> <PUBCHEM_FEATURE_SELFOVERLAP>
45.692

> <PUBCHEM_SHAPE_FINGERPRINT>
10090160 65 18410017645348299584
11370993 70 18188218683620098611
11578080 2 18191020097614640477
121448 382 18266739262888193094
12236239 1 18131917065792058732
12592029 89 18114730599548412628
12788726 201 17775563157149918407
13583140 156 18412270540958946177
13631057 29 18197495341097935215
13726171 33 17274279257137189281
13911987 19 18041570250961478380
13965767 371 17699035914473705425
14251757 17 15051730924032679432
14787075 74 17983579890383047063
14790565 3 16126158173332205265
15219462 58 17900292747709108009
17138139 8 17911213316493323639
17974551 9 16960458692420133465
1813 80 17910119010481889878
18681886 176 16630521868963371953
18915476 22 18040988501740568407
20101258 96 17686050592476960086
20511986 3 18130498644142018929
20600515 1 14755103272156988157
20603629 256 18262522472492131818
23557571 272 16298675970976263999
23559900 14 15575004914377073446
244849 19 17387407948388901861
34934 24 17989495104011049497
4340502 62 18336280010696719571
474 4 18341056306446059564
59755656 520 18340491157627222862
633830 44 18271252719935292636
7097593 13 17554617192753527223

> <PUBCHEM_SHAPE_MULTIPOLES>
499.85
9.62
3.24
2.24
3.73
5.51
-0.1
-6.79
-0.75
4.06
-1.39
-2.26
-0.29
-0.98

> <PUBCHEM_SHAPE_SELFOVERLAP>
1060.431

> <PUBCHEM_SHAPE_VOLUME>
275.9

> <PUBCHEM_COORDINATE_TYPE>
2
5
10

$$$$
