REMARK  Name = 10083434
REMARK  4 active torsions:
REMARK  status: ('A' for Active; 'I' for Inactive)
REMARK    1  A    between atoms: C_5  and  O_15
REMARK    2  A    between atoms: C_7  and  O_17
REMARK    3  A    between atoms: C_8  and  O_19
REMARK    4  A    between atoms: C_10  and  O_21
REMARK                            x       y       z     vdW  Elec       q    Type
REMARK                         _______ _______ _______ _____ _____    ______ ____
ROOT
ATOM      1  O   UNL     1       1.254  -2.710   0.004  0.00  0.00    -0.283 OA
ATOM      2  O   UNL     1       3.531  -1.419   0.013  0.00  0.00    -0.283 OA
ATOM      3  C   UNL     1       0.011   0.680   0.002  0.00  0.00    +0.073 A 
ATOM      4  C   UNL     1      -0.050  -0.719   0.001  0.00  0.00    +0.085 A 
ATOM      5  C   UNL     1      -1.205   1.385   0.000  0.00  0.00    +0.136 A 
ATOM      6  C   UNL     1      -2.431   0.713  -0.002  0.00  0.00    +0.049 A 
ATOM      7  C   UNL     1       1.313   1.384   0.004  0.00  0.00    +0.136 C 
ATOM      8  C   UNL     1      -1.275  -1.399  -0.001  0.00  0.00    +0.171 A 
ATOM      9  C   UNL     1       2.495   0.735  -0.003  0.00  0.00    +0.054 C 
ATOM     10  C   UNL     1      -2.466  -0.678  -0.002  0.00  0.00    +0.166 A 
ATOM     11  C   UNL     1       1.200  -1.490   0.002  0.00  0.00    +0.237 C 
ATOM     12  C   UNL     1       2.504  -0.754   0.003  0.00  0.00    +0.233 C 
ATOM     13  C   UNL     1      -3.713   1.484  -0.004  0.00  0.00    +0.038 C 
ATOM     14  C   UNL     1       3.859   1.367  -0.037  0.00  0.00    +0.038 C 
ENDROOT
BRANCH   5  15
ATOM     15  O   UNL     1      -1.258   2.752  -0.002  0.00  0.00    -0.506 OA
ATOM     16  H   UNL     1      -0.465   3.252  -0.001  0.00  0.00    +0.292 HD
ENDBRANCH   5  15
BRANCH   7  17
ATOM     17  O   UNL     1       1.240   2.765   0.030  0.00  0.00    -0.506 OA
ATOM     18  H   UNL     1       0.404   3.190   0.034  0.00  0.00    +0.292 HD
ENDBRANCH   7  17
BRANCH   8  19
ATOM     19  O   UNL     1      -1.348  -2.761  -0.002  0.00  0.00    -0.503 OA
ATOM     20  H   UNL     1      -0.563  -3.272  -0.001  0.00  0.00    +0.292 HD
ENDBRANCH   8  19
BRANCH  10  21
ATOM     21  O   UNL     1      -3.661  -1.335  -0.004  0.00  0.00    -0.503 OA
ATOM     22  H   UNL     1      -4.462  -0.850  -0.005  0.00  0.00    +0.292 HD
ENDBRANCH  10  21
TORSDOF 4
