10083681
  -OEChem-03292013303D

 35 36  0     1  0  0  0  0  0999 V2000
   -1.4629    2.7159    0.1827 O   0  0  0  0  0  0  0  0  0  0  0  0
   -3.6108    1.3635   -1.5522 O   0  0  0  0  0  0  0  0  0  0  0  0
   -4.0424   -2.5944    0.3485 O   0  0  0  0  0  0  0  0  0  0  0  0
    2.7626   -1.1194   -1.9765 O   0  0  0  0  0  0  0  0  0  0  0  0
    4.5431   -0.5449    0.0784 O   0  0  0  0  0  0  0  0  0  0  0  0
   -1.7995   -0.8275    0.6652 N   0  0  0  0  0  0  0  0  0  0  0  0
   -0.9967    0.4089    0.7672 C   0  0  2  0  0  0  0  0  0  0  0  0
   -2.9443   -0.5610   -0.2194 C   0  0  2  0  0  0  0  0  0  0  0  0
   -1.5785    1.3742   -0.2658 C   0  0  1  0  0  0  0  0  0  0  0  0
   -3.0368    0.9553   -0.3222 C   0  0  1  0  0  0  0  0  0  0  0  0
    0.4822    0.1531    0.5802 C   0  0  0  0  0  0  0  0  0  0  0  0
   -4.2283   -1.1969    0.2983 C   0  0  0  0  0  0  0  0  0  0  0  0
    0.9514   -0.3713   -0.6237 C   0  0  0  0  0  0  0  0  0  0  0  0
    1.3750    0.4414    1.6118 C   0  0  0  0  0  0  0  0  0  0  0  0
    2.3153   -0.6077   -0.7961 C   0  0  0  0  0  0  0  0  0  0  0  0
    2.7386    0.2050    1.4395 C   0  0  0  0  0  0  0  0  0  0  0  0
    3.2088   -0.3194    0.2355 C   0  0  0  0  0  0  0  0  0  0  0  0
    5.3233    0.5252   -0.4513 C   0  0  0  0  0  0  0  0  0  0  0  0
   -1.1614    0.8172    1.7734 H   0  0  0  0  0  0  0  0  0  0  0  0
   -2.7158   -0.9844   -1.2075 H   0  0  0  0  0  0  0  0  0  0  0  0
   -1.1195    1.3088   -1.2590 H   0  0  0  0  0  0  0  0  0  0  0  0
   -3.6093    1.4058    0.4981 H   0  0  0  0  0  0  0  0  0  0  0  0
   -1.2569   -1.6067    0.2963 H   0  0  0  0  0  0  0  0  0  0  0  0
   -5.0770   -0.9770   -0.3571 H   0  0  0  0  0  0  0  0  0  0  0  0
   -4.4753   -0.8443    1.3053 H   0  0  0  0  0  0  0  0  0  0  0  0
   -0.5148    2.9131    0.2703 H   0  0  0  0  0  0  0  0  0  0  0  0
   -4.5194    1.0190   -1.5799 H   0  0  0  0  0  0  0  0  0  0  0  0
    0.2669   -0.6068   -1.4350 H   0  0  0  0  0  0  0  0  0  0  0  0
    1.0242    0.8505    2.5554 H   0  0  0  0  0  0  0  0  0  0  0  0
   -3.8694   -2.9048   -0.5565 H   0  0  0  0  0  0  0  0  0  0  0  0
    3.4291    0.4315    2.2474 H   0  0  0  0  0  0  0  0  0  0  0  0
    3.7232   -1.2565   -1.9100 H   0  0  0  0  0  0  0  0  0  0  0  0
    5.3075    1.3820    0.2297 H   0  0  0  0  0  0  0  0  0  0  0  0
    4.9554    0.8237   -1.4380 H   0  0  0  0  0  0  0  0  0  0  0  0
    6.3553    0.1787   -0.5533 H   0  0  0  0  0  0  0  0  0  0  0  0
  1  9  1  0  0  0  0
  1 26  1  0  0  0  0
  2 10  1  0  0  0  0
  2 27  1  0  0  0  0
  3 12  1  0  0  0  0
  3 30  1  0  0  0  0
  4 15  1  0  0  0  0
  4 32  1  0  0  0  0
  5 17  1  0  0  0  0
  5 18  1  0  0  0  0
  6  7  1  0  0  0  0
  6  8  1  0  0  0  0
  6 23  1  0  0  0  0
  7  9  1  0  0  0  0
  7 11  1  0  0  0  0
  7 19  1  0  0  0  0
  8 10  1  0  0  0  0
  8 12  1  0  0  0  0
  8 20  1  0  0  0  0
  9 10  1  0  0  0  0
  9 21  1  0  0  0  0
 10 22  1  0  0  0  0
 11 13  2  0  0  0  0
 11 14  1  0  0  0  0
 12 24  1  0  0  0  0
 12 25  1  0  0  0  0
 13 15  1  0  0  0  0
 13 28  1  0  0  0  0
 14 16  2  0  0  0  0
 14 29  1  0  0  0  0
 15 17  2  0  0  0  0
 16 17  1  0  0  0  0
 16 31  1  0  0  0  0
 18 33  1  0  0  0  0
 18 34  1  0  0  0  0
 18 35  1  0  0  0  0
M  END
> <PUBCHEM_COMPOUND_CID>
10083681

> <PUBCHEM_CONFORMER_RMSD>
0.6

> <PUBCHEM_CONFORMER_DIVERSEORDER>
3
29
37
32
39
18
36
10
13
28
8
19
22
27
38
12
15
35
20
23
30
16
17
33
31
21
34
1
26
9
11
7
25
24
6
14
5
2
4

> <PUBCHEM_MMFF94_PARTIAL_CHARGES>
26
1 -0.68
10 0.28
11 -0.14
12 0.28
13 -0.15
14 -0.15
15 0.08
16 -0.15
17 0.08
18 0.28
2 -0.68
23 0.36
26 0.4
27 0.4
28 0.15
29 0.15
3 -0.68
30 0.4
31 0.15
32 0.45
4 -0.53
5 -0.36
6 -0.9
7 0.41
8 0.27
9 0.28

> <PUBCHEM_EFFECTIVE_ROTOR_COUNT>
4

> <PUBCHEM_PHARMACOPHORE_FEATURES>
12
1 1 acceptor
1 1 donor
1 2 acceptor
1 2 donor
1 3 acceptor
1 3 donor
1 4 donor
1 5 acceptor
1 6 cation
1 6 donor
5 6 7 8 9 10 rings
6 11 13 14 15 16 17 rings

> <PUBCHEM_HEAVY_ATOM_COUNT>
18

> <PUBCHEM_ATOM_DEF_STEREO_COUNT>
4

> <PUBCHEM_ATOM_UDEF_STEREO_COUNT>
0

> <PUBCHEM_BOND_DEF_STEREO_COUNT>
0

> <PUBCHEM_BOND_UDEF_STEREO_COUNT>
0

> <PUBCHEM_ISOTOPIC_ATOM_COUNT>
0

> <PUBCHEM_COMPONENT_COUNT>
1

> <PUBCHEM_CACTVS_TAUTO_COUNT>
3

> <PUBCHEM_CONFORMER_ID>
0099DD6100000003

> <PUBCHEM_MMFF94_ENERGY>
55.0031

> <PUBCHEM_FEATURE_SELFOVERLAP>
60.902

> <PUBCHEM_SHAPE_FINGERPRINT>
10366900 7 17988349395493251197
11543360 7 18259706709518542016
11615757 297 15841541977319744456
11796584 16 18265328413793381098
12236239 1 17095238107884582451
12553582 1 16343703210101854242
13296908 3 18343578551607068731
13675066 3 9367344847229168368
13760787 5 16486970730557910480
14386348 63 18273497883818555847
15309172 13 16200430269048911559
15375462 189 15339120130438893178
16752209 62 17895182325496473139
16945 1 18336823075004561089
17834072 33 17967813864603768418
17844478 74 17988923370685678825
19141452 34 17988363784478101535
192875 21 16588310518013340638
200 152 16370722647328735339
20279233 1 18131346384591217911
20300324 65 18187085057024905112
20645477 70 16701174158085774844
20871999 31 18260823813427281919
21061003 4 17132109165091222257
23402539 116 18259981578534949046
23402655 69 14490456604562387963
23526113 38 17773873095549538722
23557571 272 18411421713054079433
23559900 14 18339074870612904226
26918003 58 17489591177501915515
474 4 16588880117188416660
4921388 177 18336552633719478547
7495541 125 18271245027606134648
77492 1 17022899021579304929

> <PUBCHEM_SHAPE_MULTIPOLES>
336.1
9.09
1.74
1.33
3.47
0.22
-0.12
-2.23
-1.41
-2.35
-0.12
0.62
0
1.13

> <PUBCHEM_SHAPE_SELFOVERLAP>
705.656

> <PUBCHEM_SHAPE_VOLUME>
191.9

> <PUBCHEM_COORDINATE_TYPE>
2
5
10

$$$$
