REMARK  Name = 10087738
REMARK  5 active torsions:
REMARK  status: ('A' for Active; 'I' for Inactive)
REMARK    1  A    between atoms: C_5  and  C_20
REMARK    2  A    between atoms: C_12  and  O_18
REMARK    3  A    between atoms: C_20  and  C_21
REMARK    4  A    between atoms: C_21  and  N_22
REMARK    5  A    between atoms: N_22  and  C_25
REMARK                            x       y       z     vdW  Elec       q    Type
REMARK                         _______ _______ _______ _____ _____    ______ ____
ROOT
ATOM      1  O   UNL     1       1.608  -1.996  -0.267  0.00  0.00    -0.445 OA
ATOM      2  O   UNL     1      -1.990  -2.067  -0.099  0.00  0.00    -0.463 OA
ATOM      3  O   UNL     1       0.321  -3.912  -0.279  0.00  0.00    -0.246 OA
ATOM      4  N   UNL     1      -4.685   1.098   0.077  0.00  0.00    -0.248 NA
ATOM      5  C   UNL     1       1.349  -0.578  -0.126  0.00  0.00    +0.193 C 
ATOM      6  C   UNL     1      -0.125  -0.520  -0.086  0.00  0.00    +0.049 C 
ATOM      7  C   UNL     1      -1.022   0.627  -0.052  0.00  0.00    +0.037 C 
ATOM      8  C   UNL     1      -0.660  -1.739  -0.123  0.00  0.00    +0.285 C 
ATOM      9  C   UNL     1      -2.406   0.336  -0.014  0.00  0.00    +0.050 C 
ATOM     10  C   UNL     1      -2.865  -0.996  -0.031  0.00  0.00    +0.142 C 
ATOM     11  C   UNL     1       0.434  -2.700  -0.225  0.00  0.00    +0.362 C 
ATOM     12  C   UNL     1      -0.595   1.952  -0.065  0.00  0.00    +0.129 C 
ATOM     13  C   UNL     1      -3.365   1.365   0.035  0.00  0.00    +0.066 C 
ATOM     14  C   UNL     1      -1.538   2.975  -0.020  0.00  0.00    +0.017 C 
ATOM     15  C   UNL     1      -2.903   2.677   0.034  0.00  0.00    +0.075 C 
ATOM     16  C   UNL     1      -4.221  -1.277   0.010  0.00  0.00    +0.058 C 
ATOM     17  C   UNL     1      -5.081  -0.198   0.065  0.00  0.00    +0.102 C 
ENDROOT
BRANCH  12  18
ATOM     18  O   UNL     1       0.712   2.310  -0.180  0.00  0.00    -0.506 OA
ATOM     19  H   UNL     1       1.378   1.651  -0.213  0.00  0.00    +0.292 HD
ENDBRANCH  12  18
BRANCH   5  20
ATOM     20  C   UNL     1       2.042  -0.159   1.168  0.00  0.00    +0.074 C 
BRANCH  20  21
ATOM     21  C   UNL     1       3.559  -0.221   1.063  0.00  0.00    +0.133 C 
BRANCH  21  22
ATOM     22  N   UNL     1       4.022   0.684   0.010  0.00  0.00    -0.240 NA
BRANCH  22  25
ATOM     23  N   UNL     1       5.817   1.563  -1.165  0.00  0.00    -0.370 N 
ATOM     24  N   UNL     1       6.291   0.040   0.464  0.00  0.00    -0.370 N 
ATOM     25  C   UNL     1       5.302   0.737  -0.193  0.00  0.00    +0.189 C 
ATOM     26  H   UNL     1       5.214   2.118  -1.710  0.00  0.00    +0.159 HD
ATOM     27  H   UNL     1       6.789   1.599  -1.315  0.00  0.00    +0.159 HD
ATOM     28  H   UNL     1       6.055  -0.587   1.185  0.00  0.00    +0.159 HD
ATOM     29  H   UNL     1       7.234   0.170   0.214  0.00  0.00    +0.159 HD
ENDBRANCH  22  25
ENDBRANCH  21  22
ENDBRANCH  20  21
ENDBRANCH   5  20
TORSDOF 5
