10083297
  -OEChem-03292013303D

 27 28  0     1  0  0  0  0  0999 V2000
   -3.6720   -0.5859    2.0579 F   0  0  0  0  0  0  0  0  0  0  0  0
   -1.3159    0.3899    0.9925 O   0  0  0  0  0  0  0  0  0  0  0  0
   -1.1639   -1.8268   -1.4056 O   0  0  0  0  0  0  0  0  0  0  0  0
   -1.9329    1.6704   -1.6733 O   0  0  0  0  0  0  0  0  0  0  0  0
    3.6484   -1.6274    0.6007 O   0  5  0  0  0  0  0  0  0  0  0  0
    1.7976   -2.0637   -0.4964 O   0  0  0  0  0  0  0  0  0  0  0  0
    0.9088    0.5653    0.1989 N   0  0  0  0  0  0  0  0  0  0  0  0
    3.0676    1.0970    0.1964 N   0  0  0  0  0  0  0  0  0  0  0  0
    2.5607   -1.2394    0.0847 N   0  3  0  0  0  0  0  0  0  0  0  0
   -0.8892   -0.4411   -1.2218 C   0  0  1  0  0  0  0  0  0  0  0  0
   -2.1839    0.3469   -1.2074 C   0  0  1  0  0  0  0  0  0  0  0  0
   -0.3127   -0.2426    0.1797 C   0  0  2  0  0  0  0  0  0  0  0  0
   -2.5561    0.4238    0.2669 C   0  0  1  0  0  0  0  0  0  0  0  0
   -3.4191   -0.7418    0.7341 C   0  0  0  0  0  0  0  0  0  0  0  0
    2.1993    0.1108    0.1576 C   0  0  0  0  0  0  0  0  0  0  0  0
    0.9611    1.9305    0.2687 C   0  0  0  0  0  0  0  0  0  0  0  0
    2.3023    2.2341    0.2663 C   0  0  0  0  0  0  0  0  0  0  0  0
   -0.2089   -0.1269   -2.0208 H   0  0  0  0  0  0  0  0  0  0  0  0
   -0.0914   -1.1864    0.6871 H   0  0  0  0  0  0  0  0  0  0  0  0
   -2.9756   -0.0848   -1.8266 H   0  0  0  0  0  0  0  0  0  0  0  0
   -3.0530    1.3654    0.5245 H   0  0  0  0  0  0  0  0  0  0  0  0
   -2.9147   -1.7049    0.6201 H   0  0  0  0  0  0  0  0  0  0  0  0
   -4.3760   -0.7698    0.2056 H   0  0  0  0  0  0  0  0  0  0  0  0
   -0.3139   -2.2983   -1.3773 H   0  0  0  0  0  0  0  0  0  0  0  0
   -1.3815    2.1331   -1.0244 H   0  0  0  0  0  0  0  0  0  0  0  0
    0.0856    2.5585    0.3380 H   0  0  0  0  0  0  0  0  0  0  0  0
    2.7556    3.2132    0.3178 H   0  0  0  0  0  0  0  0  0  0  0  0
  1 14  1  0  0  0  0
  2 12  1  0  0  0  0
  2 13  1  0  0  0  0
  3 10  1  0  0  0  0
  3 24  1  0  0  0  0
  4 11  1  0  0  0  0
  4 25  1  0  0  0  0
  5  9  1  0  0  0  0
  6  9  2  0  0  0  0
  7 12  1  0  0  0  0
  7 15  1  0  0  0  0
  7 16  1  0  0  0  0
  8 15  2  0  0  0  0
  8 17  1  0  0  0  0
  9 15  1  0  0  0  0
 10 11  1  0  0  0  0
 10 12  1  0  0  0  0
 10 18  1  0  0  0  0
 11 13  1  0  0  0  0
 11 20  1  0  0  0  0
 12 19  1  0  0  0  0
 13 14  1  0  0  0  0
 13 21  1  0  0  0  0
 14 22  1  0  0  0  0
 14 23  1  0  0  0  0
 16 17  2  0  0  0  0
 16 26  1  0  0  0  0
 17 27  1  0  0  0  0
M  CHG  2   5  -1   9   1
M  END
> <PUBCHEM_COMPOUND_CID>
10083297

> <PUBCHEM_CONFORMER_RMSD>
0.6

> <PUBCHEM_CONFORMER_DIVERSEORDER>
2
21
10
3
14
20
19
5
12
17
16
22
11
9
4
7
1
15
8
6
18
13

> <PUBCHEM_MMFF94_PARTIAL_CHARGES>
21
1 -0.34
10 0.28
11 0.28
12 0.54
13 0.28
14 0.34
15 0.27
16 -0.3
17 0.08
2 -0.56
24 0.4
25 0.4
26 0.15
27 0.15
3 -0.68
4 -0.68
5 -0.52
6 -0.52
7 0.05
8 -0.57
9 0.96

> <PUBCHEM_EFFECTIVE_ROTOR_COUNT>
4

> <PUBCHEM_PHARMACOPHORE_FEATURES>
10
1 2 acceptor
1 3 acceptor
1 3 donor
1 4 acceptor
1 4 donor
1 5 acceptor
1 6 acceptor
4 7 8 9 15 cation
5 2 10 11 12 13 rings
5 7 8 15 16 17 rings

> <PUBCHEM_HEAVY_ATOM_COUNT>
17

> <PUBCHEM_ATOM_DEF_STEREO_COUNT>
4

> <PUBCHEM_ATOM_UDEF_STEREO_COUNT>
0

> <PUBCHEM_BOND_DEF_STEREO_COUNT>
0

> <PUBCHEM_BOND_UDEF_STEREO_COUNT>
0

> <PUBCHEM_ISOTOPIC_ATOM_COUNT>
0

> <PUBCHEM_COMPONENT_COUNT>
1

> <PUBCHEM_CACTVS_TAUTO_COUNT>
1

> <PUBCHEM_CONFORMER_ID>
0099DBE100000002

> <PUBCHEM_MMFF94_ENERGY>
38.4918

> <PUBCHEM_FEATURE_SELFOVERLAP>
50.83

> <PUBCHEM_SHAPE_FINGERPRINT>
10922523 26 18262506027225866420
10980938 120 18343026630902927152
11031198 65 18262807388048817996
12202030 40 17240476992354080842
12633257 1 18339096916453552275
12932764 1 18340482365370439580
13296908 3 18334569118842713776
13380535 21 18269280234302116598
13538477 17 17489026075569041723
15219456 202 18260826003391364285
15279307 12 17987799755690927222
15309172 13 18202007654896924579
15775835 57 18199187463179667220
16945 1 18201430385385505380
17357990 137 17274557484775342001
17844478 74 18113900489512513749
18175812 5 18260552225518027679
18186145 218 18129096917509828848
19049666 15 18041550330697053705
20645477 70 18411408506087725287
20715346 28 18113891676118212277
21501502 16 18199461241480115927
22802520 49 18115015316883112164
23557571 272 16950277442305924988
23559900 14 17385722486857089271
2748010 2 17625540082248810430
276578 36 16199331840095908683
31174 14 18335709381062288921
3286 77 18259707791491864491
45790113 53 18410851045086423965
6049 1 18040714757678792045
63268167 104 18342163484384496556
74978 22 18130215043024199348
77492 1 17561361811472897673
81228 2 16680057350681079112

> <PUBCHEM_SHAPE_MULTIPOLES>
298.29
5.61
2.05
1.33
0.18
0.01
-0.03
0.85
1.9
-1.72
-0.31
1.55
0.07
0.33

> <PUBCHEM_SHAPE_SELFOVERLAP>
631.495

> <PUBCHEM_SHAPE_VOLUME>
169.9

> <PUBCHEM_COORDINATE_TYPE>
2
5
10

$$$$
