10083434
  -OEChem-03292013303D

 28 29  0     0  0  0  0  0  0999 V2000
   -1.2581    2.7522   -0.0024 O   0  0  0  0  0  0  0  0  0  0  0  0
    1.2395    2.7650    0.0297 O   0  0  0  0  0  0  0  0  0  0  0  0
   -1.3479   -2.7613   -0.0018 O   0  0  0  0  0  0  0  0  0  0  0  0
   -3.6606   -1.3351   -0.0043 O   0  0  0  0  0  0  0  0  0  0  0  0
    1.2541   -2.7098    0.0035 O   0  0  0  0  0  0  0  0  0  0  0  0
    3.5313   -1.4193    0.0133 O   0  0  0  0  0  0  0  0  0  0  0  0
    0.0114    0.6801    0.0016 C   0  0  0  0  0  0  0  0  0  0  0  0
   -0.0503   -0.7190    0.0009 C   0  0  0  0  0  0  0  0  0  0  0  0
   -1.2052    1.3851    0.0001 C   0  0  0  0  0  0  0  0  0  0  0  0
   -2.4310    0.7125   -0.0019 C   0  0  0  0  0  0  0  0  0  0  0  0
    1.3127    1.3842    0.0037 C   0  0  0  0  0  0  0  0  0  0  0  0
   -1.2750   -1.3989   -0.0010 C   0  0  0  0  0  0  0  0  0  0  0  0
    2.4947    0.7354   -0.0033 C   0  0  0  0  0  0  0  0  0  0  0  0
   -2.4655   -0.6781   -0.0023 C   0  0  0  0  0  0  0  0  0  0  0  0
    1.1995   -1.4897    0.0024 C   0  0  0  0  0  0  0  0  0  0  0  0
    2.5043   -0.7544    0.0028 C   0  0  0  0  0  0  0  0  0  0  0  0
   -3.7133    1.4843   -0.0041 C   0  0  0  0  0  0  0  0  0  0  0  0
    3.8592    1.3668   -0.0370 C   0  0  0  0  0  0  0  0  0  0  0  0
   -4.3027    1.2462    0.8882 H   0  0  0  0  0  0  0  0  0  0  0  0
   -4.2971    1.2501   -0.9012 H   0  0  0  0  0  0  0  0  0  0  0  0
   -3.5730    2.5692   -0.0010 H   0  0  0  0  0  0  0  0  0  0  0  0
    3.8461    2.4269   -0.3001 H   0  0  0  0  0  0  0  0  0  0  0  0
    4.4895    0.8781   -0.7885 H   0  0  0  0  0  0  0  0  0  0  0  0
    4.3451    1.2636    0.9387 H   0  0  0  0  0  0  0  0  0  0  0  0
   -0.4110    3.1248    0.2829 H   0  0  0  0  0  0  0  0  0  0  0  0
    2.1212    3.1433    0.1650 H   0  0  0  0  0  0  0  0  0  0  0  0
   -0.4634   -3.1563   -0.0024 H   0  0  0  0  0  0  0  0  0  0  0  0
   -4.4090   -0.7195   -0.0077 H   0  0  0  0  0  0  0  0  0  0  0  0
  1  9  1  0  0  0  0
  1 25  1  0  0  0  0
  2 11  1  0  0  0  0
  2 26  1  0  0  0  0
  3 12  1  0  0  0  0
  3 27  1  0  0  0  0
  4 14  1  0  0  0  0
  4 28  1  0  0  0  0
  5 15  2  0  0  0  0
  6 16  2  0  0  0  0
  7  8  2  0  0  0  0
  7  9  1  0  0  0  0
  7 11  1  0  0  0  0
  8 12  1  0  0  0  0
  8 15  1  0  0  0  0
  9 10  2  0  0  0  0
 10 14  1  0  0  0  0
 10 17  1  0  0  0  0
 11 13  2  0  0  0  0
 12 14  2  0  0  0  0
 13 16  1  0  0  0  0
 13 18  1  0  0  0  0
 15 16  1  0  0  0  0
 17 19  1  0  0  0  0
 17 20  1  0  0  0  0
 17 21  1  0  0  0  0
 18 22  1  0  0  0  0
 18 23  1  0  0  0  0
 18 24  1  0  0  0  0
M  END
> <PUBCHEM_COMPOUND_CID>
10083434

> <PUBCHEM_CONFORMER_RMSD>
0.4

> <PUBCHEM_CONFORMER_DIVERSEORDER>
1

> <PUBCHEM_MMFF94_PARTIAL_CHARGES>
22
1 -0.53
10 -0.14
11 0.05
12 0.08
13 -0.12
14 0.08
15 0.48
16 0.56
17 0.14
18 0.14
2 -0.53
25 0.45
26 0.45
27 0.45
28 0.45
3 -0.53
4 -0.53
5 -0.57
6 -0.57
7 0.03
8 0.09
9 0.08

> <PUBCHEM_EFFECTIVE_ROTOR_COUNT>
0

> <PUBCHEM_PHARMACOPHORE_FEATURES>
8
1 1 donor
1 2 donor
1 3 donor
1 4 donor
1 5 acceptor
1 6 acceptor
6 7 8 11 13 15 16 rings
6 7 8 9 10 12 14 rings

> <PUBCHEM_HEAVY_ATOM_COUNT>
18

> <PUBCHEM_ATOM_DEF_STEREO_COUNT>
0

> <PUBCHEM_ATOM_UDEF_STEREO_COUNT>
0

> <PUBCHEM_BOND_DEF_STEREO_COUNT>
0

> <PUBCHEM_BOND_UDEF_STEREO_COUNT>
0

> <PUBCHEM_ISOTOPIC_ATOM_COUNT>
0

> <PUBCHEM_COMPONENT_COUNT>
1

> <PUBCHEM_CACTVS_TAUTO_COUNT>
190

> <PUBCHEM_CONFORMER_ID>
0099DC6A00000001

> <PUBCHEM_MMFF94_ENERGY>
54.3477

> <PUBCHEM_FEATURE_SELFOVERLAP>
40.653

> <PUBCHEM_SHAPE_FINGERPRINT>
10608611 8 18410571781844011660
10967382 1 18338517567945163776
11132069 177 18410567362528314664
11471102 20 18410569574520848605
12382932 28 18411981347171247257
13140716 1 18194402190917082098
13221675 6 18410573989446437922
13380535 76 18410570686622024455
13897977 150 18410570665495367157
14790565 3 18338817665948523585
15196674 1 18410575080368111620
15442244 35 18410572843043682306
15536298 74 18342739607081489140
16945 1 18410855477313312225
17804303 29 18412829058236657110
193761 8 18410855464433678595
19591789 44 18338803316689036854
20510252 161 18343586256599270841
21267235 1 18410582781281877318
21501502 16 18410573980856490339
2334 1 17906453581762933440
23402539 116 18270386188286060110
23463225 33 18335980891957335928
23559900 14 18343304786809213652
238 59 16598961216780385333
2748010 2 18122625225715678093
335352 9 18266459810724807324
5104073 3 18410575080368112600
528886 8 18339356499770444866
7364860 26 18270117894896231542
7832392 63 18340485552267704617
8809292 202 18334018254721749563
9709674 26 18412267263286982470

> <PUBCHEM_SHAPE_MULTIPOLES>
335.22
5.65
3
0.58
0.2
0.17
0
-0.69
0.03
-0.04
-0.01
0
-0.02
-0.01

> <PUBCHEM_SHAPE_SELFOVERLAP>
742.531

> <PUBCHEM_SHAPE_VOLUME>
179.6

> <PUBCHEM_COORDINATE_TYPE>
2
5
10

$$$$
