REMARK  Name = 10083681
REMARK  7 active torsions:
REMARK  status: ('A' for Active; 'I' for Inactive)
REMARK    1  A    between atoms: C_2  and  C_8
REMARK    2  A    between atoms: CA_3  and  C_22
REMARK    3  A    between atoms: C_4  and  O_18
REMARK    4  A    between atoms: C_5  and  O_20
REMARK    5  A    between atoms: C_11  and  O_14
REMARK    6  A    between atoms: C_13  and  O_16
REMARK    7  A    between atoms: C_22  and  O_23
REMARK                            x       y       z     vdW  Elec       q    Type
REMARK                         _______ _______ _______ _____ _____    ______ ____
ROOT
ATOM      1  N   UNL     1      -1.800  -0.828   0.665  0.00  0.00    +0.394 N 
ATOM      2  C   UNL     1      -0.997   0.409   0.767  0.00  0.00    -0.008 C 
ATOM      3  CA  UNL     1      -2.944  -0.561  -0.219  0.00  0.00    -0.002 C 
ATOM      4  C   UNL     1      -1.579   1.374  -0.266  0.00  0.00    +0.120 C 
ATOM      5  C   UNL     1      -3.037   0.955  -0.322  0.00  0.00    +0.119 C 
ATOM      6  H1  UNL     1      -2.134  -1.099   1.590  0.00  0.00    -0.084 HD
ATOM      7  H2  UNL     1      -1.232  -1.586   0.287  0.00  0.00    -0.084 HD
ENDROOT
BRANCH   2   8
ATOM      8  C   UNL     1       0.482   0.153   0.580  0.00  0.00    -0.036 C 
ATOM      9  C   UNL     1       0.951  -0.371  -0.624  0.00  0.00    +0.034 C 
ATOM     10  C   UNL     1       1.375   0.441   1.612  0.00  0.00    -0.003 C 
ATOM     11  C   UNL     1       2.315  -0.608  -0.796  0.00  0.00    +0.167 C 
ATOM     12  C   UNL     1       2.739   0.205   1.440  0.00  0.00    +0.040 C 
ATOM     13  C   UNL     1       3.209  -0.319   0.235  0.00  0.00    +0.172 C 
BRANCH  11  14
ATOM     14  O   UNL     1       2.763  -1.119  -1.976  0.00  0.00    -0.503 OA
ATOM     15  H   UNL     1       2.156  -1.310  -2.664  0.00  0.00    +0.292 HD
ENDBRANCH  11  14
BRANCH  13  16
ATOM     16  O   UNL     1       4.543  -0.545   0.078  0.00  0.00    -0.468 OA
ATOM     17  C   UNL     1       5.323   0.525  -0.451  0.00  0.00    +0.253 C 
ENDBRANCH  13  16
ENDBRANCH   2   8
BRANCH   4  18
ATOM     18  O   UNL     1      -1.463   2.716   0.183  0.00  0.00    -0.384 OA
ATOM     19  H   UNL     1      -0.526   2.967   0.213  0.00  0.00    +0.210 HD
ENDBRANCH   4  18
BRANCH   5  20
ATOM     20  O   UNL     1      -3.611   1.363  -1.552  0.00  0.00    -0.384 OA
ATOM     21  H   UNL     1      -4.542   1.092  -1.580  0.00  0.00    +0.210 HD
ENDBRANCH   5  20
BRANCH   3  22
ATOM     22  C   UNL     1      -4.228  -1.197   0.298  0.00  0.00    +0.118 C 
BRANCH  22  23
ATOM     23  O   UNL     1      -4.042  -2.594   0.348  0.00  0.00    -0.384 OA
ATOM     24  H   UNL     1      -4.852  -3.017   0.677  0.00  0.00    +0.210 HD
ENDBRANCH  22  23
ENDBRANCH   3  22
TORSDOF 7
