REMARK  Name = 10089766
REMARK  9 active torsions:
REMARK  status: ('A' for Active; 'I' for Inactive)
REMARK    1  A    between atoms: C_3  and  C_17
REMARK    2  A    between atoms: C_9  and  O_13
REMARK    3  A    between atoms: C_10  and  O_15
REMARK    4  A    between atoms: C_17  and  O_18
REMARK    5  A    between atoms: C_17  and  C_24
REMARK    6  A    between atoms: O_18  and  C_20
REMARK    7  A    between atoms: C_20  and  C_21
REMARK    8  A    between atoms: C_21  and  C_22
REMARK    9  A    between atoms: C_24  and  C_25
REMARK                            x       y       z     vdW  Elec       q    Type
REMARK                         _______ _______ _______ _____ _____    ______ ____
ROOT
ATOM      1  O   UNL     1       0.277   1.101   1.291  0.00  0.00    -0.287 OA
ATOM      2  O   UNL     1      -2.780  -0.557  -2.765  0.00  0.00    -0.286 OA
ATOM      3  C   UNL     1       0.140   0.273  -0.910  0.00  0.00    +0.060 C 
ATOM      4  C   UNL     1      -1.922   0.703   0.514  0.00  0.00    +0.078 C 
ATOM      5  C   UNL     1      -0.451   0.725   0.380  0.00  0.00    +0.198 C 
ATOM      6  C   UNL     1      -2.727   0.271  -0.541  0.00  0.00    +0.079 C 
ATOM      7  C   UNL     1      -0.646  -0.138  -1.911  0.00  0.00    +0.045 C 
ATOM      8  C   UNL     1      -2.119  -0.171  -1.809  0.00  0.00    +0.199 C 
ATOM      9  C   UNL     1      -2.511   1.120   1.714  0.00  0.00    +0.137 C 
ATOM     10  C   UNL     1      -4.119   0.256  -0.401  0.00  0.00    +0.137 C 
ATOM     11  C   UNL     1      -3.900   1.103   1.851  0.00  0.00    +0.040 C 
ATOM     12  C   UNL     1      -4.702   0.672   0.796  0.00  0.00    +0.040 C 
ENDROOT
BRANCH   9  13
ATOM     13  O   UNL     1      -1.785   1.550   2.784  0.00  0.00    -0.505 OA
ATOM     14  H   UNL     1      -0.849   1.577   2.735  0.00  0.00    +0.292 HD
ENDBRANCH   9  13
BRANCH  10  15
ATOM     15  O   UNL     1      -4.956  -0.159  -1.393  0.00  0.00    -0.505 OA
ATOM     16  H   UNL     1      -4.605  -0.447  -2.213  0.00  0.00    +0.292 HD
ENDBRANCH  10  15
BRANCH   3  17
ATOM     17  C   UNL     1       1.634   0.303  -1.025  0.00  0.00    +0.199 C 
BRANCH  17  18
ATOM     18  O   UNL     1       2.179  -0.619  -0.088  0.00  0.00    -0.447 OA
BRANCH  18  20
ATOM     19  O   UNL     1       1.041  -2.346  -1.111  0.00  0.00    -0.250 OA
ATOM     20  C   UNL     1       1.797  -1.925  -0.247  0.00  0.00    +0.317 C 
BRANCH  20  21
ATOM     21  C   UNL     1       2.458  -2.768   0.820  0.00  0.00    +0.110 C 
BRANCH  21  22
ATOM     22  C   UNL     1       1.596  -3.963   1.220  0.00  0.00    +0.012 C 
ATOM     23  C   UNL     1       0.263  -3.519   1.801  0.00  0.00    +0.001 C 
ENDBRANCH  21  22
ENDBRANCH  20  21
ENDBRANCH  18  20
ENDBRANCH  17  18
BRANCH  17  24
ATOM     24  C   UNL     1       2.247   1.693  -0.814  0.00  0.00    +0.074 C 
BRANCH  24  25
ATOM     25  C   UNL     1       3.739   1.743  -1.024  0.00  0.00    -0.030 C 
ATOM     26  C   UNL     1       4.708   1.605  -0.100  0.00  0.00    -0.048 C 
ATOM     27  C   UNL     1       6.184   1.665  -0.377  0.00  0.00    +0.026 C 
ATOM     28  C   UNL     1       4.356   1.382   1.347  0.00  0.00    +0.026 C 
ENDBRANCH  24  25
ENDBRANCH  17  24
ENDBRANCH   3  17
TORSDOF 9
