10086055
  -OEChem-03292013303D

 47 47  0     1  0  0  0  0  0999 V2000
   -1.6579    0.2988    1.7453 O   0  0  0  0  0  0  0  0  0  0  0  0
    2.8959    0.4477   -0.5039 O   0  0  0  0  0  0  0  0  0  0  0  0
    1.7084   -3.0305   -0.9618 O   0  0  0  0  0  0  0  0  0  0  0  0
   -3.6687   -1.0616    0.9662 N   0  0  0  0  0  0  0  0  0  0  0  0
   -0.4732    0.2823   -0.2756 N   0  0  0  0  0  0  0  0  0  0  0  0
    1.7136   -1.0211    0.8516 N   0  0  0  0  0  0  0  0  0  0  0  0
    3.5740   -4.0245   -0.0577 N   0  0  0  0  0  0  0  0  0  0  0  0
   -2.6543   -0.8356   -0.0635 C   0  0  1  0  0  0  0  0  0  0  0  0
   -3.3593   -0.0918   -1.1943 C   0  0  0  0  0  0  0  0  0  0  0  0
   -4.8007    0.0478   -0.7275 C   0  0  0  0  0  0  0  0  0  0  0  0
    0.6522    1.0483    0.1931 C   0  0  2  0  0  0  0  0  0  0  0  0
   -4.9557   -1.0737    0.2778 C   0  0  0  0  0  0  0  0  0  0  0  0
   -1.5593   -0.0350    0.5615 C   0  0  0  0  0  0  0  0  0  0  0  0
    0.8767    2.3185   -0.6371 C   0  0  0  0  0  0  0  0  0  0  0  0
    1.7686    3.3818    0.0354 C   0  0  0  0  0  0  0  0  0  0  0  0
    1.8770    0.1423    0.1124 C   0  0  0  0  0  0  0  0  0  0  0  0
   -0.4213   -0.1480   -1.6765 C   0  0  0  0  0  0  0  0  0  0  0  0
    1.1337    3.8281    1.3554 C   0  0  0  0  0  0  0  0  0  0  0  0
    2.0017    4.5986   -0.8612 C   0  0  0  0  0  0  0  0  0  0  0  0
    2.7427   -2.0270    0.9842 C   0  0  0  0  0  0  0  0  0  0  0  0
    2.6061   -3.0454   -0.1239 C   0  0  0  0  0  0  0  0  0  0  0  0
   -2.2701   -1.8084   -0.3875 H   0  0  0  0  0  0  0  0  0  0  0  0
   -2.9541    0.9001   -1.4170 H   0  0  0  0  0  0  0  0  0  0  0  0
   -3.3352   -0.6912   -2.1121 H   0  0  0  0  0  0  0  0  0  0  0  0
   -5.5132   -0.0279   -1.5541 H   0  0  0  0  0  0  0  0  0  0  0  0
   -4.9439    1.0206   -0.2408 H   0  0  0  0  0  0  0  0  0  0  0  0
    0.4910    1.2873    1.2465 H   0  0  0  0  0  0  0  0  0  0  0  0
   -5.1092   -2.0372   -0.2212 H   0  0  0  0  0  0  0  0  0  0  0  0
   -5.7890   -0.9040    0.9657 H   0  0  0  0  0  0  0  0  0  0  0  0
   -3.6755   -0.2765    1.6194 H   0  0  0  0  0  0  0  0  0  0  0  0
   -0.0992    2.7787   -0.8481 H   0  0  0  0  0  0  0  0  0  0  0  0
    1.3023    2.0723   -1.6191 H   0  0  0  0  0  0  0  0  0  0  0  0
    2.7498    2.9469    0.2591 H   0  0  0  0  0  0  0  0  0  0  0  0
   -0.8439    0.6433   -2.3022 H   0  0  0  0  0  0  0  0  0  0  0  0
   -0.9574   -1.0805   -1.8521 H   0  0  0  0  0  0  0  0  0  0  0  0
    0.6096   -0.3210   -1.9980 H   0  0  0  0  0  0  0  0  0  0  0  0
    0.0859    4.1174    1.2211 H   0  0  0  0  0  0  0  0  0  0  0  0
    1.6668    4.6937    1.7650 H   0  0  0  0  0  0  0  0  0  0  0  0
    1.1845    3.0482    2.1201 H   0  0  0  0  0  0  0  0  0  0  0  0
    2.6611    5.3244   -0.3738 H   0  0  0  0  0  0  0  0  0  0  0  0
    2.4727    4.2983   -1.8030 H   0  0  0  0  0  0  0  0  0  0  0  0
    1.0585    5.1016   -1.0995 H   0  0  0  0  0  0  0  0  0  0  0  0
    0.8298   -1.1872    1.3235 H   0  0  0  0  0  0  0  0  0  0  0  0
    2.6139   -2.5179    1.9533 H   0  0  0  0  0  0  0  0  0  0  0  0
    3.7305   -1.5583    0.9340 H   0  0  0  0  0  0  0  0  0  0  0  0
    4.2981   -4.0242    0.6536 H   0  0  0  0  0  0  0  0  0  0  0  0
    3.5960   -4.7830   -0.7312 H   0  0  0  0  0  0  0  0  0  0  0  0
  1 13  2  0  0  0  0
  2 16  2  0  0  0  0
  3 21  2  0  0  0  0
  4  8  1  0  0  0  0
  4 12  1  0  0  0  0
  4 30  1  0  0  0  0
  5 11  1  0  0  0  0
  5 13  1  0  0  0  0
  5 17  1  0  0  0  0
  6 16  1  0  0  0  0
  6 20  1  0  0  0  0
  6 43  1  0  0  0  0
  7 21  1  0  0  0  0
  7 46  1  0  0  0  0
  7 47  1  0  0  0  0
  8  9  1  0  0  0  0
  8 13  1  0  0  0  0
  8 22  1  0  0  0  0
  9 10  1  0  0  0  0
  9 23  1  0  0  0  0
  9 24  1  0  0  0  0
 10 12  1  0  0  0  0
 10 25  1  0  0  0  0
 10 26  1  0  0  0  0
 11 14  1  0  0  0  0
 11 16  1  0  0  0  0
 11 27  1  0  0  0  0
 12 28  1  0  0  0  0
 12 29  1  0  0  0  0
 14 15  1  0  0  0  0
 14 31  1  0  0  0  0
 14 32  1  0  0  0  0
 15 18  1  0  0  0  0
 15 19  1  0  0  0  0
 15 33  1  0  0  0  0
 17 34  1  0  0  0  0
 17 35  1  0  0  0  0
 17 36  1  0  0  0  0
 18 37  1  0  0  0  0
 18 38  1  0  0  0  0
 18 39  1  0  0  0  0
 19 40  1  0  0  0  0
 19 41  1  0  0  0  0
 19 42  1  0  0  0  0
 20 21  1  0  0  0  0
 20 44  1  0  0  0  0
 20 45  1  0  0  0  0
M  END
> <PUBCHEM_COMPOUND_CID>
10086055

> <PUBCHEM_CONFORMER_RMSD>
1

> <PUBCHEM_CONFORMER_DIVERSEORDER>
1
90
73
75
22
74
32
65
84
54
43
89
83
40
9
30
79
95
55
29
33
88
34
61
67
25
87
92
35
82
71
94
46
51
41
64
62
63
45
58
47
76
23
85
80
36
31
18
8
5
11
50
78
15
7
24
52
68
77
37
12
53
2
39
69
59
72
86
13
56
60
44
66
91
14
93
16
42
26
57
38
27
21
3
10
6
19
81
70
20
48
4
28
17
49

> <PUBCHEM_MMFF94_PARTIAL_CHARGES>
19
1 -0.57
11 0.36
12 0.27
13 0.57
16 0.57
17 0.3
2 -0.57
20 0.36
21 0.57
3 -0.57
30 0.36
4 -0.9
43 0.37
46 0.37
47 0.37
5 -0.66
6 -0.73
7 -0.8
8 0.33

> <PUBCHEM_EFFECTIVE_ROTOR_COUNT>
10

> <PUBCHEM_PHARMACOPHORE_FEATURES>
9
1 1 acceptor
1 2 acceptor
1 3 acceptor
1 4 cation
1 4 donor
1 6 donor
1 7 donor
3 15 18 19 hydrophobe
5 4 8 9 10 12 rings

> <PUBCHEM_HEAVY_ATOM_COUNT>
21

> <PUBCHEM_ATOM_DEF_STEREO_COUNT>
2

> <PUBCHEM_ATOM_UDEF_STEREO_COUNT>
0

> <PUBCHEM_BOND_DEF_STEREO_COUNT>
0

> <PUBCHEM_BOND_UDEF_STEREO_COUNT>
0

> <PUBCHEM_ISOTOPIC_ATOM_COUNT>
0

> <PUBCHEM_COMPONENT_COUNT>
1

> <PUBCHEM_CACTVS_TAUTO_COUNT>
4

> <PUBCHEM_CONFORMER_ID>
0099E6A700000001

> <PUBCHEM_MMFF94_ENERGY>
48.873

> <PUBCHEM_FEATURE_SELFOVERLAP>
45.671

> <PUBCHEM_SHAPE_FINGERPRINT>
116883 192 17978786809743369036
121448 382 17191769993153941397
12363563 72 18191589653043075018
12553582 1 18194700188881432666
12788726 201 17471838217672037619
13004483 165 18124301710376101162
13134695 92 18341039744825157165
13140716 1 18052253187398292536
13533116 47 18336550504027869995
13681431 1 18408886209302322552
13911987 19 18117586074701952596
13955234 65 18338802329015182451
14178000 15 18339640044842413752
14178000 22 17545873188836449624
14866123 147 17186154267696163963
15422964 175 18267010666309220746
15664445 248 18270697397890859228
17539 30 17761765166167080478
1813 80 18129669590614808214
18915476 22 18263626524142907261
19765921 60 17697312181057400497
19784866 34 17910392015782982065
20645477 70 18335414707999432071
20671657 53 18339643322124162547
21120745 212 18053681183090149804
21304303 282 17047356833100452924
2255824 54 18339926042493475052
23419403 2 17462244115700577012
23526113 38 18113338591794159059
23557571 272 18047454644283543802
23559900 14 18337664308599633113
23598288 3 17253742385822270038
3060560 45 18265335182629671428
3091708 16 9430209424320472864
458136 41 18121225534792530393
495365 180 18193827365711883617
59755656 520 17690556816050189708
6025842 7 18266174118670655399
6442390 28 17617382118060738713
6443956 14 18337108947711148255
7364860 26 18338232768695583536
7399639 24 17900540387445001093
77188 2 18337953368409603460
7808743 9 16893425256641670525
81228 2 17831857945863971632
8272917 22 18410859901525233599
84936 182 18198906009889251129
84936 31 18267008634525718345
9709674 26 18333732451072574019

> <PUBCHEM_SHAPE_MULTIPOLES>
394.64
7.3
5.23
1.29
11.21
0.5
-0.06
-1.9
0.11
-9.88
0.25
0.26
0.31
0.07

> <PUBCHEM_SHAPE_SELFOVERLAP>
785.077

> <PUBCHEM_SHAPE_VOLUME>
234.2

> <PUBCHEM_COORDINATE_TYPE>
2
5
10

$$$$
