10089584
  -OEChem-03292013303D

 38 42  0     1  0  0  0  0  0999 V2000
   -5.0327    1.0197    0.8674 O   0  0  0  0  0  0  0  0  0  0  0  0
   -3.3185    2.0196   -0.4616 O   0  0  0  0  0  0  0  0  0  0  0  0
   -5.5642   -1.8195    0.0083 O   0  0  0  0  0  0  0  0  0  0  0  0
   -1.4219   -2.2405   -0.4365 O   0  0  0  0  0  0  0  0  0  0  0  0
    1.1110   -2.4317   -0.1851 O   0  0  0  0  0  0  0  0  0  0  0  0
    1.7022    2.8793   -0.0027 O   0  0  0  0  0  0  0  0  0  0  0  0
    3.6328   -2.8049    0.0364 O   0  0  0  0  0  0  0  0  0  0  0  0
    6.3786    1.0397    0.3765 O   0  0  0  0  0  0  0  0  0  0  0  0
   -3.7420   -0.3840   -0.5993 C   0  0  2  0  0  0  0  0  0  0  0  0
   -4.3543    1.0114   -0.4020 C   0  0  1  0  0  0  0  0  0  0  0  0
   -4.3707   -1.2123    0.4986 C   0  0  1  0  0  0  0  0  0  0  0  0
   -2.3061   -0.0537   -0.4247 C   0  0  0  0  0  0  0  0  0  0  0  0
   -4.7213   -0.1941    1.5650 C   0  0  0  0  0  0  0  0  0  0  0  0
   -2.1439    1.3201   -0.3770 C   0  0  0  0  0  0  0  0  0  0  0  0
   -1.2120   -0.8992   -0.3541 C   0  0  0  0  0  0  0  0  0  0  0  0
    0.0632   -0.3298   -0.2240 C   0  0  0  0  0  0  0  0  0  0  0  0
   -0.8986    1.9078   -0.2573 C   0  0  0  0  0  0  0  0  0  0  0  0
    0.2189    1.0663   -0.1767 C   0  0  0  0  0  0  0  0  0  0  0  0
    1.2436   -1.2147   -0.1421 C   0  0  0  0  0  0  0  0  0  0  0  0
    1.5639    1.6628   -0.0433 C   0  0  0  0  0  0  0  0  0  0  0  0
    2.5856   -0.6133   -0.0063 C   0  0  0  0  0  0  0  0  0  0  0  0
    2.7401    0.7735    0.0413 C   0  0  0  0  0  0  0  0  0  0  0  0
    3.7098   -1.4441    0.0749 C   0  0  0  0  0  0  0  0  0  0  0  0
    4.0186    1.3294    0.1702 C   0  0  0  0  0  0  0  0  0  0  0  0
    5.1360    0.4980    0.2508 C   0  0  0  0  0  0  0  0  0  0  0  0
    4.9819   -0.8859    0.2033 C   0  0  0  0  0  0  0  0  0  0  0  0
   -3.9263   -0.7625   -1.6105 H   0  0  0  0  0  0  0  0  0  0  0  0
   -5.0991    1.2379   -1.1730 H   0  0  0  0  0  0  0  0  0  0  0  0
   -3.7334   -2.0116    0.8869 H   0  0  0  0  0  0  0  0  0  0  0  0
   -5.5825   -0.4787    2.1758 H   0  0  0  0  0  0  0  0  0  0  0  0
   -3.8672    0.0100    2.2194 H   0  0  0  0  0  0  0  0  0  0  0  0
   -0.8084    2.9885   -0.2243 H   0  0  0  0  0  0  0  0  0  0  0  0
   -5.9728   -2.2990    0.7490 H   0  0  0  0  0  0  0  0  0  0  0  0
   -0.5830   -2.7243   -0.4195 H   0  0  0  0  0  0  0  0  0  0  0  0
    4.1519    2.4079    0.2086 H   0  0  0  0  0  0  0  0  0  0  0  0
    5.8620   -1.5215    0.2676 H   0  0  0  0  0  0  0  0  0  0  0  0
    4.5248   -3.1855    0.1076 H   0  0  0  0  0  0  0  0  0  0  0  0
    6.3007    2.0090    0.3930 H   0  0  0  0  0  0  0  0  0  0  0  0
  1 10  1  0  0  0  0
  1 13  1  0  0  0  0
  2 10  1  0  0  0  0
  2 14  1  0  0  0  0
  3 11  1  0  0  0  0
  3 33  1  0  0  0  0
  4 15  1  0  0  0  0
  4 34  1  0  0  0  0
  5 19  2  0  0  0  0
  6 20  2  0  0  0  0
  7 23  1  0  0  0  0
  7 37  1  0  0  0  0
  8 25  1  0  0  0  0
  8 38  1  0  0  0  0
  9 10  1  0  0  0  0
  9 11  1  0  0  0  0
  9 12  1  0  0  0  0
  9 27  1  0  0  0  0
 10 28  1  0  0  0  0
 11 13  1  0  0  0  0
 11 29  1  0  0  0  0
 12 14  2  0  0  0  0
 12 15  1  0  0  0  0
 13 30  1  0  0  0  0
 13 31  1  0  0  0  0
 14 17  1  0  0  0  0
 15 16  2  0  0  0  0
 16 18  1  0  0  0  0
 16 19  1  0  0  0  0
 17 18  2  0  0  0  0
 17 32  1  0  0  0  0
 18 20  1  0  0  0  0
 19 21  1  0  0  0  0
 20 22  1  0  0  0  0
 21 22  2  0  0  0  0
 21 23  1  0  0  0  0
 22 24  1  0  0  0  0
 23 26  2  0  0  0  0
 24 25  2  0  0  0  0
 24 35  1  0  0  0  0
 25 26  1  0  0  0  0
 26 36  1  0  0  0  0
M  END
> <PUBCHEM_COMPOUND_CID>
10089584

> <PUBCHEM_CONFORMER_RMSD>
0.6

> <PUBCHEM_CONFORMER_DIVERSEORDER>
1

> <PUBCHEM_MMFF94_PARTIAL_CHARGES>
33
1 -0.56
10 0.56
11 0.28
12 -0.14
13 0.28
14 0.08
15 0.08
16 0.09
17 -0.15
18 0.09
19 0.4
2 -0.36
20 0.4
21 0.09
22 0.09
23 0.08
24 -0.15
25 0.08
26 -0.15
3 -0.68
32 0.15
33 0.4
34 0.45
35 0.15
36 0.15
37 0.45
38 0.45
4 -0.53
5 -0.57
6 -0.57
7 -0.53
8 -0.53
9 0.14

> <PUBCHEM_EFFECTIVE_ROTOR_COUNT>
0.8

> <PUBCHEM_PHARMACOPHORE_FEATURES>
14
1 1 acceptor
1 2 acceptor
1 3 acceptor
1 3 donor
1 4 donor
1 5 acceptor
1 6 acceptor
1 7 donor
1 8 donor
5 1 9 10 11 13 rings
5 2 9 10 12 14 rings
6 12 14 15 16 17 18 rings
6 16 18 19 20 21 22 rings
6 21 22 23 24 25 26 rings

> <PUBCHEM_HEAVY_ATOM_COUNT>
26

> <PUBCHEM_ATOM_DEF_STEREO_COUNT>
3

> <PUBCHEM_ATOM_UDEF_STEREO_COUNT>
0

> <PUBCHEM_BOND_DEF_STEREO_COUNT>
0

> <PUBCHEM_BOND_UDEF_STEREO_COUNT>
0

> <PUBCHEM_ISOTOPIC_ATOM_COUNT>
0

> <PUBCHEM_COMPONENT_COUNT>
1

> <PUBCHEM_CACTVS_TAUTO_COUNT>
57

> <PUBCHEM_CONFORMER_ID>
0099F47000000001

> <PUBCHEM_MMFF94_ENERGY>
84.7945

> <PUBCHEM_FEATURE_SELFOVERLAP>
71.808

> <PUBCHEM_SHAPE_FINGERPRINT>
10 15 18263072358088852192
10675989 125 16893687456137336637
10906281 52 18336278933045082252
10967382 1 18411132524769565070
1100329 8 18267865171722515480
11578080 2 13756978934349376009
11963148 33 18262230148629375298
12107183 9 17693099565226496449
12236239 1 17775287157533550634
12403259 226 18335977593053778829
12596602 18 17632863048411325578
12788726 201 17346325851753166344
13140716 1 18195249051088519296
13402501 40 18408041814194141146
13862211 1 18409443696109980318
14341114 176 18410863122550323537
14787075 74 18259988192726543226
14790565 3 18193843867229702380
14849402 71 18056762250599656376
15081414 286 18342742901648816636
15196674 1 18410571756263878214
15788980 27 18040155106576498741
15927050 60 17693657426340581900
1601671 61 18412824698955699440
17349148 13 17603876593218988821
17492 89 18265329504667620858
17844677 252 18339085895245106036
1813 80 17240204317907609492
18785283 64 18116438222653439260
19591789 44 18410009892768806438
200 152 18201995526078131333
20028762 73 18200872997552682047
21033648 29 18339625777035396881
21267235 1 18410860941303178998
21279426 13 18265331711794709174
21421861 104 18115014192282065546
21682296 61 18270687450135230222
221490 88 18335706035129680473
23522609 53 18193025727146312356
23559900 14 18337103471448335284
335352 9 18339077077635075813
34934 24 18412536618403781118
350125 39 18410575123523935253
3545911 37 18412544319295759132
3680242 22 18335414639485541274
3886686 26 16675246399220813338
4073 2 18113904853009142531
4214541 1 18409446964480015245
5104073 3 18338231553425476856
542803 24 17060338522171114728
9709674 26 18335424577586371395

> <PUBCHEM_SHAPE_MULTIPOLES>
488.11
12.26
2.54
0.79
1.18
0.27
-0.16
0.88
-2.62
0.7
0.17
-0.73
0
0.29

> <PUBCHEM_SHAPE_SELFOVERLAP>
1130.427

> <PUBCHEM_SHAPE_VOLUME>
247

> <PUBCHEM_COORDINATE_TYPE>
2
5
10

$$$$
