REMARK  Name = 10089584
REMARK  4 active torsions:
REMARK  status: ('A' for Active; 'I' for Inactive)
REMARK    1  A    between atoms: C_7  and  O_23
REMARK    2  A    between atoms: C_11  and  O_25
REMARK    3  A    between atoms: C_19  and  O_27
REMARK    4  A    between atoms: C_21  and  O_29
REMARK                            x       y       z     vdW  Elec       q    Type
REMARK                         _______ _______ _______ _____ _____    ______ ____
ROOT
ATOM      1  O   UNL     1      -5.033   1.020   0.867  0.00  0.00    -0.318 OA
ATOM      2  O   UNL     1      -3.318   2.020  -0.462  0.00  0.00    -0.452 OA
ATOM      3  O   UNL     1       1.111  -2.432  -0.185  0.00  0.00    -0.286 OA
ATOM      4  O   UNL     1       1.702   2.879  -0.003  0.00  0.00    -0.287 OA
ATOM      5  C   UNL     1      -3.742  -0.384  -0.599  0.00  0.00    +0.128 C 
ATOM      6  C   UNL     1      -4.354   1.011  -0.402  0.00  0.00    +0.294 C 
ATOM      7  C   UNL     1      -4.371  -1.212   0.499  0.00  0.00    +0.150 C 
ATOM      8  C   UNL     1      -2.306  -0.054  -0.425  0.00  0.00    +0.054 C 
ATOM      9  C   UNL     1      -4.721  -0.194   1.565  0.00  0.00    +0.175 C 
ATOM     10  C   UNL     1      -2.144   1.320  -0.377  0.00  0.00    +0.141 C 
ATOM     11  C   UNL     1      -1.212  -0.899  -0.354  0.00  0.00    +0.136 C 
ATOM     12  C   UNL     1       0.063  -0.330  -0.224  0.00  0.00    +0.076 C 
ATOM     13  C   UNL     1      -0.899   1.908  -0.257  0.00  0.00    +0.040 C 
ATOM     14  C   UNL     1       0.219   1.066  -0.177  0.00  0.00    +0.048 C 
ATOM     15  C   UNL     1       1.244  -1.215  -0.142  0.00  0.00    +0.202 C 
ATOM     16  C   UNL     1       1.564   1.663  -0.043  0.00  0.00    +0.196 C 
ATOM     17  C   UNL     1       2.586  -0.613  -0.006  0.00  0.00    +0.076 C 
ATOM     18  C   UNL     1       2.740   0.773   0.041  0.00  0.00    +0.048 C 
ATOM     19  C   UNL     1       3.710  -1.444   0.075  0.00  0.00    +0.140 C 
ATOM     20  C   UNL     1       4.019   1.329   0.170  0.00  0.00    +0.040 C 
ATOM     21  C   UNL     1       5.136   0.498   0.251  0.00  0.00    +0.137 C 
ATOM     22  C   UNL     1       4.982  -0.886   0.203  0.00  0.00    +0.073 C 
ENDROOT
BRANCH   7  23
ATOM     23  O   UNL     1      -5.564  -1.819   0.008  0.00  0.00    -0.381 OA
ATOM     24  H   UNL     1      -5.339  -2.471  -0.674  0.00  0.00    +0.210 HD
ENDBRANCH   7  23
BRANCH  11  25
ATOM     25  O   UNL     1      -1.422  -2.240  -0.436  0.00  0.00    -0.506 OA
ATOM     26  H   UNL     1      -2.293  -2.574  -0.523  0.00  0.00    +0.292 HD
ENDBRANCH  11  25
BRANCH  19  27
ATOM     27  O   UNL     1       3.633  -2.805   0.036  0.00  0.00    -0.505 OA
ATOM     28  H   UNL     1       2.799  -3.225  -0.049  0.00  0.00    +0.292 HD
ENDBRANCH  19  27
BRANCH  21  29
ATOM     29  O   UNL     1       6.379   1.040   0.377  0.00  0.00    -0.505 OA
ATOM     30  H   UNL     1       6.483   1.970   0.409  0.00  0.00    +0.292 HD
ENDBRANCH  21  29
TORSDOF 4
