REMARK  Name = 100802
REMARK  4 active torsions:
REMARK  status: ('A' for Active; 'I' for Inactive)
REMARK    1  A    between atoms: N_3  and  C1*_15
REMARK    2  A    between atoms: C3*_13  and  O3*_17
REMARK    3  A    between atoms: C4*_16  and  C5*_19
REMARK    4  A    between atoms: C5*_19  and  O5*_20
REMARK                            x       y       z     vdW  Elec       q    Type
REMARK                         _______ _______ _______ _____ _____    ______ ____
ROOT
ATOM      1 CL   UNL     1      -2.543  -2.748   0.345  0.00  0.00    -0.077 Cl
ATOM      2  O   UNL     1      -1.152   2.776  -0.375  0.00  0.00    -0.193 OA
ATOM      3  N   UNL     1      -0.444   0.589  -0.184  0.00  0.00    -0.179 N 
ATOM      4  N   UNL     1      -2.770   1.213  -0.079  0.00  0.00    -0.305 NA
ATOM      5  N   UNL     1      -4.442  -0.362   0.222  0.00  0.00    -0.331 N 
ATOM      6  C   UNL     1      -0.808  -0.737  -0.009  0.00  0.00    +0.095 C 
ATOM      7  C   UNL     1      -1.446   1.589  -0.221  0.00  0.00    +0.275 C 
ATOM      8  C   UNL     1      -2.078  -1.115   0.128  0.00  0.00    +0.118 C 
ATOM      9  C   UNL     1      -3.110  -0.041   0.086  0.00  0.00    +0.203 C 
ATOM     10  H   UNL     1      -5.124   0.346   0.195  0.00  0.00    +0.145 HD
ATOM     11  H   UNL     1      -4.711  -1.301   0.347  0.00  0.00    +0.145 HD
ENDROOT
BRANCH   3  15
ATOM     12  O4* UNL     1       1.615  -0.173  -0.995  0.00  0.00    -0.334 OA
ATOM     13  C3* UNL     1       3.040   0.602   0.734  0.00  0.00    +0.144 C 
ATOM     14  C2* UNL     1       1.643   1.105   1.013  0.00  0.00    +0.084 C 
ATOM     15  C1* UNL     1       0.948   0.905  -0.323  0.00  0.00    +0.209 C 
ATOM     16  C4* UNL     1       2.808  -0.522  -0.267  0.00  0.00    +0.173 C 
BRANCH  13  17
ATOM     17  O3* UNL     1       3.812   1.637   0.129  0.00  0.00    -0.382 OA
ATOM     18  H3* UNL     1       3.957   2.350   0.772  0.00  0.00    +0.210 HD
ENDBRANCH  13  17
BRANCH  16  19
ATOM     19  C5* UNL     1       2.572  -1.870   0.401  0.00  0.00    +0.169 C 
BRANCH  19  20
ATOM     20  O5* UNL     1       2.355  -2.848  -0.604  0.00  0.00    -0.379 OA
ATOM     21  H5* UNL     1       2.204  -3.711  -0.188  0.00  0.00    +0.211 HD
ENDBRANCH  19  20
ENDBRANCH  16  19
ENDBRANCH   3  15
TORSDOF 4
