REMARK  Name = 10086055
REMARK  7 active torsions:
REMARK  status: ('A' for Active; 'I' for Inactive)
REMARK    1  A    between atoms: C_1  and  N_3
REMARK    2  A    between atoms: C_1  and  C_15
REMARK    3  A    between atoms: C_1  and  C_23
REMARK    4  A    between atoms: C_4  and  C_7
REMARK    5  A    between atoms: N_14  and  C_17
REMARK    6  A    between atoms: C_17  and  C_20
REMARK    7  A    between atoms: C_23  and  C_24
REMARK                            x       y       z     vdW  Elec       q    Type
REMARK                         _______ _______ _______ _____ _____    ______ ____
ROOT
ATOM      1  C   UNL     1       0.652   1.048   0.193  0.00  0.00    +0.152 C 
ENDROOT
BRANCH   1   3
ATOM      2  O   UNL     1      -1.658   0.299   1.745  0.00  0.00    -0.277 OA
ATOM      3  N   UNL     1      -0.473   0.282  -0.276  0.00  0.00    -0.273 N 
ATOM      4  C   UNL     1      -1.559  -0.035   0.561  0.00  0.00    +0.206 C 
ATOM      5  C   UNL     1      -0.421  -0.148  -1.677  0.00  0.00    +0.115 C 
BRANCH   4   7
ATOM      6  N   UNL     1      -3.669  -1.062   0.966  0.00  0.00    +0.391 N 
ATOM      7  C   UNL     1      -2.654  -0.836  -0.064  0.00  0.00    +0.017 C 
ATOM      8  C   UNL     1      -3.359  -0.092  -1.194  0.00  0.00    -0.015 C 
ATOM      9  C   UNL     1      -4.801   0.048  -0.728  0.00  0.00    -0.025 C 
ATOM     10  C   UNL     1      -4.956  -1.074   0.278  0.00  0.00    -0.081 C 
ATOM     11  H   UNL     1      -3.644  -0.311   1.657  0.00  0.00    -0.084 HD
ATOM     12  H   UNL     1      -3.505  -1.938   1.462  0.00  0.00    -0.084 HD
ENDBRANCH   4   7
ENDBRANCH   1   3
BRANCH   1  15
ATOM     13  O   UNL     1       2.896   0.448  -0.504  0.00  0.00    -0.273 OA
ATOM     14  N   UNL     1       1.714  -1.021   0.852  0.00  0.00    -0.295 N 
ATOM     15  C   UNL     1       1.877   0.142   0.112  0.00  0.00    +0.241 C 
ATOM     16  H   UNL     1       0.854  -1.168   1.308  0.00  0.00    +0.150 HD
BRANCH  14  17
ATOM     17  C   UNL     1       2.743  -2.027   0.984  0.00  0.00    +0.175 C 
BRANCH  17  20
ATOM     18  O   UNL     1       1.708  -3.030  -0.962  0.00  0.00    -0.273 OA
ATOM     19  N   UNL     1       3.574  -4.024  -0.058  0.00  0.00    -0.327 N 
ATOM     20  C   UNL     1       2.606  -3.045  -0.124  0.00  0.00    +0.239 C 
ATOM     21  H   UNL     1       3.590  -4.747  -0.727  0.00  0.00    +0.145 HD
ATOM     22  H   UNL     1       4.249  -4.002   0.659  0.00  0.00    +0.145 HD
ENDBRANCH  17  20
ENDBRANCH  14  17
ENDBRANCH   1  15
BRANCH   1  23
ATOM     23  C   UNL     1       0.877   2.318  -0.637  0.00  0.00    +0.029 C 
BRANCH  23  24
ATOM     24  C   UNL     1       1.769   3.382   0.035  0.00  0.00    +0.002 C 
ATOM     25  C   UNL     1       1.134   3.828   1.355  0.00  0.00    +0.000 C 
ATOM     26  C   UNL     1       2.002   4.599  -0.861  0.00  0.00    +0.000 C 
ENDBRANCH  23  24
ENDBRANCH   1  23
TORSDOF 7
