REMARK  Name = 100830
REMARK  13 active torsions:
REMARK  status: ('A' for Active; 'I' for Inactive)
REMARK    1  A    between atoms: N_1  and  C_4
REMARK    2  A    between atoms: N_1  and  C_21
REMARK    3  A    between atoms: C_4  and  C_5
REMARK    4  A    between atoms: C_5  and  C_6
REMARK    5  A    between atoms: C_6  and  C_7
REMARK    6  A    between atoms: C_7  and  N_9
REMARK    7  A    between atoms: C_10  and  C_12
REMARK    8  A    between atoms: C_17  and  N_20
REMARK    9  A    between atoms: C_21  and  C_22
REMARK   10  A    between atoms: C_22  and  C_23
REMARK   11  A    between atoms: C_23  and  N_25
REMARK   12  A    between atoms: C_26  and  C_28
REMARK   13  A    between atoms: C_33  and  N_36
REMARK                            x       y       z     vdW  Elec       q    Type
REMARK                         _______ _______ _______ _____ _____    ______ ____
ROOT
ATOM      1  N   UNL     1       4.355   0.737   0.263  0.00  0.00    +0.384 N 
ATOM      2  H   UNL     1       3.539   0.523  -0.310  0.00  0.00    -0.085 HD
ATOM      3  H   UNL     1       4.749  -0.119   0.655  0.00  0.00    -0.085 HD
ENDROOT
BRANCH   1   4
ATOM      4  C   UNL     1       3.953   1.609   1.361  0.00  0.00    -0.082 C 
BRANCH   4   5
ATOM      5  C   UNL     1       2.591   1.182   1.906  0.00  0.00    -0.022 C 
BRANCH   5   6
ATOM      6  C   UNL     1       2.146   2.093   3.055  0.00  0.00    +0.019 C 
BRANCH   6   7
ATOM      7  C   UNL     1       0.774   1.718   3.604  0.00  0.00    +0.090 C 
BRANCH   7   9
ATOM      8  O   UNL     1      -0.893  -0.450   2.728  0.00  0.00    -0.270 OA
ATOM      9  N   UNL     1      -0.253   1.776   2.601  0.00  0.00    -0.301 N 
ATOM     10  C   UNL     1      -1.014   0.671   2.239  0.00  0.00    +0.246 C 
ATOM     11  H   UNL     1      -0.424   2.635   2.151  0.00  0.00    +0.150 HD
BRANCH  10  12
ATOM     12  C   UNL     1      -2.018   0.890   1.167  0.00  0.00    +0.053 C 
ATOM     13  C   UNL     1      -3.163   0.095   1.109  0.00  0.00    +0.006 C 
ATOM     14  C   UNL     1      -1.815   1.890   0.216  0.00  0.00    +0.006 C 
ATOM     15  C   UNL     1      -4.105   0.301   0.101  0.00  0.00    +0.024 C 
ATOM     16  C   UNL     1      -2.757   2.095  -0.792  0.00  0.00    +0.024 C 
ATOM     17  C   UNL     1      -3.902   1.301  -0.850  0.00  0.00    +0.143 C 
BRANCH  17  20
ATOM     18  O   UNL     1      -5.885   0.786  -1.908  0.00  0.00    -0.126 OA
ATOM     19  O   UNL     1      -4.660   2.416  -2.720  0.00  0.00    -0.126 OA
ATOM     20  N   UNL     1      -4.862   1.511  -1.875  0.00  0.00    +0.058 N 
ENDBRANCH  17  20
ENDBRANCH  10  12
ENDBRANCH   7   9
ENDBRANCH   6   7
ENDBRANCH   5   6
ENDBRANCH   4   5
ENDBRANCH   1   4
BRANCH   1  21
ATOM     21  C   UNL     1       5.366   1.377  -0.566  0.00  0.00    -0.080 C 
BRANCH  21  22
ATOM     22  C   UNL     1       5.800   0.484  -1.732  0.00  0.00    -0.002 C 
BRANCH  22  23
ATOM     23  C   UNL     1       4.674   0.111  -2.694  0.00  0.00    +0.088 C 
BRANCH  23  25
ATOM     24  O   UNL     1       1.912   0.867  -2.486  0.00  0.00    -0.270 OA
ATOM     25  N   UNL     1       3.626  -0.635  -2.052  0.00  0.00    -0.301 N 
ATOM     26  C   UNL     1       2.310  -0.189  -2.000  0.00  0.00    +0.246 C 
ATOM     27  H   UNL     1       3.849  -1.497  -1.632  0.00  0.00    +0.150 HD
BRANCH  26  28
ATOM     28  C   UNL     1       1.351  -1.063  -1.277  0.00  0.00    +0.053 C 
ATOM     29  C   UNL     1      -0.002  -1.044  -1.616  0.00  0.00    +0.006 C 
ATOM     30  C   UNL     1       1.804  -1.902  -0.259  0.00  0.00    +0.006 C 
ATOM     31  C   UNL     1      -0.902  -1.865  -0.936  0.00  0.00    +0.024 C 
ATOM     32  C   UNL     1       0.904  -2.722   0.420  0.00  0.00    +0.024 C 
ATOM     33  C   UNL     1      -0.450  -2.704   0.082  0.00  0.00    +0.143 C 
BRANCH  33  36
ATOM     34  O   UNL     1      -2.579  -3.508   0.453  0.00  0.00    -0.126 OA
ATOM     35  O   UNL     1      -0.938  -4.287   1.686  0.00  0.00    -0.126 OA
ATOM     36  N   UNL     1      -1.366  -3.540   0.773  0.00  0.00    +0.058 N 
ENDBRANCH  33  36
ENDBRANCH  26  28
ENDBRANCH  23  25
ENDBRANCH  22  23
ENDBRANCH  21  22
ENDBRANCH   1  21
TORSDOF 13
