REMARK  Name = 10088846
REMARK  10 active torsions:
REMARK  status: ('A' for Active; 'I' for Inactive)
REMARK    1  A    between atoms: C_2  and  N_8
REMARK    2  A    between atoms: C_3  and  C_18
REMARK    3  A    between atoms: C_6  and  C_15
REMARK    4  A    between atoms: C_9  and  C_11
REMARK    5  A    between atoms: C_15  and  O_16
REMARK    6  A    between atoms: C_18  and  O_19
REMARK    7  A    between atoms: C_18  and  C_21
REMARK    8  A    between atoms: C_21  and  O_22
REMARK    9  A    between atoms: C_21  and  C_24
REMARK   10  A    between atoms: C_24  and  O_25
REMARK                            x       y       z     vdW  Elec       q    Type
REMARK                         _______ _______ _______ _____ _____    ______ ____
ROOT
ATOM      1  O   UNL     1      -1.942  -0.473   0.150  0.00  0.00    -0.469 OA
ATOM      2  C   UNL     1       0.521  -0.478   0.031  0.00  0.00    +0.119 C 
ATOM      3  C   UNL     1      -0.792   0.225  -0.365  0.00  0.00    +0.213 C 
ATOM      4  C   UNL     1       0.510  -1.927  -0.485  0.00  0.00    +0.053 C 
ATOM      5  C   UNL     1      -0.839  -2.558  -0.332  0.00  0.00    +0.019 C 
ATOM      6  C   UNL     1      -1.923  -1.835  -0.020  0.00  0.00    +0.209 C 
ENDROOT
BRANCH   2   8
ATOM      7  O   UNL     1       2.651   0.670   1.589  0.00  0.00    -0.275 OA
ATOM      8  N   UNL     1       1.687   0.215  -0.471  0.00  0.00    -0.302 N 
ATOM      9  C   UNL     1       2.666   0.738   0.361  0.00  0.00    +0.222 C 
ATOM     10  H   UNL     1       1.791   0.321  -1.445  0.00  0.00    +0.150 HD
BRANCH   9  11
ATOM     11  C   UNL     1       3.789   1.423  -0.416  0.00  0.00    +0.077 C 
ATOM     12  C   UNL     1       3.446   2.893  -0.648  0.00  0.00    +0.010 C 
ATOM     13  C   UNL     1       5.122   1.296   0.317  0.00  0.00    +0.010 C 
ENDBRANCH   9  11
ENDBRANCH   2   8
BRANCH   6  15
ATOM     14  O   UNL     1      -3.327  -3.752   0.057  0.00  0.00    -0.242 OA
ATOM     15  C   UNL     1      -3.189  -2.547   0.166  0.00  0.00    +0.372 C 
BRANCH  15  16
ATOM     16  O   UNL     1      -4.164  -1.665   0.472  0.00  0.00    -0.475 OA
ATOM     17  H   UNL     1      -3.967  -0.751   0.535  0.00  0.00    +0.296 HD
ENDBRANCH  15  16
ENDBRANCH   6  15
BRANCH   3  18
ATOM     18  C   UNL     1      -0.887   1.649   0.180  0.00  0.00    +0.181 C 
BRANCH  18  19
ATOM     19  O   UNL     1      -0.715   1.586   1.593  0.00  0.00    -0.379 OA
ATOM     20  H   UNL     1       0.129   1.153   1.797  0.00  0.00    +0.211 HD
ENDBRANCH  18  19
BRANCH  18  21
ATOM     21  C   UNL     1      -2.215   2.332  -0.170  0.00  0.00    +0.170 C 
BRANCH  21  22
ATOM     22  O   UNL     1      -2.368   2.301  -1.594  0.00  0.00    -0.379 OA
ATOM     23  H   UNL     1      -2.317   1.384  -1.905  0.00  0.00    +0.211 HD
ENDBRANCH  21  22
BRANCH  21  24
ATOM     24  C   UNL     1      -2.304   3.794   0.261  0.00  0.00    +0.169 C 
BRANCH  24  25
ATOM     25  O   UNL     1      -3.565   4.316  -0.147  0.00  0.00    -0.379 OA
ATOM     26  H   UNL     1      -3.632   5.246   0.122  0.00  0.00    +0.211 HD
ENDBRANCH  24  25
ENDBRANCH  21  24
ENDBRANCH  18  21
ENDBRANCH   3  18
TORSDOF 10
REMARK  Name = 10088846
REMARK  10 active torsions:
REMARK  status: ('A' for Active; 'I' for Inactive)
REMARK    1  A    between atoms: C_2  and  N_8
REMARK    2  A    between atoms: C_3  and  C_18
REMARK    3  A    between atoms: C_6  and  C_15
REMARK    4  A    between atoms: C_9  and  C_11
REMARK    5  A    between atoms: C_15  and  O_16
REMARK    6  A    between atoms: C_18  and  O_19
REMARK    7  A    between atoms: C_18  and  C_21
REMARK    8  A    between atoms: C_21  and  O_22
REMARK    9  A    between atoms: C_21  and  C_24
REMARK   10  A    between atoms: C_24  and  O_25
REMARK                            x       y       z     vdW  Elec       q    Type
REMARK                         _______ _______ _______ _____ _____    ______ ____
ROOT
ATOM      1  N   UNL     1       2.642  -2.732  -0.192  0.00  0.00    +0.000 NA
ATOM      2  N   UNL     1       3.700  -2.765  -0.618  0.00  0.00    +0.000 NA
ENDROOT
TORSDOF 0
