REMARK  Name = 10087955
REMARK  8 active torsions:
REMARK  status: ('A' for Active; 'I' for Inactive)
REMARK    1  A    between atoms: N_2  and  C_5
REMARK    2  A    between atoms: C_3  and  C_18
REMARK    3  A    between atoms: C_6  and  C_14
REMARK    4  A    between atoms: C_9  and  O_11
REMARK    5  A    between atoms: C_14  and  O_15
REMARK    6  A    between atoms: C_17  and  C_19
REMARK    7  A    between atoms: C_21  and  O_25
REMARK    8  A    between atoms: C_23  and  O_27
REMARK                            x       y       z     vdW  Elec       q    Type
REMARK                         _______ _______ _______ _____ _____    ______ ____
ROOT
ATOM      1  O   UNL     1       0.925   2.382  -0.093  0.00  0.00    -0.270 OA
ATOM      2  N   UNL     1       1.648   0.149  -0.006  0.00  0.00    -0.280 N 
ATOM      3  C   UNL     1       0.713   1.176  -0.042  0.00  0.00    +0.250 C 
ATOM      4  H   UNL     1       1.290  -0.767   0.032  0.00  0.00    +0.155 HD
ENDROOT
BRANCH   2   5
ATOM      5  C   UNL     1       3.059   0.272  -0.019  0.00  0.00    +0.057 C 
ATOM      6  C   UNL     1       3.860  -0.857   0.021  0.00  0.00    +0.092 C 
ATOM      7  C   UNL     1       3.608   1.544  -0.073  0.00  0.00    +0.018 C 
ATOM      8  C   UNL     1       5.247  -0.712   0.007  0.00  0.00    +0.044 C 
ATOM      9  C   UNL     1       5.815   0.561  -0.047  0.00  0.00    +0.134 C 
ATOM     10  C   UNL     1       4.995   1.689  -0.087  0.00  0.00    +0.038 C 
BRANCH   9  11
ATOM     11  O   UNL     1       7.169   0.703  -0.061  0.00  0.00    -0.506 OA
ATOM     12  H   UNL     1       7.719  -0.055  -0.034  0.00  0.00    +0.292 HD
ENDBRANCH   9  11
BRANCH   6  14
ATOM     13  O   UNL     1       2.217  -2.542  -0.410  0.00  0.00    -0.245 OA
ATOM     14  C   UNL     1       3.300  -2.202   0.074  0.00  0.00    +0.339 C 
BRANCH  14  15
ATOM     15  O   UNL     1       4.110  -3.075   0.730  0.00  0.00    -0.477 OA
ATOM     16  H   UNL     1       4.926  -2.780   1.085  0.00  0.00    +0.295 HD
ENDBRANCH  14  15
ENDBRANCH   6  14
ENDBRANCH   2   5
BRANCH   3  18
ATOM     17  C   UNL     1      -1.746   1.462  -0.027  0.00  0.00    +0.005 C 
ATOM     18  C   UNL     1      -0.679   0.632  -0.013  0.00  0.00    +0.058 C 
BRANCH  17  19
ATOM     19  C   UNL     1      -3.138   1.041   0.009  0.00  0.00    +0.003 C 
ATOM     20  C   UNL     1      -3.482  -0.261  -0.354  0.00  0.00    +0.040 C 
ATOM     21  C   UNL     1      -4.817  -0.665  -0.321  0.00  0.00    +0.172 C 
ATOM     22  C   UNL     1      -4.129   1.940   0.405  0.00  0.00    +0.003 C 
ATOM     23  C   UNL     1      -5.807   0.234   0.075  0.00  0.00    +0.168 C 
ATOM     24  C   UNL     1      -5.463   1.536   0.438  0.00  0.00    +0.040 C 
BRANCH  21  25
ATOM     25  O   UNL     1      -5.140  -1.939  -0.677  0.00  0.00    -0.468 OA
ATOM     26  C   UNL     1      -5.151  -2.919   0.358  0.00  0.00    +0.253 C 
ENDBRANCH  21  25
BRANCH  23  27
ATOM     27  O   UNL     1      -7.114  -0.149   0.113  0.00  0.00    -0.503 OA
ATOM     28  H   UNL     1      -7.354  -1.021  -0.129  0.00  0.00    +0.292 HD
ENDBRANCH  23  27
ENDBRANCH  17  19
ENDBRANCH   3  18
TORSDOF 8
