100802
  -OEChem-03292013323D

 29 30  0     1  0  0  0  0  0999 V2000
   -2.5432   -2.7478    0.3446 Cl  0  0  0  0  0  0  0  0  0  0  0  0
    1.6147   -0.1734   -0.9949 O   0  0  0  0  0  0  0  0  0  0  0  0
    3.8122    1.6374    0.1294 O   0  0  0  0  0  0  0  0  0  0  0  0
    2.3554   -2.8477   -0.6039 O   0  0  0  0  0  0  0  0  0  0  0  0
   -1.1522    2.7758   -0.3747 O   0  0  0  0  0  0  0  0  0  0  0  0
   -0.4438    0.5886   -0.1844 N   0  0  0  0  0  0  0  0  0  0  0  0
   -2.7704    1.2132   -0.0794 N   0  0  0  0  0  0  0  0  0  0  0  0
   -4.4416   -0.3622    0.2222 N   0  0  0  0  0  0  0  0  0  0  0  0
    3.0403    0.6018    0.7336 C   0  0  1  0  0  0  0  0  0  0  0  0
    1.6431    1.1054    1.0132 C   0  0  0  0  0  0  0  0  0  0  0  0
    0.9477    0.9048   -0.3234 C   0  0  1  0  0  0  0  0  0  0  0  0
    2.8079   -0.5220   -0.2667 C   0  0  1  0  0  0  0  0  0  0  0  0
    2.5718   -1.8704    0.4011 C   0  0  0  0  0  0  0  0  0  0  0  0
   -0.8084   -0.7367   -0.0095 C   0  0  0  0  0  0  0  0  0  0  0  0
   -1.4458    1.5889   -0.2208 C   0  0  0  0  0  0  0  0  0  0  0  0
   -2.0780   -1.1151    0.1278 C   0  0  0  0  0  0  0  0  0  0  0  0
   -3.1098   -0.0406    0.0859 C   0  0  0  0  0  0  0  0  0  0  0  0
    3.5720    0.2759    1.6324 H   0  0  0  0  0  0  0  0  0  0  0  0
    1.1796    0.4920    1.7954 H   0  0  0  0  0  0  0  0  0  0  0  0
    1.5995    2.1505    1.3356 H   0  0  0  0  0  0  0  0  0  0  0  0
    1.0656    1.7982   -0.9478 H   0  0  0  0  0  0  0  0  0  0  0  0
    3.6180   -0.6006   -1.0002 H   0  0  0  0  0  0  0  0  0  0  0  0
    1.7188   -1.8674    1.0833 H   0  0  0  0  0  0  0  0  0  0  0  0
    3.4592   -2.1644    0.9718 H   0  0  0  0  0  0  0  0  0  0  0  0
    3.8883    2.3588    0.7771 H   0  0  0  0  0  0  0  0  0  0  0  0
   -0.0329   -1.4848    0.0063 H   0  0  0  0  0  0  0  0  0  0  0  0
    2.2233   -3.6985   -0.1520 H   0  0  0  0  0  0  0  0  0  0  0  0
   -4.7498   -1.3200    0.3525 H   0  0  0  0  0  0  0  0  0  0  0  0
   -5.1570    0.3563    0.1965 H   0  0  0  0  0  0  0  0  0  0  0  0
  1 16  1  0  0  0  0
  2 11  1  0  0  0  0
  2 12  1  0  0  0  0
  3  9  1  0  0  0  0
  3 25  1  0  0  0  0
  4 13  1  0  0  0  0
  4 27  1  0  0  0  0
  5 15  2  0  0  0  0
  6 11  1  0  0  0  0
  6 14  1  0  0  0  0
  6 15  1  0  0  0  0
  7 15  1  0  0  0  0
  7 17  2  0  0  0  0
  8 17  1  0  0  0  0
  8 28  1  0  0  0  0
  8 29  1  0  0  0  0
  9 10  1  0  0  0  0
  9 12  1  0  0  0  0
  9 18  1  0  0  0  0
 10 11  1  0  0  0  0
 10 19  1  0  0  0  0
 10 20  1  0  0  0  0
 11 21  1  0  0  0  0
 12 13  1  0  0  0  0
 12 22  1  0  0  0  0
 13 23  1  0  0  0  0
 13 24  1  0  0  0  0
 14 16  2  0  0  0  0
 14 26  1  0  0  0  0
 16 17  1  0  0  0  0
M  END
> <PUBCHEM_COMPOUND_CID>
100802

> <PUBCHEM_CONFORMER_RMSD>
0.6

> <PUBCHEM_CONFORMER_DIVERSEORDER>
1
10
14
12
7
2
9
8
13
11
4
5
6
3

> <PUBCHEM_MMFF94_PARTIAL_CHARGES>
21
1 -0.14
11 0.58
12 0.28
13 0.28
14 -0.04
15 0.84
16 0.15
17 0.49
2 -0.56
25 0.4
26 0.15
27 0.4
28 0.4
29 0.4
3 -0.68
4 -0.68
5 -0.57
6 -0.47
7 -0.66
8 -0.85
9 0.28

> <PUBCHEM_EFFECTIVE_ROTOR_COUNT>
3

> <PUBCHEM_PHARMACOPHORE_FEATURES>
10
1 2 acceptor
1 3 acceptor
1 3 donor
1 4 acceptor
1 4 donor
1 5 acceptor
1 7 donor
1 8 donor
5 2 9 10 11 12 rings
6 6 7 14 15 16 17 rings

> <PUBCHEM_HEAVY_ATOM_COUNT>
17

> <PUBCHEM_ATOM_DEF_STEREO_COUNT>
3

> <PUBCHEM_ATOM_UDEF_STEREO_COUNT>
0

> <PUBCHEM_BOND_DEF_STEREO_COUNT>
0

> <PUBCHEM_BOND_UDEF_STEREO_COUNT>
0

> <PUBCHEM_ISOTOPIC_ATOM_COUNT>
0

> <PUBCHEM_COMPONENT_COUNT>
1

> <PUBCHEM_CACTVS_TAUTO_COUNT>
3

> <PUBCHEM_CONFORMER_ID>
000189C200000001

> <PUBCHEM_MMFF94_ENERGY>
48.0493

> <PUBCHEM_FEATURE_SELFOVERLAP>
50.799

> <PUBCHEM_SHAPE_FINGERPRINT>
10366900 7 18130217267685480857
10608611 8 18411413973549600128
10616163 171 18337955717619830578
10618630 7 18334013904077919663
10922523 26 18260547779773332271
10967382 1 18410292531771006703
12382932 28 18337952397541324819
12500047 106 18335977567241413172
12553582 1 17975429215076710963
12932764 1 17632002113711446172
13140716 1 18123183764774980257
13380535 21 18412268324264821016
14144814 61 18410011009517961953
14178342 30 18267579294167138275
14223421 5 18411979161270328706
14252887 29 18335711567327100507
15219456 202 18341889667165650124
15375358 24 18336539516620220883
15375462 6 18411417315107834172
15442244 35 18195245516567727074
16945 1 18409450288589432613
17804303 29 18267309720465637902
17834074 16 18411702071318129234
19049666 15 18198054785861787288
19784866 170 18339360889332743768
20510252 161 18341048528223467353
20645477 70 18343578512762745127
20871998 184 18270119144547014087
21501502 16 18341329989982557176
23184049 29 18337386028946838602
23402539 116 18115295817234120576
23463225 33 18408887343194586255
23559900 14 18411132516100684460
2748010 2 18191021197157292989
3312278 4 18338519749846520627
34934 24 18337666520534267983
5104073 3 18410012096281942641
58051976 378 18410855495031492212
69090 78 18342733031660918215
7364860 26 18341894065660469718
81228 2 18260834782615994161
8809292 202 18408606954760543338
9709674 26 18411700950310923278

> <PUBCHEM_SHAPE_MULTIPOLES>
313.3
6.45
2.77
0.79
1.09
1.03
0.05
0.86
0.69
0.13
-0.16
-0.33
0.01
0.61

> <PUBCHEM_SHAPE_SELFOVERLAP>
650.134

> <PUBCHEM_SHAPE_VOLUME>
179.6

> <PUBCHEM_COORDINATE_TYPE>
2
5
10

$$$$
