REMARK  Name = 10093576
REMARK  7 active torsions:
REMARK  status: ('A' for Active; 'I' for Inactive)
REMARK    1  A    between atoms: C_4  and  C_17
REMARK    2  A    between atoms: C_10  and  O_32
REMARK    3  A    between atoms: C_13  and  O_34
REMARK    4  A    between atoms: C_18  and  O_26
REMARK    5  A    between atoms: C_19  and  O_28
REMARK    6  A    between atoms: C_20  and  C_24
REMARK    7  A    between atoms: C_22  and  O_30
REMARK                            x       y       z     vdW  Elec       q    Type
REMARK                         _______ _______ _______ _____ _____    ______ ____
ROOT
ATOM      1  O   UNL     1       4.510  -1.129   0.366  0.00  0.00    -0.286 OA
ATOM      2  C   UNL     1       0.979  -0.608  -0.111  0.00  0.00    -0.012 C 
ATOM      3  C   UNL     1       0.911   0.889  -0.236  0.00  0.00    +0.053 C 
ATOM      4  C   UNL     1      -0.210  -1.349  -0.201  0.00  0.00    -0.001 C 
ATOM      5  C   UNL     1       2.184  -1.289   0.091  0.00  0.00    +0.069 C 
ATOM      6  C   UNL     1       2.226   1.611  -0.129  0.00  0.00    -0.012 C 
ATOM      7  C   UNL     1       3.435   0.938   0.074  0.00  0.00    +0.069 C 
ATOM      8  C   UNL     1      -0.194  -2.740  -0.091  0.00  0.00    -0.019 C 
ATOM      9  C   UNL     1       3.453  -0.536   0.190  0.00  0.00    +0.201 C 
ATOM     10  C   UNL     1       2.201  -2.686   0.202  0.00  0.00    +0.136 C 
ATOM     11  C   UNL     1       1.011  -3.407   0.110  0.00  0.00    +0.032 C 
ATOM     12  C   UNL     1       2.240   3.010  -0.235  0.00  0.00    -0.004 C 
ATOM     13  C   UNL     1       4.638   1.651   0.168  0.00  0.00    +0.136 C 
ATOM     14  C   UNL     1      -1.446  -3.553  -0.181  0.00  0.00    +0.031 C 
ATOM     15  C   UNL     1       3.436   3.721  -0.141  0.00  0.00    +0.003 C 
ATOM     16  C   UNL     1       4.634   3.041   0.060  0.00  0.00    +0.037 C 
ENDROOT
BRANCH   4  17
ATOM     17  C   UNL     1      -1.488  -0.684  -0.409  0.00  0.00    +0.067 C 
ATOM     18  C   UNL     1      -2.245  -0.275   0.686  0.00  0.00    +0.142 C 
ATOM     19  C   UNL     1      -1.947  -0.459  -1.705  0.00  0.00    +0.140 C 
ATOM     20  C   UNL     1      -3.469   0.363   0.484  0.00  0.00    +0.102 C 
ATOM     21  C   UNL     1      -3.171   0.178  -1.907  0.00  0.00    +0.074 C 
ATOM     22  C   UNL     1      -3.932   0.590  -0.812  0.00  0.00    +0.147 C 
BRANCH  20  24
ATOM     23  O   UNL     1      -4.128   1.928   2.121  0.00  0.00    -0.291 OA
ATOM     24  C   UNL     1      -4.268   0.794   1.626  0.00  0.00    +0.179 C 
ATOM     25  C   UNL     1      -5.296  -0.147   2.238  0.00  0.00    +0.077 C 
ENDBRANCH  20  24
BRANCH  18  26
ATOM     26  O   UNL     1      -1.799  -0.493   1.958  0.00  0.00    -0.505 OA
ATOM     27  H   UNL     1      -0.977  -0.921   2.099  0.00  0.00    +0.292 HD
ENDBRANCH  18  26
BRANCH  19  28
ATOM     28  O   UNL     1      -1.225  -0.850  -2.794  0.00  0.00    -0.505 OA
ATOM     29  H   UNL     1      -0.401  -1.279  -2.680  0.00  0.00    +0.292 HD
ENDBRANCH  19  28
BRANCH  22  30
ATOM     30  O   UNL     1      -5.125   1.211  -1.032  0.00  0.00    -0.471 OA
ATOM     31  C   UNL     1      -5.103   2.632  -1.151  0.00  0.00    +0.252 C 
ENDBRANCH  22  30
ENDBRANCH   4  17
BRANCH  10  32
ATOM     32  O   UNL     1       3.344  -3.402   0.399  0.00  0.00    -0.505 OA
ATOM     33  H   UNL     1       4.168  -2.960   0.467  0.00  0.00    +0.292 HD
ENDBRANCH  10  32
BRANCH  13  34
ATOM     34  O   UNL     1       5.846   1.050   0.363  0.00  0.00    -0.505 OA
ATOM     35  H   UNL     1       5.898   0.118   0.442  0.00  0.00    +0.292 HD
ENDBRANCH  13  34
TORSDOF 7
