REMARK  Name = 100982104
REMARK  4 active torsions:
REMARK  status: ('A' for Active; 'I' for Inactive)
REMARK    1  A    between atoms: C_6  and  O_12
REMARK    2  A    between atoms: C_8  and  C_14
REMARK    3  A    between atoms: C_14  and  N_16
REMARK    4  A    between atoms: C_17  and  C_21
REMARK                            x       y       z     vdW  Elec       q    Type
REMARK                         _______ _______ _______ _____ _____    ______ ____
ROOT
ATOM      1  O   UNL     1      -1.341  -0.290   0.093  0.00  0.00    -0.319 OA
ATOM      2  O   UNL     1      -5.603  -0.825   1.438  0.00  0.00    -0.253 OA
ATOM      3  N   UNL     1      -4.593   0.685  -0.048  0.00  0.00    -0.284 N 
ATOM      4  N   UNL     1      -3.477  -1.195   0.514  0.00  0.00    -0.247 N 
ATOM      5  C   UNL     1      -3.317   0.804  -0.710  0.00  0.00    +0.147 C 
ATOM      6  C   UNL     1      -2.636  -0.542  -0.457  0.00  0.00    +0.275 C 
ATOM      7  C   UNL     1      -2.397   1.800  -0.031  0.00  0.00    +0.058 C 
ATOM      8  C   UNL     1      -1.052   1.101  -0.110  0.00  0.00    +0.141 C 
ATOM      9  C   UNL     1      -4.671  -0.486   0.723  0.00  0.00    +0.304 C 
ATOM     10  H   UNL     1      -5.321   1.344  -0.128  0.00  0.00    +0.151 HD
ATOM     11  H   UNL     1      -3.244  -2.034   0.974  0.00  0.00    +0.155 HD
ENDROOT
BRANCH   6  12
ATOM     12  O   UNL     1      -2.594  -1.313  -1.644  0.00  0.00    -0.316 OA
ATOM     13  C   UNL     1      -1.964  -2.572  -1.434  0.00  0.00    +0.178 C 
ENDBRANCH   6  12
BRANCH   8  14
ATOM     14  C   UNL     1      -0.059   1.578   0.931  0.00  0.00    +0.119 C 
BRANCH  14  16
ATOM     15  O   UNL     1       2.195   2.363  -0.665  0.00  0.00    -0.269 OA
ATOM     16  N   UNL     1       1.194   0.886   0.818  0.00  0.00    -0.298 N 
ATOM     17  C   UNL     1       2.235   1.341   0.016  0.00  0.00    +0.259 C 
ATOM     18  H   UNL     1       1.321   0.053   1.328  0.00  0.00    +0.150 HD
BRANCH  17  21
ATOM     19 BR   UNL     1       5.826  -2.664   0.933  0.00  0.00    -0.048 Br
ATOM     20  N   UNL     1       4.574   0.799  -0.748  0.00  0.00    -0.308 N 
ATOM     21  C   UNL     1       3.457   0.497  -0.014  0.00  0.00    +0.103 C 
ATOM     22  C   UNL     1       3.696  -0.685   0.651  0.00  0.00    +0.027 C 
ATOM     23  C   UNL     1       5.523  -0.172  -0.562  0.00  0.00    +0.069 C 
ATOM     24  C   UNL     1       5.003  -1.109   0.305  0.00  0.00    +0.051 C 
ATOM     25  H   UNL     1       4.679   1.592  -1.322  0.00  0.00    +0.152 HD
ENDBRANCH  17  21
ENDBRANCH  14  16
ENDBRANCH   8  14
TORSDOF 4
