10095770
  -OEChem-03292013303D

 57 60  0     1  0  0  0  0  0999 V2000
    3.7953   -0.4886    0.4559 O   0  0  0  0  0  0  0  0  0  0  0  0
    3.0438    1.5304   -0.4402 O   0  0  0  0  0  0  0  0  0  0  0  0
    7.5664    0.0914   -1.0638 O   0  0  0  0  0  0  0  0  0  0  0  0
    6.7556   -2.5440   -0.1961 O   0  0  0  0  0  0  0  0  0  0  0  0
    5.2714    1.5599   -2.1852 O   0  0  0  0  0  0  0  0  0  0  0  0
    2.9412   -2.8310    1.6133 O   0  0  0  0  0  0  0  0  0  0  0  0
    1.9605    2.3810    1.9737 O   0  0  0  0  0  0  0  0  0  0  0  0
   -1.1755   -0.1656   -1.7912 O   0  0  0  0  0  0  0  0  0  0  0  0
   -2.9150    0.9898    1.7141 O   0  0  0  0  0  0  0  0  0  0  0  0
   -8.6936   -1.0294    0.0478 O   0  0  0  0  0  0  0  0  0  0  0  0
    6.2149   -0.3707   -1.0870 C   0  0  1  0  0  0  0  0  0  0  0  0
    6.0294   -1.3478    0.0740 C   0  0  1  0  0  0  0  0  0  0  0  0
    5.2669    0.8222   -0.9632 C   0  0  2  0  0  0  0  0  0  0  0  0
    4.5495   -1.6872    0.2670 C   0  0  1  0  0  0  0  0  0  0  0  0
    3.8345    0.3675   -0.6835 C   0  0  1  0  0  0  0  0  0  0  0  0
    4.3273   -2.5682    1.4923 C   0  0  0  0  0  0  0  0  0  0  0  0
    1.7240    1.3244   -0.1627 C   0  0  0  0  0  0  0  0  0  0  0  0
    1.1803    1.7519    1.0492 C   0  0  0  0  0  0  0  0  0  0  0  0
    0.9184    0.6830   -1.1035 C   0  0  0  0  0  0  0  0  0  0  0  0
   -0.4330    0.4703   -0.8295 C   0  0  0  0  0  0  0  0  0  0  0  0
   -0.9763    0.8971    0.3817 C   0  0  0  0  0  0  0  0  0  0  0  0
   -0.1711    1.5396    1.3258 C   0  0  0  0  0  0  0  0  0  0  0  0
   -2.4060    0.6574    0.6515 C   0  0  0  0  0  0  0  0  0  0  0  0
   -3.1793   -0.0176   -0.4270 C   0  0  0  0  0  0  0  0  0  0  0  0
   -2.5109   -0.3645   -1.5373 C   0  0  0  0  0  0  0  0  0  0  0  0
   -4.6221   -0.2819   -0.3027 C   0  0  0  0  0  0  0  0  0  0  0  0
    2.6153    1.5570    2.9359 C   0  0  0  0  0  0  0  0  0  0  0  0
   -5.0689   -1.4893    0.2387 C   0  0  0  0  0  0  0  0  0  0  0  0
   -5.5489    0.6735   -0.7253 C   0  0  0  0  0  0  0  0  0  0  0  0
   -6.4361   -1.7401    0.3565 C   0  0  0  0  0  0  0  0  0  0  0  0
   -6.9161    0.4225   -0.6077 C   0  0  0  0  0  0  0  0  0  0  0  0
   -7.3596   -0.7843   -0.0669 C   0  0  0  0  0  0  0  0  0  0  0  0
   -9.5823   -0.0090   -0.4046 C   0  0  0  0  0  0  0  0  0  0  0  0
    6.0751   -0.8747   -2.0512 H   0  0  0  0  0  0  0  0  0  0  0  0
    6.4480   -0.9001    0.9848 H   0  0  0  0  0  0  0  0  0  0  0  0
    5.6201    1.5009   -0.1767 H   0  0  0  0  0  0  0  0  0  0  0  0
    4.1510   -2.2174   -0.6087 H   0  0  0  0  0  0  0  0  0  0  0  0
    3.4440   -0.1606   -1.5633 H   0  0  0  0  0  0  0  0  0  0  0  0
    4.6542   -2.0685    2.4102 H   0  0  0  0  0  0  0  0  0  0  0  0
    4.8453   -3.5271    1.4079 H   0  0  0  0  0  0  0  0  0  0  0  0
    8.1423   -0.6895   -1.1297 H   0  0  0  0  0  0  0  0  0  0  0  0
    6.8298   -3.0414    0.6355 H   0  0  0  0  0  0  0  0  0  0  0  0
    4.6495    2.3003   -2.0805 H   0  0  0  0  0  0  0  0  0  0  0  0
    2.4847   -1.9751    1.6853 H   0  0  0  0  0  0  0  0  0  0  0  0
    1.3249    0.3625   -2.0590 H   0  0  0  0  0  0  0  0  0  0  0  0
   -0.5817    1.8778    2.2736 H   0  0  0  0  0  0  0  0  0  0  0  0
   -2.9697   -0.8556   -2.3867 H   0  0  0  0  0  0  0  0  0  0  0  0
    3.5556    1.1819    2.5237 H   0  0  0  0  0  0  0  0  0  0  0  0
    1.9828    0.7203    3.2511 H   0  0  0  0  0  0  0  0  0  0  0  0
    2.8428    2.1706    3.8121 H   0  0  0  0  0  0  0  0  0  0  0  0
   -4.3616   -2.2442    0.5739 H   0  0  0  0  0  0  0  0  0  0  0  0
   -5.2180    1.6193   -1.1482 H   0  0  0  0  0  0  0  0  0  0  0  0
   -6.7757   -2.6819    0.7789 H   0  0  0  0  0  0  0  0  0  0  0  0
   -7.5783    1.2080   -0.9556 H   0  0  0  0  0  0  0  0  0  0  0  0
   -9.4772    0.1684   -1.4804 H   0  0  0  0  0  0  0  0  0  0  0  0
   -9.4709    0.9102    0.1806 H   0  0  0  0  0  0  0  0  0  0  0  0
  -10.6020   -0.3717   -0.2387 H   0  0  0  0  0  0  0  0  0  0  0  0
  1 14  1  0  0  0  0
  1 15  1  0  0  0  0
  2 15  1  0  0  0  0
  2 17  1  0  0  0  0
  3 11  1  0  0  0  0
  3 41  1  0  0  0  0
  4 12  1  0  0  0  0
  4 42  1  0  0  0  0
  5 13  1  0  0  0  0
  5 43  1  0  0  0  0
  6 16  1  0  0  0  0
  6 44  1  0  0  0  0
  7 18  1  0  0  0  0
  7 27  1  0  0  0  0
  8 20  1  0  0  0  0
  8 25  1  0  0  0  0
  9 23  2  0  0  0  0
 10 32  1  0  0  0  0
 10 33  1  0  0  0  0
 11 12  1  0  0  0  0
 11 13  1  0  0  0  0
 11 34  1  0  0  0  0
 12 14  1  0  0  0  0
 12 35  1  0  0  0  0
 13 15  1  0  0  0  0
 13 36  1  0  0  0  0
 14 16  1  0  0  0  0
 14 37  1  0  0  0  0
 15 38  1  0  0  0  0
 16 39  1  0  0  0  0
 16 40  1  0  0  0  0
 17 18  2  0  0  0  0
 17 19  1  0  0  0  0
 18 22  1  0  0  0  0
 19 20  2  0  0  0  0
 19 45  1  0  0  0  0
 20 21  1  0  0  0  0
 21 22  2  0  0  0  0
 21 23  1  0  0  0  0
 22 46  1  0  0  0  0
 23 24  1  0  0  0  0
 24 25  2  0  0  0  0
 24 26  1  0  0  0  0
 25 47  1  0  0  0  0
 26 28  2  0  0  0  0
 26 29  1  0  0  0  0
 27 48  1  0  0  0  0
 27 49  1  0  0  0  0
 27 50  1  0  0  0  0
 28 30  1  0  0  0  0
 28 51  1  0  0  0  0
 29 31  2  0  0  0  0
 29 52  1  0  0  0  0
 30 32  2  0  0  0  0
 30 53  1  0  0  0  0
 31 32  1  0  0  0  0
 31 54  1  0  0  0  0
 33 55  1  0  0  0  0
 33 56  1  0  0  0  0
 33 57  1  0  0  0  0
M  END
> <PUBCHEM_COMPOUND_CID>
10095770

> <PUBCHEM_CONFORMER_RMSD>
1

> <PUBCHEM_CONFORMER_DIVERSEORDER>
1
37
25
21
23
3
26
33
7
11
31
20
4
19
16
2
22
14
15
34
24
32
18
28
36
10
12
6
27
9
13
29
30
5
35
8
17

> <PUBCHEM_MMFF94_PARTIAL_CHARGES>
44
1 -0.56
10 -0.36
11 0.28
12 0.28
13 0.28
14 0.28
15 0.56
16 0.28
17 0.08
18 0.08
19 -0.15
2 -0.36
20 0.08
21 0.09
22 -0.15
23 0.47
24 -0.01
25 -0.07
26 0.03
27 0.28
28 -0.15
29 -0.15
3 -0.68
30 -0.15
31 -0.15
32 0.08
33 0.28
4 -0.68
41 0.4
42 0.4
43 0.4
44 0.4
45 0.15
46 0.15
47 0.15
5 -0.68
51 0.15
52 0.15
53 0.15
54 0.15
6 -0.68
7 -0.36
8 -0.16
9 -0.57

> <PUBCHEM_EFFECTIVE_ROTOR_COUNT>
7.2

> <PUBCHEM_PHARMACOPHORE_FEATURES>
18
1 1 acceptor
1 10 acceptor
1 2 acceptor
1 3 acceptor
1 3 donor
1 4 acceptor
1 4 donor
1 5 acceptor
1 5 donor
1 6 acceptor
1 6 donor
1 7 acceptor
1 8 acceptor
1 9 acceptor
6 1 11 12 13 14 15 rings
6 17 18 19 20 21 22 rings
6 26 28 29 30 31 32 rings
6 8 20 21 23 24 25 rings

> <PUBCHEM_HEAVY_ATOM_COUNT>
33

> <PUBCHEM_ATOM_DEF_STEREO_COUNT>
5

> <PUBCHEM_ATOM_UDEF_STEREO_COUNT>
0

> <PUBCHEM_BOND_DEF_STEREO_COUNT>
0

> <PUBCHEM_BOND_UDEF_STEREO_COUNT>
0

> <PUBCHEM_ISOTOPIC_ATOM_COUNT>
0

> <PUBCHEM_COMPONENT_COUNT>
1

> <PUBCHEM_CACTVS_TAUTO_COUNT>
1

> <PUBCHEM_CONFORMER_ID>
009A0C9A00000001

> <PUBCHEM_MMFF94_ENERGY>
127.9346

> <PUBCHEM_FEATURE_SELFOVERLAP>
91.452

> <PUBCHEM_SHAPE_FINGERPRINT>
10299344 5 18334016094964992991
10319688 140 15719935939600529945
11135609 127 17896044415622248236
11409948 35 18261386686525726039
11456790 92 17417823872599787579
11646440 116 16272212985306482913
117089 54 17914910729537950398
11719270 70 17989490714818243815
12236239 1 18341900645803678820
12592606 108 18130785681539124231
13150687 139 14851607644788885018
13533116 47 18408600366354265531
1361 2 17458069287440582526
13617811 41 18113897178293565476
13782708 43 18272079548642421079
14118638 360 14056987309902875237
14347424 109 17203323446368714241
15131766 46 17484508290151217321
15183329 4 17967250880185113817
15264996 19 18119820358906736662
15352257 5 18186519917208232347
15439362 3 17975701911573429108
15475509 35 18339912762438986594
15840311 113 11384116349284235491
16728300 4 18057036904693150951
17134984 74 18040716970093592442
17324776 126 15797327114295629218
19301679 30 17702954604422364838
19841028 212 18335419011820965714
20578428 11 18200870807498896384
21150785 3 16732984241227726165
21267235 1 17632303371497478468
21304303 94 17676204663292154530
21781055 127 14691750829630433417
21792934 111 15339121235094425057
21792938 703 16951138391220424563
22956985 138 17485102795170964406
23516275 137 18191043234777921195
23522609 53 18123783973718127685
23559900 14 18261392312436641365
23569943 247 17024296428387259659
27425 322 15502950752170703294
3004659 81 18259702285744581066
3178227 256 17632582673246786303
335352 9 17131556132560497093
3383291 50 17346883360051744751
3411729 13 17059197319961078704
34797466 226 16805322218888239781
4073 2 17676776486647976195
4093350 32 17531248412976611621
4098825 35 17894628115553514493
4112364 45 9078823074647593442
439807 62 18333449824358520315
46194498 28 17095524028410921108
465052 167 18202285814053362028
54039377 194 18340771426109260550
57527295 17 16445310050951790802
6058803 2 16340302601216187413
6697151 62 17988058068500393497
9663363 56 17847059982798087004
9962374 69 17274812601706653245

> <PUBCHEM_SHAPE_MULTIPOLES>
620.43
23.3
2.24
1.79
29.74
0.85
0.66
10.9
-5.1
-3.24
1.29
-2.26
-0.67
-0.68

> <PUBCHEM_SHAPE_SELFOVERLAP>
1347.259

> <PUBCHEM_SHAPE_VOLUME>
336.5

> <PUBCHEM_COORDINATE_TYPE>
2
5
10

$$$$
