REMARK  Name = 10093198
REMARK  9 active torsions:
REMARK  status: ('A' for Active; 'I' for Inactive)
REMARK    1  A    between atoms: C_2  and  C_11
REMARK    2  A    between atoms: C_5  and  C_32
REMARK    3  A    between atoms: C_8  and  O_27
REMARK    4  A    between atoms: C_9  and  O_29
REMARK    5  A    between atoms: C_14  and  C_24
REMARK    6  A    between atoms: C_17  and  O_19
REMARK    7  A    between atoms: C_18  and  O_21
REMARK    8  A    between atoms: C_24  and  O_25
REMARK    9  A    between atoms: C_32  and  O_33
REMARK                            x       y       z     vdW  Elec       q    Type
REMARK                         _______ _______ _______ _____ _____    ______ ____
ROOT
ATOM      1  O   UNL     1       2.421   0.737  -1.612  0.00  0.00    -0.447 OA
ATOM      2  C   UNL     1       0.660   0.259  -0.296  0.00  0.00    +0.047 A 
ATOM      3  C   UNL     1       1.747  -0.558   0.112  0.00  0.00    +0.041 A 
ATOM      4  C   UNL     1       2.805  -0.226  -0.728  0.00  0.00    +0.149 A 
ATOM      5  C   UNL     1       1.121   1.024  -1.342  0.00  0.00    +0.220 A 
ATOM      6  C   UNL     1       1.953  -1.540   1.096  0.00  0.00    +0.043 C 
ATOM      7  C   UNL     1       4.070  -0.807  -0.658  0.00  0.00    +0.077 C 
ATOM      8  C   UNL     1       3.215  -2.143   1.190  0.00  0.00    +0.168 C 
ATOM      9  C   UNL     1       4.253  -1.781   0.328  0.00  0.00    +0.171 C 
ENDROOT
BRANCH   2  11
ATOM     10  O   UNL     1      -2.421   0.737   1.612  0.00  0.00    -0.447 OA
ATOM     11  C   UNL     1      -0.660   0.259   0.296  0.00  0.00    +0.047 A 
ATOM     12  C   UNL     1      -1.747  -0.558  -0.112  0.00  0.00    +0.041 A 
ATOM     13  C   UNL     1      -2.805  -0.226   0.728  0.00  0.00    +0.149 A 
ATOM     14  C   UNL     1      -1.121   1.024   1.342  0.00  0.00    +0.220 A 
ATOM     15  C   UNL     1      -1.953  -1.541  -1.096  0.00  0.00    +0.043 C 
ATOM     16  C   UNL     1      -4.070  -0.807   0.658  0.00  0.00    +0.077 C 
ATOM     17  C   UNL     1      -3.215  -2.143  -1.190  0.00  0.00    +0.168 C 
ATOM     18  C   UNL     1      -4.253  -1.781  -0.328  0.00  0.00    +0.171 C 
BRANCH  17  19
ATOM     19  O   UNL     1      -3.418  -3.098  -2.145  0.00  0.00    -0.503 OA
ATOM     20  H   UNL     1      -2.720  -3.339  -2.722  0.00  0.00    +0.292 HD
ENDBRANCH  17  19
BRANCH  18  21
ATOM     21  O   UNL     1      -5.475  -2.380  -0.440  0.00  0.00    -0.503 OA
ATOM     22  H   UNL     1      -6.171  -2.137   0.138  0.00  0.00    +0.292 HD
ENDBRANCH  18  21
BRANCH  14  24
ATOM     23  O   UNL     1       0.695   2.408   2.045  0.00  0.00    -0.241 OA
ATOM     24  C   UNL     1      -0.487   2.015   2.145  0.00  0.00    +0.376 C 
BRANCH  24  25
ATOM     25  O   UNL     1      -1.336   2.541   3.101  0.00  0.00    -0.439 OA
ATOM     26  C   UNL     1      -0.809   3.550   3.970  0.00  0.00    +0.256 C 
ENDBRANCH  24  25
ENDBRANCH  14  24
ENDBRANCH   2  11
BRANCH   8  27
ATOM     27  O   UNL     1       3.418  -3.098   2.145  0.00  0.00    -0.503 OA
ATOM     28  H   UNL     1       2.720  -3.339   2.722  0.00  0.00    +0.292 HD
ENDBRANCH   8  27
BRANCH   9  29
ATOM     29  O   UNL     1       5.475  -2.380   0.440  0.00  0.00    -0.503 OA
ATOM     30  H   UNL     1       6.171  -2.137  -0.138  0.00  0.00    +0.292 HD
ENDBRANCH   9  29
BRANCH   5  32
ATOM     31  O   UNL     1      -0.695   2.408  -2.045  0.00  0.00    -0.241 OA
ATOM     32  C   UNL     1       0.486   2.015  -2.145  0.00  0.00    +0.376 C 
BRANCH  32  33
ATOM     33  O   UNL     1       1.336   2.540  -3.101  0.00  0.00    -0.439 OA
ATOM     34  C   UNL     1       0.809   3.549  -3.970  0.00  0.00    +0.256 C 
ENDBRANCH  32  33
ENDBRANCH   5  32
TORSDOF 9
