REMARK  Name = 10095005
REMARK  7 active torsions:
REMARK  status: ('A' for Active; 'I' for Inactive)
REMARK    1  A    between atoms: C_6  and  O_21
REMARK    2  A    between atoms: C_6  and  C_26
REMARK    3  A    between atoms: C_9  and  O_23
REMARK    4  A    between atoms: C_26  and  C_27
REMARK    5  A    between atoms: C_27  and  O_28
REMARK    6  A    between atoms: O_28  and  C_30
REMARK    7  A    between atoms: C_30  and  C_31
REMARK                            x       y       z     vdW  Elec       q    Type
REMARK                         _______ _______ _______ _____ _____    ______ ____
ROOT
ATOM      1  O   UNL     1       7.237  -1.934  -1.610  0.00  0.00    -0.287 OA
ATOM      2  C   UNL     1      -0.282   0.853   0.224  0.00  0.00    +0.031 C 
ATOM      3  C   UNL     1       0.928   1.642  -0.324  0.00  0.00    +0.003 C 
ATOM      4  C   UNL     1       2.259   1.273   0.349  0.00  0.00    +0.003 C 
ATOM      5  C   UNL     1       2.539  -0.252   0.109  0.00  0.00    +0.034 C 
ATOM      6  C   UNL     1      -1.414   1.512  -0.611  0.00  0.00    +0.143 C 
ATOM      7  C   UNL     1      -0.021  -0.642  -0.049  0.00  0.00    +0.032 C 
ATOM      8  C   UNL     1       0.455   3.092  -0.279  0.00  0.00    +0.003 C 
ATOM      9  C   UNL     1       1.324  -1.140   0.525  0.00  0.00    +0.111 C 
ATOM     10  C   UNL     1       3.947  -0.696   0.673  0.00  0.00    +0.036 C 
ATOM     11  C   UNL     1      -1.045   3.013  -0.633  0.00  0.00    +0.034 C 
ATOM     12  C   UNL     1       3.401   2.143  -0.206  0.00  0.00    +0.004 C 
ATOM     13  C   UNL     1      -0.540   1.099   1.736  0.00  0.00    +0.003 C 
ATOM     14  C   UNL     1       4.762   1.727   0.338  0.00  0.00    +0.022 C 
ATOM     15  C   UNL     1       4.995   0.259   0.089  0.00  0.00    -0.038 C 
ATOM     16  C   UNL     1       4.054  -0.642   2.214  0.00  0.00    +0.009 C 
ATOM     17  C   UNL     1       4.236  -2.137   0.278  0.00  0.00    -0.020 C 
ATOM     18  C   UNL     1       6.045  -0.144  -0.644  0.00  0.00    +0.034 C 
ATOM     19  C   UNL     1       5.279  -2.544  -0.453  0.00  0.00    +0.038 C 
ATOM     20  C   UNL     1       6.266  -1.571  -0.954  0.00  0.00    +0.195 C 
ENDROOT
BRANCH   6  21
ATOM     21  O   UNL     1      -1.432   1.011  -1.944  0.00  0.00    -0.380 OA
ATOM     22  H   UNL     1      -0.561   1.141  -2.351  0.00  0.00    +0.211 HD
ENDBRANCH   6  21
BRANCH   9  23
ATOM     23  O   UNL     1       1.226  -1.251   1.938  0.00  0.00    -0.384 OA
ATOM     24  H   UNL     1       2.071  -1.564   2.297  0.00  0.00    +0.210 HD
ENDBRANCH   9  23
BRANCH   6  26
ATOM     25  O   UNL     1      -3.322   2.001   0.729  0.00  0.00    -0.290 OA
ATOM     26  C   UNL     1      -2.799   1.256  -0.098  0.00  0.00    +0.218 C 
BRANCH  26  27
ATOM     27  C   UNL     1      -3.504   0.037  -0.653  0.00  0.00    +0.274 C 
BRANCH  27  28
ATOM     28  O   UNL     1      -4.798  -0.085  -0.102  0.00  0.00    -0.440 OA
BRANCH  28  30
ATOM     29  O   UNL     1      -5.160  -1.991  -1.338  0.00  0.00    -0.250 OA
ATOM     30  C   UNL     1      -5.546  -1.157  -0.528  0.00  0.00    +0.316 C 
BRANCH  30  31
ATOM     31  C   UNL     1      -6.925  -1.173   0.142  0.00  0.00    +0.090 C 
ATOM     32  C   UNL     1      -7.678   0.118  -0.206  0.00  0.00    +0.011 C 
ATOM     33  C   UNL     1      -7.731  -2.376  -0.373  0.00  0.00    +0.011 C 
ATOM     34  C   UNL     1      -6.755  -1.300   1.661  0.00  0.00    +0.011 C 
ENDBRANCH  30  31
ENDBRANCH  28  30
ENDBRANCH  27  28
ENDBRANCH  26  27
ENDBRANCH   6  26
TORSDOF 7
