REMARK  Name = 100914126
REMARK  15 active torsions:
REMARK  status: ('A' for Active; 'I' for Inactive)
REMARK    1  A    between atoms: C_1  and  C_4
REMARK    2  A    between atoms: C_2  and  C_18
REMARK    3  A    between atoms: C_4  and  C_5
REMARK    4  A    between atoms: C_5  and  C_6
REMARK    5  A    between atoms: C_6  and  C_7
REMARK    6  A    between atoms: C_7  and  S_8
REMARK    7  A    between atoms: C_7  and  P_12
REMARK    8  A    between atoms: P_12  and  O_14
REMARK    9  A    between atoms: P_12  and  O_16
REMARK   10  A    between atoms: C_18  and  C_19
REMARK   11  A    between atoms: C_19  and  C_20
REMARK   12  A    between atoms: C_21  and  C_23
REMARK   13  A    between atoms: C_23  and  C_24
REMARK   14  A    between atoms: C_24  and  C_25
REMARK   15  A    between atoms: C_26  and  C_28
REMARK                            x       y       z     vdW  Elec       q    Type
REMARK                         _______ _______ _______ _____ _____    ______ ____
ROOT
ATOM      1  C   UNL     1       2.585  -1.942   1.520  0.00  0.00    -0.035 C 
ATOM      2  C   UNL     1       3.062  -2.772   0.572  0.00  0.00    -0.048 C 
ATOM      3  C   UNL     1       4.098  -2.402  -0.451  0.00  0.00    +0.026 C 
ENDROOT
BRANCH   1   4
ATOM      4  C   UNL     1       2.964  -0.512   1.783  0.00  0.00    +0.025 C 
BRANCH   4   5
ATOM      5  C   UNL     1       2.129   0.436   0.913  0.00  0.00    +0.007 C 
BRANCH   5   6
ATOM      6  C   UNL     1       2.532   1.894   1.140  0.00  0.00    +0.037 C 
BRANCH   6   7
ATOM      7  C   UNL     1       1.698   2.946   0.399  0.00  0.00    +0.238 C 
BRANCH   7   8
ATOM      8  S   UNL     1       1.802   2.876  -1.391  0.00  0.00    +0.032 S 
ATOM      9  O   UNL     1       3.425   2.934  -1.530  0.00  0.00    -0.069 OA
ATOM     10  O   UNL     1       1.343   1.586  -1.863  0.00  0.00    -0.069 OA
ATOM     11  O   UNL     1       1.263   4.107  -1.935  0.00  0.00    -0.069 OA
ENDBRANCH   7   8
BRANCH   7  12
ATOM     12  P   UNL     1      -0.047   2.984   0.807  0.00  0.00    +0.359 P 
ATOM     13  O   UNL     1      -0.904   1.949   0.143  0.00  0.00    -0.256 OA
BRANCH  12  14
ATOM     14  O   UNL     1      -0.484   4.513   0.508  0.00  0.00    -0.322 OA
ATOM     15  H   UNL     1      -1.427   4.623   0.705  0.00  0.00    +0.220 HD
ENDBRANCH  12  14
BRANCH  12  16
ATOM     16  O   UNL     1      -0.053   2.928   2.423  0.00  0.00    -0.322 OA
ATOM     17  H   UNL     1      -0.969   2.945   2.744  0.00  0.00    +0.220 HD
ENDBRANCH  12  16
ENDBRANCH   7  12
ENDBRANCH   6   7
ENDBRANCH   5   6
ENDBRANCH   4   5
ENDBRANCH   1   4
BRANCH   2  18
ATOM     18  C   UNL     1       2.559  -4.204   0.503  0.00  0.00    +0.026 C 
BRANCH  18  19
ATOM     19  C   UNL     1       1.357  -4.390  -0.438  0.00  0.00    +0.030 C 
BRANCH  19  20
ATOM     20  C   UNL     1       0.163  -3.593   0.014  0.00  0.00    -0.034 C 
ATOM     21  C   UNL     1      -0.438  -2.564  -0.617  0.00  0.00    -0.048 C 
ATOM     22  C   UNL     1       0.009  -1.983  -1.931  0.00  0.00    +0.026 C 
BRANCH  21  23
ATOM     23  C   UNL     1      -1.715  -1.978  -0.050  0.00  0.00    +0.026 C 
BRANCH  23  24
ATOM     24  C   UNL     1      -2.927  -2.127  -0.971  0.00  0.00    +0.030 C 
BRANCH  24  25
ATOM     25  C   UNL     1      -4.168  -1.604  -0.300  0.00  0.00    -0.034 C 
ATOM     26  C   UNL     1      -4.657  -0.349  -0.351  0.00  0.00    -0.048 C 
ATOM     27  C   UNL     1      -4.027   0.781  -1.118  0.00  0.00    +0.026 C 
BRANCH  26  28
ATOM     28  C   UNL     1      -5.923   0.003   0.402  0.00  0.00    +0.022 C 
ATOM     29  C   UNL     1      -5.646   0.484   1.820  0.00  0.00    +0.005 C 
ENDBRANCH  26  28
ENDBRANCH  24  25
ENDBRANCH  23  24
ENDBRANCH  21  23
ENDBRANCH  19  20
ENDBRANCH  18  19
ENDBRANCH   2  18
TORSDOF 15
