REMARK  Name = 10093690
REMARK  7 active torsions:
REMARK  status: ('A' for Active; 'I' for Inactive)
REMARK    1  A    between atoms: C_5  and  C_25
REMARK    2  A    between atoms: C_19  and  O_23
REMARK    3  A    between atoms: C_25  and  O_27
REMARK    4  A    between atoms: C_25  and  C_29
REMARK    5  A    between atoms: C_29  and  C_30
REMARK    6  A    between atoms: C_30  and  C_31
REMARK    7  A    between atoms: C_31  and  O_33
REMARK                            x       y       z     vdW  Elec       q    Type
REMARK                         _______ _______ _______ _____ _____    ______ ____
ROOT
ATOM      1  O   UNL     1       1.188  -0.041   0.782  0.00  0.00    -0.455 OA
ATOM      2  O   UNL     1       2.582  -3.771  -0.021  0.00  0.00    -0.286 OA
ATOM      3  O   UNL     1      -0.746   1.605   0.846  0.00  0.00    -0.286 OA
ATOM      4  O   UNL     1      -4.159  -2.072  -0.987  0.00  0.00    -0.287 OA
ATOM      5  C   UNL     1       2.514  -0.386   0.969  0.00  0.00    +0.150 C 
ATOM      6  C   UNL     1       0.304  -0.982   0.310  0.00  0.00    +0.151 C 
ATOM      7  C   UNL     1       0.719  -2.284   0.015  0.00  0.00    +0.070 C 
ATOM      8  C   UNL     1      -1.044  -0.616   0.124  0.00  0.00    +0.077 C 
ATOM      9  C   UNL     1       3.020  -1.601   0.719  0.00  0.00    +0.077 C 
ATOM     10  C   UNL     1      -1.950  -1.570  -0.356  0.00  0.00    +0.045 C 
ATOM     11  C   UNL     1      -0.189  -3.230  -0.463  0.00  0.00    -0.016 C 
ATOM     12  C   UNL     1       2.130  -2.658   0.211  0.00  0.00    +0.201 C 
ATOM     13  C   UNL     1      -1.522  -2.872  -0.648  0.00  0.00    -0.001 C 
ATOM     14  C   UNL     1      -1.526   0.758   0.426  0.00  0.00    +0.202 C 
ATOM     15  C   UNL     1      -2.949   1.093   0.213  0.00  0.00    +0.076 C 
ATOM     16  C   UNL     1      -3.374  -1.231  -0.567  0.00  0.00    +0.196 C 
ATOM     17  C   UNL     1      -3.840   0.134  -0.266  0.00  0.00    +0.045 C 
ATOM     18  C   UNL     1       0.179  -4.639  -0.800  0.00  0.00    +0.031 C 
ATOM     19  C   UNL     1      -3.406   2.387   0.494  0.00  0.00    +0.137 C 
ATOM     20  C   UNL     1      -5.187   0.465  -0.464  0.00  0.00    +0.003 C 
ATOM     21  C   UNL     1      -4.747   2.715   0.296  0.00  0.00    +0.037 C 
ATOM     22  C   UNL     1      -5.637   1.755  -0.182  0.00  0.00    +0.003 C 
ENDROOT
BRANCH  19  23
ATOM     23  O   UNL     1      -2.591   3.376   0.963  0.00  0.00    -0.505 OA
ATOM     24  H   UNL     1      -1.682   3.203   1.112  0.00  0.00    +0.292 HD
ENDBRANCH  19  23
BRANCH   5  25
ATOM     25  C   UNL     1       3.357   0.737   1.485  0.00  0.00    +0.139 C 
ATOM     26  C   UNL     1       2.816   1.211   2.838  0.00  0.00    +0.037 C 
BRANCH  25  27
ATOM     27  O   UNL     1       4.689   0.250   1.678  0.00  0.00    -0.380 OA
ATOM     28  H   UNL     1       5.048  -0.055   0.830  0.00  0.00    +0.211 HD
ENDBRANCH  25  27
BRANCH  25  29
ATOM     29  C   UNL     1       3.413   1.874   0.441  0.00  0.00    +0.037 C 
BRANCH  29  30
ATOM     30  C   UNL     1       4.071   1.485  -0.894  0.00  0.00    +0.032 C 
BRANCH  30  31
ATOM     31  C   UNL     1       4.169   2.677  -1.855  0.00  0.00    +0.111 C 
ATOM     32  C   UNL     1       4.857   2.281  -3.155  0.00  0.00    +0.032 C 
BRANCH  31  33
ATOM     33  O   UNL     1       2.858   3.147  -2.154  0.00  0.00    -0.384 OA
ATOM     34  H   UNL     1       2.410   3.401  -1.332  0.00  0.00    +0.210 HD
ENDBRANCH  31  33
ENDBRANCH  30  31
ENDBRANCH  29  30
ENDBRANCH  25  29
ENDBRANCH   5  25
TORSDOF 7
