REMARK  Name = 100990282
REMARK  9 active torsions:
REMARK  status: ('A' for Active; 'I' for Inactive)
REMARK    1  A    between atoms: C_3  and  C_16
REMARK    2  A    between atoms: C_6  and  C_27
REMARK    3  A    between atoms: C_7  and  O_24
REMARK    4  A    between atoms: C_13  and  O_33
REMARK    5  A    between atoms: C_13  and  C_35
REMARK    6  A    between atoms: C_17  and  O_22
REMARK    7  A    between atoms: C_27  and  C_28
REMARK    8  A    between atoms: C_29  and  C_30
REMARK    9  A    between atoms: C_36  and  C_37
REMARK                            x       y       z     vdW  Elec       q    Type
REMARK                         _______ _______ _______ _____ _____    ______ ____
ROOT
ATOM      1  O   UNL     1      -0.809   4.001   0.132  0.00  0.00    -0.293 OA
ATOM      2  O   UNL     1       0.946   1.388  -2.844  0.00  0.00    -0.291 OA
ATOM      3  C   UNL     1      -0.118   0.139   0.875  0.00  0.00    +0.059 C 
ATOM      4  C   UNL     1       1.183   0.998   0.781  0.00  0.00    +0.064 C 
ATOM      5  C   UNL     1      -0.590   1.839  -0.985  0.00  0.00    +0.116 C 
ATOM      6  C   UNL     1      -1.129   0.592  -0.225  0.00  0.00    +0.080 C 
ATOM      7  C   UNL     1       0.831   2.486   1.076  0.00  0.00    +0.143 C 
ATOM      8  C   UNL     1      -0.248   2.909   0.072  0.00  0.00    +0.181 C 
ATOM      9  C   UNL     1       1.724   0.891  -0.630  0.00  0.00    +0.049 C 
ATOM     10  C   UNL     1       0.725   1.375  -1.640  0.00  0.00    +0.178 C 
ATOM     11  C   UNL     1      -1.561   2.366  -2.039  0.00  0.00    +0.016 C 
ATOM     12  C   UNL     1       2.036   3.422   0.993  0.00  0.00    +0.037 C 
ATOM     13  C   UNL     1       2.926   0.432  -0.992  0.00  0.00    +0.132 C 
ENDROOT
BRANCH   3  16
ATOM     14  O   UNL     1       0.583  -1.641  -0.578  0.00  0.00    -0.446 OA
ATOM     15  O   UNL     1      -0.191  -2.958  -2.296  0.00  0.00    -0.245 OA
ATOM     16  C   UNL     1       0.167  -1.363   0.771  0.00  0.00    +0.186 C 
ATOM     17  C   UNL     1      -1.054  -2.189   0.910  0.00  0.00    +0.149 C 
ATOM     18  C   UNL     1       1.290  -1.782   1.714  0.00  0.00    +0.052 C 
ATOM     19  C   UNL     1      -1.336  -2.878  -0.195  0.00  0.00    +0.086 C 
ATOM     20  C   UNL     1      -0.281  -2.527  -1.159  0.00  0.00    +0.340 C 
ATOM     21  C   UNL     1      -2.439  -3.816  -0.496  0.00  0.00    +0.041 C 
BRANCH  17  22
ATOM     22  O   UNL     1      -1.779  -2.214   2.068  0.00  0.00    -0.506 OA
ATOM     23  H   UNL     1      -1.509  -1.697   2.801  0.00  0.00    +0.292 HD
ENDBRANCH  17  22
ENDBRANCH   3  16
BRANCH   7  24
ATOM     24  O   UNL     1       0.268   2.588   2.377  0.00  0.00    -0.379 OA
ATOM     25  H   UNL     1      -0.500   1.999   2.445  0.00  0.00    +0.211 HD
ENDBRANCH   7  24
BRANCH   6  27
ATOM     26  O   UNL     1      -2.615   1.707   1.268  0.00  0.00    -0.291 OA
ATOM     27  C   UNL     1      -2.473   0.857   0.393  0.00  0.00    +0.174 C 
BRANCH  27  28
ATOM     28  C   UNL     1      -3.604   0.015  -0.087  0.00  0.00    +0.037 C 
ATOM     29  C   UNL     1      -4.837   0.183   0.409  0.00  0.00    +0.003 C 
BRANCH  29  30
ATOM     30  C   UNL     1      -5.968  -0.609  -0.023  0.00  0.00    -0.004 C 
ATOM     31  C   UNL     1      -7.206  -0.449   0.467  0.00  0.00    -0.026 C 
ATOM     32  C   UNL     1      -8.381  -1.260   0.029  0.00  0.00    +0.031 C 
ENDBRANCH  29  30
ENDBRANCH  27  28
ENDBRANCH   6  27
BRANCH  13  33
ATOM     33  O   UNL     1       3.319   0.377  -2.317  0.00  0.00    -0.506 OA
ATOM     34  H   UNL     1       2.736   0.667  -2.991  0.00  0.00    +0.292 HD
ENDBRANCH  13  33
BRANCH  13  35
ATOM     35  C   UNL     1       3.905  -0.041  -0.028  0.00  0.00    +0.036 C 
ATOM     36  C   UNL     1       5.128  -0.513  -0.323  0.00  0.00    +0.003 C 
BRANCH  36  37
ATOM     37  C   UNL     1       6.058  -0.969   0.687  0.00  0.00    -0.004 C 
ATOM     38  C   UNL     1       7.280  -1.442   0.399  0.00  0.00    -0.026 C 
ATOM     39  C   UNL     1       8.249  -1.915   1.432  0.00  0.00    +0.031 C 
ENDBRANCH  36  37
ENDBRANCH  13  35
TORSDOF 9
