100935408
  -OEChem-03292013293D

 70 72  0     1  0  0  0  0  0999 V2000
    4.2459    0.9871    2.3843 O   0  0  0  0  0  0  0  0  0  0  0  0
    2.5024   -0.9976    1.9736 O   0  0  0  0  0  0  0  0  0  0  0  0
    1.8726   -3.6091    0.6467 O   0  0  0  0  0  0  0  0  0  0  0  0
   -0.5761   -0.1871   -2.7370 O   0  0  0  0  0  0  0  0  0  0  0  0
   -1.8738   -2.3456   -2.0054 O   0  0  0  0  0  0  0  0  0  0  0  0
   -3.2680    4.7810   -0.2108 O   0  0  0  0  0  0  0  0  0  0  0  0
   -4.9512    3.5260    0.6535 O   0  0  0  0  0  0  0  0  0  0  0  0
    2.6416    1.2924   -0.0289 C   0  0  2  0  0  0  0  0  0  0  0  0
    3.6385    0.1448    0.1471 C   0  0  1  0  0  0  0  0  0  0  0  0
    1.6303    1.0005   -1.1771 C   0  0  1  0  0  0  0  0  0  0  0  0
    4.7136    0.7661    1.0559 C   0  0  1  0  0  0  0  0  0  0  0  0
    3.5193    2.5552   -0.1034 C   0  0  0  0  0  0  0  0  0  0  0  0
    4.9106    2.1400    0.4046 C   0  0  0  0  0  0  0  0  0  0  0  0
    2.8983   -1.1143    0.6082 C   0  0  2  0  0  0  0  0  0  0  0  0
    1.1007   -0.4474   -1.0306 C   0  0  0  0  0  0  0  0  0  0  0  0
    1.6506   -1.3962   -0.2322 C   0  0  0  0  0  0  0  0  0  0  0  0
    0.4962    2.0435   -1.0399 C   0  0  0  0  0  0  0  0  0  0  0  0
    2.2739    1.1519   -2.5743 C   0  0  0  0  0  0  0  0  0  0  0  0
    5.9993   -0.0458    1.1210 C   0  0  0  0  0  0  0  0  0  0  0  0
   -0.0920   -0.8518   -1.8320 C   0  0  0  0  0  0  0  0  0  0  0  0
   -0.4480    1.6601    0.0897 C   0  0  0  0  0  0  0  0  0  0  0  0
    1.1056   -2.7587   -0.1307 C   0  0  0  0  0  0  0  0  0  0  0  0
   -0.0434   -3.1515   -0.7097 C   0  0  0  0  0  0  0  0  0  0  0  0
   -0.7620   -2.1538   -1.5328 C   0  0  0  0  0  0  0  0  0  0  0  0
   -1.5513    2.6771    0.2080 C   0  0  0  0  0  0  0  0  0  0  0  0
   -0.7023   -4.4961   -0.6092 C   0  0  0  0  0  0  0  0  0  0  0  0
   -2.8758    2.4658    0.0802 C   0  0  0  0  0  0  0  0  0  0  0  0
   -3.5379    1.1244   -0.1429 C   0  0  0  0  0  0  0  0  0  0  0  0
   -3.8080    3.6213    0.2311 C   0  0  0  0  0  0  0  0  0  0  0  0
   -3.9275    0.4150    1.1604 C   0  0  0  0  0  0  0  0  0  0  0  0
   -4.6051   -0.9061    0.9224 C   0  0  0  0  0  0  0  0  0  0  0  0
   -4.2003   -2.1280    1.3175 C   0  0  0  0  0  0  0  0  0  0  0  0
   -2.9696   -2.4143    2.1302 C   0  0  0  0  0  0  0  0  0  0  0  0
   -5.0073   -3.3486    0.9623 C   0  0  0  0  0  0  0  0  0  0  0  0
    2.0896    1.3873    0.9141 H   0  0  0  0  0  0  0  0  0  0  0  0
    4.1080   -0.0811   -0.8211 H   0  0  0  0  0  0  0  0  0  0  0  0
    3.0983    3.3386    0.5380 H   0  0  0  0  0  0  0  0  0  0  0  0
    3.6062    2.9824   -1.1043 H   0  0  0  0  0  0  0  0  0  0  0  0
    5.5927    2.0703   -0.4518 H   0  0  0  0  0  0  0  0  0  0  0  0
    5.3093    2.8892    1.0969 H   0  0  0  0  0  0  0  0  0  0  0  0
    3.6106   -1.9448    0.5430 H   0  0  0  0  0  0  0  0  0  0  0  0
   -0.0727    2.1199   -1.9758 H   0  0  0  0  0  0  0  0  0  0  0  0
    0.9103    3.0466   -0.8734 H   0  0  0  0  0  0  0  0  0  0  0  0
    2.5924    2.1806   -2.7680 H   0  0  0  0  0  0  0  0  0  0  0  0
    1.5740    0.9000   -3.3781 H   0  0  0  0  0  0  0  0  0  0  0  0
    3.1446    0.5007   -2.6998 H   0  0  0  0  0  0  0  0  0  0  0  0
    5.8258   -1.0061    1.6188 H   0  0  0  0  0  0  0  0  0  0  0  0
    6.7621    0.4778    1.7082 H   0  0  0  0  0  0  0  0  0  0  0  0
    6.4076   -0.2417    0.1244 H   0  0  0  0  0  0  0  0  0  0  0  0
    4.9505    1.4355    2.8824 H   0  0  0  0  0  0  0  0  0  0  0  0
   -0.8845    0.6688   -0.0151 H   0  0  0  0  0  0  0  0  0  0  0  0
    0.0674    1.6586    1.0555 H   0  0  0  0  0  0  0  0  0  0  0  0
    1.7333   -0.4059    2.0277 H   0  0  0  0  0  0  0  0  0  0  0  0
   -1.1940    3.6831    0.4245 H   0  0  0  0  0  0  0  0  0  0  0  0
    1.5124   -4.5081    0.6017 H   0  0  0  0  0  0  0  0  0  0  0  0
   -1.7754   -4.3915   -0.4171 H   0  0  0  0  0  0  0  0  0  0  0  0
   -0.3058   -5.1115    0.2020 H   0  0  0  0  0  0  0  0  0  0  0  0
   -0.5762   -5.0461   -1.5473 H   0  0  0  0  0  0  0  0  0  0  0  0
   -2.8892    0.4728   -0.7400 H   0  0  0  0  0  0  0  0  0  0  0  0
   -4.4314    1.2677   -0.7660 H   0  0  0  0  0  0  0  0  0  0  0  0
   -3.0427    0.3154    1.7949 H   0  0  0  0  0  0  0  0  0  0  0  0
   -4.6275    1.0438    1.7249 H   0  0  0  0  0  0  0  0  0  0  0  0
   -3.8942    5.5318   -0.1307 H   0  0  0  0  0  0  0  0  0  0  0  0
   -5.5288   -0.8351    0.3491 H   0  0  0  0  0  0  0  0  0  0  0  0
   -5.3279   -3.8683    1.8712 H   0  0  0  0  0  0  0  0  0  0  0  0
   -2.3732   -3.1958    1.6498 H   0  0  0  0  0  0  0  0  0  0  0  0
   -2.3127   -1.5521    2.2569 H   0  0  0  0  0  0  0  0  0  0  0  0
   -5.9056   -3.1030    0.3862 H   0  0  0  0  0  0  0  0  0  0  0  0
   -4.4061   -4.0382    0.3606 H   0  0  0  0  0  0  0  0  0  0  0  0
   -3.2539   -2.7686    3.1265 H   0  0  0  0  0  0  0  0  0  0  0  0
  1 11  1  0  0  0  0
  1 50  1  0  0  0  0
  2 14  1  0  0  0  0
  2 53  1  0  0  0  0
  3 22  1  0  0  0  0
  3 55  1  0  0  0  0
  4 20  2  0  0  0  0
  5 24  2  0  0  0  0
  6 29  1  0  0  0  0
  6 63  1  0  0  0  0
  7 29  2  0  0  0  0
  8  9  1  0  0  0  0
  8 10  1  0  0  0  0
  8 12  1  0  0  0  0
  8 35  1  0  0  0  0
  9 11  1  0  0  0  0
  9 14  1  0  0  0  0
  9 36  1  0  0  0  0
 10 15  1  0  0  0  0
 10 17  1  0  0  0  0
 10 18  1  0  0  0  0
 11 13  1  0  0  0  0
 11 19  1  0  0  0  0
 12 13  1  0  0  0  0
 12 37  1  0  0  0  0
 12 38  1  0  0  0  0
 13 39  1  0  0  0  0
 13 40  1  0  0  0  0
 14 16  1  0  0  0  0
 14 41  1  0  0  0  0
 15 16  2  0  0  0  0
 15 20  1  0  0  0  0
 16 22  1  0  0  0  0
 17 21  1  0  0  0  0
 17 42  1  0  0  0  0
 17 43  1  0  0  0  0
 18 44  1  0  0  0  0
 18 45  1  0  0  0  0
 18 46  1  0  0  0  0
 19 47  1  0  0  0  0
 19 48  1  0  0  0  0
 19 49  1  0  0  0  0
 20 24  1  0  0  0  0
 21 25  1  0  0  0  0
 21 51  1  0  0  0  0
 21 52  1  0  0  0  0
 22 23  2  0  0  0  0
 23 24  1  0  0  0  0
 23 26  1  0  0  0  0
 25 27  2  0  0  0  0
 25 54  1  0  0  0  0
 26 56  1  0  0  0  0
 26 57  1  0  0  0  0
 26 58  1  0  0  0  0
 27 28  1  0  0  0  0
 27 29  1  0  0  0  0
 28 30  1  0  0  0  0
 28 59  1  0  0  0  0
 28 60  1  0  0  0  0
 30 31  1  0  0  0  0
 30 61  1  0  0  0  0
 30 62  1  0  0  0  0
 31 32  2  0  0  0  0
 31 64  1  0  0  0  0
 32 33  1  0  0  0  0
 32 34  1  0  0  0  0
 33 66  1  0  0  0  0
 33 67  1  0  0  0  0
 33 70  1  0  0  0  0
 34 65  1  0  0  0  0
 34 68  1  0  0  0  0
 34 69  1  0  0  0  0
M  END
> <PUBCHEM_COMPOUND_CID>
100935408

> <PUBCHEM_CONFORMER_RMSD>
1

> <PUBCHEM_CONFORMER_DIVERSEORDER>
1
13
29
101
104
84
170
126
46
69
125
67
150
108
90
110
144
47
123
30
167
73
25
109
174
4
17
176
138
40
121
119
19
54
114
97
42
165
9
11
64
71
75
43
152
160
21
103
118
155
20
100
127
86
39
145
65
173
10
162
72
128
74
63
15
163
80
91
92
171
178
3
111
169
66
48
113
87
52
172
33
129
131
93
130
151
59
44
81
117
49
2
120
149
143
34
62
153
32
146
116
51
175
135
16
31
132
61
106
156
102
24
139
98
45
164
12
107
38
157
50
18
141
79
140
115
60
89
85
94
177
28
142
105
134
26
124
37
148
14
159
55
83
82
7
122
147
78
88
35
77
5
154
68
22
136
99
36
133
95
168
57
70
166
137
8
58
96
41
158
112
53
76
23
161
6
27
56

> <PUBCHEM_MMFF94_PARTIAL_CHARGES>
33
1 -0.68
10 0.14
11 0.28
14 0.42
15 -0.12
16 -0.14
2 -0.68
20 0.56
21 0.14
22 0.08
23 -0.12
24 0.56
25 -0.29
26 0.14
27 -0.12
28 0.14
29 0.71
3 -0.53
30 0.14
31 -0.29
32 -0.28
33 0.14
34 0.14
4 -0.57
5 -0.57
50 0.4
53 0.4
54 0.15
55 0.45
6 -0.65
63 0.5
64 0.15
7 -0.57

> <PUBCHEM_EFFECTIVE_ROTOR_COUNT>
8

> <PUBCHEM_PHARMACOPHORE_FEATURES>
15
1 1 acceptor
1 1 donor
1 2 acceptor
1 2 donor
1 3 donor
1 4 acceptor
1 5 acceptor
1 6 acceptor
1 7 acceptor
3 32 33 34 hydrophobe
3 6 7 29 anion
4 27 28 30 31 hydrophobe
5 8 9 11 12 13 rings
6 15 16 20 22 23 24 rings
6 8 9 10 14 15 16 rings

> <PUBCHEM_HEAVY_ATOM_COUNT>
34

> <PUBCHEM_ATOM_DEF_STEREO_COUNT>
3

> <PUBCHEM_ATOM_UDEF_STEREO_COUNT>
2

> <PUBCHEM_BOND_DEF_STEREO_COUNT>
1

> <PUBCHEM_BOND_UDEF_STEREO_COUNT>
0

> <PUBCHEM_ISOTOPIC_ATOM_COUNT>
0

> <PUBCHEM_COMPONENT_COUNT>
1

> <PUBCHEM_CACTVS_TAUTO_COUNT>
8

> <PUBCHEM_CONFORMER_ID>
060426F000000001

> <PUBCHEM_MMFF94_ENERGY>
89.2221

> <PUBCHEM_FEATURE_SELFOVERLAP>
76.283

> <PUBCHEM_SHAPE_FINGERPRINT>
1100329 8 17690568906540870087
11513181 2 18129938983854258175
12422481 6 18339630141297026802
12633257 1 17827071810255197499
12788726 201 18047490094526945044
12930653 34 18411140199628332965
131258 38 16960132588412064466
13140716 1 17834957851099225972
14178342 30 18334867082341766349
14866123 147 18341037576410231646
14955137 171 18334016099344206934
16728300 4 18114450262612279875
17357779 13 13045934720464047284
21033648 29 18130494271944388120
21796203 349 17397307130963382905
21857420 4 13662759416385835539
23559900 14 18050294665221384397
392239 28 18337396049189865107
4403749 210 18337940260528807488
463206 1 17900552482126187579
469060 322 18057600078776058215
5171179 24 18198920114356363279
56638632 33 17467923969220689802
6004065 56 18196374939334540395
653340 110 18411142441706698409
9896288 288 18341898446385096432
9981440 41 18341326696259540985

> <PUBCHEM_SHAPE_MULTIPOLES>
658.62
10.35
5.55
2
0.99
0.75
-0.53
3.17
6.75
-7.01
-0.07
0.58
-0.73
0.26

> <PUBCHEM_SHAPE_SELFOVERLAP>
1388.754

> <PUBCHEM_SHAPE_VOLUME>
368.2

> <PUBCHEM_COORDINATE_TYPE>
2
5
10

$$$$
