REMARK  Name = 100925468
REMARK  6 active torsions:
REMARK  status: ('A' for Active; 'I' for Inactive)
REMARK    1  A    between atoms: C_8  and  O_21
REMARK    2  A    between atoms: C_9  and  O_23
REMARK    3  A    between atoms: C_10  and  O_25
REMARK    4  A    between atoms: C_10  and  O_29
REMARK    5  A    between atoms: C_15  and  C_27
REMARK    6  A    between atoms: O_29  and  C_31
REMARK                            x       y       z     vdW  Elec       q    Type
REMARK                         _______ _______ _______ _____ _____    ______ ____
ROOT
ATOM      1  O   UNL     1       2.102  -0.855  -0.748  0.00  0.00    -0.352 OA
ATOM      2  O   UNL     1      -0.083  -1.787   1.810  0.00  0.00    -0.294 OA
ATOM      3  C   UNL     1       0.697   0.945   0.296  0.00  0.00    +0.057 C 
ATOM      4  C   UNL     1      -0.713   1.535  -0.160  0.00  0.00    +0.038 C 
ATOM      5  C   UNL     1       0.802  -0.604  -0.145  0.00  0.00    +0.151 C 
ATOM      6  C   UNL     1      -0.967   3.058   0.142  0.00  0.00    +0.003 C 
ATOM      7  C   UNL     1      -0.281  -0.994  -1.194  0.00  0.00    +0.098 C 
ATOM      8  C   UNL     1      -1.880   0.568   0.138  0.00  0.00    +0.174 C 
ATOM      9  C   UNL     1       1.775   1.849  -0.407  0.00  0.00    +0.113 C 
ATOM     10  C   UNL     1      -1.742  -0.727  -0.714  0.00  0.00    +0.256 C 
ATOM     11  C   UNL     1       0.214   3.879  -0.446  0.00  0.00    +0.003 C 
ATOM     12  C   UNL     1       1.606   3.349  -0.109  0.00  0.00    +0.029 C 
ATOM     13  C   UNL     1       0.982   1.046   1.821  0.00  0.00    +0.005 C 
ATOM     14  C   UNL     1       0.812  -1.628   0.989  0.00  0.00    +0.178 C 
ATOM     15  C   UNL     1       2.935  -1.719   0.042  0.00  0.00    +0.119 C 
ATOM     16  C   UNL     1      -2.241   3.542  -0.606  0.00  0.00    +0.000 C 
ATOM     17  C   UNL     1      -1.193   3.413   1.621  0.00  0.00    +0.000 C 
ATOM     18  C   UNL     1       2.018  -2.502   0.962  0.00  0.00    +0.098 C 
ATOM     19  C   UNL     1      -0.103  -2.404  -1.790  0.00  0.00    +0.009 C 
ATOM     20  C   UNL     1       3.691  -2.643  -0.914  0.00  0.00    +0.035 C 
ENDROOT
BRANCH   8  21
ATOM     21  O   UNL     1      -1.944   0.278   1.526  0.00  0.00    -0.379 OA
ATOM     22  H   UNL     1      -2.030   1.105   2.026  0.00  0.00    +0.211 HD
ENDBRANCH   8  21
BRANCH   9  23
ATOM     23  O   UNL     1       1.726   1.666  -1.824  0.00  0.00    -0.384 OA
ATOM     24  H   UNL     1       1.831   0.724  -2.032  0.00  0.00    +0.210 HD
ENDBRANCH   9  23
BRANCH  10  25
ATOM     25  O   UNL     1      -2.516  -0.559  -1.914  0.00  0.00    -0.353 OA
ATOM     26  H   UNL     1      -2.443  -1.358  -2.460  0.00  0.00    +0.214 HD
ENDBRANCH  10  25
BRANCH  15  27
ATOM     27  C   UNL     1       3.942  -0.895   0.791  0.00  0.00    +0.001 C 
ATOM     28  C   UNL     1       4.858  -0.118   0.204  0.00  0.00    -0.003 C 
ENDBRANCH  15  27
BRANCH  10  29
ATOM     29  O   UNL     1      -2.299  -1.812   0.022  0.00  0.00    -0.428 OA
BRANCH  29  31
ATOM     30  O   UNL     1      -4.429  -1.021  -0.394  0.00  0.00    -0.250 OA
ATOM     31  C   UNL     1      -3.663  -1.836   0.102  0.00  0.00    +0.319 C 
ATOM     32  C   UNL     1      -4.104  -3.025   0.900  0.00  0.00    +0.121 C 
ENDBRANCH  29  31
ENDBRANCH  10  29
TORSDOF 6
