100915138
  -OEChem-03292013293D

 34 35  0     1  0  0  0  0  0999 V2000
   -0.9973    0.1496    1.1776 O   0  0  0  0  0  0  0  0  0  0  0  0
   -2.4760    2.6512    0.4392 O   0  0  0  0  0  0  0  0  0  0  0  0
   -0.2667    2.7731   -1.1555 O   0  0  0  0  0  0  0  0  0  0  0  0
   -3.7580   -0.8549   -0.9871 O   0  0  0  0  0  0  0  0  0  0  0  0
   -2.9279   -3.3715   -0.0885 O   0  0  0  0  0  0  0  0  0  0  0  0
    2.5383    2.1189    0.5220 O   0  0  0  0  0  0  0  0  0  0  0  0
    1.1545    0.2886    0.2748 N   0  0  0  0  0  0  0  0  0  0  0  0
    3.5530    0.1473    0.0373 N   0  0  0  0  0  0  0  0  0  0  0  0
    4.5864   -1.8757   -0.4600 N   0  0  0  0  0  0  0  0  0  0  0  0
   -2.2825    0.2744    0.5298 C   0  0  1  0  0  0  0  0  0  0  0  0
   -2.1836    1.5056   -0.3605 C   0  0  2  0  0  0  0  0  0  0  0  0
   -0.7210    1.4977   -0.7516 C   0  0  2  0  0  0  0  0  0  0  0  0
   -0.0555    1.0180    0.5268 C   0  0  1  0  0  0  0  0  0  0  0  0
   -2.5497   -1.0090   -0.2451 C   0  0  1  0  0  0  0  0  0  0  0  0
   -2.7101   -2.1998    0.6903 C   0  0  0  0  0  0  0  0  0  0  0  0
    1.0713   -1.0703    0.0089 C   0  0  0  0  0  0  0  0  0  0  0  0
    2.4279    0.9137    0.2895 C   0  0  0  0  0  0  0  0  0  0  0  0
    2.1410   -1.8245   -0.2361 C   0  0  0  0  0  0  0  0  0  0  0  0
    3.4559   -1.1323   -0.2117 C   0  0  0  0  0  0  0  0  0  0  0  0
   -3.0422    0.4130    1.3083 H   0  0  0  0  0  0  0  0  0  0  0  0
   -2.8577    1.5233   -1.2209 H   0  0  0  0  0  0  0  0  0  0  0  0
   -0.5635    0.7962   -1.5798 H   0  0  0  0  0  0  0  0  0  0  0  0
    0.1591    1.8554    1.2016 H   0  0  0  0  0  0  0  0  0  0  0  0
   -1.7657   -1.2176   -0.9787 H   0  0  0  0  0  0  0  0  0  0  0  0
   -1.8205   -2.3577    1.3068 H   0  0  0  0  0  0  0  0  0  0  0  0
   -3.5818   -2.0716    1.3407 H   0  0  0  0  0  0  0  0  0  0  0  0
   -3.4144    2.5997    0.6891 H   0  0  0  0  0  0  0  0  0  0  0  0
    0.6918    2.7075   -1.3045 H   0  0  0  0  0  0  0  0  0  0  0  0
    0.1019   -1.5409   -0.0007 H   0  0  0  0  0  0  0  0  0  0  0  0
   -3.9218   -1.6909   -1.4563 H   0  0  0  0  0  0  0  0  0  0  0  0
    2.0827   -2.8845   -0.4439 H   0  0  0  0  0  0  0  0  0  0  0  0
   -3.0317   -4.1117    0.5335 H   0  0  0  0  0  0  0  0  0  0  0  0
    4.5439   -2.8702   -0.6564 H   0  0  0  0  0  0  0  0  0  0  0  0
    5.5046   -1.4447   -0.4535 H   0  0  0  0  0  0  0  0  0  0  0  0
  1 10  1  0  0  0  0
  1 13  1  0  0  0  0
  2 11  1  0  0  0  0
  2 27  1  0  0  0  0
  3 12  1  0  0  0  0
  3 28  1  0  0  0  0
  4 14  1  0  0  0  0
  4 30  1  0  0  0  0
  5 15  1  0  0  0  0
  5 32  1  0  0  0  0
  6 17  2  0  0  0  0
  7 13  1  0  0  0  0
  7 16  1  0  0  0  0
  7 17  1  0  0  0  0
  8 17  1  0  0  0  0
  8 19  2  0  0  0  0
  9 19  1  0  0  0  0
  9 33  1  0  0  0  0
  9 34  1  0  0  0  0
 10 11  1  0  0  0  0
 10 14  1  0  0  0  0
 10 20  1  0  0  0  0
 11 12  1  0  0  0  0
 11 21  1  0  0  0  0
 12 13  1  0  0  0  0
 12 22  1  0  0  0  0
 13 23  1  0  0  0  0
 14 15  1  0  0  0  0
 14 24  1  0  0  0  0
 15 25  1  0  0  0  0
 15 26  1  0  0  0  0
 16 18  2  0  0  0  0
 16 29  1  0  0  0  0
 18 19  1  0  0  0  0
 18 31  1  0  0  0  0
M  END
> <PUBCHEM_COMPOUND_CID>
100915138

> <PUBCHEM_CONFORMER_RMSD>
0.6

> <PUBCHEM_CONFORMER_DIVERSEORDER>
1
24
42
16
41
29
47
14
3
20
25
44
33
32
13
26
18
37
5
9
46
38
45
43
31
10
36
17
30
39
21
12
6
7
27
22
19
23
40
4
2
35
15
34
28
11
8

> <PUBCHEM_MMFF94_PARTIAL_CHARGES>
27
1 -0.56
10 0.28
11 0.28
12 0.28
13 0.58
14 0.28
15 0.28
16 -0.04
17 0.84
18 -0.14
19 0.49
2 -0.68
27 0.4
28 0.4
29 0.15
3 -0.68
30 0.4
31 0.15
32 0.4
33 0.4
34 0.4
4 -0.68
5 -0.68
6 -0.57
7 -0.47
8 -0.66
9 -0.85

> <PUBCHEM_EFFECTIVE_ROTOR_COUNT>
4

> <PUBCHEM_PHARMACOPHORE_FEATURES>
14
1 1 acceptor
1 2 acceptor
1 2 donor
1 3 acceptor
1 3 donor
1 4 acceptor
1 4 donor
1 5 acceptor
1 5 donor
1 6 acceptor
1 8 donor
1 9 donor
5 1 10 11 12 13 rings
6 7 8 16 17 18 19 rings

> <PUBCHEM_HEAVY_ATOM_COUNT>
19

> <PUBCHEM_ATOM_DEF_STEREO_COUNT>
5

> <PUBCHEM_ATOM_UDEF_STEREO_COUNT>
0

> <PUBCHEM_BOND_DEF_STEREO_COUNT>
0

> <PUBCHEM_BOND_UDEF_STEREO_COUNT>
0

> <PUBCHEM_ISOTOPIC_ATOM_COUNT>
0

> <PUBCHEM_COMPONENT_COUNT>
1

> <PUBCHEM_CACTVS_TAUTO_COUNT>
3

> <PUBCHEM_CONFORMER_ID>
0603D7C200000001

> <PUBCHEM_MMFF94_ENERGY>
57.6083

> <PUBCHEM_FEATURE_SELFOVERLAP>
71.118

> <PUBCHEM_SHAPE_FINGERPRINT>
10616163 171 18412547578527837510
10967382 1 17762338415241191338
12500047 106 18192712250188015100
12553582 1 18335419015366379002
12969540 114 17824810149735197365
14181834 199 17244418930407618124
14223421 5 18341610464273891098
14251705 54 17976262653316826579
14787075 74 16838255001490384817
14965852 173 18340771442381196296
15375462 6 18339359776999400604
16945 1 18340208616960799097
19141452 34 18413114948503155771
200 152 17917701379609418855
20871999 31 18261383396131787365
21452121 199 18049149262042046219
21501502 16 18410013200120328224
221490 88 18411986892522938242
23402539 116 17386574544550605364
23557571 272 18267562706956040080
23559900 14 18340759416625858904
238 59 15441540445851431077
2748010 2 18409723001864306464
2871803 45 18408597080578008183
46194498 28 17536849420346701615
5104073 3 18342454808064024818
69090 78 18192993716907392793
74978 22 18340486643152630680
81228 2 18260828202778772929
8809292 202 18338239250007006994
9709674 26 18413668010914496775

> <PUBCHEM_SHAPE_MULTIPOLES>
340.85
6.63
3.18
0.88
3.87
0.4
0.02
3.66
0.65
-1.79
0.28
-0.32
-0.17
0.45

> <PUBCHEM_SHAPE_SELFOVERLAP>
715.801

> <PUBCHEM_SHAPE_VOLUME>
191.3

> <PUBCHEM_COORDINATE_TYPE>
2
5
10

$$$$
