REMARK  Name = 100998144
REMARK  17 active torsions:
REMARK  status: ('A' for Active; 'I' for Inactive)
REMARK    1  A    between atoms: N_2  and  C_22
REMARK    2  A    between atoms: C_3  and  C_11
REMARK    3  A    between atoms: N_10  and  CA_13
REMARK    4  A    between atoms: CA_13  and  C_15
REMARK    5  A    between atoms: CA_13  and  CB_18
REMARK    6  A    between atoms: C_15  and  O_16
REMARK    7  A    between atoms: CB_18  and  CG_19
REMARK    8  A    between atoms: CG_19  and  SD_20
REMARK    9  A    between atoms: C_22  and  C_23
REMARK   10  A    between atoms: C_23  and  N_24
REMARK   11  A    between atoms: C_23  and  C_36
REMARK   12  A    between atoms: N_24  and  C_27
REMARK   13  A    between atoms: C_27  and  C_28
REMARK   14  A    between atoms: C_28  and  N_29
REMARK   15  A    between atoms: C_28  and  C_33
REMARK   16  A    between atoms: C_33  and  S_34
REMARK   17  A    between atoms: C_36  and  C_38
REMARK                            x       y       z     vdW  Elec       q    Type
REMARK                         _______ _______ _______ _____ _____    ______ ____
ROOT
ATOM      1  S   UNL     1       0.346   3.576  -1.602  0.00  0.00    -0.167 S 
ATOM      2  N   UNL     1      -0.658   1.777   0.070  0.00  0.00    +0.400 N 
ATOM      3  C   UNL     1       0.800   1.732   0.269  0.00  0.00    +0.031 C 
ATOM      4  C   UNL     1       1.332   3.134  -0.121  0.00  0.00    +0.028 C 
ATOM      5  C   UNL     1      -0.941   2.339  -1.249  0.00  0.00    -0.017 C 
ATOM      6  C   UNL     1       2.827   3.169  -0.442  0.00  0.00    +0.009 C 
ATOM      7  C   UNL     1       1.021   4.166   0.978  0.00  0.00    +0.009 C 
ATOM      8  H   UNL     1      -1.037   2.390   0.792  0.00  0.00    -0.078 HD
ENDROOT
BRANCH   3  11
ATOM      9  O   UNL     1       1.317   0.552  -1.748  0.00  0.00    -0.277 OA
ATOM     10  N   UNL     1       2.015  -0.338   0.287  0.00  0.00    -0.298 N 
ATOM     11  C   ACE A   0       1.402   0.602  -0.524  0.00  0.00    +0.204 C 
ATOM     12  H   UNL     1       2.019  -0.186   1.260  0.00  0.00    +0.150 HD
BRANCH  10  13
ATOM     13  CA  UNL     1       2.650  -1.531  -0.226  0.00  0.00    +0.172 C 
BRANCH  13  15
ATOM     14  OXT UNL     1       2.856  -3.854   0.422  0.00  0.00    -0.248 OA
ATOM     15  C   UNL     1       2.482  -2.722   0.706  0.00  0.00    +0.332 C 
BRANCH  15  16
ATOM     16  O   UNL     1       1.831  -2.443   1.861  0.00  0.00    -0.479 OA
ATOM     17  H   UNL     1       1.559  -1.566   2.046  0.00  0.00    +0.295 HD
ENDBRANCH  15  16
ENDBRANCH  13  15
BRANCH  13  18
ATOM     18  CB  UNL     1       4.121  -1.280  -0.584  0.00  0.00    +0.043 C 
BRANCH  18  19
ATOM     19  CG  UNL     1       5.015  -1.034   0.634  0.00  0.00    +0.060 C 
BRANCH  19  20
ATOM     20  SD  UNL     1       6.730  -0.741   0.110  0.00  0.00    -0.139 S 
ATOM     21  CE  UNL     1       6.575   1.007  -0.322  0.00  0.00    +0.069 C 
ENDBRANCH  19  20
ENDBRANCH  18  19
ENDBRANCH  13  18
ENDBRANCH  10  13
ENDBRANCH   3  11
BRANCH   2  22
ATOM     22  C   UNL     1      -1.369   0.537   0.333  0.00  0.00    -0.097 C 
BRANCH  22  23
ATOM     23  C   UNL     1      -2.897   0.670   0.178  0.00  0.00    -0.083 C 
BRANCH  23  24
ATOM     24  N   UNL     1      -3.471  -0.674   0.344  0.00  0.00    +0.382 N 
ATOM     25  H   UNL     1      -4.458  -0.591   0.589  0.00  0.00    -0.085 HD
ATOM     26  H   UNL     1      -2.967  -1.161   1.085  0.00  0.00    -0.085 HD
BRANCH  24  27
ATOM     27  C   UNL     1      -3.347  -1.433  -0.886  0.00  0.00    -0.103 C 
BRANCH  27  28
ATOM     28  C   UNL     1      -4.017  -2.814  -0.777  0.00  0.00    -0.077 C 
BRANCH  28  29
ATOM     29  N   UNL     1      -4.006  -3.447  -2.102  0.00  0.00    +0.381 N 
ATOM     30  H   UNL     1      -4.406  -2.807  -2.788  0.00  0.00    -0.089 HD
ATOM     31  H   UNL     1      -4.559  -4.304  -2.073  0.00  0.00    -0.089 HD
ATOM     32  H   UNL     1      -3.046  -3.671  -2.364  0.00  0.00    -0.089 HD
ENDBRANCH  28  29
BRANCH  28  33
ATOM     33  C   UNL     1      -3.418  -3.756   0.285  0.00  0.00    +0.030 C 
BRANCH  33  34
ATOM     34  S   UNL     1      -1.675  -4.214   0.021  0.00  0.00    -0.170 S 
ATOM     35  H   UNL     1      -1.268  -5.043   1.019  0.00  0.00    +0.102 HD
ENDBRANCH  33  34
ENDBRANCH  28  33
ENDBRANCH  27  28
ENDBRANCH  24  27
ENDBRANCH  23  24
BRANCH  23  36
ATOM     36  C   UNL     1      -3.614   1.652   1.155  0.00  0.00    -0.021 C 
ATOM     37  C   UNL     1      -3.361   1.292   2.624  0.00  0.00    -0.002 C 
BRANCH  36  38
ATOM     38  C   UNL     1      -5.124   1.803   0.863  0.00  0.00    -0.002 C 
ATOM     39  C   UNL     1      -5.422   2.273  -0.555  0.00  0.00    -0.000 C 
ENDBRANCH  36  38
ENDBRANCH  23  36
ENDBRANCH  22  23
ENDBRANCH   2  22
TORSDOF 17
