REMARK  Name = 100917959
REMARK  16 active torsions:
REMARK  status: ('A' for Active; 'I' for Inactive)
REMARK    1  A    between atoms: C_1  and  C_3
REMARK    2  A    between atoms: C_1  and  C_16
REMARK    3  A    between atoms: C_1  and  C_28
REMARK    4  A    between atoms: C_3  and  C_4
REMARK    5  A    between atoms: C_4  and  C_5
REMARK    6  A    between atoms: C_4  and  C_13
REMARK    7  A    between atoms: C_5  and  O_6
REMARK    8  A    between atoms: C_5  and  C_8
REMARK    9  A    between atoms: C_8  and  C_10
REMARK   10  A    between atoms: C_10  and  C_11
REMARK   11  A    between atoms: C_13  and  O_14
REMARK   12  A    between atoms: C_16  and  C_18
REMARK   13  A    between atoms: C_16  and  O_26
REMARK   14  A    between atoms: C_19  and  C_21
REMARK   15  A    between atoms: C_21  and  C_23
REMARK   16  A    between atoms: C_28  and  O_29
REMARK                            x       y       z     vdW  Elec       q    Type
REMARK                         _______ _______ _______ _____ _____    ______ ____
ROOT
ATOM      1  C   UNL     1       0.420  -0.011  -0.085  0.00  0.00    +0.116 C 
ENDROOT
BRANCH   1   3
ATOM      2  O   UNL     1      -1.256  -0.625  -1.724  0.00  0.00    -0.296 OA
ATOM      3  C   UNL     1      -1.005  -0.335  -0.554  0.00  0.00    +0.160 C 
BRANCH   3   4
ATOM      4  C   UNL     1      -2.111  -0.280   0.512  0.00  0.00    +0.114 C 
BRANCH   4   5
ATOM      5  C   UNL     1      -3.439   0.190  -0.118  0.00  0.00    +0.127 C 
BRANCH   5   6
ATOM      6  O   UNL     1      -3.185   1.458  -0.739  0.00  0.00    -0.383 OA
ATOM      7  H   UNL     1      -2.480   1.360  -1.398  0.00  0.00    +0.210 HD
ENDBRANCH   5   6
BRANCH   5   8
ATOM      8  C   UNL     1      -4.554   0.383   0.912  0.00  0.00    +0.094 C 
BRANCH   8  10
ATOM      9  O   UNL     1      -6.015   0.407  -0.985  0.00  0.00    -0.296 OA
ATOM     10  C   UNL     1      -5.913   0.477   0.240  0.00  0.00    +0.153 C 
BRANCH  10  11
ATOM     11  C   UNL     1      -7.116   0.632   1.155  0.00  0.00    +0.065 C 
ATOM     12  C   UNL     1      -8.426   0.692   0.389  0.00  0.00    +0.008 C 
ENDBRANCH  10  11
ENDBRANCH   8  10
ENDBRANCH   5   8
ENDBRANCH   4   5
BRANCH   4  13
ATOM     13  C   UNL     1      -2.174  -1.649   1.200  0.00  0.00    +0.147 C 
BRANCH  13  14
ATOM     14  O   UNL     1      -2.916  -2.587   0.431  0.00  0.00    -0.381 OA
ATOM     15  H   UNL     1      -2.937  -3.439   0.893  0.00  0.00    +0.210 HD
ENDBRANCH  13  14
ENDBRANCH   4  13
ENDBRANCH   3   4
ENDBRANCH   1   3
BRANCH   1  16
ATOM     16  C   UNL     1       1.506  -0.798  -0.851  0.00  0.00    +0.147 C 
BRANCH  16  18
ATOM     17  O   UNL     1       3.962  -0.921  -0.980  0.00  0.00    -0.353 OA
ATOM     18  C   UNL     1       2.816  -0.842  -0.116  0.00  0.00    +0.143 C 
ATOM     19  C   UNL     1       3.780   0.318  -0.281  0.00  0.00    +0.146 C 
ATOM     20  C   UNL     1       2.885  -1.750   1.072  0.00  0.00    +0.035 C 
BRANCH  19  21
ATOM     21  C   UNL     1       4.849   0.641   0.701  0.00  0.00    +0.051 C 
ATOM     22  C   UNL     1       4.312   1.471   1.862  0.00  0.00    +0.007 C 
BRANCH  21  23
ATOM     23  C   UNL     1       6.029   1.332   0.022  0.00  0.00    -0.029 C 
ATOM     24  C   UNL     1       7.283   0.857   0.008  0.00  0.00    -0.030 C 
ATOM     25  C   UNL     1       7.695  -0.422   0.659  0.00  0.00    +0.030 C 
ENDBRANCH  21  23
ENDBRANCH  19  21
ENDBRANCH  16  18
BRANCH  16  26
ATOM     26  O   UNL     1       1.076  -2.125  -1.142  0.00  0.00    -0.381 OA
ATOM     27  H   UNL     1       1.777  -2.594  -1.622  0.00  0.00    +0.210 HD
ENDBRANCH  16  26
ENDBRANCH   1  16
BRANCH   1  28
ATOM     28  C   UNL     1       0.621   1.510  -0.136  0.00  0.00    +0.147 C 
BRANCH  28  29
ATOM     29  O   UNL     1       0.876   1.980  -1.452  0.00  0.00    -0.381 OA
ATOM     30  H   UNL     1       0.996   2.942  -1.434  0.00  0.00    +0.210 HD
ENDBRANCH  28  29
ENDBRANCH   1  28
TORSDOF 16
