REMARK  Name = 10090881
REMARK  12 active torsions:
REMARK  status: ('A' for Active; 'I' for Inactive)
REMARK    1  A    between atoms: N_2  and  CA_20
REMARK    2  A    between atoms: C_3  and  CA_5
REMARK    3  A    between atoms: CA_5  and  N_7
REMARK    4  A    between atoms: CA_5  and  CB_13
REMARK    5  A    between atoms: C_8  and  C_10
REMARK    6  A    between atoms: CB_13  and  CG_14
REMARK    7  A    between atoms: CA_20  and  C_22
REMARK    8  A    between atoms: CA_20  and  CB_23
REMARK    9  A    between atoms: CB_23  and  CG_24
REMARK   10  A    between atoms: CG_24  and  CD_25
REMARK   11  A    between atoms: CD_25  and  NE_26
REMARK   12  A    between atoms: NE_26  and  CZ_29
REMARK                            x       y       z     vdW  Elec       q    Type
REMARK                         _______ _______ _______ _____ _____    ______ ____
ROOT
ATOM      1  O   UNL     1       0.156  -0.496  -2.470  0.00  0.00    -0.273 OA
ATOM      2  N   UNL     1       0.494  -1.787  -0.569  0.00  0.00    -0.298 N 
ATOM      3  C   UNL     1      -0.187  -0.855  -1.346  0.00  0.00    +0.241 C 
ATOM      4  H   UNL     1       0.133  -2.004   0.321  0.00  0.00    +0.150 HD
ENDROOT
BRANCH   3   5
ATOM      5  CA  UNL     1      -1.397  -0.274  -0.622  0.00  0.00    +0.153 C 
BRANCH   5   7
ATOM      6  O   UNL     1      -0.056   1.925   0.659  0.00  0.00    -0.275 OA
ATOM      7  N   UNL     1      -1.481   1.119  -0.984  0.00  0.00    -0.298 N 
ATOM      8  C   ACE A   0      -0.795   2.117  -0.304  0.00  0.00    +0.222 C 
ATOM      9  H   UNL     1      -2.051   1.373  -1.746  0.00  0.00    +0.150 HD
BRANCH   8  10
ATOM     10  C   UNL     1      -1.057   3.506  -0.882  0.00  0.00    +0.077 C 
ATOM     11  C   UNL     1      -2.280   4.132  -0.214  0.00  0.00    +0.010 C 
ATOM     12  C   UNL     1       0.162   4.410  -0.717  0.00  0.00    +0.010 C 
ENDBRANCH   8  10
ENDBRANCH   5   7
BRANCH   5  13
ATOM     13  CB  UNL     1      -2.665  -1.048  -0.997  0.00  0.00    +0.055 C 
BRANCH  13  14
ATOM     14  CG  UNL     1      -3.789  -0.840  -0.011  0.00  0.00    -0.020 C 
ATOM     15  CD1 UNL     1      -3.920  -1.691   1.086  0.00  0.00    -0.004 C 
ATOM     16  CD2 UNL     1      -4.696   0.203  -0.198  0.00  0.00    -0.004 C 
ATOM     17  CE1 UNL     1      -4.958  -1.499   1.998  0.00  0.00    -0.000 C 
ATOM     18  CE2 UNL     1      -5.734   0.395   0.714  0.00  0.00    -0.000 C 
ATOM     19  CZ  UNL     1      -5.865  -0.456   1.812  0.00  0.00    -0.000 C 
ENDBRANCH  13  14
ENDBRANCH   5  13
ENDBRANCH   3   5
BRANCH   2  20
ATOM     20  CA  UNL     1       1.697  -2.450  -0.995  0.00  0.00    +0.137 C 
BRANCH  20  22
ATOM     21  O   UNL     1       2.649  -4.553  -0.281  0.00  0.00    -0.286 OA
ATOM     22  C   UNL     1       1.648  -3.864  -0.459  0.00  0.00    +0.227 C 
ENDBRANCH  20  22
BRANCH  20  23
ATOM     23  CB  UNL     1       2.972  -1.695  -0.609  0.00  0.00    +0.030 C 
BRANCH  23  24
ATOM     24  CG  UNL     1       3.164  -1.503   0.903  0.00  0.00    +0.029 C 
BRANCH  24  25
ATOM     25  CD  UNL     1       4.423  -0.703   1.228  0.00  0.00    +0.129 C 
BRANCH  25  26
ATOM     26  NE  UNL     1       4.337   0.628   0.625  0.00  0.00    -0.240 NA
BRANCH  26  29
ATOM     27  NH1 UNL     1       6.496   1.169   1.529  0.00  0.00    -0.370 N 
ATOM     28  NH2 UNL     1       5.340   2.689   0.285  0.00  0.00    -0.370 N 
ATOM     29  CZ  UNL     1       5.343   1.422   0.819  0.00  0.00    +0.189 C 
ATOM     30 HH11 UNL     1       6.624   0.295   1.963  0.00  0.00    +0.159 HD
ATOM     31 HH12 UNL     1       7.191   1.862   1.602  0.00  0.00    +0.159 HD
ATOM     32 HH21 UNL     1       4.571   2.997  -0.247  0.00  0.00    +0.159 HD
ATOM     33 HH22 UNL     1       6.106   3.289   0.435  0.00  0.00    +0.159 HD
ENDBRANCH  26  29
ENDBRANCH  25  26
ENDBRANCH  24  25
ENDBRANCH  23  24
ENDBRANCH  20  23
ENDBRANCH   2  20
TORSDOF 12
