REMARK  Name = 10092482
REMARK  6 active torsions:
REMARK  status: ('A' for Active; 'I' for Inactive)
REMARK    1  A    between atoms: C_13  and  C_32
REMARK    2  A    between atoms: C_14  and  O_21
REMARK    3  A    between atoms: C_16  and  O_23
REMARK    4  A    between atoms: C_17  and  O_29
REMARK    5  A    between atoms: C_19  and  O_25
REMARK    6  A    between atoms: C_20  and  O_27
REMARK                            x       y       z     vdW  Elec       q    Type
REMARK                         _______ _______ _______ _____ _____    ______ ____
ROOT
ATOM      1  O   UNL     1       0.071   1.055   2.201  0.00  0.00    -0.315 OA
ATOM      2  O   UNL     1       0.396  -1.225   1.512  0.00  0.00    -0.452 OA
ATOM      3  O   UNL     1      -0.370   2.947  -0.681  0.00  0.00    -0.289 OA
ATOM      4  C   UNL     1       0.691   1.611   1.042  0.00  0.00    +0.173 C 
ATOM      5  C   UNL     1      -0.541  -0.213   1.924  0.00  0.00    +0.253 C 
ATOM      6  C   UNL     1       1.632   0.586   0.446  0.00  0.00    +0.050 C 
ATOM      7  C   UNL     1      -1.626  -0.051   0.869  0.00  0.00    +0.080 C 
ATOM      8  C   UNL     1      -0.419   1.966   0.054  0.00  0.00    +0.201 C 
ATOM      9  C   UNL     1      -1.565   1.027  -0.031  0.00  0.00    +0.045 C 
ATOM     10  C   UNL     1       1.423  -0.773   0.722  0.00  0.00    +0.177 C 
ATOM     11  C   UNL     1       1.346   2.888   1.589  0.00  0.00    +0.042 C 
ATOM     12  C   UNL     1      -1.057  -0.644   3.305  0.00  0.00    +0.081 C 
ATOM     13  C   UNL     1       2.683   0.940  -0.412  0.00  0.00    +0.047 C 
ATOM     14  C   UNL     1      -2.677  -0.969   0.731  0.00  0.00    +0.172 C 
ATOM     15  C   UNL     1      -2.545   1.208  -1.012  0.00  0.00    +0.043 C 
ATOM     16  C   UNL     1       2.267  -1.751   0.191  0.00  0.00    +0.202 C 
ATOM     17  C   UNL     1      -3.655  -0.793  -0.251  0.00  0.00    +0.202 C 
ATOM     18  C   UNL     1       3.524  -0.038  -0.949  0.00  0.00    +0.043 C 
ATOM     19  C   UNL     1      -3.592   0.296  -1.116  0.00  0.00    +0.175 C 
ATOM     20  C   UNL     1       3.320  -1.381  -0.643  0.00  0.00    +0.175 C 
ENDROOT
BRANCH  14  21
ATOM     21  O   UNL     1      -2.759  -2.089   1.507  0.00  0.00    -0.503 OA
ATOM     22  H   UNL     1      -2.122  -2.243   2.176  0.00  0.00    +0.292 HD
ENDBRANCH  14  21
BRANCH  16  23
ATOM     23  O   UNL     1       2.060  -3.068   0.477  0.00  0.00    -0.501 OA
ATOM     24  H   UNL     1       1.353  -3.320   1.038  0.00  0.00    +0.292 HD
ENDBRANCH  16  23
BRANCH  19  25
ATOM     25  O   UNL     1      -4.541   0.474  -2.077  0.00  0.00    -0.468 OA
ATOM     26  C   UNL     1      -4.298  -0.127  -3.348  0.00  0.00    +0.253 C 
ENDBRANCH  19  25
BRANCH  20  27
ATOM     27  O   UNL     1       4.148  -2.323  -1.174  0.00  0.00    -0.468 OA
ATOM     28  C   UNL     1       3.779  -2.875  -2.436  0.00  0.00    +0.253 C 
ENDBRANCH  20  27
BRANCH  17  29
ATOM     29  O   UNL     1      -4.673  -1.695  -0.371  0.00  0.00    -0.501 OA
ATOM     30  H   UNL     1      -4.719  -2.429   0.209  0.00  0.00    +0.292 HD
ENDBRANCH  17  29
BRANCH  13  32
ATOM     31  O   UNL     1       4.042   2.720  -1.199  0.00  0.00    -0.283 OA
ATOM     32  C   UNL     1       2.939   2.299  -0.866  0.00  0.00    +0.234 C 
ENDBRANCH  13  32
TORSDOF 6
