REMARK  Name = 10091047
REMARK  5 active torsions:
REMARK  status: ('A' for Active; 'I' for Inactive)
REMARK    1  A    between atoms: C_4  and  C_15
REMARK    2  A    between atoms: C_5  and  O_27
REMARK    3  A    between atoms: C_7  and  O_29
REMARK    4  A    between atoms: C_20  and  O_23
REMARK    5  A    between atoms: C_21  and  O_25
REMARK                            x       y       z     vdW  Elec       q    Type
REMARK                         _______ _______ _______ _____ _____    ______ ____
ROOT
ATOM      1  O   UNL     1       1.091  -0.100  -0.891  0.00  0.00    -0.327 OA
ATOM      2  O   UNL     1       2.459   0.237   1.047  0.00  0.00    -0.331 OA
ATOM      3  C   UNL     1       2.417   0.155  -0.392  0.00  0.00    +0.234 C 
ATOM      4  C   UNL     1       0.522  -1.337  -0.448  0.00  0.00    +0.165 C 
ATOM      5  C   UNL     1       3.350  -0.995  -0.844  0.00  0.00    +0.193 C 
ATOM      6  C   UNL     1       1.373  -2.522  -0.914  0.00  0.00    +0.066 C 
ATOM      7  C   UNL     1       2.815  -2.373  -0.437  0.00  0.00    +0.145 C 
ATOM      8  C   UNL     1       2.860   1.458  -1.027  0.00  0.00    +0.027 C 
ATOM      9  C   UNL     1       1.885   1.438   1.568  0.00  0.00    +0.122 C 
ATOM     10  C   UNL     1       2.750   2.628   1.148  0.00  0.00    +0.055 C 
ATOM     11  C   UNL     1       3.032   2.583  -0.320  0.00  0.00    -0.023 C 
ATOM     12  C   UNL     1       1.821   1.310   3.083  0.00  0.00    +0.033 C 
ENDROOT
BRANCH   4  15
ATOM     13  O   UNL     1      -1.571  -2.557  -0.421  0.00  0.00    -0.442 OA
ATOM     14  O   UNL     1      -3.478  -2.944   0.825  0.00  0.00    -0.245 OA
ATOM     15  C   UNL     1      -0.888  -1.422  -1.018  0.00  0.00    +0.219 C 
ATOM     16  C   UNL     1      -1.763  -0.291  -0.638  0.00  0.00    +0.032 C 
ATOM     17  C   UNL     1      -2.837  -0.758   0.093  0.00  0.00    +0.109 C 
ATOM     18  C   UNL     1      -2.717  -2.200   0.238  0.00  0.00    +0.344 C 
ATOM     19  C   UNL     1      -1.643   1.059  -0.918  0.00  0.00    +0.037 C 
ATOM     20  C   UNL     1      -3.829   0.073   0.581  0.00  0.00    +0.143 C 
ATOM     21  C   UNL     1      -2.630   1.927  -0.438  0.00  0.00    +0.142 C 
ATOM     22  C   UNL     1      -3.716   1.436   0.307  0.00  0.00    +0.074 C 
BRANCH  20  23
ATOM     23  O   UNL     1      -4.877  -0.399   1.299  0.00  0.00    -0.505 OA
ATOM     24  H   UNL     1      -4.947  -1.315   1.480  0.00  0.00    +0.292 HD
ENDBRANCH  20  23
BRANCH  21  25
ATOM     25  O   UNL     1      -2.540   3.261  -0.697  0.00  0.00    -0.471 OA
ATOM     26  C   UNL     1      -1.417   3.699  -1.459  0.00  0.00    +0.252 C 
ENDBRANCH  21  25
ENDBRANCH   4  15
BRANCH   5  27
ATOM     27  O   UNL     1       4.663  -0.844  -0.310  0.00  0.00    -0.377 OA
ATOM     28  H   UNL     1       5.015   0.025  -0.560  0.00  0.00    +0.211 HD
ENDBRANCH   5  27
BRANCH   7  29
ATOM     29  O   UNL     1       2.865  -2.522   0.981  0.00  0.00    -0.382 OA
ATOM     30  H   UNL     1       3.782  -2.426   1.284  0.00  0.00    +0.210 HD
ENDBRANCH   7  29
TORSDOF 5
