100915004
  -OEChem-03292013293D

 53 53  0     1  0  0  0  0  0999 V2000
    0.7903    0.2346   -0.0603 S   0  0  0  0  0  0  0  0  0  0  0  0
   -3.2733   -1.9698   -1.4615 O   0  0  0  0  0  0  0  0  0  0  0  0
    0.3460   -3.2437    1.3685 O   0  0  0  0  0  0  0  0  0  0  0  0
   -5.0263    0.5693   -1.3788 O   0  0  0  0  0  0  0  0  0  0  0  0
   -5.8442    1.9384    0.2330 O   0  0  0  0  0  0  0  0  0  0  0  0
    3.5487   -2.0507    0.3294 O   0  0  0  0  0  0  0  0  0  0  0  0
    4.7875   -3.8465    0.9522 O   0  0  0  0  0  0  0  0  0  0  0  0
   -1.6504   -1.8751    0.1976 N   0  0  0  0  0  0  0  0  0  0  0  0
    1.5503   -3.4501   -0.6036 N   0  0  0  0  0  0  0  0  0  0  0  0
   -3.2764    2.3127    1.1625 N   0  0  0  0  0  0  0  0  0  0  0  0
   -0.5158   -2.1887   -0.6399 C   0  0  1  0  0  0  0  0  0  0  0  0
   -3.6221   -0.0927    1.4631 C   0  0  0  0  0  0  0  0  0  0  0  0
   -3.9353   -1.4386    0.8062 C   0  0  0  0  0  0  0  0  0  0  0  0
    0.1034   -0.9401   -1.2729 C   0  0  0  0  0  0  0  0  0  0  0  0
   -3.5801    1.0644    0.4587 C   0  0  1  0  0  0  0  0  0  0  0  0
   -2.9459   -1.7919   -0.2914 C   0  0  0  0  0  0  0  0  0  0  0  0
    0.4814   -3.0167    0.1678 C   0  0  0  0  0  0  0  0  0  0  0  0
    1.3064    1.5228   -1.2167 C   0  0  0  0  0  0  0  0  0  0  0  0
    1.9419    2.6923   -0.5166 C   0  0  0  0  0  0  0  0  0  0  0  0
    3.3252    2.8705   -0.5283 C   0  0  0  0  0  0  0  0  0  0  0  0
   -4.9270    1.2605   -0.2133 C   0  0  0  0  0  0  0  0  0  0  0  0
    1.1265    3.6060    0.1511 C   0  0  0  0  0  0  0  0  0  0  0  0
    2.6373   -4.2303   -0.0600 C   0  0  0  0  0  0  0  0  0  0  0  0
    3.8932    3.9626    0.1277 C   0  0  0  0  0  0  0  0  0  0  0  0
    4.2184    1.9056   -1.2364 C   0  0  0  0  0  0  0  0  0  0  0  0
    1.6944    4.6982    0.8072 C   0  0  0  0  0  0  0  0  0  0  0  0
    3.0778    4.8765    0.7954 C   0  0  0  0  0  0  0  0  0  0  0  0
    3.7678   -3.3798    0.4593 C   0  0  0  0  0  0  0  0  0  0  0  0
   -0.8748   -2.8355   -1.4516 H   0  0  0  0  0  0  0  0  0  0  0  0
   -4.3944    0.0975    2.2206 H   0  0  0  0  0  0  0  0  0  0  0  0
   -2.6695   -0.1455    2.0041 H   0  0  0  0  0  0  0  0  0  0  0  0
   -4.9462   -1.4491    0.3854 H   0  0  0  0  0  0  0  0  0  0  0  0
   -3.9021   -2.2317    1.5629 H   0  0  0  0  0  0  0  0  0  0  0  0
    0.9038   -1.2138   -1.9674 H   0  0  0  0  0  0  0  0  0  0  0  0
   -0.6647   -0.4117   -1.8493 H   0  0  0  0  0  0  0  0  0  0  0  0
   -1.4789   -1.7273    1.1875 H   0  0  0  0  0  0  0  0  0  0  0  0
   -2.8112    0.9146   -0.3064 H   0  0  0  0  0  0  0  0  0  0  0  0
    0.4209    1.8829   -1.7553 H   0  0  0  0  0  0  0  0  0  0  0  0
    1.9577    1.0872   -1.9789 H   0  0  0  0  0  0  0  0  0  0  0  0
    1.5770   -3.2345   -1.5953 H   0  0  0  0  0  0  0  0  0  0  0  0
   -3.1714    3.0690    0.4867 H   0  0  0  0  0  0  0  0  0  0  0  0
   -2.3760    2.2283    1.6332 H   0  0  0  0  0  0  0  0  0  0  0  0
    0.0467    3.4819    0.1670 H   0  0  0  0  0  0  0  0  0  0  0  0
    3.0183   -4.8612   -0.8679 H   0  0  0  0  0  0  0  0  0  0  0  0
    2.2631   -4.8512    0.7593 H   0  0  0  0  0  0  0  0  0  0  0  0
    4.9689    4.1171    0.1279 H   0  0  0  0  0  0  0  0  0  0  0  0
    4.0559    0.8838   -0.8782 H   0  0  0  0  0  0  0  0  0  0  0  0
    4.0549    1.9505   -2.3180 H   0  0  0  0  0  0  0  0  0  0  0  0
    5.2758    2.1342   -1.0608 H   0  0  0  0  0  0  0  0  0  0  0  0
    1.0596    5.4100    1.3267 H   0  0  0  0  0  0  0  0  0  0  0  0
    3.5199    5.7270    1.3060 H   0  0  0  0  0  0  0  0  0  0  0  0
   -5.9035    0.6892   -1.8012 H   0  0  0  0  0  0  0  0  0  0  0  0
    4.2976   -1.5186    0.6736 H   0  0  0  0  0  0  0  0  0  0  0  0
  1 14  1  0  0  0  0
  1 18  1  0  0  0  0
  2 16  2  0  0  0  0
  3 17  2  0  0  0  0
  4 21  1  0  0  0  0
  4 52  1  0  0  0  0
  5 21  2  0  0  0  0
  6 28  1  0  0  0  0
  6 53  1  0  0  0  0
  7 28  2  0  0  0  0
  8 11  1  0  0  0  0
  8 16  1  0  0  0  0
  8 36  1  0  0  0  0
  9 17  1  0  0  0  0
  9 23  1  0  0  0  0
  9 40  1  0  0  0  0
 10 15  1  0  0  0  0
 10 41  1  0  0  0  0
 10 42  1  0  0  0  0
 11 14  1  0  0  0  0
 11 17  1  0  0  0  0
 11 29  1  0  0  0  0
 12 13  1  0  0  0  0
 12 15  1  0  0  0  0
 12 30  1  0  0  0  0
 12 31  1  0  0  0  0
 13 16  1  0  0  0  0
 13 32  1  0  0  0  0
 13 33  1  0  0  0  0
 14 34  1  0  0  0  0
 14 35  1  0  0  0  0
 15 21  1  0  0  0  0
 15 37  1  0  0  0  0
 18 19  1  0  0  0  0
 18 38  1  0  0  0  0
 18 39  1  0  0  0  0
 19 20  1  0  0  0  0
 19 22  2  0  0  0  0
 20 24  2  0  0  0  0
 20 25  1  0  0  0  0
 22 26  1  0  0  0  0
 22 43  1  0  0  0  0
 23 28  1  0  0  0  0
 23 44  1  0  0  0  0
 23 45  1  0  0  0  0
 24 27  1  0  0  0  0
 24 46  1  0  0  0  0
 25 47  1  0  0  0  0
 25 48  1  0  0  0  0
 25 49  1  0  0  0  0
 26 27  2  0  0  0  0
 26 50  1  0  0  0  0
 27 51  1  0  0  0  0
M  END
> <PUBCHEM_COMPOUND_CID>
100915004

> <PUBCHEM_CONFORMER_RMSD>
1.2

> <PUBCHEM_CONFORMER_DIVERSEORDER>
13
54
45
36
26
10
88
19
59
78
49
68
20
22
51
90
77
82
87
89
72
44
46
42
6
43
52
76
27
15
80
56
5
79
63
83
34
21
53
55
73
67
75
41
25
85
61
32
37
35
74
3
81
50
64
1
47
12
58
17
91
39
11
7
23
62
65
60
69
29
18
70
4
38
31
16
14
57
2
30
9
48
24
66
8
40
28
86
33
84
71

> <PUBCHEM_MMFF94_PARTIAL_CHARGES>
37
1 -0.46
10 -0.99
11 0.36
13 0.06
14 0.23
15 0.33
16 0.57
17 0.57
18 0.37
19 -0.14
2 -0.57
20 -0.14
21 0.66
22 -0.15
23 0.36
24 -0.15
25 0.14
26 -0.15
27 -0.15
28 0.66
3 -0.57
36 0.37
4 -0.65
40 0.37
41 0.36
42 0.36
43 0.15
46 0.15
5 -0.57
50 0.15
51 0.15
52 0.5
53 0.5
6 -0.65
7 -0.57
8 -0.73
9 -0.73

> <PUBCHEM_EFFECTIVE_ROTOR_COUNT>
14

> <PUBCHEM_PHARMACOPHORE_FEATURES>
13
1 10 cation
1 10 donor
1 2 acceptor
1 3 acceptor
1 4 acceptor
1 5 acceptor
1 6 acceptor
1 7 acceptor
1 8 donor
1 9 donor
3 4 5 21 anion
3 6 7 28 anion
6 19 20 22 24 26 27 rings

> <PUBCHEM_HEAVY_ATOM_COUNT>
28

> <PUBCHEM_ATOM_DEF_STEREO_COUNT>
2

> <PUBCHEM_ATOM_UDEF_STEREO_COUNT>
0

> <PUBCHEM_BOND_DEF_STEREO_COUNT>
0

> <PUBCHEM_BOND_UDEF_STEREO_COUNT>
0

> <PUBCHEM_ISOTOPIC_ATOM_COUNT>
0

> <PUBCHEM_COMPONENT_COUNT>
1

> <PUBCHEM_CACTVS_TAUTO_COUNT>
18

> <PUBCHEM_CONFORMER_ID>
0603D73C0000000D

> <PUBCHEM_MMFF94_ENERGY>
51.0534

> <PUBCHEM_FEATURE_SELFOVERLAP>
66.092

> <PUBCHEM_SHAPE_FINGERPRINT>
10006869 2 17181364803619753363
1100329 8 18337393725343720590
12166972 35 18271236115702307507
14040222 75 17981899535757280660
144659 178 17978798900403978320
15463212 79 17836643402403500898
17627616 140 18410576227145706200
17980427 23 17985827021894108279
283562 15 17837208543497514775
6371380 46 18267307711201938220
79837 15 17616536598283296018
9981440 41 18048596211983052083

> <PUBCHEM_SHAPE_MULTIPOLES>
529.92
10.29
7.89
1.23
6.48
4.59
-0.09
-8.88
0.1
-9.89
2.33
0.35
-0.02
-0.68

> <PUBCHEM_SHAPE_SELFOVERLAP>
1059.826

> <PUBCHEM_SHAPE_VOLUME>
311.4

> <PUBCHEM_COORDINATE_TYPE>
2
5
10

$$$$
