REMARK  Name = 10093830
REMARK  9 active torsions:
REMARK  status: ('A' for Active; 'I' for Inactive)
REMARK    1  A    between atoms: C_5  and  C_28
REMARK    2  A    between atoms: C_7  and  O_17
REMARK    3  A    between atoms: C_9  and  O_19
REMARK    4  A    between atoms: C_13  and  O_21
REMARK    5  A    between atoms: O_21  and  C_23
REMARK    6  A    between atoms: C_23  and  C_24
REMARK    7  A    between atoms: C_24  and  C_25
REMARK    8  A    between atoms: C_28  and  O_29
REMARK    9  A    between atoms: O_29  and  C_31
REMARK                            x       y       z     vdW  Elec       q    Type
REMARK                         _______ _______ _______ _____ _____    ______ ____
ROOT
ATOM      1  O   UNL     1       2.498  -3.166  -0.554  0.00  0.00    -0.351 OA
ATOM      2  O   UNL     1       1.796  -0.584   1.918  0.00  0.00    -0.349 OA
ATOM      3  C   UNL     1       2.064  -0.726  -0.934  0.00  0.00    +0.061 C 
ATOM      4  C   UNL     1       1.992  -1.934  -0.016  0.00  0.00    +0.149 C 
ATOM      5  C   UNL     1       1.038   0.331  -0.308  0.00  0.00    +0.078 C 
ATOM      6  C   UNL     1       2.661  -1.504   1.246  0.00  0.00    +0.172 C 
ATOM      7  C   UNL     1       3.559  -0.267  -0.666  0.00  0.00    +0.142 C 
ATOM      8  C   UNL     1       1.121  -3.159  -0.151  0.00  0.00    +0.172 C 
ATOM      9  C   UNL     1       3.950  -0.862   0.712  0.00  0.00    +0.167 C 
ATOM     10  C   UNL     1       1.431   0.600   1.188  0.00  0.00    +0.140 C 
ATOM     11  C   UNL     1       1.806  -1.027  -2.416  0.00  0.00    +0.005 C 
ATOM     12  C   UNL     1      -0.451  -0.152  -0.435  0.00  0.00    +0.054 C 
ATOM     13  C   UNL     1      -1.283  -0.193   0.857  0.00  0.00    +0.187 C 
ATOM     14  C   UNL     1       0.338   1.262   1.976  0.00  0.00    -0.002 C 
ATOM     15  C   UNL     1      -0.948   0.908   1.825  0.00  0.00    -0.007 C 
ATOM     16  C   UNL     1      -2.037   1.507   2.664  0.00  0.00    +0.030 C 
ENDROOT
BRANCH   7  17
ATOM     17  O   UNL     1       4.457  -0.787  -1.648  0.00  0.00    -0.382 OA
ATOM     18  H   UNL     1       4.228  -0.426  -2.519  0.00  0.00    +0.210 HD
ENDBRANCH   7  17
BRANCH   9  19
ATOM     19  O   UNL     1       4.470   0.111   1.598  0.00  0.00    -0.379 OA
ATOM     20  H   UNL     1       4.698  -0.309   2.442  0.00  0.00    +0.211 HD
ENDBRANCH   9  19
BRANCH  13  21
ATOM     21  O   UNL     1      -2.664  -0.141   0.496  0.00  0.00    -0.448 OA
BRANCH  21  23
ATOM     22  O   UNL     1      -2.616  -2.226  -0.489  0.00  0.00    -0.250 OA
ATOM     23  C   UNL     1      -3.083  -1.100  -0.385  0.00  0.00    +0.317 C 
BRANCH  23  24
ATOM     24  C   UNL     1      -4.196  -0.536  -1.242  0.00  0.00    +0.110 C 
BRANCH  24  25
ATOM     25  C   UNL     1      -5.598  -0.838  -0.689  0.00  0.00    +0.011 C 
ATOM     26  C   UNL     1      -5.782  -0.157   0.669  0.00  0.00    +0.001 C 
ATOM     27  C   UNL     1      -5.831  -2.344  -0.549  0.00  0.00    +0.001 C 
ENDBRANCH  24  25
ENDBRANCH  23  24
ENDBRANCH  21  23
ENDBRANCH  13  21
BRANCH   5  28
ATOM     28  C   UNL     1       1.109   1.688  -1.068  0.00  0.00    +0.211 C 
BRANCH  28  29
ATOM     29  O   UNL     1       0.201   2.568  -0.450  0.00  0.00    -0.448 OA
BRANCH  29  31
ATOM     30  O   UNL     1       0.761   4.244  -1.938  0.00  0.00    -0.250 OA
ATOM     31  C   UNL     1       0.117   3.831  -0.983  0.00  0.00    +0.318 C 
ATOM     32  C   UNL     1      -0.883   4.652  -0.228  0.00  0.00    +0.121 C 
ENDBRANCH  29  31
ENDBRANCH  28  29
ENDBRANCH   5  28
TORSDOF 9
