REMARK  Name = 10096170
REMARK  9 active torsions:
REMARK  status: ('A' for Active; 'I' for Inactive)
REMARK    1  A    between atoms: C_4  and  C_21
REMARK    2  A    between atoms: C_5  and  O_24
REMARK    3  A    between atoms: C_12  and  C_28
REMARK    4  A    between atoms: C_18  and  O_26
REMARK    5  A    between atoms: C_28  and  C_29
REMARK    6  A    between atoms: C_29  and  C_30
REMARK    7  A    between atoms: C_29  and  O_35
REMARK    8  A    between atoms: C_30  and  O_33
REMARK    9  A    between atoms: O_35  and  C_37
REMARK                            x       y       z     vdW  Elec       q    Type
REMARK                         _______ _______ _______ _____ _____    ______ ____
ROOT
ATOM      1  O   UNL     1      -4.321   2.334   0.030  0.00  0.00    -0.476 OA
ATOM      2  O   UNL     1       0.954   0.819   0.608  0.00  0.00    -0.454 OA
ATOM      3  O   UNL     1      -1.698  -2.265   0.464  0.00  0.00    -0.286 OA
ATOM      4  C   UNL     1      -5.190   0.139  -0.495  0.00  0.00    +0.093 C 
ATOM      5  C   UNL     1      -3.834  -0.528  -0.200  0.00  0.00    +0.143 C 
ATOM      6  C   UNL     1      -2.728   0.468   0.089  0.00  0.00    +0.044 C 
ATOM      7  C   UNL     1      -1.377   0.092   0.296  0.00  0.00    +0.075 A 
ATOM      8  C   UNL     1      -5.330   1.383   0.369  0.00  0.00    +0.212 C 
ATOM      9  C   UNL     1      -3.045   1.840   0.141  0.00  0.00    +0.133 C 
ATOM     10  C   UNL     1      -0.387   1.075   0.446  0.00  0.00    +0.148 A 
ATOM     11  C   UNL     1      -2.052   2.810   0.294  0.00  0.00    +0.015 C 
ATOM     12  C   UNL     1       2.761  -0.688   0.617  0.00  0.00    +0.016 C 
ATOM     13  C   UNL     1       1.382  -0.480   0.552  0.00  0.00    +0.147 A 
ATOM     14  C   UNL     1      -0.926  -1.321   0.395  0.00  0.00    +0.204 A 
ATOM     15  C   UNL     1       0.523  -1.567   0.450  0.00  0.00    +0.107 A 
ATOM     16  C   UNL     1      -0.726   2.429   0.438  0.00  0.00    +0.036 C 
ATOM     17  C   UNL     1       3.274  -1.985   0.577  0.00  0.00    +0.002 C 
ATOM     18  C   UNL     1       1.032  -2.869   0.412  0.00  0.00    +0.140 C 
ATOM     19  C   UNL     1      -2.384   4.267   0.303  0.00  0.00    +0.034 C 
ATOM     20  C   UNL     1       2.410  -3.074   0.475  0.00  0.00    +0.037 C 
ENDROOT
BRANCH   4  21
ATOM     21  C   UNL     1      -6.338  -0.799  -0.265  0.00  0.00    -0.038 C 
ATOM     22  C   UNL     1      -7.201  -1.093  -1.456  0.00  0.00    +0.027 C 
ATOM     23  C   UNL     1      -6.579  -1.343   0.937  0.00  0.00    -0.009 C 
ENDBRANCH   4  21
BRANCH   5  24
ATOM     24  O   UNL     1      -3.468  -1.289  -1.354  0.00  0.00    -0.379 OA
ATOM     25  H   UNL     1      -4.166  -1.932  -1.553  0.00  0.00    +0.211 HD
ENDBRANCH   5  24
BRANCH  18  26
ATOM     26  O   UNL     1       0.236  -3.972   0.320  0.00  0.00    -0.505 OA
ATOM     27  H   UNL     1      -0.695  -3.875   0.276  0.00  0.00    +0.292 HD
ENDBRANCH  18  26
BRANCH  12  28
ATOM     28  C   UNL     1       3.711   0.460   0.730  0.00  0.00    +0.075 C 
BRANCH  28  29
ATOM     29  C   UNL     1       4.920   0.328  -0.220  0.00  0.00    +0.198 C 
BRANCH  29  30
ATOM     30  C   UNL     1       4.579   0.347  -1.732  0.00  0.00    +0.125 C 
ATOM     31  C   UNL     1       5.831   0.312  -2.613  0.00  0.00    +0.033 C 
ATOM     32  C   UNL     1       3.689   1.527  -2.131  0.00  0.00    +0.033 C 
BRANCH  30  33
ATOM     33  O   UNL     1       3.829  -0.844  -2.021  0.00  0.00    -0.383 OA
ATOM     34  H   UNL     1       4.355  -1.623  -1.783  0.00  0.00    +0.210 HD
ENDBRANCH  30  33
ENDBRANCH  29  30
BRANCH  29  35
ATOM     35  O   UNL     1       5.807   1.418   0.063  0.00  0.00    -0.442 OA
BRANCH  35  37
ATOM     36  O   UNL     1       6.408   0.576   2.134  0.00  0.00    -0.238 OA
ATOM     37  C   UNL     1       6.239   1.494   1.347  0.00  0.00    +0.418 C 
ENDBRANCH  35  37
ENDBRANCH  29  35
ENDBRANCH  28  29
ENDBRANCH  12  28
TORSDOF 9
