REMARK  Name = 10095308
REMARK  5 active torsions:
REMARK  status: ('A' for Active; 'I' for Inactive)
REMARK    1  A    between atoms: C_7  and  C_26
REMARK    2  A    between atoms: C_7  and  O_29
REMARK    3  A    between atoms: C_11  and  O_23
REMARK    4  A    between atoms: C_26  and  S_27
REMARK    5  A    between atoms: O_29  and  C_31
REMARK                            x       y       z     vdW  Elec       q    Type
REMARK                         _______ _______ _______ _____ _____    ______ ____
ROOT
ATOM      1  F   UNL     1       1.683  -0.155  -1.186  0.00  0.00    -0.237 F 
ATOM      2  O   UNL     1       6.499  -0.135  -1.962  0.00  0.00    -0.287 OA
ATOM      3  C   UNL     1      -1.315  -0.171   0.646  0.00  0.00    +0.043 C 
ATOM      4  C   UNL     1      -0.445   1.042   0.249  0.00  0.00    +0.007 C 
ATOM      5  C   UNL     1       0.997   0.958   0.774  0.00  0.00    +0.033 C 
ATOM      6  C   UNL     1       1.680  -0.326   0.190  0.00  0.00    +0.164 C 
ATOM      7  C   UNL     1      -2.683   0.264   0.035  0.00  0.00    +0.195 C 
ATOM      8  C   UNL     1      -1.308   2.232   0.656  0.00  0.00    +0.004 C 
ATOM      9  C   UNL     1      -0.664  -1.425   0.024  0.00  0.00    +0.036 C 
ATOM     10  C   UNL     1      -2.734   1.815   0.211  0.00  0.00    +0.045 C 
ATOM     11  C   UNL     1       0.820  -1.605   0.421  0.00  0.00    +0.141 C 
ATOM     12  C   UNL     1       3.201  -0.430   0.607  0.00  0.00    +0.064 C 
ATOM     13  C   UNL     1       1.780   2.228   0.394  0.00  0.00    +0.007 C 
ATOM     14  C   UNL     1      -1.459  -0.345   2.183  0.00  0.00    +0.004 C 
ATOM     15  C   UNL     1       3.249   2.141   0.790  0.00  0.00    +0.023 C 
ATOM     16  C   UNL     1       3.874   0.893   0.222  0.00  0.00    -0.035 C 
ATOM     17  C   UNL     1      -3.782   2.362   1.175  0.00  0.00    +0.004 C 
ATOM     18  C   UNL     1       3.425  -0.657   2.120  0.00  0.00    +0.011 C 
ATOM     19  C   UNL     1       3.859  -1.607  -0.099  0.00  0.00    -0.017 C 
ATOM     20  C   UNL     1       4.928   0.981  -0.604  0.00  0.00    +0.034 C 
ATOM     21  C   UNL     1       4.908  -1.526  -0.923  0.00  0.00    +0.038 C 
ATOM     22  C   UNL     1       5.526  -0.221  -1.221  0.00  0.00    +0.195 C 
ENDROOT
BRANCH  11  23
ATOM     23  O   UNL     1       0.907  -2.059   1.762  0.00  0.00    -0.382 OA
ATOM     24  H   UNL     1       1.839  -2.170   2.006  0.00  0.00    +0.210 HD
ENDBRANCH  11  23
BRANCH   7  26
ATOM     25  O   UNL     1      -4.842   0.006   1.048  0.00  0.00    -0.281 OA
ATOM     26  C   UNL     1      -3.865  -0.518   0.527  0.00  0.00    +0.235 C 
BRANCH  26  27
ATOM     27  S   UNL     1      -3.716  -2.258   0.282  0.00  0.00    -0.073 S 
ATOM     28  C   UNL     1      -5.453  -2.711   0.085  0.00  0.00    +0.077 C 
ENDBRANCH  26  27
ENDBRANCH   7  26
BRANCH   7  29
ATOM     29  O   UNL     1      -2.703  -0.022  -1.370  0.00  0.00    -0.448 OA
BRANCH  29  31
ATOM     30  O   UNL     1      -4.814   0.900  -1.535  0.00  0.00    -0.250 OA
ATOM     31  C   UNL     1      -3.836   0.353  -2.026  0.00  0.00    +0.318 C 
ATOM     32  C   UNL     1      -3.715  -0.006  -3.476  0.00  0.00    +0.121 C 
ENDBRANCH  29  31
ENDBRANCH   7  29
TORSDOF 5
