REMARK  Name = 100953642
REMARK  7 active torsions:
REMARK  status: ('A' for Active; 'I' for Inactive)
REMARK    1  A    between atoms: C_1  and  C_4
REMARK    2  A    between atoms: C_1  and  C_25
REMARK    3  A    between atoms: C_2  and  C_14
REMARK    4  A    between atoms: C_5  and  C_13
REMARK    5  A    between atoms: C_6  and  N_9
REMARK    6  A    between atoms: C_17  and  O_20
REMARK    7  A    between atoms: C_19  and  O_22
REMARK                            x       y       z     vdW  Elec       q    Type
REMARK                         _______ _______ _______ _____ _____    ______ ____
ROOT
ATOM      1  C   UNL     1      -1.081  -1.542   0.148  0.00  0.00    +0.070 C 
ATOM      2  C   UNL     1       0.173  -1.978  -0.136  0.00  0.00    +0.010 C 
ENDROOT
BRANCH   1   4
ATOM      3  N   UNL     1      -1.311   1.698   1.799  0.00  0.00    -0.300 N 
ATOM      4  C   UNL     1      -1.361  -0.161   0.585  0.00  0.00    +0.036 C 
ATOM      5  C   UNL     1      -2.188   0.807  -0.037  0.00  0.00    +0.097 C 
ATOM      6  C   UNL     1      -2.138   1.947   0.735  0.00  0.00    +0.104 C 
ATOM      7  C   UNL     1      -0.831   0.417   1.718  0.00  0.00    +0.064 C 
ATOM      8  H   UNL     1      -1.094   2.341   2.512  0.00  0.00    +0.153 HD
BRANCH   6   9
ATOM      9  N   UNL     1      -2.722   3.158   0.619  0.00  0.00    -0.345 N 
ATOM     10  H   UNL     1      -2.552   3.853   1.295  0.00  0.00    +0.144 HD
ATOM     11  H   UNL     1      -3.318   3.346  -0.142  0.00  0.00    +0.144 HD
ENDBRANCH   6   9
BRANCH   5  13
ATOM     12  N   UNL     1      -3.562   0.549  -2.213  0.00  0.00    -0.191 NA
ATOM     13  C   UNL     1      -2.946   0.665  -1.237  0.00  0.00    +0.103 C 
ENDBRANCH   5  13
ENDBRANCH   1   4
BRANCH   2  14
ATOM     14  C   UNL     1       1.400  -1.199  -0.092  0.00  0.00    +0.004 C 
ATOM     15  C   UNL     1       1.544  -0.078  -0.910  0.00  0.00    +0.040 C 
ATOM     16  C   UNL     1       2.434  -1.572   0.767  0.00  0.00    +0.003 C 
ATOM     17  C   UNL     1       2.720   0.669  -0.869  0.00  0.00    +0.167 C 
ATOM     18  C   UNL     1       3.611  -0.824   0.808  0.00  0.00    +0.040 C 
ATOM     19  C   UNL     1       3.754   0.296  -0.010  0.00  0.00    +0.167 C 
BRANCH  17  20
ATOM     20  O   UNL     1       2.848   1.762  -1.673  0.00  0.00    -0.503 OA
ATOM     21  H   UNL     1       2.149   2.006  -2.247  0.00  0.00    +0.292 HD
ENDBRANCH  17  20
BRANCH  19  22
ATOM     22  O   UNL     1       4.908   1.018   0.039  0.00  0.00    -0.503 OA
ATOM     23  H   UNL     1       5.013   1.772  -0.507  0.00  0.00    +0.292 HD
ENDBRANCH  19  22
ENDBRANCH   2  14
BRANCH   1  25
ATOM     24  N   UNL     1      -3.074  -3.183  -0.068  0.00  0.00    -0.191 NA
ATOM     25  C   UNL     1      -2.179  -2.449   0.029  0.00  0.00    +0.100 C 
ENDBRANCH   1  25
TORSDOF 7
