REMARK  Name = 100934852
REMARK  0 active torsions:
REMARK  status: ('A' for Active; 'I' for Inactive)
REMARK                            x       y       z     vdW  Elec       q    Type
REMARK                         _______ _______ _______ _____ _____    ______ ____
ROOT
ATOM      1  O   PRO A   1       3.396   2.401  -0.993  0.00  0.00    -0.273 OA
ATOM      2  O   ALA A   5       2.341  -1.451  -1.835  0.00  0.00    -0.273 OA
ATOM      3  O   ALA A   4      -1.268  -3.753   1.089  0.00  0.00    -0.273 OA
ATOM      4  O   ALA A   2      -0.690   3.498   1.094  0.00  0.00    -0.273 OA
ATOM      5  O   ALA A   3      -4.636   0.067   0.420  0.00  0.00    -0.273 OA
ATOM      6  N   PRO A   1       2.408  -0.808   0.378  0.00  0.00    -0.272 N 
ATOM      7  N   ALA A   2       1.323   1.615  -0.332  0.00  0.00    -0.297 N 
ATOM      8  N   ALA A   5      -0.262  -2.227  -0.339  0.00  0.00    -0.297 N 
ATOM      9  N   ALA A   3      -1.718   1.952  -0.289  0.00  0.00    -0.297 N 
ATOM     10  N   ALA A   4      -2.419  -0.585   0.258  0.00  0.00    -0.297 N 
ATOM     11  CA  PRO A   1       3.337   0.300   0.169  0.00  0.00    +0.152 C 
ATOM     12  CB  PRO A   1       3.839   0.640   1.573  0.00  0.00    +0.031 C 
ATOM     13  CG  PRO A   1       2.668   0.256   2.472  0.00  0.00    +0.024 C 
ATOM     14  CD  PRO A   1       2.109  -0.986   1.798  0.00  0.00    +0.094 C 
ATOM     15  C   PRO A   1       2.695   1.526  -0.484  0.00  0.00    +0.241 C 
ATOM     16  C   ALA A   5       2.021  -1.648  -0.660  0.00  0.00    +0.244 C 
ATOM     17  CA  ALA A   5       1.079  -2.790  -0.287  0.00  0.00    +0.149 C 
ATOM     18  CA  ALA A   2       0.539   2.738  -0.821  0.00  0.00    +0.149 C 
ATOM     19  CB  ALA A   5       1.206  -3.956  -1.262  0.00  0.00    +0.031 C 
ATOM     20  CA  ALA A   4      -2.645  -2.020   0.155  0.00  0.00    +0.149 C 
ATOM     21  C   ALA A   4      -1.323  -2.739   0.395  0.00  0.00    +0.241 C 
ATOM     22  C   ALA A   2      -0.692   2.807   0.074  0.00  0.00    +0.241 C 
ATOM     23  CB  ALA A   2       0.257   2.631  -2.313  0.00  0.00    +0.031 C 
ATOM     24  CA  ALA A   3      -2.929   1.782   0.503  0.00  0.00    +0.149 C 
ATOM     25  C   ALA A   3      -3.441   0.350   0.338  0.00  0.00    +0.241 C 
ATOM     26  CB  ALA A   4      -3.211  -2.409  -1.206  0.00  0.00    +0.031 C 
ATOM     27  CB  ALA A   3      -3.982   2.808   0.105  0.00  0.00    +0.031 C 
ATOM     28  H   ALA A   2       0.854   0.882   0.129  0.00  0.00    +0.150 HD
ATOM     29  H   ALA A   5      -0.424  -1.449  -0.920  0.00  0.00    +0.150 HD
ATOM     30  H   ALA A   3      -1.625   1.434  -1.121  0.00  0.00    +0.150 HD
ATOM     31  H   ALA A   4      -1.490  -0.260   0.271  0.00  0.00    +0.150 HD
ENDROOT
TORSDOF 0
