100982102
  -OEChem-03292013293D

 33 35  0     1  0  0  0  0  0999 V2000
    5.7519   -2.3325    1.0570 Br  0  0  0  0  0  0  0  0  0  0  0  0
   -1.5407   -0.2490    0.9752 O   0  0  0  0  0  0  0  0  0  0  0  0
   -3.4261   -1.1304    2.1076 O   0  0  0  0  0  0  0  0  0  0  0  0
   -3.9351   -1.6754   -2.3308 O   0  0  0  0  0  0  0  0  0  0  0  0
    1.6410    2.0297   -1.1980 O   0  0  0  0  0  0  0  0  0  0  0  0
   -4.0589    0.2392   -0.9797 N   0  0  0  0  0  0  0  0  0  0  0  0
   -3.0801   -1.6135   -0.1468 N   0  0  0  0  0  0  0  0  0  0  0  0
    1.0141    1.0701    0.8190 N   0  0  0  0  0  0  0  0  0  0  0  0
    4.0338    0.4875   -1.2855 N   0  0  0  0  0  0  0  0  0  0  0  0
   -3.7089    0.5926    0.3787 C   0  0  1  0  0  0  0  0  0  0  0  0
   -2.9234   -0.6186    0.8887 C   0  0  2  0  0  0  0  0  0  0  0  0
   -2.7138    1.7279    0.4635 C   0  0  0  0  0  0  0  0  0  0  0  0
   -1.3746    1.0225    0.3291 C   0  0  1  0  0  0  0  0  0  0  0  0
   -0.2257    1.7774    0.9688 C   0  0  0  0  0  0  0  0  0  0  0  0
   -3.7162   -1.0875   -1.2805 C   0  0  0  0  0  0  0  0  0  0  0  0
    1.8603    1.2564   -0.2694 C   0  0  0  0  0  0  0  0  0  0  0  0
    3.0937    0.4287   -0.2901 C   0  0  0  0  0  0  0  0  0  0  0  0
    3.5130   -0.5050    0.6318 C   0  0  0  0  0  0  0  0  0  0  0  0
    5.0469   -0.3943   -1.0129 C   0  0  0  0  0  0  0  0  0  0  0  0
    4.7487   -1.0256    0.1745 C   0  0  0  0  0  0  0  0  0  0  0  0
   -4.6361    0.7932    0.9238 H   0  0  0  0  0  0  0  0  0  0  0  0
   -2.8560    2.5064   -0.2921 H   0  0  0  0  0  0  0  0  0  0  0  0
   -2.7934    2.1928    1.4539 H   0  0  0  0  0  0  0  0  0  0  0  0
   -1.1568    0.8236   -0.7283 H   0  0  0  0  0  0  0  0  0  0  0  0
   -4.5610    0.8491   -1.6172 H   0  0  0  0  0  0  0  0  0  0  0  0
   -2.7113   -2.5575   -0.0933 H   0  0  0  0  0  0  0  0  0  0  0  0
   -0.3881    1.8856    2.0469 H   0  0  0  0  0  0  0  0  0  0  0  0
   -0.1300    2.7766    0.5305 H   0  0  0  0  0  0  0  0  0  0  0  0
   -3.3064   -2.0944    2.0775 H   0  0  0  0  0  0  0  0  0  0  0  0
    1.2538    0.4021    1.5436 H   0  0  0  0  0  0  0  0  0  0  0  0
    3.9889    1.0886   -2.0970 H   0  0  0  0  0  0  0  0  0  0  0  0
    2.9986   -0.7923    1.5386 H   0  0  0  0  0  0  0  0  0  0  0  0
    5.8853   -0.4911   -1.6888 H   0  0  0  0  0  0  0  0  0  0  0  0
  1 20  1  0  0  0  0
  2 11  1  0  0  0  0
  2 13  1  0  0  0  0
  3 11  1  0  0  0  0
  3 29  1  0  0  0  0
  4 15  2  0  0  0  0
  5 16  2  0  0  0  0
  6 10  1  0  0  0  0
  6 15  1  0  0  0  0
  6 25  1  0  0  0  0
  7 11  1  0  0  0  0
  7 15  1  0  0  0  0
  7 26  1  0  0  0  0
  8 14  1  0  0  0  0
  8 16  1  0  0  0  0
  8 30  1  0  0  0  0
  9 17  1  0  0  0  0
  9 19  1  0  0  0  0
  9 31  1  0  0  0  0
 10 11  1  0  0  0  0
 10 12  1  0  0  0  0
 10 21  1  0  0  0  0
 12 13  1  0  0  0  0
 12 22  1  0  0  0  0
 12 23  1  0  0  0  0
 13 14  1  0  0  0  0
 13 24  1  0  0  0  0
 14 27  1  0  0  0  0
 14 28  1  0  0  0  0
 16 17  1  0  0  0  0
 17 18  2  0  0  0  0
 18 20  1  0  0  0  0
 18 32  1  0  0  0  0
 19 20  2  0  0  0  0
 19 33  1  0  0  0  0
M  END
> <PUBCHEM_COMPOUND_CID>
100982102

> <PUBCHEM_CONFORMER_RMSD>
0.8

> <PUBCHEM_CONFORMER_DIVERSEORDER>
1
23
29
19
20
27
34
17
38
16
8
14
36
26
22
7
28
32
18
11
35
5
24
12
10
15
39
33
3
37
6
25
4
13
31
2
9
21
30

> <PUBCHEM_MMFF94_PARTIAL_CHARGES>
26
1 -0.06
10 0.3
11 0.86
13 0.28
14 0.3
15 0.69
16 0.71
17 -0.24
18 -0.15
19 -0.3
2 -0.56
20 0.06
25 0.37
26 0.37
29 0.4
3 -0.68
30 0.37
31 0.27
32 0.15
33 0.15
4 -0.57
5 -0.57
6 -0.73
7 -0.73
8 -0.73
9 0.03

> <PUBCHEM_EFFECTIVE_ROTOR_COUNT>
5

> <PUBCHEM_PHARMACOPHORE_FEATURES>
14
1 1 hydrophobe
1 2 acceptor
1 3 acceptor
1 3 donor
1 4 acceptor
1 5 acceptor
1 6 donor
1 7 donor
1 8 donor
1 9 cation
1 9 donor
5 2 10 11 12 13 rings
5 6 7 10 11 15 rings
5 9 17 18 19 20 rings

> <PUBCHEM_HEAVY_ATOM_COUNT>
20

> <PUBCHEM_ATOM_DEF_STEREO_COUNT>
3

> <PUBCHEM_ATOM_UDEF_STEREO_COUNT>
0

> <PUBCHEM_BOND_DEF_STEREO_COUNT>
0

> <PUBCHEM_BOND_UDEF_STEREO_COUNT>
0

> <PUBCHEM_ISOTOPIC_ATOM_COUNT>
0

> <PUBCHEM_COMPONENT_COUNT>
1

> <PUBCHEM_CACTVS_TAUTO_COUNT>
15

> <PUBCHEM_CONFORMER_ID>
0604DD5600000001

> <PUBCHEM_MMFF94_ENERGY>
27.7686

> <PUBCHEM_FEATURE_SELFOVERLAP>
71.824

> <PUBCHEM_SHAPE_FINGERPRINT>
10062212 137 18413110537175967457
10447042 23 18187644683623153118
10670039 82 11458421306946899618
11046707 91 17988926677662816484
11159736 12 18412259519813979222
12363563 72 17917716828575465352
12410352 35 18343297055161010822
12523318 42 16845279549489187455
12553582 1 18271257087515586018
12555020 224 18113613465432892579
12596602 18 15554436376168464366
12633257 1 17346051046739054121
12892183 10 14476965575403729144
13887833 79 15791727469479307082
14123260 362 11530477831073260173
14178342 30 16343162280487886197
14848178 5 18340475717024965230
15188451 53 17131536310853571567
15342168 16 10954000565042628507
15537594 2 18271259265111925882
15880784 105 17489867150767749922
16120349 67 16083877497188513269
17857418 61 18340198614446118794
1798214 20 18333732412232511288
18186145 218 16950844811912763969
18222031 100 18272090470739109604
19433438 48 17704081702435061451
19862831 5 17531242876557940953
200 152 18410012130620561648
20621476 91 17560498669655772506
20626108 58 18412535523007668664
20645477 70 17386014953462037362
20775530 9 16768152318084589775
21065199 12 13758083973715839400
21250096 35 18410014312785837960
21713013 43 17096091419144332651
22393880 68 16660361493812802498
22646028 1 18342460343886471808
23402539 116 18041282063246022468
23403322 49 18413389843194245473
23503953 91 16916522418390553705
235170 7 16588026839819042542
23559900 14 18341323461833286480
3004659 81 17603589578610296338
312425 54 16486981635606890990
312425 83 15791740723795998542
314194 84 18411141342490430586
32948 21 13551468130134205456
339767 52 17774708810048812959
351380 3 18341060661368570898
46194498 28 16081948077324743742
463206 1 18343298197353747183
4921388 177 16588318219084874819
5104073 3 17775004634758809395
5161694 15 16950285117618029152
5281201 14 16226056625512833796
559249 180 18264768749004118385
5924683 9 17346594184187543991
59682541 52 17024282220298352919
602551 16 17489585671606945734
76465 3 18059848510802087509
7808743 9 10881406413256022190
960060 61 17894917321803387734

> <PUBCHEM_SHAPE_MULTIPOLES>
374.13
12.51
2.12
1.58
10.5
0.16
0.35
7.52
1.34
0.3
-0.05
-1.18
0.59
-1.86

> <PUBCHEM_SHAPE_SELFOVERLAP>
790.667

> <PUBCHEM_SHAPE_VOLUME>
213.3

> <PUBCHEM_COORDINATE_TYPE>
2
5
10

$$$$
