REMARK  Name = 100968706
REMARK  5 active torsions:
REMARK  status: ('A' for Active; 'I' for Inactive)
REMARK    1  A    between atoms: N_3  and  C1*_10
REMARK    2  A    between atoms: C_5  and  O_19
REMARK    3  A    between atoms: C3*_12  and  O3*_14
REMARK    4  A    between atoms: C4*_13  and  C5*_16
REMARK    5  A    between atoms: C5*_16  and  O5*_17
REMARK                            x       y       z     vdW  Elec       q    Type
REMARK                         _______ _______ _______ _____ _____    ______ ____
ROOT
ATOM      1  O   UNL     1      -1.918  -2.550   0.446  0.00  0.00    -0.252 OA
ATOM      2  O   UNL     1      -3.511   1.623  -0.592  0.00  0.00    -0.270 OA
ATOM      3  N   UNL     1      -0.833  -0.487   0.115  0.00  0.00    -0.211 N 
ATOM      4  N   UNL     1      -3.057  -0.600  -0.093  0.00  0.00    -0.236 N 
ATOM      5  C   UNL     1      -1.230   0.869  -0.222  0.00  0.00    +0.273 C 
ATOM      6  C   UNL     1      -1.936  -1.354   0.188  0.00  0.00    +0.313 C 
ATOM      7  C   UNL     1      -2.735   0.712  -0.341  0.00  0.00    +0.277 C 
ATOM      8  H   UNL     1      -3.974  -0.959  -0.114  0.00  0.00    +0.159 HD
ENDROOT
BRANCH   3  10
ATOM      9  O4* UNL     1       1.253   0.197   0.926  0.00  0.00    -0.335 OA
ATOM     10  C1* UNL     1       0.523  -0.892   0.344  0.00  0.00    +0.200 C 
ATOM     11  C2* UNL     1       1.244  -1.290  -0.933  0.00  0.00    +0.083 C 
ATOM     12  C3* UNL     1       2.668  -0.868  -0.650  0.00  0.00    +0.144 C 
ATOM     13  C4* UNL     1       2.494   0.372   0.215  0.00  0.00    +0.173 C 
BRANCH  12  14
ATOM     14  O3* UNL     1       3.332  -1.889   0.092  0.00  0.00    -0.382 OA
ATOM     15  H3* UNL     1       3.440  -2.675  -0.465  0.00  0.00    +0.210 HD
ENDBRANCH  12  14
BRANCH  13  16
ATOM     16  C5* UNL     1       2.390   1.654  -0.600  0.00  0.00    +0.169 C 
BRANCH  16  17
ATOM     17  O5* UNL     1       2.221   2.748   0.286  0.00  0.00    -0.379 OA
ATOM     18  H5* UNL     1       2.154   3.570  -0.224  0.00  0.00    +0.211 HD
ENDBRANCH  16  17
ENDBRANCH  13  16
ENDBRANCH   3  10
BRANCH   5  19
ATOM     19  O   UNL     1      -0.906   1.756   0.820  0.00  0.00    -0.360 OA
ATOM     20  H   UNL     1       0.058   1.844   0.882  0.00  0.00    +0.213 HD
ENDBRANCH   5  19
TORSDOF 5
