100962988
  -OEChem-03292013293D

 40 42  0     1  0  0  0  0  0999 V2000
   -0.7650    0.7073   -1.7536 O   0  0  0  0  0  0  0  0  0  0  0  0
   -1.9677    3.6532    0.6997 O   0  0  0  0  0  0  0  0  0  0  0  0
    1.4766    0.2115   -1.8686 O   0  0  0  0  0  0  0  0  0  0  0  0
    0.2841    3.6863    0.3472 O   0  0  0  0  0  0  0  0  0  0  0  0
   -6.1635   -0.4598    0.5724 O   0  0  0  0  0  0  0  0  0  0  0  0
   -5.3006   -3.0998    0.4667 O   0  0  0  0  0  0  0  0  0  0  0  0
    4.3285   -3.0748    0.5705 O   0  0  0  0  0  0  0  0  0  0  0  0
    6.4241   -1.4859   -0.3304 O   0  0  0  0  0  0  0  0  0  0  0  0
   -0.8934    1.5770    0.4589 C   0  0  1  0  0  0  0  0  0  0  0  0
   -1.7120    1.1164   -0.7410 C   0  0  2  0  0  0  0  0  0  0  0  0
    0.4468    1.0189    0.1579 C   0  0  0  0  0  0  0  0  0  0  0  0
   -2.6735   -0.0084   -0.4167 C   0  0  0  0  0  0  0  0  0  0  0  0
    0.4984    0.5941   -1.2526 C   0  0  0  0  0  0  0  0  0  0  0  0
   -0.7620    3.0708    0.4894 C   0  0  0  0  0  0  0  0  0  0  0  0
    1.4770    0.8456    0.9896 C   0  0  0  0  0  0  0  0  0  0  0  0
   -3.9920    0.2806   -0.0650 C   0  0  0  0  0  0  0  0  0  0  0  0
   -2.2406   -1.3332   -0.4706 C   0  0  0  0  0  0  0  0  0  0  0  0
    2.7719    0.2320    0.6443 C   0  0  0  0  0  0  0  0  0  0  0  0
   -4.8777   -0.7551    0.2326 C   0  0  0  0  0  0  0  0  0  0  0  0
   -3.1262   -2.3690   -0.1728 C   0  0  0  0  0  0  0  0  0  0  0  0
   -4.4447   -2.0800    0.1787 C   0  0  0  0  0  0  0  0  0  0  0  0
    2.9457   -1.1463    0.7702 C   0  0  0  0  0  0  0  0  0  0  0  0
    3.8235    1.0290    0.1921 C   0  0  0  0  0  0  0  0  0  0  0  0
    4.1709   -1.7276    0.4437 C   0  0  0  0  0  0  0  0  0  0  0  0
    5.0488    0.4478   -0.1342 C   0  0  0  0  0  0  0  0  0  0  0  0
    5.2226   -0.9306   -0.0084 C   0  0  0  0  0  0  0  0  0  0  0  0
   -1.2811    1.2376    1.4256 H   0  0  0  0  0  0  0  0  0  0  0  0
   -2.2845    1.9364   -1.1922 H   0  0  0  0  0  0  0  0  0  0  0  0
    1.3857    1.1560    2.0278 H   0  0  0  0  0  0  0  0  0  0  0  0
   -4.3270    1.3142   -0.0215 H   0  0  0  0  0  0  0  0  0  0  0  0
   -1.2190   -1.5903   -0.7338 H   0  0  0  0  0  0  0  0  0  0  0  0
   -2.7754   -3.3967   -0.2170 H   0  0  0  0  0  0  0  0  0  0  0  0
    2.1260   -1.7688    1.1227 H   0  0  0  0  0  0  0  0  0  0  0  0
    3.7026    2.1047    0.0889 H   0  0  0  0  0  0  0  0  0  0  0  0
   -1.9029    4.6317    0.7231 H   0  0  0  0  0  0  0  0  0  0  0  0
    5.8596    1.0805   -0.4853 H   0  0  0  0  0  0  0  0  0  0  0  0
   -6.2820    0.5054    0.5568 H   0  0  0  0  0  0  0  0  0  0  0  0
   -4.8275   -3.9450    0.3777 H   0  0  0  0  0  0  0  0  0  0  0  0
    3.4976   -3.4622    0.8952 H   0  0  0  0  0  0  0  0  0  0  0  0
    7.0297   -0.7831   -0.6228 H   0  0  0  0  0  0  0  0  0  0  0  0
  1 10  1  0  0  0  0
  1 13  1  0  0  0  0
  2 14  1  0  0  0  0
  2 35  1  0  0  0  0
  3 13  2  0  0  0  0
  4 14  2  0  0  0  0
  5 19  1  0  0  0  0
  5 37  1  0  0  0  0
  6 21  1  0  0  0  0
  6 38  1  0  0  0  0
  7 24  1  0  0  0  0
  7 39  1  0  0  0  0
  8 26  1  0  0  0  0
  8 40  1  0  0  0  0
  9 10  1  0  0  0  0
  9 11  1  0  0  0  0
  9 14  1  0  0  0  0
  9 27  1  0  0  0  0
 10 12  1  0  0  0  0
 10 28  1  0  0  0  0
 11 13  1  0  0  0  0
 11 15  2  0  0  0  0
 12 16  2  0  0  0  0
 12 17  1  0  0  0  0
 15 18  1  0  0  0  0
 15 29  1  0  0  0  0
 16 19  1  0  0  0  0
 16 30  1  0  0  0  0
 17 20  2  0  0  0  0
 17 31  1  0  0  0  0
 18 22  2  0  0  0  0
 18 23  1  0  0  0  0
 19 21  2  0  0  0  0
 20 21  1  0  0  0  0
 20 32  1  0  0  0  0
 22 24  1  0  0  0  0
 22 33  1  0  0  0  0
 23 25  2  0  0  0  0
 23 34  1  0  0  0  0
 24 26  2  0  0  0  0
 25 26  1  0  0  0  0
 25 36  1  0  0  0  0
M  END
> <PUBCHEM_COMPOUND_CID>
100962988

> <PUBCHEM_CONFORMER_RMSD>
0.8

> <PUBCHEM_CONFORMER_DIVERSEORDER>
3
16
25
29
5
27
24
9
21
17
31
15
2
11
6
28
19
14
7
23
12
18
30
26
1
20
13
10
22
8
4

> <PUBCHEM_MMFF94_PARTIAL_CHARGES>
38
1 -0.43
10 0.42
11 -0.12
12 -0.14
13 0.71
14 0.66
15 -0.18
16 -0.15
17 -0.15
18 0.03
19 0.08
2 -0.65
20 -0.15
21 0.08
22 -0.15
23 -0.15
24 0.08
25 -0.15
26 0.08
29 0.15
3 -0.57
30 0.15
31 0.15
32 0.15
33 0.15
34 0.15
35 0.5
36 0.15
37 0.45
38 0.45
39 0.45
4 -0.57
40 0.45
5 -0.53
6 -0.53
7 -0.53
8 -0.53
9 0.2

> <PUBCHEM_EFFECTIVE_ROTOR_COUNT>
3.6

> <PUBCHEM_PHARMACOPHORE_FEATURES>
11
1 2 acceptor
1 3 acceptor
1 4 acceptor
1 5 donor
1 6 donor
1 7 donor
1 8 donor
3 2 4 14 anion
5 1 9 10 11 13 rings
6 12 16 17 19 20 21 rings
6 18 22 23 24 25 26 rings

> <PUBCHEM_HEAVY_ATOM_COUNT>
26

> <PUBCHEM_ATOM_DEF_STEREO_COUNT>
0

> <PUBCHEM_ATOM_UDEF_STEREO_COUNT>
2

> <PUBCHEM_BOND_DEF_STEREO_COUNT>
1

> <PUBCHEM_BOND_UDEF_STEREO_COUNT>
0

> <PUBCHEM_ISOTOPIC_ATOM_COUNT>
0

> <PUBCHEM_COMPONENT_COUNT>
1

> <PUBCHEM_CACTVS_TAUTO_COUNT>
328

> <PUBCHEM_CONFORMER_ID>
060492AC00000003

> <PUBCHEM_MMFF94_ENERGY>
67.3267

> <PUBCHEM_FEATURE_SELFOVERLAP>
55.886

> <PUBCHEM_SHAPE_FINGERPRINT>
10616163 171 18341328873676311998
11045515 52 18113897139412247204
11135609 187 17826523446518148756
11578080 2 17823957104679394293
11763715 3 18263100867649467068
11796584 16 18261385620571561303
12516196 113 18340766039370256315
12553582 1 18340188769795442522
12596602 18 17131268085719515978
12633257 1 16415192412114689175
12760667 363 18342450422506827943
12788726 201 18339942453542609100
13004483 165 18411410696394224779
13103583 49 18059586805850133987
13149001 5 13840561703753488629
13402501 40 18410293622619652498
13544653 18 18334016120091095057
13631057 29 18407758127979439370
13911852 28 18412537734842564183
14341114 176 18412545401453587404
14420673 8 18411141329426745771
14787075 74 18115586088219600352
14866123 147 18197215837505438625
15042514 8 18268994189412124961
15927050 60 17548981512945803292
17492 89 18267582417088630898
19784866 135 18342168930197196129
21033648 29 16056616334875486019
21033650 10 13913439362105207310
22950370 63 18410856589757321315
23559900 14 18410281528176006024
2838139 119 9799692588620429723
3004659 81 18186235143469499250
314194 84 18265895950518289975
335352 9 18411134745742391477
3421961 26 18268707397350005769
351380 180 10231758898564394866
3737641 26 18410295765977099450
4058900 60 17261876546716934289
4409770 3 18263638469011920853
44880168 125 17131833127881173694
463206 1 18263644128956020594
465052 167 18202286935155948742
497634 4 18261395490770411388
5104073 3 18129651994966915456
6327066 14 9727638293185937547
7097593 13 17983567795902587647
7970288 3 18411416249766657779
79837 15 17553207601466669080

> <PUBCHEM_SHAPE_MULTIPOLES>
488.11
12.58
3.5
1.06
2.5
1.4
-0.37
-11.11
1.56
-1.5
0.94
0.14
0.18
-0.08

> <PUBCHEM_SHAPE_SELFOVERLAP>
1078.84

> <PUBCHEM_SHAPE_VOLUME>
261.1

> <PUBCHEM_COORDINATE_TYPE>
2
5
10

$$$$
