REMARK  Name = 100935409
REMARK  11 active torsions:
REMARK  status: ('A' for Active; 'I' for Inactive)
REMARK    1  A    between atoms: C_5  and  C_25
REMARK    2  A    between atoms: C_6  and  O_19
REMARK    3  A    between atoms: C_9  and  O_21
REMARK    4  A    between atoms: C_15  and  O_23
REMARK    5  A    between atoms: C_25  and  C_26
REMARK    6  A    between atoms: C_26  and  C_27
REMARK    7  A    between atoms: C_28  and  C_30
REMARK    8  A    between atoms: C_28  and  C_33
REMARK    9  A    between atoms: C_30  and  O_31
REMARK   10  A    between atoms: C_33  and  C_34
REMARK   11  A    between atoms: C_34  and  C_35
REMARK                            x       y       z     vdW  Elec       q    Type
REMARK                         _______ _______ _______ _____ _____    ______ ____
ROOT
ATOM      1  O   UNL     1      -2.012  -3.114   0.797  0.00  0.00    -0.284 OA
ATOM      2  O   UNL     1      -4.500  -3.476   0.021  0.00  0.00    -0.283 OA
ATOM      3  C   UNL     1      -0.555   1.096   1.298  0.00  0.00    +0.009 C 
ATOM      4  C   UNL     1      -0.876   1.883   0.017  0.00  0.00    +0.056 C 
ATOM      5  C   UNL     1      -0.853  -0.430   1.200  0.00  0.00    +0.022 C 
ATOM      6  C   UNL     1      -0.600   3.333   0.482  0.00  0.00    +0.091 C 
ATOM      7  C   UNL     1      -1.258   1.920   2.386  0.00  0.00    +0.003 C 
ATOM      8  C   UNL     1      -1.131   3.386   1.928  0.00  0.00    +0.027 C 
ATOM      9  C   UNL     1      -2.305   1.598  -0.503  0.00  0.00    +0.138 C 
ATOM     10  C   UNL     1      -2.091  -0.748   0.353  0.00  0.00    +0.021 C 
ATOM     11  C   UNL     1      -2.740   0.143  -0.429  0.00  0.00    +0.037 C 
ATOM     12  C   UNL     1      -0.962  -0.996   2.635  0.00  0.00    +0.004 C 
ATOM     13  C   UNL     1      -1.134   4.447  -0.409  0.00  0.00    +0.029 C 
ATOM     14  C   UNL     1      -2.609  -2.149   0.343  0.00  0.00    +0.230 C 
ATOM     15  C   UNL     1      -3.903  -0.227  -1.253  0.00  0.00    +0.131 C 
ATOM     16  C   UNL     1      -4.524  -1.418  -1.181  0.00  0.00    +0.054 C 
ATOM     17  C   UNL     1      -3.950  -2.420  -0.258  0.00  0.00    +0.233 C 
ATOM     18  C   UNL     1      -5.752  -1.855  -1.925  0.00  0.00    +0.038 C 
ENDROOT
BRANCH   6  19
ATOM     19  O   UNL     1       0.825   3.514   0.552  0.00  0.00    -0.387 OA
ATOM     20  H   UNL     1       1.212   2.823   1.113  0.00  0.00    +0.210 HD
ENDBRANCH   6  19
BRANCH   9  21
ATOM     21  O   UNL     1      -3.285   2.364   0.202  0.00  0.00    -0.380 OA
ATOM     22  H   UNL     1      -3.041   3.302   0.177  0.00  0.00    +0.211 HD
ENDBRANCH   9  21
BRANCH  15  23
ATOM     23  O   UNL     1      -4.331   0.782  -2.099  0.00  0.00    -0.506 OA
ATOM     24  H   UNL     1      -3.874   1.599  -2.122  0.00  0.00    +0.292 HD
ENDBRANCH  15  23
BRANCH   5  25
ATOM     25  C   UNL     1       0.370  -1.091   0.510  0.00  0.00    +0.009 C 
BRANCH  25  26
ATOM     26  C   UNL     1       1.497  -1.289   1.509  0.00  0.00    +0.026 C 
BRANCH  26  27
ATOM     27  C   UNL     1       2.683  -1.916   0.825  0.00  0.00    -0.024 C 
ATOM     28  C   UNL     1       3.924  -1.405   0.710  0.00  0.00    +0.049 C 
BRANCH  28  30
ATOM     29  O   UNL     1       6.158  -2.144   0.234  0.00  0.00    -0.245 OA
ATOM     30  C   UNL     1       4.962  -2.193  -0.018  0.00  0.00    +0.334 C 
BRANCH  30  31
ATOM     31  O   UNL     1       4.440  -2.923  -1.031  0.00  0.00    -0.477 OA
ATOM     32  H   UNL     1       3.515  -2.924  -1.179  0.00  0.00    +0.295 HD
ENDBRANCH  30  31
ENDBRANCH  28  30
BRANCH  28  33
ATOM     33  C   UNL     1       4.404  -0.106   1.317  0.00  0.00    +0.037 C 
BRANCH  33  34
ATOM     34  C   UNL     1       4.878   0.914   0.274  0.00  0.00    +0.030 C 
BRANCH  34  35
ATOM     35  C   UNL     1       3.804   1.277  -0.713  0.00  0.00    -0.034 C 
ATOM     36  C   UNL     1       3.825   1.133  -2.051  0.00  0.00    -0.048 C 
ATOM     37  C   UNL     1       4.950   0.529  -2.842  0.00  0.00    +0.026 C 
ATOM     38  C   UNL     1       2.652   1.580  -2.883  0.00  0.00    +0.026 C 
ENDBRANCH  34  35
ENDBRANCH  33  34
ENDBRANCH  28  33
ENDBRANCH  26  27
ENDBRANCH  25  26
ENDBRANCH   5  25
TORSDOF 11
