REMARK  Name = 100935408
REMARK  11 active torsions:
REMARK  status: ('A' for Active; 'I' for Inactive)
REMARK    1  A    between atoms: C_5  and  C_25
REMARK    2  A    between atoms: C_6  and  O_19
REMARK    3  A    between atoms: C_9  and  O_21
REMARK    4  A    between atoms: C_15  and  O_23
REMARK    5  A    between atoms: C_25  and  C_26
REMARK    6  A    between atoms: C_26  and  C_27
REMARK    7  A    between atoms: C_28  and  C_30
REMARK    8  A    between atoms: C_28  and  C_33
REMARK    9  A    between atoms: C_30  and  O_31
REMARK   10  A    between atoms: C_33  and  C_34
REMARK   11  A    between atoms: C_34  and  C_35
REMARK                            x       y       z     vdW  Elec       q    Type
REMARK                         _______ _______ _______ _____ _____    ______ ____
ROOT
ATOM      1  O   UNL     1      -0.576  -0.187  -2.737  0.00  0.00    -0.284 OA
ATOM      2  O   UNL     1      -1.874  -2.346  -2.005  0.00  0.00    -0.283 OA
ATOM      3  C   UNL     1       2.642   1.292  -0.029  0.00  0.00    +0.009 C 
ATOM      4  C   UNL     1       3.639   0.145   0.147  0.00  0.00    +0.056 C 
ATOM      5  C   UNL     1       1.630   1.000  -1.177  0.00  0.00    +0.022 C 
ATOM      6  C   UNL     1       4.714   0.766   1.056  0.00  0.00    +0.091 C 
ATOM      7  C   UNL     1       3.519   2.555  -0.103  0.00  0.00    +0.003 C 
ATOM      8  C   UNL     1       4.911   2.140   0.405  0.00  0.00    +0.027 C 
ATOM      9  C   UNL     1       2.898  -1.114   0.608  0.00  0.00    +0.138 C 
ATOM     10  C   UNL     1       1.101  -0.447  -1.031  0.00  0.00    +0.021 C 
ATOM     11  C   UNL     1       1.651  -1.396  -0.232  0.00  0.00    +0.037 C 
ATOM     12  C   UNL     1       2.274   1.152  -2.574  0.00  0.00    +0.004 C 
ATOM     13  C   UNL     1       5.999  -0.046   1.121  0.00  0.00    +0.029 C 
ATOM     14  C   UNL     1      -0.092  -0.852  -1.832  0.00  0.00    +0.230 C 
ATOM     15  C   UNL     1       1.106  -2.759  -0.131  0.00  0.00    +0.131 C 
ATOM     16  C   UNL     1      -0.043  -3.151  -0.710  0.00  0.00    +0.054 C 
ATOM     17  C   UNL     1      -0.762  -2.154  -1.533  0.00  0.00    +0.233 C 
ATOM     18  C   UNL     1      -0.702  -4.496  -0.609  0.00  0.00    +0.038 C 
ENDROOT
BRANCH   6  19
ATOM     19  O   UNL     1       4.246   0.987   2.384  0.00  0.00    -0.387 OA
ATOM     20  H   UNL     1       3.426   1.504   2.356  0.00  0.00    +0.210 HD
ENDBRANCH   6  19
BRANCH   9  21
ATOM     21  O   UNL     1       2.502  -0.998   1.974  0.00  0.00    -0.380 OA
ATOM     22  H   UNL     1       3.282  -0.818   2.522  0.00  0.00    +0.211 HD
ENDBRANCH   9  21
BRANCH  15  23
ATOM     23  O   UNL     1       1.873  -3.609   0.647  0.00  0.00    -0.506 OA
ATOM     24  H   UNL     1       2.668  -3.300   1.034  0.00  0.00    +0.292 HD
ENDBRANCH  15  23
BRANCH   5  25
ATOM     25  C   UNL     1       0.496   2.043  -1.040  0.00  0.00    +0.009 C 
BRANCH  25  26
ATOM     26  C   UNL     1      -0.448   1.660   0.090  0.00  0.00    +0.026 C 
BRANCH  26  27
ATOM     27  C   UNL     1      -1.551   2.677   0.208  0.00  0.00    -0.024 C 
ATOM     28  C   UNL     1      -2.876   2.466   0.080  0.00  0.00    +0.049 C 
BRANCH  28  30
ATOM     29  O   UNL     1      -4.951   3.526   0.653  0.00  0.00    -0.245 OA
ATOM     30  C   UNL     1      -3.808   3.621   0.231  0.00  0.00    +0.334 C 
BRANCH  30  31
ATOM     31  O   UNL     1      -3.268   4.781  -0.211  0.00  0.00    -0.477 OA
ATOM     32  H   UNL     1      -2.385   4.797  -0.524  0.00  0.00    +0.295 HD
ENDBRANCH  30  31
ENDBRANCH  28  30
BRANCH  28  33
ATOM     33  C   UNL     1      -3.538   1.124  -0.143  0.00  0.00    +0.037 C 
BRANCH  33  34
ATOM     34  C   UNL     1      -3.928   0.415   1.160  0.00  0.00    +0.030 C 
BRANCH  34  35
ATOM     35  C   UNL     1      -4.605  -0.906   0.922  0.00  0.00    -0.034 C 
ATOM     36  C   UNL     1      -4.200  -2.128   1.317  0.00  0.00    -0.048 C 
ATOM     37  C   UNL     1      -2.970  -2.414   2.130  0.00  0.00    +0.026 C 
ATOM     38  C   UNL     1      -5.007  -3.349   0.962  0.00  0.00    +0.026 C 
ENDBRANCH  34  35
ENDBRANCH  33  34
ENDBRANCH  28  33
ENDBRANCH  26  27
ENDBRANCH  25  26
ENDBRANCH   5  25
TORSDOF 11
