REMARK  Name = 10096344
REMARK  5 active torsions:
REMARK  status: ('A' for Active; 'I' for Inactive)
REMARK    1  A    between atoms: N_4  and  C_23
REMARK    2  A    between atoms: N_7  and  C_27
REMARK    3  A    between atoms: C_8  and  N_19
REMARK    4  A    between atoms: C_23  and  C_24
REMARK    5  A    between atoms: C_27  and  C_30
REMARK                            x       y       z     vdW  Elec       q    Type
REMARK                         _______ _______ _______ _____ _____    ______ ____
ROOT
ATOM      1  O   UNL     1      -0.353  -0.124  -2.124  0.00  0.00    -0.272 OA
ATOM      2  O   UNL     1      -1.830   3.662   0.221  0.00  0.00    -0.251 OA
ATOM      3  N   UNL     1       4.381   0.347   0.338  0.00  0.00    -0.274 N 
ATOM      4  N   UNL     1       2.237   0.260  -0.675  0.00  0.00    -0.246 N 
ATOM      5  N   UNL     1       2.580   1.911   0.784  0.00  0.00    -0.360 NA
ATOM      6  N   UNL     1       0.343   2.920   0.594  0.00  0.00    -0.218 N 
ATOM      7  N   UNL     1      -1.115   1.770  -0.961  0.00  0.00    -0.196 N 
ATOM      8  C   UNL     1       5.734  -1.694   0.581  0.00  0.00    -0.045 C 
ATOM      9  C   UNL     1       4.636  -0.816   1.198  0.00  0.00    +0.073 C 
ATOM     10  C   UNL     1       6.993  -0.878   0.275  0.00  0.00    -0.018 C 
ATOM     11  C   UNL     1       6.646   0.316  -0.612  0.00  0.00    +0.019 C 
ATOM     12  C   UNL     1       5.554   1.172   0.022  0.00  0.00    +0.094 C 
ATOM     13  C   UNL     1       3.114   0.863   0.190  0.00  0.00    +0.244 C 
ATOM     14  C   UNL     1       1.074   0.973  -0.624  0.00  0.00    +0.222 C 
ATOM     15  C   UNL     1       1.311   1.977   0.275  0.00  0.00    +0.197 C 
ATOM     16  C   UNL     1      -0.158   0.783  -1.320  0.00  0.00    +0.260 C 
ATOM     17  C   UNL     1      -0.930   2.850  -0.024  0.00  0.00    +0.319 C 
ATOM     18  C   UNL     1       0.644   3.970   1.559  0.00  0.00    +0.124 C 
ENDROOT
BRANCH   8  19
ATOM     19  N   UNL     1       6.062  -2.792   1.488  0.00  0.00    +0.383 N 
ATOM     20  H   UNL     1       5.219  -3.332   1.688  0.00  0.00    -0.089 HD
ATOM     21  H   UNL     1       6.438  -2.414   2.358  0.00  0.00    -0.089 HD
ATOM     22  H   UNL     1       6.757  -3.398   1.052  0.00  0.00    -0.089 HD
ENDBRANCH   8  19
BRANCH   4  23
ATOM     23  C   UNL     1       2.493  -0.908  -1.488  0.00  0.00    +0.172 C 
BRANCH  23  24
ATOM     24  C   UNL     1       2.145  -2.148  -0.790  0.00  0.00    -0.069 C 
ATOM     25  C   UNL     1       1.860  -3.165  -0.218  0.00  0.00    -0.088 C 
ATOM     26  C   UNL     1       1.513  -4.402   0.480  0.00  0.00    +0.090 C 
ENDBRANCH  23  24
ENDBRANCH   4  23
BRANCH   7  27
ATOM     27  C   UNL     1      -2.419   1.682  -1.609  0.00  0.00    +0.227 C 
BRANCH  27  30
ATOM     28  N   UNL     1      -3.385  -0.478  -1.131  0.00  0.00    -0.346 NA
ATOM     29  N   UNL     1      -4.122   1.468   0.085  0.00  0.00    -0.350 NA
ATOM     30  C   UNL     1      -3.378   0.831  -0.828  0.00  0.00    +0.134 C 
ATOM     31  C   UNL     1      -4.242  -1.247  -0.435  0.00  0.00    +0.131 C 
ATOM     32  C   UNL     1      -4.968   0.669   0.763  0.00  0.00    +0.110 C 
ATOM     33  C   UNL     1      -5.079  -0.702   0.552  0.00  0.00    +0.124 C 
ATOM     34  C   UNL     1      -4.325  -2.616  -0.675  0.00  0.00    +0.029 C 
ATOM     35  C   UNL     1      -5.971  -1.515   1.273  0.00  0.00    -0.013 C 
ATOM     36  C   UNL     1      -5.803   1.372   1.785  0.00  0.00    +0.063 C 
ATOM     37  C   UNL     1      -5.209  -3.431   0.038  0.00  0.00    +0.002 C 
ATOM     38  C   UNL     1      -6.033  -2.880   1.013  0.00  0.00    -0.004 C 
ENDBRANCH  27  30
ENDBRANCH   7  27
TORSDOF 5
