10093690
  -OEChem-03292013303D

 53 56  0     1  0  0  0  0  0999 V2000
    1.1879   -0.0405    0.7825 O   0  0  0  0  0  0  0  0  0  0  0  0
    4.6886    0.2501    1.6784 O   0  0  0  0  0  0  0  0  0  0  0  0
    2.8580    3.1465   -2.1543 O   0  0  0  0  0  0  0  0  0  0  0  0
    2.5817   -3.7710   -0.0214 O   0  0  0  0  0  0  0  0  0  0  0  0
   -0.7464    1.6047    0.8457 O   0  0  0  0  0  0  0  0  0  0  0  0
   -4.1593   -2.0719   -0.9867 O   0  0  0  0  0  0  0  0  0  0  0  0
   -2.5913    3.3760    0.9630 O   0  0  0  0  0  0  0  0  0  0  0  0
    3.3566    0.7374    1.4851 C   0  0  1  0  0  0  0  0  0  0  0  0
    3.4133    1.8744    0.4407 C   0  0  0  0  0  0  0  0  0  0  0  0
    2.5142   -0.3859    0.9685 C   0  0  0  0  0  0  0  0  0  0  0  0
    4.0711    1.4853   -0.8945 C   0  0  0  0  0  0  0  0  0  0  0  0
    0.3042   -0.9815    0.3105 C   0  0  0  0  0  0  0  0  0  0  0  0
    2.8156    1.2111    2.8381 C   0  0  0  0  0  0  0  0  0  0  0  0
    0.7189   -2.2844    0.0150 C   0  0  0  0  0  0  0  0  0  0  0  0
   -1.0435   -0.6161    0.1245 C   0  0  0  0  0  0  0  0  0  0  0  0
    4.1693    2.6766   -1.8547 C   0  0  1  0  0  0  0  0  0  0  0  0
    3.0200   -1.6007    0.7189 C   0  0  0  0  0  0  0  0  0  0  0  0
   -1.9504   -1.5699   -0.3559 C   0  0  0  0  0  0  0  0  0  0  0  0
   -0.1886   -3.2297   -0.4629 C   0  0  0  0  0  0  0  0  0  0  0  0
    2.1295   -2.6583    0.2114 C   0  0  0  0  0  0  0  0  0  0  0  0
   -1.5216   -2.8717   -0.6477 C   0  0  0  0  0  0  0  0  0  0  0  0
   -1.5255    0.7585    0.4257 C   0  0  0  0  0  0  0  0  0  0  0  0
   -2.9488    1.0931    0.2126 C   0  0  0  0  0  0  0  0  0  0  0  0
   -3.3736   -1.2310   -0.5666 C   0  0  0  0  0  0  0  0  0  0  0  0
   -3.8401    0.1341   -0.2661 C   0  0  0  0  0  0  0  0  0  0  0  0
    4.8570    2.2813   -3.1547 C   0  0  0  0  0  0  0  0  0  0  0  0
    0.1795   -4.6389   -0.8000 C   0  0  0  0  0  0  0  0  0  0  0  0
   -3.4057    2.3873    0.4943 C   0  0  0  0  0  0  0  0  0  0  0  0
   -5.1866    0.4654   -0.4637 C   0  0  0  0  0  0  0  0  0  0  0  0
   -4.7475    2.7147    0.2963 C   0  0  0  0  0  0  0  0  0  0  0  0
   -5.6366    1.7552   -0.1820 C   0  0  0  0  0  0  0  0  0  0  0  0
    2.4058    2.2707    0.2607 H   0  0  0  0  0  0  0  0  0  0  0  0
    3.9988    2.7014    0.8653 H   0  0  0  0  0  0  0  0  0  0  0  0
    3.4767    0.6958   -1.3698 H   0  0  0  0  0  0  0  0  0  0  0  0
    5.0750    1.0838   -0.7150 H   0  0  0  0  0  0  0  0  0  0  0  0
    3.4685    1.9817    3.2644 H   0  0  0  0  0  0  0  0  0  0  0  0
    2.7950    0.3898    3.5642 H   0  0  0  0  0  0  0  0  0  0  0  0
    1.8067    1.6298    2.7579 H   0  0  0  0  0  0  0  0  0  0  0  0
    4.7221    3.4945   -1.3790 H   0  0  0  0  0  0  0  0  0  0  0  0
    4.0591   -1.8699    0.8632 H   0  0  0  0  0  0  0  0  0  0  0  0
   -2.2306   -3.6076   -1.0204 H   0  0  0  0  0  0  0  0  0  0  0  0
    5.2307    0.9857    2.0111 H   0  0  0  0  0  0  0  0  0  0  0  0
    4.9142    3.1387   -3.8340 H   0  0  0  0  0  0  0  0  0  0  0  0
    4.2898    1.5035   -3.6778 H   0  0  0  0  0  0  0  0  0  0  0  0
    5.8717    1.9145   -2.9726 H   0  0  0  0  0  0  0  0  0  0  0  0
   -0.6836   -5.2129   -1.1573 H   0  0  0  0  0  0  0  0  0  0  0  0
    0.9198   -4.6667   -1.6060 H   0  0  0  0  0  0  0  0  0  0  0  0
    0.5529   -5.1667    0.0835 H   0  0  0  0  0  0  0  0  0  0  0  0
   -5.8997   -0.2654   -0.8359 H   0  0  0  0  0  0  0  0  0  0  0  0
    2.9487    3.9114   -2.7477 H   0  0  0  0  0  0  0  0  0  0  0  0
   -5.1072    3.7171    0.5126 H   0  0  0  0  0  0  0  0  0  0  0  0
   -6.6808    2.0112   -0.3358 H   0  0  0  0  0  0  0  0  0  0  0  0
   -1.6836    3.0542    1.0671 H   0  0  0  0  0  0  0  0  0  0  0  0
  1 10  1  0  0  0  0
  1 12  1  0  0  0  0
  2  8  1  0  0  0  0
  2 42  1  0  0  0  0
  3 16  1  0  0  0  0
  3 50  1  0  0  0  0
  4 20  2  0  0  0  0
  5 22  2  0  0  0  0
  6 24  2  0  0  0  0
  7 28  1  0  0  0  0
  7 53  1  0  0  0  0
  8  9  1  0  0  0  0
  8 10  1  0  0  0  0
  8 13  1  0  0  0  0
  9 11  1  0  0  0  0
  9 32  1  0  0  0  0
  9 33  1  0  0  0  0
 10 17  2  0  0  0  0
 11 16  1  0  0  0  0
 11 34  1  0  0  0  0
 11 35  1  0  0  0  0
 12 14  2  0  0  0  0
 12 15  1  0  0  0  0
 13 36  1  0  0  0  0
 13 37  1  0  0  0  0
 13 38  1  0  0  0  0
 14 19  1  0  0  0  0
 14 20  1  0  0  0  0
 15 18  2  0  0  0  0
 15 22  1  0  0  0  0
 16 26  1  0  0  0  0
 16 39  1  0  0  0  0
 17 20  1  0  0  0  0
 17 40  1  0  0  0  0
 18 21  1  0  0  0  0
 18 24  1  0  0  0  0
 19 21  2  0  0  0  0
 19 27  1  0  0  0  0
 21 41  1  0  0  0  0
 22 23  1  0  0  0  0
 23 25  2  0  0  0  0
 23 28  1  0  0  0  0
 24 25  1  0  0  0  0
 25 29  1  0  0  0  0
 26 43  1  0  0  0  0
 26 44  1  0  0  0  0
 26 45  1  0  0  0  0
 27 46  1  0  0  0  0
 27 47  1  0  0  0  0
 27 48  1  0  0  0  0
 28 30  2  0  0  0  0
 29 31  2  0  0  0  0
 29 49  1  0  0  0  0
 30 31  1  0  0  0  0
 30 51  1  0  0  0  0
 31 52  1  0  0  0  0
M  END
> <PUBCHEM_COMPOUND_CID>
10093690

> <PUBCHEM_CONFORMER_RMSD>
0.8

> <PUBCHEM_CONFORMER_DIVERSEORDER>
2
24
7
16
15
4
5
25
3
22
14
8
13
26
9
11
23
18
20
10
27
12
6
1
19
21
17

> <PUBCHEM_MMFF94_PARTIAL_CHARGES>
35
1 -0.16
10 -0.06
12 0.08
14 0.09
15 0.09
16 0.28
17 -0.14
18 0.09
19 -0.14
2 -0.68
20 0.47
21 -0.15
22 0.4
23 0.09
24 0.4
25 0.09
27 0.14
28 0.08
29 -0.15
3 -0.68
30 -0.15
31 -0.15
4 -0.57
40 0.15
41 0.15
42 0.4
49 0.15
5 -0.57
50 0.4
51 0.15
52 0.15
53 0.45
6 -0.57
7 -0.53
8 0.42

> <PUBCHEM_EFFECTIVE_ROTOR_COUNT>
4

> <PUBCHEM_PHARMACOPHORE_FEATURES>
13
1 1 acceptor
1 2 acceptor
1 2 donor
1 3 acceptor
1 3 donor
1 4 acceptor
1 5 acceptor
1 6 acceptor
1 7 donor
6 1 10 12 14 17 20 rings
6 12 14 15 18 19 21 rings
6 15 18 22 23 24 25 rings
6 23 25 28 29 30 31 rings

> <PUBCHEM_HEAVY_ATOM_COUNT>
31

> <PUBCHEM_ATOM_DEF_STEREO_COUNT>
0

> <PUBCHEM_ATOM_UDEF_STEREO_COUNT>
2

> <PUBCHEM_BOND_DEF_STEREO_COUNT>
0

> <PUBCHEM_BOND_UDEF_STEREO_COUNT>
0

> <PUBCHEM_ISOTOPIC_ATOM_COUNT>
0

> <PUBCHEM_COMPONENT_COUNT>
1

> <PUBCHEM_CACTVS_TAUTO_COUNT>
5

> <PUBCHEM_CONFORMER_ID>
009A047A00000002

> <PUBCHEM_MMFF94_ENERGY>
93.8939

> <PUBCHEM_FEATURE_SELFOVERLAP>
66.059

> <PUBCHEM_SHAPE_FINGERPRINT>
10411042 1 17332786748673303994
10483366 6 18191046529786976630
10670039 82 18338519745842067732
1100329 8 17984129366845219675
11049842 53 18411982460364641054
11513181 2 18272093811496134254
12173636 292 18271228500287415615
12788726 201 17831019387769865218
13140716 1 18198325291597954587
13617811 41 18339350955696237645
138480 1 17480013091141747771
13965767 371 18120623947719529400
14114211 68 18270138837225260649
14117953 113 18263635182538727676
14674994 50 10270633747515107078
14790565 3 18341609352167700273
14840074 17 17604157016092808341
15082195 135 18408315584389913407
15163728 17 18338250326521779559
15196674 1 18200019635243219963
15210252 30 17906191559384781534
15297060 5 18271538566845864496
16752209 62 18269274745323343224
16991981 162 17325804815835189988
18681886 176 17699831948039065731
20567600 9 18335148578940701612
20642791 178 18337678512167542882
20739085 24 18191860120424326698
21133410 127 18261947445550623884
22122407 14 16516505790038107316
22149856 69 18271252626126176113
23366157 5 18192149291903635283
23558518 356 18336542729536080467
23559900 14 18056467366549904619
245318 6 18259993690200546332
27425 322 17676487212316539737
335352 9 17912073954787749999
338550 245 18411131412040674048
350125 39 18270391677291213698
38570 142 17604445110325901460
397830 11 17677917685946272057
474 4 18187081736967543857
5104073 3 18269267972851216163
6034566 193 17751095805694406572
6287921 2 18338235942734294917
6700243 42 17480887628372299606
9709674 26 17984979294271938271
9981440 41 18340473522328631563

> <PUBCHEM_SHAPE_MULTIPOLES>
596.88
10.63
5.05
1.85
4.14
3.38
-0.43
-9.68
-2.44
-0.91
-1.83
-3.81
-1.77
-2.99

> <PUBCHEM_SHAPE_SELFOVERLAP>
1326.02

> <PUBCHEM_SHAPE_VOLUME>
317.5

> <PUBCHEM_COORDINATE_TYPE>
2
5
10

$$$$
