100935756
  -OEChem-03292013293D

 52 53  0     1  0  0  0  0  0999 V2000
   -0.2501   -2.4647   -0.0548 O   0  0  0  0  0  0  0  0  0  0  0  0
   -3.0165    0.8292   -1.8416 O   0  0  0  0  0  0  0  0  0  0  0  0
   -4.0992    3.0575    0.8437 O   0  0  0  0  0  0  0  0  0  0  0  0
    2.7983    2.4348   -0.1527 O   0  0  0  0  0  0  0  0  0  0  0  0
   -2.8571    1.2160    2.2919 O   0  0  0  0  0  0  0  0  0  0  0  0
    4.8291    0.9093    0.8941 O   0  0  0  0  0  0  0  0  0  0  0  0
    2.3898   -3.0680    0.0513 O   0  0  0  0  0  0  0  0  0  0  0  0
   -0.3032   -1.4206   -2.1235 O   0  0  0  0  0  0  0  0  0  0  0  0
   -3.0824    2.0244   -1.0708 C   0  0  1  0  0  0  0  0  0  0  0  0
   -3.9139    1.8021    0.2018 C   0  0  1  0  0  0  0  0  0  0  0  0
   -1.6822    2.6432   -0.8963 C   0  0  0  0  0  0  0  0  0  0  0  0
   -1.5417   -3.0817   -0.2436 C   0  0  2  0  0  0  0  0  0  0  0  0
   -2.3472   -2.9024    1.0501 C   0  0  0  0  0  0  0  0  0  0  0  0
    1.4936    0.4606   -0.5904 C   0  0  0  0  0  0  0  0  0  0  0  0
   -0.6114    1.7227   -0.3761 C   0  0  0  0  0  0  0  0  0  0  0  0
    1.3912   -0.9403   -0.5227 C   0  0  0  0  0  0  0  0  0  0  0  0
   -3.3130    0.8357    1.2151 C   0  0  0  0  0  0  0  0  0  0  0  0
    0.4300    1.3204   -1.1213 C   0  0  0  0  0  0  0  0  0  0  0  0
   -2.4698   -1.4526    1.4306 C   0  0  0  0  0  0  0  0  0  0  0  0
    2.6585    1.0754   -0.1079 C   0  0  0  0  0  0  0  0  0  0  0  0
   -3.3286   -0.6072    0.8483 C   0  0  0  0  0  0  0  0  0  0  0  0
   -1.3208   -4.5545   -0.5607 C   0  0  0  0  0  0  0  0  0  0  0  0
    0.1956   -1.6375   -1.0330 C   0  0  0  0  0  0  0  0  0  0  0  0
    2.4363   -1.7054    0.0121 C   0  0  0  0  0  0  0  0  0  0  0  0
    3.6972    0.3109    0.4273 C   0  0  0  0  0  0  0  0  0  0  0  0
    3.5859   -1.0764    0.4870 C   0  0  0  0  0  0  0  0  0  0  0  0
    3.3901    2.9819   -1.3268 C   0  0  0  0  0  0  0  0  0  0  0  0
    4.8415    1.2873    2.2692 C   0  0  0  0  0  0  0  0  0  0  0  0
   -3.6499    2.7443   -1.6769 H   0  0  0  0  0  0  0  0  0  0  0  0
   -4.9083    1.4230   -0.0616 H   0  0  0  0  0  0  0  0  0  0  0  0
   -1.7257    3.5313   -0.2568 H   0  0  0  0  0  0  0  0  0  0  0  0
   -1.3666    3.0106   -1.8831 H   0  0  0  0  0  0  0  0  0  0  0  0
   -2.0848   -2.6143   -1.0746 H   0  0  0  0  0  0  0  0  0  0  0  0
   -1.8509   -3.4221    1.8794 H   0  0  0  0  0  0  0  0  0  0  0  0
   -3.3419   -3.3517    0.9436 H   0  0  0  0  0  0  0  0  0  0  0  0
   -0.6736    1.4187    0.6643 H   0  0  0  0  0  0  0  0  0  0  0  0
    0.5317    1.6241   -2.1586 H   0  0  0  0  0  0  0  0  0  0  0  0
   -1.7766   -1.0975    2.1892 H   0  0  0  0  0  0  0  0  0  0  0  0
   -3.9982   -0.9296    0.0594 H   0  0  0  0  0  0  0  0  0  0  0  0
   -2.2716   -5.0797   -0.6916 H   0  0  0  0  0  0  0  0  0  0  0  0
   -0.7329   -4.6624   -1.4785 H   0  0  0  0  0  0  0  0  0  0  0  0
   -0.7525   -5.0472    0.2359 H   0  0  0  0  0  0  0  0  0  0  0  0
   -2.5336    1.0320   -2.6608 H   0  0  0  0  0  0  0  0  0  0  0  0
    4.4050   -1.6617    0.8982 H   0  0  0  0  0  0  0  0  0  0  0  0
   -3.2438    3.3519    1.1983 H   0  0  0  0  0  0  0  0  0  0  0  0
    3.2092   -3.4076    0.4499 H   0  0  0  0  0  0  0  0  0  0  0  0
    3.3545    4.0722   -1.2513 H   0  0  0  0  0  0  0  0  0  0  0  0
    2.8455    2.6779   -2.2259 H   0  0  0  0  0  0  0  0  0  0  0  0
    4.4373    2.6733   -1.4049 H   0  0  0  0  0  0  0  0  0  0  0  0
    5.8037    1.7592    2.4860 H   0  0  0  0  0  0  0  0  0  0  0  0
    4.7312    0.4066    2.9098 H   0  0  0  0  0  0  0  0  0  0  0  0
    4.0438    2.0069    2.4789 H   0  0  0  0  0  0  0  0  0  0  0  0
  1 12  1  0  0  0  0
  1 23  1  0  0  0  0
  2  9  1  0  0  0  0
  2 43  1  0  0  0  0
  3 10  1  0  0  0  0
  3 45  1  0  0  0  0
  4 20  1  0  0  0  0
  4 27  1  0  0  0  0
  5 17  2  0  0  0  0
  6 25  1  0  0  0  0
  6 28  1  0  0  0  0
  7 24  1  0  0  0  0
  7 46  1  0  0  0  0
  8 23  2  0  0  0  0
  9 10  1  0  0  0  0
  9 11  1  0  0  0  0
  9 29  1  0  0  0  0
 10 17  1  0  0  0  0
 10 30  1  0  0  0  0
 11 15  1  0  0  0  0
 11 31  1  0  0  0  0
 11 32  1  0  0  0  0
 12 13  1  0  0  0  0
 12 22  1  0  0  0  0
 12 33  1  0  0  0  0
 13 19  1  0  0  0  0
 13 34  1  0  0  0  0
 13 35  1  0  0  0  0
 14 16  2  0  0  0  0
 14 18  1  0  0  0  0
 14 20  1  0  0  0  0
 15 18  2  0  0  0  0
 15 36  1  0  0  0  0
 16 23  1  0  0  0  0
 16 24  1  0  0  0  0
 17 21  1  0  0  0  0
 18 37  1  0  0  0  0
 19 21  2  0  0  0  0
 19 38  1  0  0  0  0
 20 25  2  0  0  0  0
 21 39  1  0  0  0  0
 22 40  1  0  0  0  0
 22 41  1  0  0  0  0
 22 42  1  0  0  0  0
 24 26  2  0  0  0  0
 25 26  1  0  0  0  0
 26 44  1  0  0  0  0
 27 47  1  0  0  0  0
 27 48  1  0  0  0  0
 27 49  1  0  0  0  0
 28 50  1  0  0  0  0
 28 51  1  0  0  0  0
 28 52  1  0  0  0  0
M  END
> <PUBCHEM_COMPOUND_CID>
100935756

> <PUBCHEM_CONFORMER_RMSD>
0.8

> <PUBCHEM_CONFORMER_DIVERSEORDER>
1
8
5
13
12
4
6
14
11
9
3
15
2
10
16
7

> <PUBCHEM_MMFF94_PARTIAL_CHARGES>
35
1 -0.43
10 0.34
11 0.14
12 0.28
13 0.14
14 0.03
15 -0.29
16 0.09
17 0.49
18 -0.18
19 -0.29
2 -0.68
20 0.08
21 -0.14
23 0.63
24 0.08
25 0.08
26 -0.15
27 0.28
28 0.28
3 -0.68
36 0.15
37 0.15
38 0.15
39 0.15
4 -0.36
43 0.4
44 0.15
45 0.4
46 0.45
5 -0.57
6 -0.36
7 -0.53
8 -0.57
9 0.28

> <PUBCHEM_EFFECTIVE_ROTOR_COUNT>
3.2

> <PUBCHEM_PHARMACOPHORE_FEATURES>
10
1 2 acceptor
1 2 donor
1 3 acceptor
1 3 donor
1 4 acceptor
1 5 acceptor
1 6 acceptor
1 7 donor
1 8 acceptor
6 14 16 20 24 25 26 rings

> <PUBCHEM_HEAVY_ATOM_COUNT>
28

> <PUBCHEM_ATOM_DEF_STEREO_COUNT>
3

> <PUBCHEM_ATOM_UDEF_STEREO_COUNT>
0

> <PUBCHEM_BOND_DEF_STEREO_COUNT>
2

> <PUBCHEM_BOND_UDEF_STEREO_COUNT>
0

> <PUBCHEM_ISOTOPIC_ATOM_COUNT>
0

> <PUBCHEM_COMPONENT_COUNT>
1

> <PUBCHEM_CACTVS_TAUTO_COUNT>
39

> <PUBCHEM_CONFORMER_ID>
0604284C00000001

> <PUBCHEM_MMFF94_ENERGY>
94.3757

> <PUBCHEM_FEATURE_SELFOVERLAP>
50.764

> <PUBCHEM_SHAPE_FINGERPRINT>
10670039 82 18051428541378348684
10675989 125 15678308859957024731
10871710 139 17760667144639898165
11370993 70 18341055103754730385
11552529 35 18198632222613213137
11578080 2 17487315261393810786
11595378 159 17979355588321131280
11640471 11 17130139798332485045
12390115 104 18199183078888768960
12633257 1 18040997328009508272
12788726 201 17833275598799599036
13004483 165 18047188828788969891
13140716 1 18267586801774953823
13402501 40 17683817514256737615
13583140 156 16805869737214414572
13965767 371 18055107382277668475
14178342 30 18337667645974507434
14790565 3 18118416266074042084
20739085 24 18049730620426069948
21033648 29 18197756844466468952
23559900 14 18191029993197489700
238 59 18046608028988305533
25222932 49 15511170739812744329
3117164 225 18339346501793832506
469060 322 17613433763099831801
474 4 18127127468586998785
484985 159 16082187706313913587
9862522 239 18342736372718199982

> <PUBCHEM_SHAPE_MULTIPOLES>
529.27
8.2
4.71
1.7
4.71
3.02
-0.4
-4.83
-3.96
-2.8
0.94
-0.16
-0.48
-0.04

> <PUBCHEM_SHAPE_SELFOVERLAP>
1107.6

> <PUBCHEM_SHAPE_VOLUME>
298.4

> <PUBCHEM_COORDINATE_TYPE>
2
5
10

$$$$
