10097192
  -OEChem-03292013303D

 67 70  0     0  0  0  0  0  0999 V2000
   -0.7455   -1.9042   -1.0133 S   0  0  0  0  0  0  0  0  0  0  0  0
   -3.7192    0.8357    1.0628 O   0  0  0  0  0  0  0  0  0  0  0  0
    4.7492   -1.5776   -2.2133 O   0  0  0  0  0  0  0  0  0  0  0  0
   -3.4262   -1.4948   -2.5951 O   0  0  0  0  0  0  0  0  0  0  0  0
    1.7669    2.6993   -0.1719 N   0  0  0  0  0  0  0  0  0  0  0  0
   -3.2588    2.8202   -0.0493 N   0  0  0  0  0  0  0  0  0  0  0  0
    4.3171   -1.2640    0.0232 N   0  0  0  0  0  0  0  0  0  0  0  0
   -4.4025   -2.2136   -0.6121 N   0  0  0  0  0  0  0  0  0  0  0  0
    1.7810    1.5614   -1.1019 C   0  0  0  0  0  0  0  0  0  0  0  0
    3.1228    3.0202    0.2954 C   0  0  0  0  0  0  0  0  0  0  0  0
    2.6584    1.8550   -2.3200 C   0  0  0  0  0  0  0  0  0  0  0  0
    4.0441    3.3613   -0.8768 C   0  0  0  0  0  0  0  0  0  0  0  0
    4.0747    2.2354   -1.9041 C   0  0  0  0  0  0  0  0  0  0  0  0
    0.8870    2.4217    0.9630 C   0  0  0  0  0  0  0  0  0  0  0  0
   -0.5550    2.5601    0.6113 C   0  0  0  0  0  0  0  0  0  0  0  0
   -1.4698    1.5968    1.0221 C   0  0  0  0  0  0  0  0  0  0  0  0
   -0.9906    3.6532   -0.1295 C   0  0  0  0  0  0  0  0  0  0  0  0
   -2.7983    1.7716    0.6692 C   0  0  0  0  0  0  0  0  0  0  0  0
   -2.3405    3.7360   -0.4310 C   0  0  0  0  0  0  0  0  0  0  0  0
    2.2030   -2.0139    0.9604 C   0  0  0  0  0  0  0  0  0  0  0  0
    1.8187   -2.4964   -0.3830 C   0  0  0  0  0  0  0  0  0  0  0  0
    3.4566   -1.4046    1.1252 C   0  0  0  0  0  0  0  0  0  0  0  0
   -5.0677    1.0607    0.6758 C   0  0  0  0  0  0  0  0  0  0  0  0
    0.4837   -3.1525   -0.5858 C   0  0  0  0  0  0  0  0  0  0  0  0
    2.6724   -2.3413   -1.4081 C   0  0  0  0  0  0  0  0  0  0  0  0
    1.3734   -2.1347    2.0849 C   0  0  0  0  0  0  0  0  0  0  0  0
    3.8733   -0.9294    2.3730 C   0  0  0  0  0  0  0  0  0  0  0  0
    4.0015   -1.6972   -1.2451 C   0  0  0  0  0  0  0  0  0  0  0  0
    1.7875   -1.6603    3.3332 C   0  0  0  0  0  0  0  0  0  0  0  0
    3.0350   -1.0587    3.4769 C   0  0  0  0  0  0  0  0  0  0  0  0
   -5.9184   -0.0275    1.2446 C   0  0  0  0  0  0  0  0  0  0  0  0
   -2.1866   -2.9847   -1.1839 C   0  0  0  0  0  0  0  0  0  0  0  0
   -6.1824   -1.1775    0.6067 C   0  0  0  0  0  0  0  0  0  0  0  0
   -5.6574   -1.5100   -0.7513 C   0  0  0  0  0  0  0  0  0  0  0  0
   -3.3873   -2.1455   -1.5521 C   0  0  0  0  0  0  0  0  0  0  0  0
    2.1420    0.6588   -0.6008 H   0  0  0  0  0  0  0  0  0  0  0  0
    0.7700    1.3467   -1.4671 H   0  0  0  0  0  0  0  0  0  0  0  0
    3.0921    3.8895    0.9635 H   0  0  0  0  0  0  0  0  0  0  0  0
    3.5465    2.1837    0.8667 H   0  0  0  0  0  0  0  0  0  0  0  0
    2.2158    2.6727   -2.9030 H   0  0  0  0  0  0  0  0  0  0  0  0
    2.6893    0.9761   -2.9740 H   0  0  0  0  0  0  0  0  0  0  0  0
    3.6996    4.2857   -1.3579 H   0  0  0  0  0  0  0  0  0  0  0  0
    5.0580    3.5520   -0.5075 H   0  0  0  0  0  0  0  0  0  0  0  0
    4.5803    1.3635   -1.4738 H   0  0  0  0  0  0  0  0  0  0  0  0
    4.6543    2.5424   -2.7816 H   0  0  0  0  0  0  0  0  0  0  0  0
    1.0697    3.1470    1.7682 H   0  0  0  0  0  0  0  0  0  0  0  0
    1.1039    1.4346    1.3932 H   0  0  0  0  0  0  0  0  0  0  0  0
   -1.1597    0.7331    1.6014 H   0  0  0  0  0  0  0  0  0  0  0  0
   -0.3145    4.4338   -0.4614 H   0  0  0  0  0  0  0  0  0  0  0  0
   -2.7316    4.5701   -1.0041 H   0  0  0  0  0  0  0  0  0  0  0  0
    0.5459   -3.8571   -1.4246 H   0  0  0  0  0  0  0  0  0  0  0  0
    0.1679   -3.7492    0.2743 H   0  0  0  0  0  0  0  0  0  0  0  0
   -5.4231    2.0111    1.0955 H   0  0  0  0  0  0  0  0  0  0  0  0
   -5.1541    1.1324   -0.4130 H   0  0  0  0  0  0  0  0  0  0  0  0
    2.4228   -2.6823   -2.4081 H   0  0  0  0  0  0  0  0  0  0  0  0
    0.3873   -2.5850    2.0300 H   0  0  0  0  0  0  0  0  0  0  0  0
    5.2173   -0.8173    0.1738 H   0  0  0  0  0  0  0  0  0  0  0  0
    4.8448   -0.4573    2.4932 H   0  0  0  0  0  0  0  0  0  0  0  0
    1.1315   -1.7589    4.1935 H   0  0  0  0  0  0  0  0  0  0  0  0
    3.3526   -0.6900    4.4478 H   0  0  0  0  0  0  0  0  0  0  0  0
   -6.3231    0.1219    2.2420 H   0  0  0  0  0  0  0  0  0  0  0  0
   -2.3484   -3.5264   -0.2476 H   0  0  0  0  0  0  0  0  0  0  0  0
   -2.0222   -3.7125   -1.9846 H   0  0  0  0  0  0  0  0  0  0  0  0
   -5.5423   -0.6486   -1.4132 H   0  0  0  0  0  0  0  0  0  0  0  0
   -6.3558   -2.1915   -1.2497 H   0  0  0  0  0  0  0  0  0  0  0  0
   -6.8007   -1.9209    1.1030 H   0  0  0  0  0  0  0  0  0  0  0  0
   -4.2954   -2.8373    0.1831 H   0  0  0  0  0  0  0  0  0  0  0  0
  1 24  1  0  0  0  0
  1 32  1  0  0  0  0
  2 18  1  0  0  0  0
  2 23  1  0  0  0  0
  3 28  2  0  0  0  0
  4 35  2  0  0  0  0
  5  9  1  0  0  0  0
  5 10  1  0  0  0  0
  5 14  1  0  0  0  0
  6 18  2  0  0  0  0
  6 19  1  0  0  0  0
  7 22  1  0  0  0  0
  7 28  1  0  0  0  0
  7 57  1  0  0  0  0
  8 34  1  0  0  0  0
  8 35  1  0  0  0  0
  8 67  1  0  0  0  0
  9 11  1  0  0  0  0
  9 36  1  0  0  0  0
  9 37  1  0  0  0  0
 10 12  1  0  0  0  0
 10 38  1  0  0  0  0
 10 39  1  0  0  0  0
 11 13  1  0  0  0  0
 11 40  1  0  0  0  0
 11 41  1  0  0  0  0
 12 13  1  0  0  0  0
 12 42  1  0  0  0  0
 12 43  1  0  0  0  0
 13 44  1  0  0  0  0
 13 45  1  0  0  0  0
 14 15  1  0  0  0  0
 14 46  1  0  0  0  0
 14 47  1  0  0  0  0
 15 16  2  0  0  0  0
 15 17  1  0  0  0  0
 16 18  1  0  0  0  0
 16 48  1  0  0  0  0
 17 19  2  0  0  0  0
 17 49  1  0  0  0  0
 19 50  1  0  0  0  0
 20 21  1  0  0  0  0
 20 22  1  0  0  0  0
 20 26  2  0  0  0  0
 21 24  1  0  0  0  0
 21 25  2  0  0  0  0
 22 27  2  0  0  0  0
 23 31  1  0  0  0  0
 23 53  1  0  0  0  0
 23 54  1  0  0  0  0
 24 51  1  0  0  0  0
 24 52  1  0  0  0  0
 25 28  1  0  0  0  0
 25 55  1  0  0  0  0
 26 29  1  0  0  0  0
 26 56  1  0  0  0  0
 27 30  1  0  0  0  0
 27 58  1  0  0  0  0
 29 30  2  0  0  0  0
 29 59  1  0  0  0  0
 30 60  1  0  0  0  0
 31 33  2  0  0  0  0
 31 61  1  0  0  0  0
 32 35  1  0  0  0  0
 32 62  1  0  0  0  0
 32 63  1  0  0  0  0
 33 34  1  0  0  0  0
 33 66  1  0  0  0  0
 34 64  1  0  0  0  0
 34 65  1  0  0  0  0
M  END
> <PUBCHEM_COMPOUND_CID>
10097192

> <PUBCHEM_CONFORMER_RMSD>
1.8

> <PUBCHEM_CONFORMER_DIVERSEORDER>
1
47
34
23
48
12
92
67
41
33
49
7
38
2
31
90
87
25
69
58
65
60
81
6
84
95
30
91
4
50
73
54
96
9
55
89
68
61
40
27
83
28
3
52
75
26
86
5
45
85
70
11
39
15
66
63
74
20
64
97
16
78
62
35
53
56
21
42
29
44
24
51
77
36
94
79
46
10
72
82
71
17
80
93
76
8
57
59
19
14
18
32
88
13
43
22
37

> <PUBCHEM_MMFF94_PARTIAL_CHARGES>
44
1 -0.46
10 0.27
14 0.41
15 -0.14
16 -0.15
17 -0.15
18 0.39
19 0.16
2 -0.36
20 0.03
21 -0.17
22 0.12
23 0.42
24 0.37
25 -0.14
26 -0.15
27 -0.15
28 0.62
29 -0.15
3 -0.57
30 -0.15
31 -0.29
32 0.29
33 -0.29
34 0.44
35 0.57
4 -0.57
48 0.15
49 0.15
5 -0.81
50 0.15
55 0.15
56 0.15
57 0.37
58 0.15
59 0.15
6 -0.62
60 0.15
61 0.15
66 0.15
67 0.37
7 -0.55
8 -0.73
9 0.27

> <PUBCHEM_EFFECTIVE_ROTOR_COUNT>
13.2

> <PUBCHEM_PHARMACOPHORE_FEATURES>
9
1 3 acceptor
1 4 acceptor
1 5 cation
1 7 donor
1 8 donor
6 20 22 26 27 29 30 rings
6 5 9 10 11 12 13 rings
6 6 15 16 17 18 19 rings
6 7 20 21 22 25 28 rings

> <PUBCHEM_HEAVY_ATOM_COUNT>
35

> <PUBCHEM_ATOM_DEF_STEREO_COUNT>
0

> <PUBCHEM_ATOM_UDEF_STEREO_COUNT>
0

> <PUBCHEM_BOND_DEF_STEREO_COUNT>
1

> <PUBCHEM_BOND_UDEF_STEREO_COUNT>
0

> <PUBCHEM_ISOTOPIC_ATOM_COUNT>
0

> <PUBCHEM_COMPONENT_COUNT>
1

> <PUBCHEM_CACTVS_TAUTO_COUNT>
4

> <PUBCHEM_CONFORMER_ID>
009A122800000001

> <PUBCHEM_MMFF94_ENERGY>
69.5906

> <PUBCHEM_FEATURE_SELFOVERLAP>
45.697

> <PUBCHEM_SHAPE_FINGERPRINT>
10032420 55 17314808308130229284
11578080 2 14619948378140665453
11595378 159 18263916640789411883
12156800 1 17773302647031605304
12422481 6 18060420201552019883
15001296 14 18339083790853556055
15274700 242 17902222652857475256
15781502 13 17197161569134039782
15968369 153 18270408307277716968
20764821 26 18269820017486624399
208703 8 18408608045793116631
21033648 29 17555714530795445233
21421861 104 18410289246073688985
24941158 1 16081359757220862260
3052486 1 18267292158508148098
338550 245 18412268341392105317
444735 86 18335706056720944741
463206 1 18338525226098978921
474144 1 18335692897077942699

> <PUBCHEM_SHAPE_MULTIPOLES>
686.6
11.53
5.38
2.72
13.95
3.3
-1.34
-2.4
0.64
-1.34
1.22
-2.84
-1.71
-2.98

> <PUBCHEM_SHAPE_SELFOVERLAP>
1434.344

> <PUBCHEM_SHAPE_VOLUME>
389.8

> <PUBCHEM_COORDINATE_TYPE>
2
5
10

$$$$
