REMARK  Name = 100917666
REMARK  10 active torsions:
REMARK  status: ('A' for Active; 'I' for Inactive)
REMARK    1  A    between atoms: N_1  and  C_35
REMARK    2  A    between atoms: C_8  and  O_21
REMARK    3  A    between atoms: C_9  and  O_23
REMARK    4  A    between atoms: C_10  and  C_37
REMARK    5  A    between atoms: C_11  and  O_25
REMARK    6  A    between atoms: C_13  and  O_27
REMARK    7  A    between atoms: C_14  and  O_29
REMARK    8  A    between atoms: C_17  and  O_33
REMARK    9  A    between atoms: C_18  and  O_31
REMARK   10  A    between atoms: C_37  and  O_38
REMARK                            x       y       z     vdW  Elec       q    Type
REMARK                         _______ _______ _______ _____ _____    ______ ____
ROOT
ATOM      1  N   UNL     1      -1.370  -0.531   1.858  0.00  0.00    +0.389 N 
ATOM      2  C   UNL     1      -0.435  -0.702  -0.462  0.00  0.00    +0.011 C 
ATOM      3  C   UNL     1      -1.470   0.452  -0.794  0.00  0.00    +0.030 C 
ATOM      4  C   UNL     1       0.929  -0.599  -1.274  0.00  0.00    +0.008 C 
ATOM      5  C   UNL     1      -0.179  -0.304   1.011  0.00  0.00    -0.051 C 
ATOM      6  C   UNL     1       0.244   1.190   0.815  0.00  0.00    +0.033 C 
ATOM      7  C   UNL     1       1.679   0.742  -1.231  0.00  0.00    +0.054 C 
ATOM      8  C   UNL     1       1.687   1.302   0.215  0.00  0.00    +0.093 C 
ATOM      9  C   UNL     1      -0.772   1.733  -0.229  0.00  0.00    +0.116 C 
ATOM     10  C   UNL     1      -2.841   0.134  -0.097  0.00  0.00    +0.036 C 
ATOM     11  C   UNL     1      -1.007  -2.134  -0.710  0.00  0.00    +0.116 C 
ATOM     12  C   UNL     1       2.054  -1.601  -0.872  0.00  0.00    +0.032 C 
ATOM     13  C   UNL     1       3.377  -0.797  -0.857  0.00  0.00    +0.138 C 
ATOM     14  C   UNL     1       3.062   0.377  -1.766  0.00  0.00    +0.139 C 
ATOM     15  C   UNL     1       2.749   0.686   1.174  0.00  0.00    +0.059 C 
ATOM     16  C   UNL     1      -2.607   0.147   1.444  0.00  0.00    -0.072 C 
ATOM     17  C   UNL     1      -3.352  -1.248  -0.606  0.00  0.00    +0.113 C 
ATOM     18  C   UNL     1       3.740  -0.319   0.559  0.00  0.00    +0.144 C 
ATOM     19  C   UNL     1      -2.430  -2.392  -0.253  0.00  0.00    +0.059 C 
ATOM     20  H   UNL     1      -1.567  -1.521   1.705  0.00  0.00    -0.080 HD
ENDROOT
BRANCH   8  21
ATOM     21  O   UNL     1       1.981   2.708   0.128  0.00  0.00    -0.387 OA
ATOM     22  H   UNL     1       1.342   3.137  -0.462  0.00  0.00    +0.210 HD
ENDBRANCH   8  21
BRANCH   9  23
ATOM     23  O   UNL     1      -1.594   2.714   0.374  0.00  0.00    -0.354 OA
ATOM     24  C   UNL     1      -0.940   3.976   0.452  0.00  0.00    +0.174 C 
ENDBRANCH   9  23
BRANCH  11  25
ATOM     25  O   UNL     1      -0.195  -3.132  -0.095  0.00  0.00    -0.354 OA
ATOM     26  C   UNL     1      -0.274  -4.365  -0.794  0.00  0.00    +0.174 C 
ENDBRANCH  11  25
BRANCH  13  27
ATOM     27  O   UNL     1       4.440  -1.589  -1.365  0.00  0.00    -0.382 OA
ATOM     28  H   UNL     1       4.217  -1.894  -2.258  0.00  0.00    +0.210 HD
ENDBRANCH  13  27
BRANCH  14  29
ATOM     29  O   UNL     1       3.986   1.442  -1.681  0.00  0.00    -0.382 OA
ATOM     30  H   UNL     1       3.719   2.151  -2.287  0.00  0.00    +0.210 HD
ENDBRANCH  14  29
BRANCH  18  31
ATOM     31  O   UNL     1       5.033   0.300   0.552  0.00  0.00    -0.351 OA
ATOM     32  C   UNL     1       5.643   0.222   1.828  0.00  0.00    +0.174 C 
ENDBRANCH  18  31
BRANCH  17  33
ATOM     33  O   UNL     1      -4.653  -1.560  -0.105  0.00  0.00    -0.384 OA
ATOM     34  H   UNL     1      -5.265  -0.839  -0.320  0.00  0.00    +0.210 HD
ENDBRANCH  17  33
BRANCH   1  35
ATOM     35  C   UNL     1      -1.095  -0.317   3.275  0.00  0.00    -0.077 C 
ATOM     36  C   UNL     1      -2.224  -0.852   4.140  0.00  0.00    -0.025 C 
ENDBRANCH   1  35
BRANCH  10  37
ATOM     37  C   UNL     1      -3.942   1.159  -0.465  0.00  0.00    +0.142 C 
BRANCH  37  38
ATOM     38  O   UNL     1      -4.112   1.120  -1.863  0.00  0.00    -0.351 OA
ATOM     39  C   UNL     1      -5.111   2.036  -2.306  0.00  0.00    +0.174 C 
ENDBRANCH  37  38
ENDBRANCH  10  37
TORSDOF 10
