100936919
  -OEChem-03292013293D

 63 64  0     1  0  0  0  0  0999 V2000
   -1.7614   -4.1928    1.8230 Cl  0  0  0  0  0  0  0  0  0  0  0  0
    1.6620   -1.5876   -0.5207 O   0  0  0  0  0  0  0  0  0  0  0  0
   -0.2698    0.7662   -0.6036 O   0  0  0  0  0  0  0  0  0  0  0  0
    2.3557    1.9478   -1.0946 O   0  0  0  0  0  0  0  0  0  0  0  0
   -2.0983    1.3123   -1.9007 O   0  0  0  0  0  0  0  0  0  0  0  0
   -4.3085    1.9635   -0.0121 O   0  0  0  0  0  0  0  0  0  0  0  0
    8.4346    0.8113    0.4803 O   0  0  0  0  0  0  0  0  0  0  0  0
    6.6965    2.2786    0.5074 O   0  0  0  0  0  0  0  0  0  0  0  0
   -4.4842    4.0376    0.9896 O   0  0  0  0  0  0  0  0  0  0  0  0
    0.3410    0.0222   -1.6791 C   0  0  1  0  0  0  0  0  0  0  0  0
    1.7668   -0.3730   -1.2932 C   0  0  1  0  0  0  0  0  0  0  0  0
    0.3067   -2.0686   -0.6123 C   0  0  1  0  0  0  0  0  0  0  0  0
   -0.3035   -1.3435   -1.8036 C   0  0  0  0  0  0  0  0  0  0  0  0
    0.3014   -3.5956   -0.7010 C   0  0  0  0  0  0  0  0  0  0  0  0
    2.5391    0.6634   -0.4972 C   0  0  1  0  0  0  0  0  0  0  0  0
   -1.0895   -4.2388   -0.8287 C   0  0  0  0  0  0  0  0  0  0  0  0
    4.0137    0.3662   -0.4998 C   0  0  0  0  0  0  0  0  0  0  0  0
   -1.4757    1.3547   -0.8479 C   0  0  0  0  0  0  0  0  0  0  0  0
   -2.0893   -3.7431    0.1846 C   0  0  0  0  0  0  0  0  0  0  0  0
    4.8109    0.1903    0.5722 C   0  0  0  0  0  0  0  0  0  0  0  0
   -1.9474    2.0928    0.3882 C   0  0  0  0  0  0  0  0  0  0  0  0
   -3.2947    1.5901    0.9227 C   0  0  2  0  0  0  0  0  0  0  0  0
   -3.1378   -2.9772   -0.1600 C   0  0  0  0  0  0  0  0  0  0  0  0
    6.2821   -0.1317    0.4958 C   0  0  0  0  0  0  0  0  0  0  0  0
   -3.3154    0.1000    1.2565 C   0  0  0  0  0  0  0  0  0  0  0  0
    4.2461    0.2842    1.9654 C   0  0  0  0  0  0  0  0  0  0  0  0
   -4.1190   -2.2850    0.7420 C   0  0  0  0  0  0  0  0  0  0  0  0
   -4.0365   -0.7929    0.5462 C   0  0  0  0  0  0  0  0  0  0  0  0
   -2.4619   -0.2747    2.4415 C   0  0  0  0  0  0  0  0  0  0  0  0
    7.1140    1.1303    0.5002 C   0  0  0  0  0  0  0  0  0  0  0  0
   -4.8154    3.2210    0.1407 C   0  0  0  0  0  0  0  0  0  0  0  0
   -5.8623    3.4719   -0.9019 C   0  0  0  0  0  0  0  0  0  0  0  0
    0.3131    0.6136   -2.6006 H   0  0  0  0  0  0  0  0  0  0  0  0
    2.3040   -0.6381   -2.2142 H   0  0  0  0  0  0  0  0  0  0  0  0
   -0.1872   -1.7511    0.3140 H   0  0  0  0  0  0  0  0  0  0  0  0
    0.0050   -1.8164   -2.7436 H   0  0  0  0  0  0  0  0  0  0  0  0
   -1.3935   -1.3210   -1.7619 H   0  0  0  0  0  0  0  0  0  0  0  0
    0.8141   -3.9967    0.1833 H   0  0  0  0  0  0  0  0  0  0  0  0
    0.9204   -3.9143   -1.5499 H   0  0  0  0  0  0  0  0  0  0  0  0
    2.1285    0.7098    0.5149 H   0  0  0  0  0  0  0  0  0  0  0  0
   -0.9913   -5.3283   -0.7425 H   0  0  0  0  0  0  0  0  0  0  0  0
   -1.4617   -4.0580   -1.8455 H   0  0  0  0  0  0  0  0  0  0  0  0
    4.4751    0.2933   -1.4842 H   0  0  0  0  0  0  0  0  0  0  0  0
    2.8076    2.6009   -0.5329 H   0  0  0  0  0  0  0  0  0  0  0  0
   -1.1819    2.0109    1.1693 H   0  0  0  0  0  0  0  0  0  0  0  0
   -1.9954    3.1537    0.1156 H   0  0  0  0  0  0  0  0  0  0  0  0
   -3.4945    2.1025    1.8743 H   0  0  0  0  0  0  0  0  0  0  0  0
   -3.2813   -2.7700   -1.2206 H   0  0  0  0  0  0  0  0  0  0  0  0
    6.4966   -0.6723   -0.4337 H   0  0  0  0  0  0  0  0  0  0  0  0
    6.5781   -0.7704    1.3351 H   0  0  0  0  0  0  0  0  0  0  0  0
    3.8207   -0.6773    2.2694 H   0  0  0  0  0  0  0  0  0  0  0  0
    3.4889    1.0667    2.0654 H   0  0  0  0  0  0  0  0  0  0  0  0
    5.0328    0.5441    2.6830 H   0  0  0  0  0  0  0  0  0  0  0  0
   -4.0004   -2.5593    1.7926 H   0  0  0  0  0  0  0  0  0  0  0  0
   -5.1309   -2.6122    0.4725 H   0  0  0  0  0  0  0  0  0  0  0  0
   -4.6145   -0.4340   -0.3041 H   0  0  0  0  0  0  0  0  0  0  0  0
   -1.4019   -0.1316    2.2098 H   0  0  0  0  0  0  0  0  0  0  0  0
   -2.5866   -1.3108    2.7600 H   0  0  0  0  0  0  0  0  0  0  0  0
   -2.7154    0.3517    3.3034 H   0  0  0  0  0  0  0  0  0  0  0  0
    9.0035    1.6105    0.4763 H   0  0  0  0  0  0  0  0  0  0  0  0
   -5.4186    3.3954   -1.8978 H   0  0  0  0  0  0  0  0  0  0  0  0
   -6.2649    4.4811   -0.7763 H   0  0  0  0  0  0  0  0  0  0  0  0
   -6.6786    2.7544   -0.7875 H   0  0  0  0  0  0  0  0  0  0  0  0
  1 19  1  0  0  0  0
  2 11  1  0  0  0  0
  2 12  1  0  0  0  0
  3 10  1  0  0  0  0
  3 18  1  0  0  0  0
  4 15  1  0  0  0  0
  4 44  1  0  0  0  0
  5 18  2  0  0  0  0
  6 22  1  0  0  0  0
  6 31  1  0  0  0  0
  7 30  1  0  0  0  0
  7 60  1  0  0  0  0
  8 30  2  0  0  0  0
  9 31  2  0  0  0  0
 10 11  1  0  0  0  0
 10 13  1  0  0  0  0
 10 33  1  0  0  0  0
 11 15  1  0  0  0  0
 11 34  1  0  0  0  0
 12 13  1  0  0  0  0
 12 14  1  0  0  0  0
 12 35  1  0  0  0  0
 13 36  1  0  0  0  0
 13 37  1  0  0  0  0
 14 16  1  0  0  0  0
 14 38  1  0  0  0  0
 14 39  1  0  0  0  0
 15 17  1  0  0  0  0
 15 40  1  0  0  0  0
 16 19  1  0  0  0  0
 16 41  1  0  0  0  0
 16 42  1  0  0  0  0
 17 20  2  0  0  0  0
 17 43  1  0  0  0  0
 18 21  1  0  0  0  0
 19 23  2  0  0  0  0
 20 24  1  0  0  0  0
 20 26  1  0  0  0  0
 21 22  1  0  0  0  0
 21 45  1  0  0  0  0
 21 46  1  0  0  0  0
 22 25  1  0  0  0  0
 22 47  1  0  0  0  0
 23 27  1  0  0  0  0
 23 48  1  0  0  0  0
 24 30  1  0  0  0  0
 24 49  1  0  0  0  0
 24 50  1  0  0  0  0
 25 28  2  0  0  0  0
 25 29  1  0  0  0  0
 26 51  1  0  0  0  0
 26 52  1  0  0  0  0
 26 53  1  0  0  0  0
 27 28  1  0  0  0  0
 27 54  1  0  0  0  0
 27 55  1  0  0  0  0
 28 56  1  0  0  0  0
 29 57  1  0  0  0  0
 29 58  1  0  0  0  0
 29 59  1  0  0  0  0
 31 32  1  0  0  0  0
 32 61  1  0  0  0  0
 32 62  1  0  0  0  0
 32 63  1  0  0  0  0
M  END
> <PUBCHEM_COMPOUND_CID>
100936919

> <PUBCHEM_CONFORMER_RMSD>
1

> <PUBCHEM_CONFORMER_DIVERSEORDER>
1
63
10
53
32
24
22
44
31
59
67
65
42
34
46
61
49
8
29
33
47
68
16
41
39
55
23
26
40
17
12
27
56
9
30
54
15
37
11
62
58
57
64
4
21
6
14
18
66
52
36
2
25
28
50
19
20
48
43
38
13
45
35
7
5
60
51
3

> <PUBCHEM_MMFF94_PARTIAL_CHARGES>
34
1 -0.14
10 0.28
11 0.28
12 0.28
15 0.42
16 0.14
17 -0.29
18 0.66
2 -0.56
20 -0.28
21 0.06
22 0.42
23 -0.29
24 0.2
25 -0.28
26 0.14
27 0.28
28 -0.29
29 0.14
3 -0.43
30 0.66
31 0.66
32 0.06
4 -0.68
43 0.15
44 0.4
48 0.15
5 -0.57
56 0.15
6 -0.43
60 0.5
7 -0.65
8 -0.57
9 -0.57

> <PUBCHEM_EFFECTIVE_ROTOR_COUNT>
7.8

> <PUBCHEM_PHARMACOPHORE_FEATURES>
10
1 2 acceptor
1 26 hydrophobe
1 4 acceptor
1 4 donor
1 5 acceptor
1 7 acceptor
1 8 acceptor
1 9 acceptor
3 7 8 30 anion
5 2 10 11 12 13 rings

> <PUBCHEM_HEAVY_ATOM_COUNT>
32

> <PUBCHEM_ATOM_DEF_STEREO_COUNT>
5

> <PUBCHEM_ATOM_UDEF_STEREO_COUNT>
0

> <PUBCHEM_BOND_DEF_STEREO_COUNT>
3

> <PUBCHEM_BOND_UDEF_STEREO_COUNT>
0

> <PUBCHEM_ISOTOPIC_ATOM_COUNT>
0

> <PUBCHEM_COMPONENT_COUNT>
1

> <PUBCHEM_CACTVS_TAUTO_COUNT>
8

> <PUBCHEM_CONFORMER_ID>
06042CD700000001

> <PUBCHEM_MMFF94_ENERGY>
53.6445

> <PUBCHEM_FEATURE_SELFOVERLAP>
50.806

> <PUBCHEM_SHAPE_FINGERPRINT>
10554248 39 13685753779280437064
10674148 151 13624349352449469735
11135609 187 18266175021136734845
11370993 70 18339089164332481143
12522641 33 18265606599294446701
12596602 18 18407759249103281520
12597179 24 18338231540851713153
12655364 131 17983846792599454578
12788726 201 18048049750409040990
13004483 165 18121224440066512763
14725015 67 18194403514543132003
14844126 61 18337114591593919099
15183329 4 14189575226790162356
15338160 23 18267305511888220180
17980427 23 17676779724578577069
21033648 29 18267319659109689913
21756936 100 18201430390149763412
23559900 14 17975435524404112189
25147074 1 17969791976543706980
2838139 119 15339123442475649464
392239 28 17988093316679098931
4058900 60 18127694829134814672
4366758 6 18263352625974004749
4403749 210 18410288142652430108
4938544 92 18410574020049370248
495365 180 18049733914781679645
6086070 43 16343691150350794690
6669772 16 18191307066645078989
9981440 41 18337962186425667107

> <PUBCHEM_SHAPE_MULTIPOLES>
613.46
14.69
5.38
1.74
31.02
3.11
-0.32
-14.12
-5.17
-9.5
-0.18
-0.46
0.33
1.09

> <PUBCHEM_SHAPE_SELFOVERLAP>
1240.712

> <PUBCHEM_SHAPE_VOLUME>
354.4

> <PUBCHEM_COORDINATE_TYPE>
2
5
10

$$$$
