REMARK  Name = 10097192
REMARK  11 active torsions:
REMARK  status: ('A' for Active; 'I' for Inactive)
REMARK    1  A    between atoms: N_2  and  C_20
REMARK    2  A    between atoms: C_3  and  C_5
REMARK    3  A    between atoms: C_5  and  S_6
REMARK    4  A    between atoms: S_6  and  C_7
REMARK    5  A    between atoms: C_7  and  C_11
REMARK    6  A    between atoms: C_20  and  C_22
REMARK    7  A    between atoms: C_21  and  C_23
REMARK    8  A    between atoms: C_23  and  O_24
REMARK    9  A    between atoms: O_24  and  C_29
REMARK   10  A    between atoms: C_26  and  C_31
REMARK   11  A    between atoms: C_31  and  N_32
REMARK                            x       y       z     vdW  Elec       q    Type
REMARK                         _______ _______ _______ _____ _____    ______ ____
ROOT
ATOM      1  O   UNL     1      -3.426  -1.495  -2.595  0.00  0.00    -0.274 OA
ATOM      2  N   UNL     1      -4.402  -2.214  -0.612  0.00  0.00    -0.300 N 
ATOM      3  C   UNL     1      -3.387  -2.146  -1.552  0.00  0.00    +0.234 C 
ATOM      4  H   UNL     1      -4.263  -2.768   0.189  0.00  0.00    +0.150 HD
ENDROOT
BRANCH   3   5
ATOM      5  C   UNL     1      -2.187  -2.985  -1.184  0.00  0.00    +0.143 C 
BRANCH   5   6
ATOM      6  S   UNL     1      -0.746  -1.904  -1.013  0.00  0.00    -0.126 S 
BRANCH   6   7
ATOM      7  C   UNL     1       0.484  -3.152  -0.586  0.00  0.00    +0.084 C 
BRANCH   7  11
ATOM      8  O   UNL     1       4.749  -1.578  -2.213  0.00  0.00    -0.270 OA
ATOM      9  N   UNL     1       4.317  -1.264   0.023  0.00  0.00    -0.280 N 
ATOM     10  C   UNL     1       2.203  -2.014   0.960  0.00  0.00    +0.010 C 
ATOM     11  C   UNL     1       1.819  -2.496  -0.383  0.00  0.00    -0.006 C 
ATOM     12  C   UNL     1       3.457  -1.405   1.125  0.00  0.00    +0.050 C 
ATOM     13  C   UNL     1       2.672  -2.341  -1.408  0.00  0.00    +0.055 C 
ATOM     14  C   UNL     1       1.373  -2.135   2.085  0.00  0.00    +0.001 C 
ATOM     15  C   UNL     1       3.873  -0.929   2.373  0.00  0.00    +0.015 C 
ATOM     16  C   UNL     1       4.002  -1.697  -1.245  0.00  0.00    +0.249 C 
ATOM     17  C   UNL     1       1.788  -1.660   3.333  0.00  0.00    +0.000 C 
ATOM     18  C   UNL     1       3.035  -1.059   3.477  0.00  0.00    +0.001 C 
ATOM     19  H   UNL     1       5.191  -0.833   0.165  0.00  0.00    +0.155 HD
ENDBRANCH   7  11
ENDBRANCH   6   7
ENDBRANCH   5   6
ENDBRANCH   3   5
BRANCH   2  20
ATOM     20  C   UNL     1      -5.657  -1.510  -0.751  0.00  0.00    +0.116 C 
BRANCH  20  22
ATOM     21  C   UNL     1      -5.918  -0.028   1.245  0.00  0.00    +0.018 C 
ATOM     22  C   UNL     1      -6.182  -1.177   0.607  0.00  0.00    -0.006 C 
BRANCH  21  23
ATOM     23  C   UNL     1      -5.068   1.061   0.676  0.00  0.00    +0.233 C 
BRANCH  23  24
ATOM     24  O   UNL     1      -3.719   0.836   1.063  0.00  0.00    -0.455 OA
BRANCH  24  29
ATOM     25  N   UNL     1      -3.259   2.820  -0.049  0.00  0.00    -0.210 NA
ATOM     26  C   UNL     1      -0.555   2.560   0.611  0.00  0.00    -0.037 C 
ATOM     27  C   UNL     1      -1.470   1.597   1.022  0.00  0.00    +0.051 C 
ATOM     28  C   UNL     1      -0.991   3.653  -0.130  0.00  0.00    +0.015 C 
ATOM     29  C   UNL     1      -2.798   1.772   0.669  0.00  0.00    +0.225 C 
ATOM     30  C   UNL     1      -2.341   3.736  -0.431  0.00  0.00    +0.102 C 
BRANCH  26  31
ATOM     31  C   UNL     1       0.887   2.422   0.963  0.00  0.00    -0.050 C 
BRANCH  31  32
ATOM     32  N   UNL     1       1.767   2.699  -0.172  0.00  0.00    +0.390 N 
ATOM     33  C   UNL     1       1.781   1.561  -1.102  0.00  0.00    -0.077 C 
ATOM     34  C   UNL     1       3.123   3.020   0.295  0.00  0.00    -0.077 C 
ATOM     35  C   UNL     1       2.658   1.855  -2.320  0.00  0.00    -0.023 C 
ATOM     36  C   UNL     1       4.044   3.361  -0.877  0.00  0.00    -0.023 C 
ATOM     37  C   UNL     1       4.075   2.235  -1.904  0.00  0.00    -0.004 C 
ATOM     38  H   UNL     1       1.407   3.511  -0.674  0.00  0.00    -0.079 HD
ENDBRANCH  31  32
ENDBRANCH  26  31
ENDBRANCH  24  29
ENDBRANCH  23  24
ENDBRANCH  21  23
ENDBRANCH  20  22
ENDBRANCH   2  20
TORSDOF 11
