REMARK  Name = 10095298
REMARK  12 active torsions:
REMARK  status: ('A' for Active; 'I' for Inactive)
REMARK    1  A    between atoms: C_1  and  N_24
REMARK    2  A    between atoms: C_2  and  N_20
REMARK    3  A    between atoms: C_3  and  N_23
REMARK    4  A    between atoms: C_4  and  S_7
REMARK    5  A    between atoms: S_7  and  N_10
REMARK    6  A    between atoms: N_10  and  C_12
REMARK    7  A    between atoms: N_24  and  C_25
REMARK    8  A    between atoms: N_24  and  C_29
REMARK    9  A    between atoms: C_25  and  C_26
REMARK   10  A    between atoms: C_26  and  C_27
REMARK   11  A    between atoms: C_29  and  C_30
REMARK   12  A    between atoms: C_30  and  C_31
REMARK                            x       y       z     vdW  Elec       q    Type
REMARK                         _______ _______ _______ _____ _____    ______ ____
ROOT
ATOM      1  C   UNL     1      -1.119   0.453  -0.203  0.00  0.00    +0.093 C 
ATOM      2  C   UNL     1      -0.758   1.392   0.774  0.00  0.00    +0.159 C 
ATOM      3  C   UNL     1      -0.188   0.109  -1.193  0.00  0.00    +0.159 C 
ATOM      4  C   UNL     1       1.428   1.625  -0.229  0.00  0.00    +0.129 C 
ATOM      5  C   UNL     1       0.509   1.975   0.761  0.00  0.00    +0.046 C 
ATOM      6  C   UNL     1       1.079   0.692  -1.206  0.00  0.00    +0.046 C 
ENDROOT
BRANCH   4   7
ATOM      7  S   UNL     1       3.014   2.356  -0.246  0.00  0.00    +0.074 S 
ATOM      8  O   UNL     1       2.922   3.632   0.454  0.00  0.00    -0.150 OA
ATOM      9  O   UNL     1       3.520   2.340  -1.613  0.00  0.00    -0.150 OA
BRANCH   7  10
ATOM     10  N   UNL     1       3.942   1.278   0.725  0.00  0.00    -0.215 N 
ATOM     11  H   UNL     1       4.478   1.611   1.481  0.00  0.00    +0.174 HD
BRANCH  10  12
ATOM     12  C   UNL     1       3.911  -0.122   0.401  0.00  0.00    +0.065 C 
ATOM     13  C   UNL     1       4.340  -0.547  -0.851  0.00  0.00    +0.016 C 
ATOM     14  C   UNL     1       3.454  -1.036   1.343  0.00  0.00    +0.016 C 
ATOM     15  C   UNL     1       4.310  -1.906  -1.166  0.00  0.00    +0.001 C 
ATOM     16  C   UNL     1       3.424  -2.395   1.028  0.00  0.00    +0.001 C 
ATOM     17  C   UNL     1       3.853  -2.830  -0.226  0.00  0.00    +0.000 C 
ENDBRANCH  10  12
ENDBRANCH   7  10
ENDBRANCH   4   7
BRANCH   2  20
ATOM     18  O   UNL     1      -1.315   2.613   2.649  0.00  0.00    -0.126 OA
ATOM     19  O   UNL     1      -2.814   1.247   1.808  0.00  0.00    -0.126 OA
ATOM     20  N   UNL     1      -1.675   1.770   1.795  0.00  0.00    +0.059 N 
ENDBRANCH   2  20
BRANCH   3  23
ATOM     21  O   UNL     1       0.345  -1.120  -3.070  0.00  0.00    -0.126 OA
ATOM     22  O   UNL     1      -1.653  -1.365  -2.192  0.00  0.00    -0.126 OA
ATOM     23  N   UNL     1      -0.515  -0.839  -2.202  0.00  0.00    +0.059 N 
ENDBRANCH   3  23
BRANCH   1  24
ATOM     24  N   UNL     1      -2.393  -0.132  -0.191  0.00  0.00    -0.305 N 
BRANCH  24  25
ATOM     25  C   UNL     1      -2.653  -1.355   0.530  0.00  0.00    +0.091 C 
BRANCH  25  26
ATOM     26  C   UNL     1      -1.375  -1.888   1.171  0.00  0.00    +0.021 C 
BRANCH  26  27
ATOM     27  C   UNL     1      -1.592  -3.211   1.909  0.00  0.00    +0.002 C 
ATOM     28  C   UNL     1      -0.288  -3.750   2.479  0.00  0.00    +0.000 C 
ENDBRANCH  26  27
ENDBRANCH  25  26
ENDBRANCH  24  25
BRANCH  24  29
ATOM     29  C   UNL     1      -3.498   0.506  -0.909  0.00  0.00    +0.091 C 
BRANCH  29  30
ATOM     30  C   UNL     1      -4.842  -0.033  -0.425  0.00  0.00    +0.021 C 
BRANCH  30  31
ATOM     31  C   UNL     1      -6.027   0.572  -1.182  0.00  0.00    +0.002 C 
ATOM     32  C   UNL     1      -7.345  -0.032  -0.723  0.00  0.00    +0.000 C 
ENDBRANCH  30  31
ENDBRANCH  29  30
ENDBRANCH  24  29
ENDBRANCH   1  24
TORSDOF 12
