REMARK  Name = 100962988
REMARK  8 active torsions:
REMARK  status: ('A' for Active; 'I' for Inactive)
REMARK    1  A    between atoms: C_3  and  C_29
REMARK    2  A    between atoms: C_4  and  C_8
REMARK    3  A    between atoms: C_7  and  C_18
REMARK    4  A    between atoms: C_11  and  O_14
REMARK    5  A    between atoms: C_13  and  O_16
REMARK    6  A    between atoms: C_21  and  O_24
REMARK    7  A    between atoms: C_23  and  O_26
REMARK    8  A    between atoms: C_29  and  O_30
REMARK                            x       y       z     vdW  Elec       q    Type
REMARK                         _______ _______ _______ _____ _____    ______ ____
ROOT
ATOM      1  O   UNL     1      -0.765   0.707  -1.754  0.00  0.00    -0.444 OA
ATOM      2  O   UNL     1       1.477   0.211  -1.869  0.00  0.00    -0.245 OA
ATOM      3  C   UNL     1      -0.893   1.577   0.459  0.00  0.00    +0.171 C 
ATOM      4  C   UNL     1      -1.712   1.116  -0.741  0.00  0.00    +0.206 C 
ATOM      5  C   UNL     1       0.447   1.019   0.158  0.00  0.00    +0.068 C 
ATOM      6  C   UNL     1       0.498   0.594  -1.253  0.00  0.00    +0.338 C 
ATOM      7  C   UNL     1       1.477   0.846   0.990  0.00  0.00    +0.003 C 
ENDROOT
BRANCH   4   8
ATOM      8  C   UNL     1      -2.674  -0.008  -0.417  0.00  0.00    +0.021 C 
ATOM      9  C   UNL     1      -3.992   0.281  -0.065  0.00  0.00    +0.039 C 
ATOM     10  C   UNL     1      -2.241  -1.333  -0.471  0.00  0.00    +0.003 C 
ATOM     11  C   UNL     1      -4.878  -0.755   0.233  0.00  0.00    +0.167 C 
ATOM     12  C   UNL     1      -3.126  -2.369  -0.173  0.00  0.00    +0.040 C 
ATOM     13  C   UNL     1      -4.445  -2.080   0.179  0.00  0.00    +0.167 C 
BRANCH  11  14
ATOM     14  O   UNL     1      -6.163  -0.460   0.572  0.00  0.00    -0.503 OA
ATOM     15  H   UNL     1      -6.446   0.433   0.606  0.00  0.00    +0.292 HD
ENDBRANCH  11  14
BRANCH  13  16
ATOM     16  O   UNL     1      -5.301  -3.100   0.467  0.00  0.00    -0.503 OA
ATOM     17  H   UNL     1      -6.188  -2.914   0.704  0.00  0.00    +0.292 HD
ENDBRANCH  13  16
ENDBRANCH   4   8
BRANCH   7  18
ATOM     18  C   UNL     1       2.772   0.232   0.644  0.00  0.00    +0.003 C 
ATOM     19  C   UNL     1       2.946  -1.146   0.770  0.00  0.00    +0.040 C 
ATOM     20  C   UNL     1       3.824   1.029   0.192  0.00  0.00    +0.003 C 
ATOM     21  C   UNL     1       4.171  -1.728   0.444  0.00  0.00    +0.167 C 
ATOM     22  C   UNL     1       5.049   0.448  -0.134  0.00  0.00    +0.040 C 
ATOM     23  C   UNL     1       5.223  -0.931  -0.008  0.00  0.00    +0.167 C 
BRANCH  21  24
ATOM     24  O   UNL     1       4.329  -3.075   0.571  0.00  0.00    -0.503 OA
ATOM     25  H   UNL     1       3.617  -3.603   0.875  0.00  0.00    +0.292 HD
ENDBRANCH  21  24
BRANCH  23  26
ATOM     26  O   UNL     1       6.424  -1.486  -0.330  0.00  0.00    -0.503 OA
ATOM     27  H   UNL     1       6.550  -2.411  -0.249  0.00  0.00    +0.292 HD
ENDBRANCH  23  26
ENDBRANCH   7  18
BRANCH   3  29
ATOM     28  O   UNL     1       0.284   3.686   0.347  0.00  0.00    -0.250 OA
ATOM     29  C   UNL     1      -0.762   3.071   0.489  0.00  0.00    +0.322 C 
BRANCH  29  30
ATOM     30  O   UNL     1      -1.968   3.653   0.700  0.00  0.00    -0.480 OA
ATOM     31  H   UNL     1      -2.733   3.122   0.801  0.00  0.00    +0.295 HD
ENDBRANCH  29  30
ENDBRANCH   3  29
TORSDOF 8
