100998144
  -OEChem-03292013293D

 70 70  0     1  0  0  0  0  0999 V2000
    0.3463    3.5757   -1.6018 S   0  0  0  0  0  0  0  0  0  0  0  0
   -1.6751   -4.2141    0.0209 S   0  0  0  0  0  0  0  0  0  0  0  0
    6.7301   -0.7406    0.1099 S   0  0  0  0  0  0  0  0  0  0  0  0
    1.3168    0.5516   -1.7480 O   0  0  0  0  0  0  0  0  0  0  0  0
    1.8308   -2.4435    1.8608 O   0  0  0  0  0  0  0  0  0  0  0  0
    2.8564   -3.8543    0.4219 O   0  0  0  0  0  0  0  0  0  0  0  0
   -0.6583    1.7769    0.0700 N   0  0  2  0  0  0  0  0  0  0  0  0
   -3.4713   -0.6745    0.3443 N   0  0  0  0  0  0  0  0  0  0  0  0
    2.0152   -0.3379    0.2869 N   0  0  0  0  0  0  0  0  0  0  0  0
   -4.0060   -3.4473   -2.1016 N   0  0  0  0  0  0  0  0  0  0  0  0
    0.7997    1.7325    0.2689 C   0  0  2  0  0  0  0  0  0  0  0  0
    1.3318    3.1338   -0.1208 C   0  0  0  0  0  0  0  0  0  0  0  0
   -1.3689    0.5368    0.3326 C   0  0  0  0  0  0  0  0  0  0  0  0
   -2.8965    0.6705    0.1782 C   0  0  2  0  0  0  0  0  0  0  0  0
   -0.9406    2.3388   -1.2487 C   0  0  0  0  0  0  0  0  0  0  0  0
   -3.6142    1.6522    1.1545 C   0  0  1  0  0  0  0  0  0  0  0  0
    2.8272    3.1686   -0.4421 C   0  0  0  0  0  0  0  0  0  0  0  0
    1.0211    4.1657    0.9775 C   0  0  0  0  0  0  0  0  0  0  0  0
    1.4020    0.6020   -0.5238 C   0  0  0  0  0  0  0  0  0  0  0  0
   -5.1240    1.8032    0.8632 C   0  0  0  0  0  0  0  0  0  0  0  0
   -3.3615    1.2924    2.6244 C   0  0  0  0  0  0  0  0  0  0  0  0
   -3.3469   -1.4331   -0.8865 C   0  0  0  0  0  0  0  0  0  0  0  0
   -4.0168   -2.8137   -0.7775 C   0  0  2  0  0  0  0  0  0  0  0  0
   -5.4219    2.2735   -0.5553 C   0  0  0  0  0  0  0  0  0  0  0  0
    2.6498   -1.5306   -0.2260 C   0  0  1  0  0  0  0  0  0  0  0  0
    4.1212   -1.2799   -0.5841 C   0  0  0  0  0  0  0  0  0  0  0  0
   -3.4184   -3.7559    0.2849 C   0  0  0  0  0  0  0  0  0  0  0  0
    2.4817   -2.7218    0.7057 C   0  0  0  0  0  0  0  0  0  0  0  0
    5.0151   -1.0345    0.6337 C   0  0  0  0  0  0  0  0  0  0  0  0
    6.5751    1.0072   -0.3224 C   0  0  0  0  0  0  0  0  0  0  0  0
    0.9963    1.5754    1.3374 H   0  0  0  0  0  0  0  0  0  0  0  0
   -1.1256    0.1909    1.3449 H   0  0  0  0  0  0  0  0  0  0  0  0
   -0.9928   -0.2379   -0.3427 H   0  0  0  0  0  0  0  0  0  0  0  0
   -3.1126    1.0158   -0.8383 H   0  0  0  0  0  0  0  0  0  0  0  0
   -0.9393    1.5921   -2.0495 H   0  0  0  0  0  0  0  0  0  0  0  0
   -1.9037    2.8574   -1.2610 H   0  0  0  0  0  0  0  0  0  0  0  0
   -3.1680    2.6446    1.0010 H   0  0  0  0  0  0  0  0  0  0  0  0
    1.3289    5.1754    0.6802 H   0  0  0  0  0  0  0  0  0  0  0  0
    1.5644    3.9195    1.8975 H   0  0  0  0  0  0  0  0  0  0  0  0
   -0.0442    4.2039    1.2329 H   0  0  0  0  0  0  0  0  0  0  0  0
    3.1626    4.1864   -0.6743 H   0  0  0  0  0  0  0  0  0  0  0  0
    3.0930    2.5379   -1.2972 H   0  0  0  0  0  0  0  0  0  0  0  0
    3.4128    2.8207    0.4169 H   0  0  0  0  0  0  0  0  0  0  0  0
   -3.0159   -1.1602    1.1151 H   0  0  0  0  0  0  0  0  0  0  0  0
   -5.5432    2.5385    1.5615 H   0  0  0  0  0  0  0  0  0  0  0  0
   -5.6516    0.8611    1.0527 H   0  0  0  0  0  0  0  0  0  0  0  0
   -3.7575    0.3040    2.8776 H   0  0  0  0  0  0  0  0  0  0  0  0
   -2.2960    1.3137    2.8698 H   0  0  0  0  0  0  0  0  0  0  0  0
   -3.8531    2.0191    3.2810 H   0  0  0  0  0  0  0  0  0  0  0  0
   -2.3050   -1.5608   -1.1958 H   0  0  0  0  0  0  0  0  0  0  0  0
   -3.8480   -0.8817   -1.6941 H   0  0  0  0  0  0  0  0  0  0  0  0
    2.0412   -0.1932    1.2918 H   0  0  0  0  0  0  0  0  0  0  0  0
   -5.0705   -2.6570   -0.5097 H   0  0  0  0  0  0  0  0  0  0  0  0
   -5.2147    1.4937   -1.2934 H   0  0  0  0  0  0  0  0  0  0  0  0
   -6.4827    2.5297   -0.6460 H   0  0  0  0  0  0  0  0  0  0  0  0
   -4.8373    3.1633   -0.8090 H   0  0  0  0  0  0  0  0  0  0  0  0
    2.1134   -1.7989   -1.1456 H   0  0  0  0  0  0  0  0  0  0  0  0
    4.1725   -0.4283   -1.2735 H   0  0  0  0  0  0  0  0  0  0  0  0
    4.4975   -2.1548   -1.1312 H   0  0  0  0  0  0  0  0  0  0  0  0
   -3.5017   -3.3111    1.2817 H   0  0  0  0  0  0  0  0  0  0  0  0
   -3.9959   -4.6874    0.3143 H   0  0  0  0  0  0  0  0  0  0  0  0
   -4.5112   -4.3316   -2.0615 H   0  0  0  0  0  0  0  0  0  0  0  0
   -4.5063   -2.8607   -2.7682 H   0  0  0  0  0  0  0  0  0  0  0  0
    4.6607   -0.1916    1.2353 H   0  0  0  0  0  0  0  0  0  0  0  0
    5.0237   -1.9171    1.2808 H   0  0  0  0  0  0  0  0  0  0  0  0
   -1.5598   -5.0005    1.1010 H   0  0  0  0  0  0  0  0  0  0  0  0
    1.7209   -3.2412    2.4212 H   0  0  0  0  0  0  0  0  0  0  0  0
    5.8869    1.1450   -1.1595 H   0  0  0  0  0  0  0  0  0  0  0  0
    7.5556    1.3878   -0.6213 H   0  0  0  0  0  0  0  0  0  0  0  0
    6.2303    1.5872    0.5378 H   0  0  0  0  0  0  0  0  0  0  0  0
  1 12  1  0  0  0  0
  1 15  1  0  0  0  0
  2 27  1  0  0  0  0
  2 66  1  0  0  0  0
  3 29  1  0  0  0  0
  3 30  1  0  0  0  0
  4 19  2  0  0  0  0
  5 28  1  0  0  0  0
  5 67  1  0  0  0  0
  6 28  2  0  0  0  0
  7 11  1  0  0  0  0
  7 13  1  0  0  0  0
  7 15  1  0  0  0  0
  8 14  1  0  0  0  0
  8 22  1  0  0  0  0
  8 44  1  0  0  0  0
  9 19  1  0  0  0  0
  9 25  1  0  0  0  0
  9 52  1  0  0  0  0
 10 23  1  0  0  0  0
 10 62  1  0  0  0  0
 10 63  1  0  0  0  0
 11 12  1  0  0  0  0
 11 19  1  0  0  0  0
 11 31  1  0  0  0  0
 12 17  1  0  0  0  0
 12 18  1  0  0  0  0
 13 14  1  0  0  0  0
 13 32  1  0  0  0  0
 13 33  1  0  0  0  0
 14 16  1  0  0  0  0
 14 34  1  0  0  0  0
 15 35  1  0  0  0  0
 15 36  1  0  0  0  0
 16 20  1  0  0  0  0
 16 21  1  0  0  0  0
 16 37  1  0  0  0  0
 17 41  1  0  0  0  0
 17 42  1  0  0  0  0
 17 43  1  0  0  0  0
 18 38  1  0  0  0  0
 18 39  1  0  0  0  0
 18 40  1  0  0  0  0
 20 24  1  0  0  0  0
 20 45  1  0  0  0  0
 20 46  1  0  0  0  0
 21 47  1  0  0  0  0
 21 48  1  0  0  0  0
 21 49  1  0  0  0  0
 22 23  1  0  0  0  0
 22 50  1  0  0  0  0
 22 51  1  0  0  0  0
 23 27  1  0  0  0  0
 23 53  1  0  0  0  0
 24 54  1  0  0  0  0
 24 55  1  0  0  0  0
 24 56  1  0  0  0  0
 25 26  1  0  0  0  0
 25 28  1  0  0  0  0
 25 57  1  0  0  0  0
 26 29  1  0  0  0  0
 26 58  1  0  0  0  0
 26 59  1  0  0  0  0
 27 60  1  0  0  0  0
 27 61  1  0  0  0  0
 29 64  1  0  0  0  0
 29 65  1  0  0  0  0
 30 68  1  0  0  0  0
 30 69  1  0  0  0  0
 30 70  1  0  0  0  0
M  END
> <PUBCHEM_COMPOUND_CID>
100998144

> <PUBCHEM_CONFORMER_RMSD>
1.2

> <PUBCHEM_CONFORMER_DIVERSEORDER>
1
35
24
18
37
16
14
13
7
26
34
21
23
30
19
32
17
27
31
6
36
33
28
20
38
2
10
29
25
4
3
8
9
12
15
22
5
11

> <PUBCHEM_MMFF94_PARTIAL_CHARGES>
29
1 -0.46
10 -0.99
11 0.33
12 0.23
13 0.27
14 0.27
15 0.5
19 0.57
2 -0.41
22 0.27
23 0.27
25 0.36
27 0.23
28 0.66
29 0.23
3 -0.46
30 0.23
4 -0.57
44 0.36
5 -0.65
52 0.37
6 -0.57
62 0.36
63 0.36
66 0.18
67 0.5
7 -0.81
8 -0.9
9 -0.73

> <PUBCHEM_EFFECTIVE_ROTOR_COUNT>
16

> <PUBCHEM_PHARMACOPHORE_FEATURES>
15
1 10 cation
1 10 donor
1 21 hydrophobe
1 24 hydrophobe
1 30 hydrophobe
1 4 acceptor
1 5 acceptor
1 6 acceptor
1 7 cation
1 8 cation
1 8 donor
1 9 donor
3 12 17 18 hydrophobe
3 5 6 28 anion
5 1 7 11 12 15 rings

> <PUBCHEM_HEAVY_ATOM_COUNT>
30

> <PUBCHEM_ATOM_DEF_STEREO_COUNT>
4

> <PUBCHEM_ATOM_UDEF_STEREO_COUNT>
1

> <PUBCHEM_BOND_DEF_STEREO_COUNT>
0

> <PUBCHEM_BOND_UDEF_STEREO_COUNT>
0

> <PUBCHEM_ISOTOPIC_ATOM_COUNT>
0

> <PUBCHEM_COMPONENT_COUNT>
1

> <PUBCHEM_CACTVS_TAUTO_COUNT>
2

> <PUBCHEM_CONFORMER_ID>
06051C0000000001

> <PUBCHEM_MMFF94_ENERGY>
56.3518

> <PUBCHEM_FEATURE_SELFOVERLAP>
76.181

> <PUBCHEM_SHAPE_FINGERPRINT>
10290309 65 17904762185319359686
10940486 97 18409453604515500477
1100329 8 18410296917212197384
11227688 84 17477199904669118295
12107698 1 18270679912657646871
12553582 1 18263923241684127434
12788726 201 17975141941693060616
13004483 165 18047184151110661664
14068700 675 18199737214751718759
14092694 8 13479720602074699059
14394314 77 18337112258946421121
14765038 42 18270134413118640058
14787075 74 18335423474412519220
14844126 61 17612290979792321026
17492 89 18194401323882645375
19319366 153 17677620765159285075
20600515 1 18059307447743939853
20775530 9 18338223981651665731
22113638 7 18267020557972233871
23558518 356 18191880135056166123
23559900 14 18267573796756354371
23622692 118 18200026373687958071
3633792 109 18269829836210013881
392239 28 18409729522500426952
4280585 95 18263065734695139914
463206 1 18334861588841179010

> <PUBCHEM_SHAPE_MULTIPOLES>
591.4
12.21
6.2
1.53
9.42
2.43
-0.22
3.32
-0.54
-2.67
0.59
-1.34
-0.28
-2.4

> <PUBCHEM_SHAPE_SELFOVERLAP>
1118.178

> <PUBCHEM_SHAPE_VOLUME>
371.9

> <PUBCHEM_COORDINATE_TYPE>
2
5
10

$$$$
