REMARK  Name = 100978860
REMARK  12 active torsions:
REMARK  status: ('A' for Active; 'I' for Inactive)
REMARK    1  A    between atoms: C_1  and  C_27
REMARK    2  A    between atoms: C_2  and  C_32
REMARK    3  A    between atoms: C_3  and  C_11
REMARK    4  A    between atoms: C_9  and  O_25
REMARK    5  A    between atoms: C_10  and  O_23
REMARK    6  A    between atoms: C_14  and  O_17
REMARK    7  A    between atoms: C_15  and  O_19
REMARK    8  A    between atoms: C_16  and  O_21
REMARK    9  A    between atoms: C_27  and  O_28
REMARK   10  A    between atoms: O_28  and  C_30
REMARK   11  A    between atoms: C_32  and  O_33
REMARK   12  A    between atoms: O_33  and  C_35
REMARK                            x       y       z     vdW  Elec       q    Type
REMARK                         _______ _______ _______ _____ _____    ______ ____
ROOT
ATOM      1  C   UNL     1       1.357   0.315   0.117  0.00  0.00    +0.056 C 
ATOM      2  C   UNL     1       2.307  -0.817   0.575  0.00  0.00    +0.052 C 
ATOM      3  C   UNL     1      -0.087   0.087   0.677  0.00  0.00    +0.048 C 
ATOM      4  C   UNL     1       1.784  -2.157   0.041  0.00  0.00    +0.030 C 
ATOM      5  C   UNL     1      -0.522  -1.375   0.751  0.00  0.00    -0.019 C 
ATOM      6  C   UNL     1       0.364  -2.425   0.457  0.00  0.00    -0.023 C 
ATOM      7  C   UNL     1      -1.825  -1.696   1.179  0.00  0.00    +0.036 C 
ATOM      8  C   UNL     1      -0.082  -3.755   0.523  0.00  0.00    +0.035 C 
ATOM      9  C   UNL     1      -2.253  -3.022   1.257  0.00  0.00    +0.167 C 
ATOM     10  C   UNL     1      -1.384  -4.052   0.921  0.00  0.00    +0.172 C 
ENDROOT
BRANCH   3  11
ATOM     11  C   UNL     1      -1.092   0.949  -0.088  0.00  0.00    -0.012 C 
ATOM     12  C   UNL     1      -1.304   0.731  -1.449  0.00  0.00    +0.036 C 
ATOM     13  C   UNL     1      -1.798   1.953   0.576  0.00  0.00    +0.036 C 
ATOM     14  C   UNL     1      -2.715   2.739  -0.122  0.00  0.00    +0.175 C 
ATOM     15  C   UNL     1      -2.221   1.517  -2.147  0.00  0.00    +0.175 C 
ATOM     16  C   UNL     1      -2.926   2.521  -1.484  0.00  0.00    +0.202 C 
BRANCH  14  17
ATOM     17  O   UNL     1      -3.399   3.715   0.538  0.00  0.00    -0.468 OA
ATOM     18  C   UNL     1      -3.123   3.871   1.929  0.00  0.00    +0.253 C 
ENDBRANCH  14  17
BRANCH  15  19
ATOM     19  O   UNL     1      -2.417   1.294  -3.477  0.00  0.00    -0.468 OA
ATOM     20  C   UNL     1      -1.656   0.249  -4.078  0.00  0.00    +0.253 C 
ENDBRANCH  15  19
BRANCH  16  21
ATOM     21  O   UNL     1      -3.823   3.288  -2.166  0.00  0.00    -0.501 OA
ATOM     22  H   UNL     1      -4.297   3.963  -1.720  0.00  0.00    +0.292 HD
ENDBRANCH  16  21
ENDBRANCH   3  11
BRANCH  10  23
ATOM     23  O   UNL     1      -1.787  -5.351   0.983  0.00  0.00    -0.468 OA
ATOM     24  C   UNL     1      -2.371  -5.906  -0.194  0.00  0.00    +0.253 C 
ENDBRANCH  10  23
BRANCH   9  25
ATOM     25  O   UNL     1      -3.525  -3.292   1.663  0.00  0.00    -0.503 OA
ATOM     26  H   UNL     1      -4.104  -2.590   1.888  0.00  0.00    +0.292 HD
ENDBRANCH   9  25
BRANCH   1  27
ATOM     27  C   UNL     1       1.877   1.701   0.533  0.00  0.00    +0.209 C 
BRANCH  27  28
ATOM     28  O   UNL     1       1.888   1.761   1.944  0.00  0.00    -0.448 OA
BRANCH  28  30
ATOM     29  O   UNL     1       2.706   3.921   1.873  0.00  0.00    -0.250 OA
ATOM     30  C   UNL     1       2.328   2.937   2.495  0.00  0.00    +0.318 C 
ATOM     31  C   UNL     1       2.285   2.856   3.991  0.00  0.00    +0.121 C 
ENDBRANCH  28  30
ENDBRANCH  27  28
ENDBRANCH   1  27
BRANCH   2  32
ATOM     32  C   UNL     1       3.752  -0.623   0.105  0.00  0.00    +0.209 C 
BRANCH  32  33
ATOM     33  O   UNL     1       3.765  -0.636  -1.309  0.00  0.00    -0.448 OA
BRANCH  33  35
ATOM     34  O   UNL     1       6.054  -0.321  -1.317  0.00  0.00    -0.250 OA
ATOM     35  C   UNL     1       4.991  -0.473  -1.902  0.00  0.00    +0.318 C 
ATOM     36  C   UNL     1       4.851  -0.508  -3.394  0.00  0.00    +0.121 C 
ENDBRANCH  33  35
ENDBRANCH  32  33
ENDBRANCH   2  32
TORSDOF 12
