100982104
  -OEChem-03292013293D

 36 38  0     1  0  0  0  0  0999 V2000
    5.8264   -2.6645    0.9333 Br  0  0  0  0  0  0  0  0  0  0  0  0
   -1.3408   -0.2896    0.0931 O   0  0  0  0  0  0  0  0  0  0  0  0
   -2.5940   -1.3129   -1.6444 O   0  0  0  0  0  0  0  0  0  0  0  0
   -5.6034   -0.8251    1.4385 O   0  0  0  0  0  0  0  0  0  0  0  0
    2.1951    2.3629   -0.6646 O   0  0  0  0  0  0  0  0  0  0  0  0
   -4.5935    0.6855   -0.0483 N   0  0  0  0  0  0  0  0  0  0  0  0
   -3.4772   -1.1953    0.5141 N   0  0  0  0  0  0  0  0  0  0  0  0
    1.1936    0.8856    0.8176 N   0  0  0  0  0  0  0  0  0  0  0  0
    4.5741    0.7990   -0.7482 N   0  0  0  0  0  0  0  0  0  0  0  0
   -3.3166    0.8043   -0.7097 C   0  0  2  0  0  0  0  0  0  0  0  0
   -2.6357   -0.5423   -0.4571 C   0  0  1  0  0  0  0  0  0  0  0  0
   -2.3966    1.7997   -0.0309 C   0  0  0  0  0  0  0  0  0  0  0  0
   -1.0517    1.1013   -0.1101 C   0  0  1  0  0  0  0  0  0  0  0  0
   -0.0588    1.5777    0.9314 C   0  0  0  0  0  0  0  0  0  0  0  0
   -4.6712   -0.4860    0.7226 C   0  0  0  0  0  0  0  0  0  0  0  0
   -1.9643   -2.5716   -1.4339 C   0  0  0  0  0  0  0  0  0  0  0  0
    2.2353    1.3414    0.0162 C   0  0  0  0  0  0  0  0  0  0  0  0
    3.4571    0.4968   -0.0137 C   0  0  0  0  0  0  0  0  0  0  0  0
    3.6964   -0.6854    0.6513 C   0  0  0  0  0  0  0  0  0  0  0  0
    5.5226   -0.1725   -0.5618 C   0  0  0  0  0  0  0  0  0  0  0  0
    5.0030   -1.1089    0.3046 C   0  0  0  0  0  0  0  0  0  0  0  0
   -3.4731    1.0261   -1.7700 H   0  0  0  0  0  0  0  0  0  0  0  0
   -2.3921    2.7768   -0.5235 H   0  0  0  0  0  0  0  0  0  0  0  0
   -2.6923    1.9573    1.0143 H   0  0  0  0  0  0  0  0  0  0  0  0
   -0.6306    1.2039   -1.1189 H   0  0  0  0  0  0  0  0  0  0  0  0
   -5.3291    1.3837   -0.0920 H   0  0  0  0  0  0  0  0  0  0  0  0
   -3.2614   -2.0761    0.9699 H   0  0  0  0  0  0  0  0  0  0  0  0
   -0.4312    1.3733    1.9413 H   0  0  0  0  0  0  0  0  0  0  0  0
    0.1116    2.6554    0.8361 H   0  0  0  0  0  0  0  0  0  0  0  0
    1.2928    0.0234    1.3426 H   0  0  0  0  0  0  0  0  0  0  0  0
   -1.8815   -3.0666   -2.4062 H   0  0  0  0  0  0  0  0  0  0  0  0
   -0.9533   -2.4561   -1.0321 H   0  0  0  0  0  0  0  0  0  0  0  0
   -2.5639   -3.2182   -0.7873 H   0  0  0  0  0  0  0  0  0  0  0  0
    4.6835    1.6131   -1.3373 H   0  0  0  0  0  0  0  0  0  0  0  0
    3.0166   -1.2004    1.3163 H   0  0  0  0  0  0  0  0  0  0  0  0
    6.4785   -0.1077   -1.0629 H   0  0  0  0  0  0  0  0  0  0  0  0
  1 21  1  0  0  0  0
  2 11  1  0  0  0  0
  2 13  1  0  0  0  0
  3 11  1  0  0  0  0
  3 16  1  0  0  0  0
  4 15  2  0  0  0  0
  5 17  2  0  0  0  0
  6 10  1  0  0  0  0
  6 15  1  0  0  0  0
  6 26  1  0  0  0  0
  7 11  1  0  0  0  0
  7 15  1  0  0  0  0
  7 27  1  0  0  0  0
  8 14  1  0  0  0  0
  8 17  1  0  0  0  0
  8 30  1  0  0  0  0
  9 18  1  0  0  0  0
  9 20  1  0  0  0  0
  9 34  1  0  0  0  0
 10 11  1  0  0  0  0
 10 12  1  0  0  0  0
 10 22  1  0  0  0  0
 12 13  1  0  0  0  0
 12 23  1  0  0  0  0
 12 24  1  0  0  0  0
 13 14  1  0  0  0  0
 13 25  1  0  0  0  0
 14 28  1  0  0  0  0
 14 29  1  0  0  0  0
 16 31  1  0  0  0  0
 16 32  1  0  0  0  0
 16 33  1  0  0  0  0
 17 18  1  0  0  0  0
 18 19  2  0  0  0  0
 19 21  1  0  0  0  0
 19 35  1  0  0  0  0
 20 21  2  0  0  0  0
 20 36  1  0  0  0  0
M  END
> <PUBCHEM_COMPOUND_CID>
100982104

> <PUBCHEM_CONFORMER_RMSD>
0.8

> <PUBCHEM_CONFORMER_DIVERSEORDER>
1
41
14
61
31
15
62
35
28
33
50
40
13
57
30
26
56
4
60
45
22
2
52
12
20
54
58
39
48
34
51
46
36
24
55
59
3
5
7
10
11
18
38
16
47
53
32
21
49
19
6
37
29
17
8
9
23
25
43
27
42
44

> <PUBCHEM_MMFF94_PARTIAL_CHARGES>
26
1 -0.06
10 0.3
11 0.86
13 0.28
14 0.3
15 0.69
16 0.28
17 0.71
18 -0.24
19 -0.15
2 -0.56
20 -0.3
21 0.06
26 0.37
27 0.37
3 -0.56
30 0.37
34 0.27
35 0.15
36 0.15
4 -0.57
5 -0.57
6 -0.73
7 -0.73
8 -0.73
9 0.03

> <PUBCHEM_EFFECTIVE_ROTOR_COUNT>
6

> <PUBCHEM_PHARMACOPHORE_FEATURES>
13
1 1 hydrophobe
1 2 acceptor
1 3 acceptor
1 4 acceptor
1 5 acceptor
1 6 donor
1 7 donor
1 8 donor
1 9 cation
1 9 donor
5 2 10 11 12 13 rings
5 6 7 10 11 15 rings
5 9 18 19 20 21 rings

> <PUBCHEM_HEAVY_ATOM_COUNT>
21

> <PUBCHEM_ATOM_DEF_STEREO_COUNT>
3

> <PUBCHEM_ATOM_UDEF_STEREO_COUNT>
0

> <PUBCHEM_BOND_DEF_STEREO_COUNT>
0

> <PUBCHEM_BOND_UDEF_STEREO_COUNT>
0

> <PUBCHEM_ISOTOPIC_ATOM_COUNT>
0

> <PUBCHEM_COMPONENT_COUNT>
1

> <PUBCHEM_CACTVS_TAUTO_COUNT>
15

> <PUBCHEM_CONFORMER_ID>
0604DD5800000001

> <PUBCHEM_MMFF94_ENERGY>
37.7812

> <PUBCHEM_FEATURE_SELFOVERLAP>
66.521

> <PUBCHEM_SHAPE_FINGERPRINT>
10670039 82 10881676850816148434
11128504 68 16153432765780507564
11405975 8 17774437299454075752
11578080 2 16083039691140963919
12553582 1 18341884208320083368
12555020 224 18272636957797847871
12633257 1 17775570870225178405
12788726 201 18130517344561391072
13073987 5 18408887317683739280
13167823 11 18335137562396903712
13551218 46 18341615897444943943
13955234 65 18267586995471365752
14251764 30 17969514873543198683
14341114 176 18260554432587931344
14617045 38 18343029886641358782
15188451 53 15984522508293138981
15537594 2 18411984684851738870
17859628 97 18341610404245251327
18186145 218 17168413969366947984
19141452 34 17846217799661438183
19489759 90 14836409120847781921
20281475 54 18128813225781042517
20645477 70 17749109964063348050
21250096 35 18343861109095074472
21267235 1 18409738331182899626
21403212 168 17775294820704694891
22950370 63 18334863843762085569
235170 7 15936400131261881450
23559900 14 18335693974841096513
2838139 119 12247135048014197435
3004659 81 17968377845681884242
312425 54 15626219088009580894
351380 3 18411136927058503722
46194498 28 16660650695572718398
465052 167 18409737265756814022
4921388 177 16515694372026304619
5104073 3 17703504523001924395
5281201 14 17022902354785319252
559249 180 18265890255317575200
5924683 9 16844997039694176487
7226269 152 16630535003173447201
88748 71 18262799550044901738

> <PUBCHEM_SHAPE_MULTIPOLES>
394.71
13.83
2.44
1.16
8.43
0.73
0.1
6.94
-2.39
1.16
0.26
-0.61
0.49
-1.14

> <PUBCHEM_SHAPE_SELFOVERLAP>
830.066

> <PUBCHEM_SHAPE_VOLUME>
226.6

> <PUBCHEM_COORDINATE_TYPE>
2
5
10

$$$$
