REMARK  Name = 10095770
REMARK  10 active torsions:
REMARK  status: ('A' for Active; 'I' for Inactive)
REMARK    1  A    between atoms: C_3  and  O_22
REMARK    2  A    between atoms: C_4  and  O_20
REMARK    3  A    between atoms: C_10  and  C_12
REMARK    4  A    between atoms: C_17  and  O_18
REMARK    5  A    between atoms: O_22  and  C_28
REMARK    6  A    between atoms: C_24  and  O_29
REMARK    7  A    between atoms: C_25  and  O_31
REMARK    8  A    between atoms: C_26  and  O_33
REMARK    9  A    between atoms: C_27  and  C_35
REMARK   10  A    between atoms: C_35  and  O_36
REMARK                            x       y       z     vdW  Elec       q    Type
REMARK                         _______ _______ _______ _____ _____    ______ ____
ROOT
ATOM      1  O   UNL     1      -1.175  -0.166  -1.791  0.00  0.00    -0.450 OA
ATOM      2  O   UNL     1      -2.915   0.990   1.714  0.00  0.00    -0.286 OA
ATOM      3  C   UNL     1       1.724   1.324  -0.163  0.00  0.00    +0.178 C 
ATOM      4  C   UNL     1       1.180   1.752   1.049  0.00  0.00    +0.173 C 
ATOM      5  C   UNL     1       0.918   0.683  -1.103  0.00  0.00    +0.078 C 
ATOM      6  C   UNL     1      -0.433   0.470  -0.830  0.00  0.00    +0.152 C 
ATOM      7  C   UNL     1      -0.976   0.897   0.382  0.00  0.00    +0.077 C 
ATOM      8  C   UNL     1      -0.171   1.540   1.326  0.00  0.00    +0.046 C 
ATOM      9  C   UNL     1      -2.406   0.657   0.651  0.00  0.00    +0.202 C 
ATOM     10  C   UNL     1      -3.179  -0.018  -0.427  0.00  0.00    +0.077 C 
ATOM     11  C   UNL     1      -2.511  -0.364  -1.537  0.00  0.00    +0.183 C 
ENDROOT
BRANCH  10  12
ATOM     12  C   UNL     1      -4.622  -0.282  -0.303  0.00  0.00    +0.006 C 
ATOM     13  C   UNL     1      -5.069  -1.489   0.239  0.00  0.00    +0.003 C 
ATOM     14  C   UNL     1      -5.549   0.673  -0.725  0.00  0.00    +0.003 C 
ATOM     15  C   UNL     1      -6.436  -1.740   0.356  0.00  0.00    +0.037 C 
ATOM     16  C   UNL     1      -6.916   0.422  -0.608  0.00  0.00    +0.037 C 
ATOM     17  C   UNL     1      -7.360  -0.784  -0.067  0.00  0.00    +0.139 C 
BRANCH  17  18
ATOM     18  O   UNL     1      -8.694  -1.029   0.048  0.00  0.00    -0.471 OA
ATOM     19  C   UNL     1      -9.582  -0.009  -0.405  0.00  0.00    +0.252 C 
ENDBRANCH  17  18
ENDBRANCH  10  12
BRANCH   4  20
ATOM     20  O   UNL     1       1.960   2.381   1.974  0.00  0.00    -0.468 OA
ATOM     21  C   UNL     1       2.615   1.557   2.936  0.00  0.00    +0.253 C 
ENDBRANCH   4  20
BRANCH   3  22
ATOM     22  O   UNL     1       3.044   1.530  -0.440  0.00  0.00    -0.447 OA
BRANCH  22  28
ATOM     23  O   UNL     1       3.795  -0.489   0.456  0.00  0.00    -0.316 OA
ATOM     24  C   UNL     1       6.215  -0.371  -1.087  0.00  0.00    +0.173 C 
ATOM     25  C   UNL     1       6.029  -1.348   0.074  0.00  0.00    +0.169 C 
ATOM     26  C   UNL     1       5.267   0.822  -0.963  0.00  0.00    +0.210 C 
ATOM     27  C   UNL     1       4.550  -1.687   0.267  0.00  0.00    +0.177 C 
ATOM     28  C   UNL     1       3.834   0.367  -0.683  0.00  0.00    +0.318 C 
BRANCH  24  29
ATOM     29  O   UNL     1       7.566   0.091  -1.064  0.00  0.00    -0.379 OA
ATOM     30  H   UNL     1       8.168  -0.665  -1.142  0.00  0.00    +0.211 HD
ENDBRANCH  24  29
BRANCH  25  31
ATOM     31  O   UNL     1       6.756  -2.544  -0.196  0.00  0.00    -0.379 OA
ATOM     32  H   UNL     1       7.694  -2.332  -0.319  0.00  0.00    +0.211 HD
ENDBRANCH  25  31
BRANCH  26  33
ATOM     33  O   UNL     1       5.271   1.560  -2.185  0.00  0.00    -0.377 OA
ATOM     34  H   UNL     1       6.174   1.858  -2.380  0.00  0.00    +0.211 HD
ENDBRANCH  26  33
BRANCH  27  35
ATOM     35  C   UNL     1       4.327  -2.568   1.492  0.00  0.00    +0.169 C 
BRANCH  35  36
ATOM     36  O   UNL     1       2.941  -2.831   1.613  0.00  0.00    -0.379 OA
ATOM     37  H   UNL     1       2.785  -3.391   2.390  0.00  0.00    +0.211 HD
ENDBRANCH  35  36
ENDBRANCH  27  35
ENDBRANCH  22  28
ENDBRANCH   3  22
TORSDOF 10
