REMARK  Name = 10090417
REMARK  8 active torsions:
REMARK  status: ('A' for Active; 'I' for Inactive)
REMARK    1  A    between atoms: C_3  and  C_26
REMARK    2  A    between atoms: C_5  and  O_22
REMARK    3  A    between atoms: C_6  and  C_25
REMARK    4  A    between atoms: C_7  and  C_10
REMARK    5  A    between atoms: C_8  and  O_20
REMARK    6  A    between atoms: C_11  and  O_16
REMARK    7  A    between atoms: C_15  and  O_18
REMARK    8  A    between atoms: C_26  and  C_27
REMARK                            x       y       z     vdW  Elec       q    Type
REMARK                         _______ _______ _______ _____ _____    ______ ____
ROOT
ATOM      1  O   UNL     1      -1.104  -1.144  -0.374  0.00  0.00    -0.453 OA
ATOM      2  C   UNL     1       0.351   0.417   0.367  0.00  0.00    +0.074 A 
ATOM      3  C   UNL     1       2.724   0.001   0.528  0.00  0.00    +0.050 C 
ATOM      4  C   UNL     1       0.207  -0.881  -0.111  0.00  0.00    +0.151 A 
ATOM      5  C   UNL     1       1.640   0.873   0.696  0.00  0.00    +0.136 C 
ATOM      6  C   UNL     1      -0.958   0.967   0.392  0.00  0.00    +0.083 A 
ATOM      7  C   UNL     1      -1.801  -0.019  -0.066  0.00  0.00    +0.151 A 
ATOM      8  C   UNL     1       2.538  -1.296   0.044  0.00  0.00    +0.141 C 
ATOM      9  C   UNL     1       1.266  -1.770  -0.289  0.00  0.00    +0.074 C 
ENDROOT
BRANCH   7  10
ATOM     10  C   UNL     1      -3.219  -0.109  -0.281  0.00  0.00    +0.069 C 
ATOM     11  C   UNL     1      -4.078  -0.550   0.731  0.00  0.00    +0.140 C 
ATOM     12  C   UNL     1      -3.750   0.252  -1.524  0.00  0.00    +0.009 C 
ATOM     13  C   UNL     1      -5.452  -0.630   0.503  0.00  0.00    +0.073 C 
ATOM     14  C   UNL     1      -5.123   0.173  -1.752  0.00  0.00    +0.037 C 
ATOM     15  C   UNL     1      -5.974  -0.268  -0.738  0.00  0.00    +0.137 C 
BRANCH  11  16
ATOM     16  O   UNL     1      -3.594  -0.910   1.955  0.00  0.00    -0.505 OA
ATOM     17  H   UNL     1      -2.674  -0.863   2.127  0.00  0.00    +0.292 HD
ENDBRANCH  11  16
BRANCH  15  18
ATOM     18  O   UNL     1      -7.315  -0.346  -0.961  0.00  0.00    -0.505 OA
ATOM     19  H   UNL     1      -7.887  -0.642  -0.280  0.00  0.00    +0.292 HD
ENDBRANCH  15  18
ENDBRANCH   7  10
BRANCH   8  20
ATOM     20  O   UNL     1       3.606  -2.133  -0.112  0.00  0.00    -0.472 OA
ATOM     21  C   UNL     1       3.954  -2.950   1.002  0.00  0.00    +0.252 C 
ENDBRANCH   8  20
BRANCH   5  22
ATOM     22  O   UNL     1       1.841   2.141   1.172  0.00  0.00    -0.506 OA
ATOM     23  H   UNL     1       1.113   2.720   1.283  0.00  0.00    +0.292 HD
ENDBRANCH   5  22
BRANCH   6  25
ATOM     24  O   UNL     1      -2.536   2.693   0.797  0.00  0.00    -0.283 OA
ATOM     25  C   UNL     1      -1.369   2.279   0.803  0.00  0.00    +0.237 C 
ENDBRANCH   6  25
BRANCH   3  26
ATOM     26  C   UNL     1       4.104   0.470   0.872  0.00  0.00    +0.058 C 
BRANCH  26  27
ATOM     27  C   UNL     1       4.809   1.113  -0.294  0.00  0.00    -0.030 C 
ATOM     28  C   UNL     1       5.948   0.719  -0.895  0.00  0.00    -0.048 C 
ATOM     29  C   UNL     1       6.686  -0.499  -0.406  0.00  0.00    +0.026 C 
ATOM     30  C   UNL     1       6.599   1.410  -2.060  0.00  0.00    +0.026 C 
ENDBRANCH  26  27
ENDBRANCH   3  26
TORSDOF 8
