10092482
  -OEChem-03292013303D

 47 50  0     1  0  0  0  0  0999 V2000
    0.0707    1.0546    2.2013 O   0  0  0  0  0  0  0  0  0  0  0  0
    0.3960   -1.2251    1.5121 O   0  0  0  0  0  0  0  0  0  0  0  0
   -0.3702    2.9473   -0.6814 O   0  0  0  0  0  0  0  0  0  0  0  0
   -2.7594   -2.0886    1.5066 O   0  0  0  0  0  0  0  0  0  0  0  0
    2.0604   -3.0682    0.4768 O   0  0  0  0  0  0  0  0  0  0  0  0
   -4.5412    0.4744   -2.0773 O   0  0  0  0  0  0  0  0  0  0  0  0
    4.1483   -2.3231   -1.1739 O   0  0  0  0  0  0  0  0  0  0  0  0
   -4.6728   -1.6950   -0.3715 O   0  0  0  0  0  0  0  0  0  0  0  0
    4.0421    2.7196   -1.1992 O   0  0  0  0  0  0  0  0  0  0  0  0
    0.6906    1.6108    1.0422 C   0  0  1  0  0  0  0  0  0  0  0  0
   -0.5410   -0.2126    1.9237 C   0  0  2  0  0  0  0  0  0  0  0  0
    1.6318    0.5860    0.4455 C   0  0  0  0  0  0  0  0  0  0  0  0
   -1.6264   -0.0508    0.8693 C   0  0  0  0  0  0  0  0  0  0  0  0
   -0.4193    1.9663    0.0537 C   0  0  0  0  0  0  0  0  0  0  0  0
   -1.5645    1.0267   -0.0306 C   0  0  0  0  0  0  0  0  0  0  0  0
    1.4229   -0.7734    0.7223 C   0  0  0  0  0  0  0  0  0  0  0  0
    1.3458    2.8882    1.5885 C   0  0  0  0  0  0  0  0  0  0  0  0
   -1.0573   -0.6445    3.3052 C   0  0  0  0  0  0  0  0  0  0  0  0
    2.6830    0.9395   -0.4125 C   0  0  0  0  0  0  0  0  0  0  0  0
   -2.6772   -0.9694    0.7308 C   0  0  0  0  0  0  0  0  0  0  0  0
   -2.5445    1.2075   -1.0123 C   0  0  0  0  0  0  0  0  0  0  0  0
    2.2674   -1.7508    0.1905 C   0  0  0  0  0  0  0  0  0  0  0  0
   -3.6555   -0.7935   -0.2507 C   0  0  0  0  0  0  0  0  0  0  0  0
    3.5236   -0.0379   -0.9492 C   0  0  0  0  0  0  0  0  0  0  0  0
   -3.5923    0.2957   -1.1162 C   0  0  0  0  0  0  0  0  0  0  0  0
    3.3195   -1.3811   -0.6435 C   0  0  0  0  0  0  0  0  0  0  0  0
    2.9392    2.2993   -0.8663 C   0  0  0  0  0  0  0  0  0  0  0  0
   -4.2983   -0.1270   -3.3475 C   0  0  0  0  0  0  0  0  0  0  0  0
    3.7786   -2.8750   -2.4362 C   0  0  0  0  0  0  0  0  0  0  0  0
    2.2434    2.6488    2.1714 H   0  0  0  0  0  0  0  0  0  0  0  0
    1.6096    3.6386    0.8428 H   0  0  0  0  0  0  0  0  0  0  0  0
    0.6612    3.3964    2.2811 H   0  0  0  0  0  0  0  0  0  0  0  0
   -1.3127   -1.7039    3.3771 H   0  0  0  0  0  0  0  0  0  0  0  0
   -0.2746   -0.4890    4.0598 H   0  0  0  0  0  0  0  0  0  0  0  0
   -1.9169   -0.0413    3.6190 H   0  0  0  0  0  0  0  0  0  0  0  0
   -2.4963    2.0448   -1.7038 H   0  0  0  0  0  0  0  0  0  0  0  0
    4.3361    0.2283   -1.6220 H   0  0  0  0  0  0  0  0  0  0  0  0
    2.0688    2.9542   -0.9895 H   0  0  0  0  0  0  0  0  0  0  0  0
   -1.8614   -2.4515    1.5939 H   0  0  0  0  0  0  0  0  0  0  0  0
    2.7645   -3.5922    0.0576 H   0  0  0  0  0  0  0  0  0  0  0  0
   -4.5550   -2.3829    0.3064 H   0  0  0  0  0  0  0  0  0  0  0  0
   -4.2064   -1.2132   -3.2493 H   0  0  0  0  0  0  0  0  0  0  0  0
   -3.3921    0.2874   -3.8007 H   0  0  0  0  0  0  0  0  0  0  0  0
   -5.1478    0.0944   -3.9995 H   0  0  0  0  0  0  0  0  0  0  0  0
    3.7866   -2.0991   -3.2083 H   0  0  0  0  0  0  0  0  0  0  0  0
    2.7894   -3.3407   -2.3831 H   0  0  0  0  0  0  0  0  0  0  0  0
    4.5118   -3.6411   -2.7028 H   0  0  0  0  0  0  0  0  0  0  0  0
  1 10  1  0  0  0  0
  1 11  1  0  0  0  0
  2 11  1  0  0  0  0
  2 16  1  0  0  0  0
  3 14  2  0  0  0  0
  4 20  1  0  0  0  0
  4 39  1  0  0  0  0
  5 22  1  0  0  0  0
  5 40  1  0  0  0  0
  6 25  1  0  0  0  0
  6 28  1  0  0  0  0
  7 26  1  0  0  0  0
  7 29  1  0  0  0  0
  8 23  1  0  0  0  0
  8 41  1  0  0  0  0
  9 27  2  0  0  0  0
 10 12  1  0  0  0  0
 10 14  1  0  0  0  0
 10 17  1  0  0  0  0
 11 13  1  0  0  0  0
 11 18  1  0  0  0  0
 12 16  2  0  0  0  0
 12 19  1  0  0  0  0
 13 15  1  0  0  0  0
 13 20  2  0  0  0  0
 14 15  1  0  0  0  0
 15 21  2  0  0  0  0
 16 22  1  0  0  0  0
 17 30  1  0  0  0  0
 17 31  1  0  0  0  0
 17 32  1  0  0  0  0
 18 33  1  0  0  0  0
 18 34  1  0  0  0  0
 18 35  1  0  0  0  0
 19 24  2  0  0  0  0
 19 27  1  0  0  0  0
 20 23  1  0  0  0  0
 21 25  1  0  0  0  0
 21 36  1  0  0  0  0
 22 26  2  0  0  0  0
 23 25  2  0  0  0  0
 24 26  1  0  0  0  0
 24 37  1  0  0  0  0
 27 38  1  0  0  0  0
 28 42  1  0  0  0  0
 28 43  1  0  0  0  0
 28 44  1  0  0  0  0
 29 45  1  0  0  0  0
 29 46  1  0  0  0  0
 29 47  1  0  0  0  0
M  END
> <PUBCHEM_COMPOUND_CID>
10092482

> <PUBCHEM_CONFORMER_RMSD>
0.8

> <PUBCHEM_CONFORMER_DIVERSEORDER>
1

> <PUBCHEM_MMFF94_PARTIAL_CHARGES>
33
1 -0.56
10 0.48
11 0.7
12 -0.14
13 -0.14
14 0.42
15 0.09
16 0.08
19 0.09
2 -0.36
20 0.08
21 -0.15
22 0.08
23 0.08
24 -0.15
25 0.08
26 0.08
27 0.42
28 0.28
29 0.28
3 -0.57
36 0.15
37 0.15
38 0.06
39 0.45
4 -0.53
40 0.45
41 0.45
5 -0.53
6 -0.36
7 -0.36
8 -0.53
9 -0.57

> <PUBCHEM_EFFECTIVE_ROTOR_COUNT>
3.4

> <PUBCHEM_PHARMACOPHORE_FEATURES>
13
1 1 acceptor
1 2 acceptor
1 3 acceptor
1 4 donor
1 5 donor
1 6 acceptor
1 7 acceptor
1 8 donor
1 9 acceptor
6 1 10 11 13 14 15 rings
6 1 2 10 11 12 16 rings
6 12 16 19 22 24 26 rings
6 13 15 20 21 23 25 rings

> <PUBCHEM_HEAVY_ATOM_COUNT>
29

> <PUBCHEM_ATOM_DEF_STEREO_COUNT>
2

> <PUBCHEM_ATOM_UDEF_STEREO_COUNT>
0

> <PUBCHEM_BOND_DEF_STEREO_COUNT>
0

> <PUBCHEM_BOND_UDEF_STEREO_COUNT>
0

> <PUBCHEM_ISOTOPIC_ATOM_COUNT>
0

> <PUBCHEM_COMPONENT_COUNT>
1

> <PUBCHEM_CACTVS_TAUTO_COUNT>
58

> <PUBCHEM_CONFORMER_ID>
0099FFC200000001

> <PUBCHEM_MMFF94_ENERGY>
125.8139

> <PUBCHEM_FEATURE_SELFOVERLAP>
67.439

> <PUBCHEM_SHAPE_FINGERPRINT>
10498660 4 17168689887299277141
10764073 3 17108688343433471152
11582403 64 17611443617305336936
11640471 11 13984661485749810065
11720765 8 17754990048552618542
11796584 16 16557888174430626429
12553582 1 18194129516476495722
12788726 201 17696194699154485600
12892183 10 10519979374742409175
13383661 66 16764543738176243606
13544653 18 17417802911935405834
13911987 19 17834700540105265308
14251757 17 18040997332309256711
14659021 117 17256245943766392338
15163728 17 15141247546864442263
16945 1 18043247942327512120
17357779 13 18339090289387195878
1813 80 16271928228895838329
20626108 58 17416947504958313221
20691752 17 17240196616989406417
20775438 99 17907820176597624791
20775530 9 17631731543546431383
21285901 2 17681286769060024947
21731228 192 8574415526587436984
21731516 1 17275384287438723769
21756936 100 12036605028330754182
22182313 1 17751103468348280104
22907989 373 16881080747748771446
23379529 103 18201166455340286686
23559900 14 18187074053883188888
238 59 18338514265379109428
2748010 2 17970935429575686528
3323516 105 18335982072989043769
394222 165 13538483103763217507
4280585 95 18192429676385875238
46194498 28 18042411390267560687
463206 1 18059849532968069871
474 4 12540693712889405637
484985 159 16197057882198115646
5262128 65 18266752294082479556
57527585 103 17320461949517923650
70251023 43 18269293278239477682
7097593 13 10735867357622274332

> <PUBCHEM_SHAPE_MULTIPOLES>
543.98
7.92
3.21
2.63
2.92
0.06
-0.14
-4.15
6.58
-3.75
0.66
2.04
-0.48
0.66

> <PUBCHEM_SHAPE_SELFOVERLAP>
1220.852

> <PUBCHEM_SHAPE_VOLUME>
286.2

> <PUBCHEM_COORDINATE_TYPE>
2
5
10

$$$$
