REMARK  Name = 100982102
REMARK  4 active torsions:
REMARK  status: ('A' for Active; 'I' for Inactive)
REMARK    1  A    between atoms: C_6  and  O_12
REMARK    2  A    between atoms: C_8  and  C_14
REMARK    3  A    between atoms: C_14  and  N_16
REMARK    4  A    between atoms: C_17  and  C_21
REMARK                            x       y       z     vdW  Elec       q    Type
REMARK                         _______ _______ _______ _____ _____    ______ ____
ROOT
ATOM      1  O   UNL     1      -1.541  -0.249   0.975  0.00  0.00    -0.319 OA
ATOM      2  O   UNL     1      -3.935  -1.675  -2.331  0.00  0.00    -0.253 OA
ATOM      3  N   UNL     1      -4.059   0.239  -0.980  0.00  0.00    -0.284 N 
ATOM      4  N   UNL     1      -3.080  -1.613  -0.147  0.00  0.00    -0.247 N 
ATOM      5  C   UNL     1      -3.709   0.593   0.379  0.00  0.00    +0.147 C 
ATOM      6  C   UNL     1      -2.923  -0.619   0.889  0.00  0.00    +0.271 C 
ATOM      7  C   UNL     1      -2.714   1.728   0.464  0.00  0.00    +0.058 C 
ATOM      8  C   UNL     1      -1.375   1.022   0.329  0.00  0.00    +0.141 C 
ATOM      9  C   UNL     1      -3.716  -1.087  -1.280  0.00  0.00    +0.304 C 
ATOM     10  H   UNL     1      -4.486   0.856  -1.617  0.00  0.00    +0.151 HD
ATOM     11  H   UNL     1      -2.777  -2.547  -0.066  0.00  0.00    +0.155 HD
ENDROOT
BRANCH   6  12
ATOM     12  O   UNL     1      -3.426  -1.130   2.108  0.00  0.00    -0.348 OA
ATOM     13  H   UNL     1      -2.893  -1.893   2.382  0.00  0.00    +0.214 HD
ENDBRANCH   6  12
BRANCH   8  14
ATOM     14  C   UNL     1      -0.226   1.777   0.969  0.00  0.00    +0.119 C 
BRANCH  14  16
ATOM     15  O   UNL     1       1.641   2.030  -1.198  0.00  0.00    -0.269 OA
ATOM     16  N   UNL     1       1.014   1.070   0.819  0.00  0.00    -0.298 N 
ATOM     17  C   UNL     1       1.860   1.256  -0.269  0.00  0.00    +0.259 C 
ATOM     18  H   UNL     1       1.277   0.426   1.516  0.00  0.00    +0.150 HD
BRANCH  17  21
ATOM     19 BR   UNL     1       5.752  -2.333   1.057  0.00  0.00    -0.048 Br
ATOM     20  N   UNL     1       4.034   0.487  -1.286  0.00  0.00    -0.308 N 
ATOM     21  C   UNL     1       3.094   0.429  -0.290  0.00  0.00    +0.103 C 
ATOM     22  C   UNL     1       3.513  -0.505   0.632  0.00  0.00    +0.027 C 
ATOM     23  C   UNL     1       5.047  -0.394  -1.013  0.00  0.00    +0.069 C 
ATOM     24  C   UNL     1       4.749  -1.026   0.174  0.00  0.00    +0.051 C 
ATOM     25  H   UNL     1       3.988   1.073  -2.075  0.00  0.00    +0.152 HD
ENDBRANCH  17  21
ENDBRANCH  14  16
ENDBRANCH   8  14
TORSDOF 4
