10095298
  -OEChem-03292013303D

 57 58  0     0  0  0  0  0  0999 V2000
    3.0135    2.3564   -0.2462 S   0  0  0  0  0  0  0  0  0  0  0  0
    2.9222    3.6321    0.4538 O   0  0  0  0  0  0  0  0  0  0  0  0
    3.5199    2.3399   -1.6131 O   0  0  0  0  0  0  0  0  0  0  0  0
   -1.3149    2.6134    2.6486 O   0  5  0  0  0  0  0  0  0  0  0  0
    0.3447   -1.1199   -3.0696 O   0  5  0  0  0  0  0  0  0  0  0  0
   -2.8138    1.2474    1.8082 O   0  0  0  0  0  0  0  0  0  0  0  0
   -1.6527   -1.3646   -2.1922 O   0  0  0  0  0  0  0  0  0  0  0  0
   -2.3933   -0.1324   -0.1908 N   0  0  0  0  0  0  0  0  0  0  0  0
   -1.6750    1.7699    1.7950 N   0  3  0  0  0  0  0  0  0  0  0  0
   -0.5151   -0.8392   -2.2021 N   0  3  0  0  0  0  0  0  0  0  0  0
    3.9417    1.2781    0.7254 N   0  0  0  0  0  0  0  0  0  0  0  0
   -2.6534   -1.3551    0.5304 C   0  0  0  0  0  0  0  0  0  0  0  0
   -3.4980    0.5057   -0.9094 C   0  0  0  0  0  0  0  0  0  0  0  0
   -1.1193    0.4530   -0.2029 C   0  0  0  0  0  0  0  0  0  0  0  0
   -1.3746   -1.8883    1.1706 C   0  0  0  0  0  0  0  0  0  0  0  0
   -4.8416   -0.0329   -0.4252 C   0  0  0  0  0  0  0  0  0  0  0  0
   -0.7578    1.3920    0.7737 C   0  0  0  0  0  0  0  0  0  0  0  0
   -0.1878    0.1093   -1.1926 C   0  0  0  0  0  0  0  0  0  0  0  0
   -1.5918   -3.2114    1.9091 C   0  0  0  0  0  0  0  0  0  0  0  0
   -6.0271    0.5720   -1.1816 C   0  0  0  0  0  0  0  0  0  0  0  0
    1.4279    1.6255   -0.2289 C   0  0  0  0  0  0  0  0  0  0  0  0
    0.5091    1.9752    0.7608 C   0  0  0  0  0  0  0  0  0  0  0  0
    1.0793    0.6923   -1.2055 C   0  0  0  0  0  0  0  0  0  0  0  0
   -0.2885   -3.7496    2.4791 C   0  0  0  0  0  0  0  0  0  0  0  0
   -7.3452   -0.0320   -0.7225 C   0  0  0  0  0  0  0  0  0  0  0  0
    3.9110   -0.1225    0.4007 C   0  0  0  0  0  0  0  0  0  0  0  0
    4.3395   -0.5473   -0.8512 C   0  0  0  0  0  0  0  0  0  0  0  0
    3.4537   -1.0363    1.3428 C   0  0  0  0  0  0  0  0  0  0  0  0
    4.3101   -1.9059   -1.1659 C   0  0  0  0  0  0  0  0  0  0  0  0
    3.4244   -2.3949    1.0280 C   0  0  0  0  0  0  0  0  0  0  0  0
    3.8527   -2.8296   -0.2263 C   0  0  0  0  0  0  0  0  0  0  0  0
   -3.3872   -1.2092    1.3308 H   0  0  0  0  0  0  0  0  0  0  0  0
   -3.0452   -2.1262   -0.1434 H   0  0  0  0  0  0  0  0  0  0  0  0
   -3.4723    1.5925   -0.7607 H   0  0  0  0  0  0  0  0  0  0  0  0
   -3.4028    0.3395   -1.9878 H   0  0  0  0  0  0  0  0  0  0  0  0
   -0.9693   -1.1715    1.8943 H   0  0  0  0  0  0  0  0  0  0  0  0
   -0.6025   -2.0695    0.4149 H   0  0  0  0  0  0  0  0  0  0  0  0
   -4.9771    0.1698    0.6436 H   0  0  0  0  0  0  0  0  0  0  0  0
   -4.9003   -1.1179   -0.5673 H   0  0  0  0  0  0  0  0  0  0  0  0
   -2.0175   -3.9546    1.2248 H   0  0  0  0  0  0  0  0  0  0  0  0
   -2.3121   -3.0679    2.7227 H   0  0  0  0  0  0  0  0  0  0  0  0
   -5.9092    0.3996   -2.2577 H   0  0  0  0  0  0  0  0  0  0  0  0
   -6.0506    1.6568   -1.0267 H   0  0  0  0  0  0  0  0  0  0  0  0
    0.8007    2.6972    1.5190 H   0  0  0  0  0  0  0  0  0  0  0  0
    1.8016    0.4379   -1.9761 H   0  0  0  0  0  0  0  0  0  0  0  0
    0.1579   -3.0375    3.1805 H   0  0  0  0  0  0  0  0  0  0  0  0
   -0.4678   -4.6872    3.0143 H   0  0  0  0  0  0  0  0  0  0  0  0
    0.4355   -3.9475    1.6822 H   0  0  0  0  0  0  0  0  0  0  0  0
   -7.3657   -1.1121   -0.8991 H   0  0  0  0  0  0  0  0  0  0  0  0
   -7.5070    0.1452    0.3456 H   0  0  0  0  0  0  0  0  0  0  0  0
   -8.1788    0.4172   -1.2714 H   0  0  0  0  0  0  0  0  0  0  0  0
    3.9640    1.4862    1.7325 H   0  0  0  0  0  0  0  0  0  0  0  0
    4.7282    0.1464   -1.5894 H   0  0  0  0  0  0  0  0  0  0  0  0
    3.1153   -0.7074    2.3215 H   0  0  0  0  0  0  0  0  0  0  0  0
    4.6493   -2.2453   -2.1403 H   0  0  0  0  0  0  0  0  0  0  0  0
    3.0678   -3.1141    1.7594 H   0  0  0  0  0  0  0  0  0  0  0  0
    3.8306   -3.8876   -0.4709 H   0  0  0  0  0  0  0  0  0  0  0  0
  1  2  2  0  0  0  0
  1  3  2  0  0  0  0
  1 11  1  0  0  0  0
  1 21  1  0  0  0  0
  4  9  1  0  0  0  0
  5 10  1  0  0  0  0
  6  9  2  0  0  0  0
  7 10  2  0  0  0  0
  8 12  1  0  0  0  0
  8 13  1  0  0  0  0
  8 14  1  0  0  0  0
  9 17  1  0  0  0  0
 10 18  1  0  0  0  0
 11 26  1  0  0  0  0
 11 52  1  0  0  0  0
 12 15  1  0  0  0  0
 12 32  1  0  0  0  0
 12 33  1  0  0  0  0
 13 16  1  0  0  0  0
 13 34  1  0  0  0  0
 13 35  1  0  0  0  0
 14 17  2  0  0  0  0
 14 18  1  0  0  0  0
 15 19  1  0  0  0  0
 15 36  1  0  0  0  0
 15 37  1  0  0  0  0
 16 20  1  0  0  0  0
 16 38  1  0  0  0  0
 16 39  1  0  0  0  0
 17 22  1  0  0  0  0
 18 23  2  0  0  0  0
 19 24  1  0  0  0  0
 19 40  1  0  0  0  0
 19 41  1  0  0  0  0
 20 25  1  0  0  0  0
 20 42  1  0  0  0  0
 20 43  1  0  0  0  0
 21 22  2  0  0  0  0
 21 23  1  0  0  0  0
 22 44  1  0  0  0  0
 23 45  1  0  0  0  0
 24 46  1  0  0  0  0
 24 47  1  0  0  0  0
 24 48  1  0  0  0  0
 25 49  1  0  0  0  0
 25 50  1  0  0  0  0
 25 51  1  0  0  0  0
 26 27  2  0  0  0  0
 26 28  1  0  0  0  0
 27 29  1  0  0  0  0
 27 53  1  0  0  0  0
 28 30  2  0  0  0  0
 28 54  1  0  0  0  0
 29 31  2  0  0  0  0
 29 55  1  0  0  0  0
 30 31  1  0  0  0  0
 30 56  1  0  0  0  0
 31 57  1  0  0  0  0
M  CHG  4   4  -1   5  -1   9   1  10   1
M  END
> <PUBCHEM_COMPOUND_CID>
10095298

> <PUBCHEM_CONFORMER_RMSD>
1.2

> <PUBCHEM_CONFORMER_DIVERSEORDER>
1
3
8
11
10
4
6
7
9
5
2

> <PUBCHEM_MMFF94_PARTIAL_CHARGES>
33
1 1.45
10 0.91
11 -0.76
12 0.37
13 0.37
14 0.1
17 0.13
18 0.13
2 -0.65
21 -0.01
22 -0.15
23 -0.15
26 0.2
27 -0.15
28 -0.15
29 -0.15
3 -0.65
30 -0.15
31 -0.15
4 -0.52
44 0.15
45 0.15
5 -0.52
52 0.42
53 0.15
54 0.15
55 0.15
56 0.15
57 0.15
6 -0.52
7 -0.52
8 -0.84
9 0.91

> <PUBCHEM_EFFECTIVE_ROTOR_COUNT>
12

> <PUBCHEM_PHARMACOPHORE_FEATURES>
14
1 11 donor
1 2 acceptor
1 24 hydrophobe
1 25 hydrophobe
1 3 acceptor
1 4 acceptor
1 4 anion
1 5 acceptor
1 5 anion
1 6 acceptor
1 7 acceptor
1 8 cation
6 14 17 18 21 22 23 rings
6 26 27 28 29 30 31 rings

> <PUBCHEM_HEAVY_ATOM_COUNT>
31

> <PUBCHEM_ATOM_DEF_STEREO_COUNT>
0

> <PUBCHEM_ATOM_UDEF_STEREO_COUNT>
0

> <PUBCHEM_BOND_DEF_STEREO_COUNT>
0

> <PUBCHEM_BOND_UDEF_STEREO_COUNT>
0

> <PUBCHEM_ISOTOPIC_ATOM_COUNT>
0

> <PUBCHEM_COMPONENT_COUNT>
1

> <PUBCHEM_CACTVS_TAUTO_COUNT>
1

> <PUBCHEM_CONFORMER_ID>
009A0AC200000001

> <PUBCHEM_MMFF94_ENERGY>
110.164

> <PUBCHEM_FEATURE_SELFOVERLAP>
71.229

> <PUBCHEM_SHAPE_FINGERPRINT>
11578080 2 17677626417261880316
12107698 1 18129659695342564578
12422481 6 17559690434151491553
12553582 1 18191596255177273298
12633257 1 18191032205575581018
12788726 201 18202569466362571544
13533116 47 18342174466378534569
13583140 156 18266464397723986141
13782708 43 18408882967409252759
17349148 13 17988926626360793925
17974551 9 17987802887307603592
19930381 70 17753315474884201938
21285901 2 16299225696868409831
21330990 113 17459460053384921863
23559900 14 18335139842871790892
3633792 109 18335417933361713229
404807 14 17541090970754970027
4340502 62 18188202204173364425
57527295 17 18056468681152431183

> <PUBCHEM_SHAPE_MULTIPOLES>
586.68
10.67
3.78
2.31
12.49
1.84
-0.2
0.1
-3.4
-3.21
2.43
0.58
0.31
0.34

> <PUBCHEM_SHAPE_SELFOVERLAP>
1212.053

> <PUBCHEM_SHAPE_VOLUME>
336

> <PUBCHEM_COORDINATE_TYPE>
2
5
10

$$$$
