REMARK  Name = 100982103
REMARK  4 active torsions:
REMARK  status: ('A' for Active; 'I' for Inactive)
REMARK    1  A    between atoms: C_6  and  O_12
REMARK    2  A    between atoms: C_8  and  C_14
REMARK    3  A    between atoms: C_14  and  N_16
REMARK    4  A    between atoms: C_17  and  C_21
REMARK                            x       y       z     vdW  Elec       q    Type
REMARK                         _______ _______ _______ _____ _____    ______ ____
ROOT
ATOM      1  O   UNL     1      -1.435  -0.773   0.162  0.00  0.00    -0.319 OA
ATOM      2  O   UNL     1      -3.687   1.558  -2.700  0.00  0.00    -0.253 OA
ATOM      3  N   UNL     1      -3.861   1.283  -0.376  0.00  0.00    -0.284 N 
ATOM      4  N   UNL     1      -2.930  -0.369  -1.596  0.00  0.00    -0.247 N 
ATOM      5  C   UNL     1      -3.570   0.241   0.585  0.00  0.00    +0.147 C 
ATOM      6  C   UNL     1      -2.815  -0.815  -0.227  0.00  0.00    +0.275 C 
ATOM      7  C   UNL     1      -2.574   0.663   1.641  0.00  0.00    +0.058 C 
ATOM      8  C   UNL     1      -1.234   0.391   0.978  0.00  0.00    +0.141 C 
ATOM      9  C   UNL     1      -3.512   0.904  -1.681  0.00  0.00    +0.304 C 
ATOM     10  H   UNL     1      -4.256   2.154  -0.143  0.00  0.00    +0.151 HD
ATOM     11  H   UNL     1      -2.636  -0.896  -2.375  0.00  0.00    +0.155 HD
ENDROOT
BRANCH   6  12
ATOM     12  O   UNL     1      -3.374  -2.108  -0.108  0.00  0.00    -0.316 OA
ATOM     13  C   UNL     1      -2.978  -2.748   1.101  0.00  0.00    +0.178 C 
ENDBRANCH   6  12
BRANCH   8  14
ATOM     14  C   UNL     1      -0.111   0.138   1.965  0.00  0.00    +0.119 C 
BRANCH  14  16
ATOM     15  O   UNL     1       1.853   2.085   1.191  0.00  0.00    -0.269 OA
ATOM     16  N   UNL     1       1.131  -0.118   1.292  0.00  0.00    -0.298 N 
ATOM     17  C   UNL     1       2.026   0.892   0.954  0.00  0.00    +0.259 C 
ATOM     18  H   UNL     1       1.359  -1.047   1.060  0.00  0.00    +0.150 HD
BRANCH  17  21
ATOM     19 BR   UNL     1       5.835  -2.140  -1.512  0.00  0.00    -0.048 Br
ATOM     20  N   UNL     1       4.239   1.330  -0.168  0.00  0.00    -0.308 N 
ATOM     21  C   UNL     1       3.255   0.466   0.236  0.00  0.00    +0.103 C 
ATOM     22  C   UNL     1       3.627  -0.805  -0.142  0.00  0.00    +0.027 C 
ATOM     23  C   UNL     1       5.234   0.629  -0.799  0.00  0.00    +0.069 C 
ATOM     24  C   UNL     1       4.880  -0.702  -0.796  0.00  0.00    +0.051 C 
ATOM     25  H   UNL     1       4.232   2.304  -0.028  0.00  0.00    +0.152 HD
ENDBRANCH  17  21
ENDBRANCH  14  16
ENDBRANCH   8  14
TORSDOF 4
