REMARK  Name = 100915138
REMARK  7 active torsions:
REMARK  status: ('A' for Active; 'I' for Inactive)
REMARK    1  A    between atoms: C_2  and  C_20
REMARK    2  A    between atoms: C_3  and  O_16
REMARK    3  A    between atoms: C_4  and  O_18
REMARK    4  A    between atoms: C_5  and  N_7
REMARK    5  A    between atoms: C_20  and  O_21
REMARK    6  A    between atoms: C_20  and  C_23
REMARK    7  A    between atoms: C_23  and  O_24
REMARK                            x       y       z     vdW  Elec       q    Type
REMARK                         _______ _______ _______ _____ _____    ______ ____
ROOT
ATOM      1  O   UNL     1      -0.997   0.150   1.178  0.00  0.00    -0.332 OA
ATOM      2  C   UNL     1      -2.283   0.274   0.530  0.00  0.00    +0.175 C 
ATOM      3  C   UNL     1      -2.184   1.506  -0.360  0.00  0.00    +0.171 C 
ATOM      4  C   UNL     1      -0.721   1.498  -0.752  0.00  0.00    +0.188 C 
ATOM      5  C   UNL     1      -0.056   1.018   0.527  0.00  0.00    +0.236 C 
ENDROOT
BRANCH   5   7
ATOM      6  O   UNL     1       2.538   2.119   0.522  0.00  0.00    -0.193 OA
ATOM      7  N   UNL     1       1.155   0.289   0.275  0.00  0.00    -0.178 N 
ATOM      8  N   UNL     1       3.553   0.147   0.037  0.00  0.00    -0.306 NA
ATOM      9  N   UNL     1       4.586  -1.876  -0.460  0.00  0.00    -0.332 N 
ATOM     10  C   UNL     1       1.071  -1.070   0.009  0.00  0.00    +0.083 C 
ATOM     11  C   UNL     1       2.428   0.914   0.289  0.00  0.00    +0.276 C 
ATOM     12  C   UNL     1       2.141  -1.825  -0.236  0.00  0.00    +0.065 C 
ATOM     13  C   UNL     1       3.456  -1.132  -0.212  0.00  0.00    +0.193 C 
ATOM     14  H   UNL     1       5.471  -1.444  -0.450  0.00  0.00    +0.145 HD
ATOM     15  H   UNL     1       4.511  -2.839  -0.647  0.00  0.00    +0.145 HD
ENDBRANCH   5   7
BRANCH   3  16
ATOM     16  O   UNL     1      -2.476   2.651   0.439  0.00  0.00    -0.379 OA
ATOM     17  H   UNL     1      -3.415   2.644   0.683  0.00  0.00    +0.211 HD
ENDBRANCH   3  16
BRANCH   4  18
ATOM     18  O   UNL     1      -0.267   2.773  -1.155  0.00  0.00    -0.378 OA
ATOM     19  H   UNL     1      -0.719   3.034  -1.973  0.00  0.00    +0.211 HD
ENDBRANCH   4  18
BRANCH   2  20
ATOM     20  C   UNL     1      -2.550  -1.009  -0.245  0.00  0.00    +0.169 C 
BRANCH  20  21
ATOM     21  O   UNL     1      -3.758  -0.855  -0.987  0.00  0.00    -0.379 OA
ATOM     22  H   UNL     1      -3.673  -0.099  -1.589  0.00  0.00    +0.211 HD
ENDBRANCH  20  21
BRANCH  20  23
ATOM     23  C   UNL     1      -2.710  -2.200   0.690  0.00  0.00    +0.169 C 
BRANCH  23  24
ATOM     24  O   UNL     1      -2.928  -3.372  -0.088  0.00  0.00    -0.379 OA
ATOM     25  H   UNL     1      -3.031  -4.136   0.500  0.00  0.00    +0.211 HD
ENDBRANCH  23  24
ENDBRANCH  20  23
ENDBRANCH   2  20
TORSDOF 7
