REMARK  Name = 100992321
REMARK  5 active torsions:
REMARK  status: ('A' for Active; 'I' for Inactive)
REMARK    1  A    between atoms: C_6  and  C_18
REMARK    2  A    between atoms: C_7  and  C_25
REMARK    3  A    between atoms: C_18  and  C_19
REMARK    4  A    between atoms: C_19  and  C_22
REMARK    5  A    between atoms: C_25  and  C_26
REMARK                            x       y       z     vdW  Elec       q    Type
REMARK                         _______ _______ _______ _____ _____    ______ ____
ROOT
ATOM      1  O   UNL     1      -1.110  -1.964   2.641  0.00  0.00    -0.273 OA
ATOM      2  O   UNL     1       3.313  -1.619   0.600  0.00  0.00    -0.274 OA
ATOM      3  N   UNL     1       1.294  -0.442   0.498  0.00  0.00    -0.229 N 
ATOM      4  N   UNL     1      -1.156   0.051   1.532  0.00  0.00    -0.297 N 
ATOM      5  N   UNL     1       1.277   1.832  -0.202  0.00  0.00    -0.393 NA
ATOM      6  C   UNL     1       0.499  -1.621   0.877  0.00  0.00    +0.158 C 
ATOM      7  C   UNL     1      -0.858   0.744   0.293  0.00  0.00    +0.144 C 
ATOM      8  C   UNL     1       0.658   0.761   0.184  0.00  0.00    +0.184 C 
ATOM      9  C   UNL     1      -0.638  -1.202   1.799  0.00  0.00    +0.241 C 
ATOM     10  C   UNL     1       2.685  -0.584   0.394  0.00  0.00    +0.242 C 
ATOM     11  C   UNL     1       3.410   0.639  -0.013  0.00  0.00    +0.151 C 
ATOM     12  C   UNL     1       2.675   1.794  -0.294  0.00  0.00    +0.123 C 
ATOM     13  C   UNL     1       4.805   0.634  -0.118  0.00  0.00    -0.010 C 
ATOM     14  C   UNL     1       3.358   2.951  -0.684  0.00  0.00    +0.028 C 
ATOM     15  C   UNL     1       5.472   1.795  -0.507  0.00  0.00    -0.004 C 
ATOM     16  C   UNL     1       4.750   2.952  -0.790  0.00  0.00    +0.002 C 
ATOM     17  H   UNL     1      -1.739   0.482   2.197  0.00  0.00    +0.150 HD
ENDROOT
BRANCH   6  18
ATOM     18  C   UNL     1       0.012  -2.420  -0.327  0.00  0.00    +0.039 C 
BRANCH  18  19
ATOM     19  C   UNL     1      -0.288  -3.866   0.051  0.00  0.00    +0.087 C 
BRANCH  19  22
ATOM     20  O   UNL     1      -0.956  -4.213  -2.256  0.00  0.00    -0.275 OA
ATOM     21  N   UNL     1      -1.072  -5.979  -0.788  0.00  0.00    -0.329 N 
ATOM     22  C   UNL     1      -0.800  -4.671  -1.127  0.00  0.00    +0.219 C 
ATOM     23  H   UNL     1      -1.412  -6.604  -1.470  0.00  0.00    +0.145 HD
ATOM     24  H   UNL     1      -0.927  -6.289   0.135  0.00  0.00    +0.145 HD
ENDBRANCH  19  22
ENDBRANCH  18  19
ENDBRANCH   6  18
BRANCH   7  25
ATOM     25  C   UNL     1      -1.479   2.135   0.290  0.00  0.00    +0.055 C 
BRANCH  25  26
ATOM     26  C   UNL     1      -2.948   2.090  -0.038  0.00  0.00    -0.020 C 
ATOM     27  C   UNL     1      -3.369   2.182  -1.365  0.00  0.00    -0.004 C 
ATOM     28  C   UNL     1      -3.887   1.956   0.984  0.00  0.00    -0.004 C 
ATOM     29  C   UNL     1      -4.730   2.141  -1.669  0.00  0.00    -0.000 C 
ATOM     30  C   UNL     1      -5.248   1.915   0.680  0.00  0.00    -0.000 C 
ATOM     31  C   UNL     1      -5.669   2.007  -0.646  0.00  0.00    -0.000 C 
ENDBRANCH  25  26
ENDBRANCH   7  25
TORSDOF 5
