REMARK  Name = 10096171
REMARK  8 active torsions:
REMARK  status: ('A' for Active; 'I' for Inactive)
REMARK    1  A    between atoms: C_4  and  C_21
REMARK    2  A    between atoms: C_15  and  O_27
REMARK    3  A    between atoms: C_17  and  C_33
REMARK    4  A    between atoms: C_18  and  O_31
REMARK    5  A    between atoms: C_20  and  O_29
REMARK    6  A    between atoms: C_21  and  O_24
REMARK    7  A    between atoms: O_24  and  O_25
REMARK    8  A    between atoms: C_34  and  C_35
REMARK                            x       y       z     vdW  Elec       q    Type
REMARK                         _______ _______ _______ _____ _____    ______ ____
ROOT
ATOM      1  O   UNL     1       3.800   0.334  -0.828  0.00  0.00    -0.476 OA
ATOM      2  O   UNL     1       0.051  -1.559   0.186  0.00  0.00    -0.453 OA
ATOM      3  O   UNL     1      -0.524   2.445   0.364  0.00  0.00    -0.287 OA
ATOM      4  C   UNL     1       3.560   1.186   0.296  0.00  0.00    +0.198 C 
ATOM      5  C   UNL     1       2.128   1.693   0.219  0.00  0.00    +0.079 C 
ATOM      6  C   UNL     1       1.042   0.642   0.237  0.00  0.00    +0.055 A 
ATOM      7  C   UNL     1       1.153  -0.704   0.177  0.00  0.00    +0.147 A 
ATOM      8  C   UNL     1       2.427  -1.480   0.061  0.00  0.00    +0.068 C 
ATOM      9  C   UNL     1       3.628  -0.977  -0.468  0.00  0.00    +0.144 C 
ATOM     10  C   UNL     1      -0.335   1.235   0.325  0.00  0.00    +0.201 A 
ATOM     11  C   UNL     1      -1.468   0.307   0.360  0.00  0.00    +0.107 A 
ATOM     12  C   UNL     1      -1.212  -1.052   0.288  0.00  0.00    +0.154 A 
ATOM     13  C   UNL     1       2.431  -2.841   0.439  0.00  0.00    +0.009 C 
ATOM     14  C   UNL     1       4.747  -1.798  -0.672  0.00  0.00    +0.074 C 
ATOM     15  C   UNL     1      -2.782   0.774   0.461  0.00  0.00    +0.142 C 
ATOM     16  C   UNL     1      -2.267  -1.965   0.317  0.00  0.00    +0.075 C 
ATOM     17  C   UNL     1      -3.837  -0.137   0.490  0.00  0.00    +0.068 C 
ATOM     18  C   UNL     1       4.710  -3.136  -0.303  0.00  0.00    +0.137 C 
ATOM     19  C   UNL     1       3.555  -3.656   0.264  0.00  0.00    +0.037 C 
ATOM     20  C   UNL     1      -3.581  -1.506   0.418  0.00  0.00    +0.145 C 
ENDROOT
BRANCH   4  21
ATOM     21  C   UNL     1       4.550   2.345   0.199  0.00  0.00    +0.163 C 
ATOM     22  C   UNL     1       5.990   1.841   0.276  0.00  0.00    +0.037 C 
ATOM     23  C   UNL     1       4.282   3.374   1.296  0.00  0.00    +0.037 C 
BRANCH  21  24
ATOM     24  O   UNL     1       4.364   2.999  -1.057  0.00  0.00    -0.225 OA
BRANCH  24  25
ATOM     25  O   UNL     1       5.336   4.077  -1.064  0.00  0.00    -0.249 OA
ATOM     26  H   UNL     1       5.267   4.569  -1.896  0.00  0.00    +0.253 HD
ENDBRANCH  24  25
ENDBRANCH  21  24
ENDBRANCH   4  21
BRANCH  15  27
ATOM     27  O   UNL     1      -3.060   2.109   0.534  0.00  0.00    -0.505 OA
ATOM     28  H   UNL     1      -2.363   2.735   0.516  0.00  0.00    +0.292 HD
ENDBRANCH  15  27
BRANCH  20  29
ATOM     29  O   UNL     1      -4.593  -2.420   0.443  0.00  0.00    -0.471 OA
ATOM     30  C   UNL     1      -5.151  -2.801  -0.812  0.00  0.00    +0.252 C 
ENDBRANCH  20  29
BRANCH  18  31
ATOM     31  O   UNL     1       5.800  -3.928  -0.487  0.00  0.00    -0.505 OA
ATOM     32  H   UNL     1       6.578  -3.573  -0.870  0.00  0.00    +0.292 HD
ENDBRANCH  18  31
BRANCH  17  33
ATOM     33  C   UNL     1      -5.215   0.335   0.596  0.00  0.00    +0.001 C 
ATOM     34  C   UNL     1      -6.032   0.612  -0.442  0.00  0.00    -0.026 C 
BRANCH  34  35
ATOM     35  C   UNL     1      -7.455   1.090  -0.283  0.00  0.00    +0.022 C 
ATOM     36  C   UNL     1      -7.619   2.473  -0.914  0.00  0.00    +0.005 C 
ATOM     37  C   UNL     1      -8.421   0.091  -0.919  0.00  0.00    +0.005 C 
ENDBRANCH  34  35
ENDBRANCH  17  33
TORSDOF 8
