REMARK  Name = 100981290
REMARK  9 active torsions:
REMARK  status: ('A' for Active; 'I' for Inactive)
REMARK    1  A    between atoms: N_1  and  C_33
REMARK    2  A    between atoms: C_5  and  O_21
REMARK    3  A    between atoms: C_8  and  O_23
REMARK    4  A    between atoms: C_9  and  O_25
REMARK    5  A    between atoms: C_10  and  C_35
REMARK    6  A    between atoms: C_11  and  O_27
REMARK    7  A    between atoms: C_14  and  O_29
REMARK    8  A    between atoms: C_18  and  O_31
REMARK    9  A    between atoms: C_35  and  O_36
REMARK                            x       y       z     vdW  Elec       q    Type
REMARK                         _______ _______ _______ _____ _____    ______ ____
ROOT
ATOM      1  N   UNL     1      -1.582   1.444  -0.920  0.00  0.00    +0.390 N 
ATOM      2  C   UNL     1      -0.563   0.298   1.017  0.00  0.00    +0.013 C 
ATOM      3  C   UNL     1      -1.540  -0.896   0.677  0.00  0.00    +0.030 C 
ATOM      4  C   UNL     1      -0.340   0.803  -0.433  0.00  0.00    -0.026 C 
ATOM      5  C   UNL     1       0.108  -0.544  -1.107  0.00  0.00    +0.119 C 
ATOM      6  C   UNL     1       0.815  -0.188   1.626  0.00  0.00    +0.005 C 
ATOM      7  C   UNL     1       1.636  -1.212   0.818  0.00  0.00    +0.054 C 
ATOM      8  C   UNL     1       1.566  -0.934  -0.699  0.00  0.00    +0.115 C 
ATOM      9  C   UNL     1      -0.949  -1.563  -0.598  0.00  0.00    +0.140 C 
ATOM     10  C   UNL     1      -2.944  -0.313   0.307  0.00  0.00    +0.011 C 
ATOM     11  C   UNL     1      -1.198   1.310   2.041  0.00  0.00    +0.109 C 
ATOM     12  C   UNL     1       1.855   0.928   1.920  0.00  0.00    +0.005 C 
ATOM     13  C   UNL     1       3.187   0.463   1.313  0.00  0.00    +0.054 C 
ATOM     14  C   UNL     1       3.050  -1.049   1.384  0.00  0.00    +0.115 C 
ATOM     15  C   UNL     1       2.641   0.070  -1.201  0.00  0.00    +0.059 C 
ATOM     16  C   UNL     1      -2.787   0.601  -0.952  0.00  0.00    -0.075 C 
ATOM     17  C   UNL     1      -3.509   0.470   1.509  0.00  0.00    +0.003 C 
ATOM     18  C   UNL     1       3.314   0.957  -0.140  0.00  0.00    +0.120 C 
ATOM     19  C   UNL     1      -2.668   1.669   1.871  0.00  0.00    +0.029 C 
ATOM     20  H   UNL     1      -1.769   2.114  -0.174  0.00  0.00    -0.080 HD
ENDROOT
BRANCH   5  21
ATOM     21  O   UNL     1       0.048  -0.442  -2.525  0.00  0.00    -0.384 OA
ATOM     22  H   UNL     1       0.711   0.196  -2.831  0.00  0.00    +0.210 HD
ENDBRANCH   5  21
BRANCH   8  23
ATOM     23  O   UNL     1       1.885  -2.184  -1.348  0.00  0.00    -0.384 OA
ATOM     24  H   UNL     1       1.247  -2.862  -1.077  0.00  0.00    +0.210 HD
ENDBRANCH   8  23
BRANCH   9  25
ATOM     25  O   UNL     1      -0.476  -2.864  -0.295  0.00  0.00    -0.351 OA
ATOM     26  C   UNL     1      -1.536  -3.813  -0.249  0.00  0.00    +0.174 C 
ENDBRANCH   9  25
BRANCH  11  27
ATOM     27  O   UNL     1      -0.497   2.550   2.093  0.00  0.00    -0.385 OA
ATOM     28  H   UNL     1       0.452   2.381   2.201  0.00  0.00    +0.210 HD
ENDBRANCH  11  27
BRANCH  14  29
ATOM     29  O   UNL     1       4.047  -1.733   0.656  0.00  0.00    -0.384 OA
ATOM     30  H   UNL     1       3.908  -2.690   0.738  0.00  0.00    +0.210 HD
ENDBRANCH  14  29
BRANCH  18  31
ATOM     31  O   UNL     1       4.704   1.072  -0.467  0.00  0.00    -0.353 OA
ATOM     32  C   UNL     1       4.911   2.034  -1.487  0.00  0.00    +0.174 C 
ENDBRANCH  18  31
BRANCH   1  33
ATOM     33  C   UNL     1      -1.414   2.206  -2.149  0.00  0.00    -0.077 C 
ATOM     34  C   UNL     1      -2.599   3.125  -2.391  0.00  0.00    -0.025 C 
ENDBRANCH   1  33
BRANCH  10  35
ATOM     35  C   UNL     1      -3.963  -1.436   0.011  0.00  0.00    +0.135 C 
BRANCH  35  36
ATOM     36  O   UNL     1      -5.201  -0.828  -0.281  0.00  0.00    -0.382 OA
ATOM     37  H   UNL     1      -5.861  -1.514  -0.472  0.00  0.00    +0.210 HD
ENDBRANCH  35  36
ENDBRANCH  10  35
TORSDOF 9
