REMARK  Name = 100915004
REMARK  15 active torsions:
REMARK  status: ('A' for Active; 'I' for Inactive)
REMARK    1  A    between atoms: CA_1  and  N_3
REMARK    2  A    between atoms: CA_1  and  C_19
REMARK    3  A    between atoms: CA_1  and  CB_26
REMARK    4  A    between atoms: C_4  and  C_6
REMARK    5  A    between atoms: C_6  and  C_7
REMARK    6  A    between atoms: C_7  and  CA_8
REMARK    7  A    between atoms: CA_8  and  N_9
REMARK    8  A    between atoms: CA_8  and  C_14
REMARK    9  A    between atoms: C_14  and  O_15
REMARK   10  A    between atoms: N_18  and  CA_21
REMARK   11  A    between atoms: CA_21  and  C_23
REMARK   12  A    between atoms: C_23  and  O_24
REMARK   13  A    between atoms: CB_26  and  SG_27
REMARK   14  A    between atoms: SG_27  and  C_28
REMARK   15  A    between atoms: C_28  and  C_29
REMARK                            x       y       z     vdW  Elec       q    Type
REMARK                         _______ _______ _______ _____ _____    ______ ____
ROOT
ATOM      1  CA  UNL     1      -0.516  -2.189  -0.640  0.00  0.00    +0.159 C 
ENDROOT
BRANCH   1   3
ATOM      2  O   UNL     1      -3.273  -1.970  -1.462  0.00  0.00    -0.275 OA
ATOM      3  N   UNL     1      -1.650  -1.875   0.198  0.00  0.00    -0.298 N 
ATOM      4  C   UNL     1      -2.946  -1.792  -0.291  0.00  0.00    +0.223 C 
ATOM      5  H   UNL     1      -1.498  -1.713   1.157  0.00  0.00    +0.150 HD
BRANCH   4   6
ATOM      6  C   UNL     1      -3.935  -1.439   0.806  0.00  0.00    +0.083 C 
BRANCH   6   7
ATOM      7  C   UNL     1      -3.622  -0.093   1.463  0.00  0.00    -0.001 C 
BRANCH   7   8
ATOM      8  CA  UNL     1      -3.580   1.064   0.459  0.00  0.00    +0.036 C 
BRANCH   8   9
ATOM      9  N   UNL     1      -3.276   2.313   1.163  0.00  0.00    +0.389 N 
ATOM     10  H1  UNL     1      -2.375   2.228   1.632  0.00  0.00    -0.088 HD
ATOM     11  H2  UNL     1      -4.003   2.499   1.853  0.00  0.00    -0.088 HD
ATOM     12  H3  UNL     1      -3.240   3.081   0.492  0.00  0.00    -0.088 HD
ENDBRANCH   8   9
BRANCH   8  14
ATOM     13  OXT UNL     1      -5.844   1.938   0.233  0.00  0.00    -0.253 OA
ATOM     14  C   UNL     1      -4.927   1.260  -0.213  0.00  0.00    +0.293 C 
BRANCH  14  15
ATOM     15  O   UNL     1      -5.026   0.569  -1.379  0.00  0.00    -0.482 OA
ATOM     16  H   UNL     1      -4.301   0.062  -1.686  0.00  0.00    +0.295 HD
ENDBRANCH  14  15
ENDBRANCH   8  14
ENDBRANCH   7   8
ENDBRANCH   6   7
ENDBRANCH   4   6
ENDBRANCH   1   3
BRANCH   1  19
ATOM     17  O   UNL     1       0.346  -3.244   1.369  0.00  0.00    -0.273 OA
ATOM     18  N   UNL     1       1.550  -3.450  -0.604  0.00  0.00    -0.294 N 
ATOM     19  C   ACE A   1       0.481  -3.017   0.168  0.00  0.00    +0.242 C 
ATOM     20  H   UNL     1       1.568  -3.216  -1.560  0.00  0.00    +0.150 HD
BRANCH  18  21
ATOM     21  CA  UNL     1       2.637  -4.230  -0.060  0.00  0.00    +0.200 C 
BRANCH  21  23
ATOM     22  OXT UNL     1       4.787  -3.846   0.952  0.00  0.00    -0.248 OA
ATOM     23  C   UNL     1       3.768  -3.380   0.459  0.00  0.00    +0.334 C 
BRANCH  23  24
ATOM     24  O   UNL     1       3.549  -2.051   0.329  0.00  0.00    -0.479 OA
ATOM     25  H   UNL     1       2.752  -1.743  -0.055  0.00  0.00    +0.295 HD
ENDBRANCH  23  24
ENDBRANCH  21  23
ENDBRANCH  18  21
ENDBRANCH   1  19
BRANCH   1  26
ATOM     26  CB  UNL     1       0.103  -0.940  -1.273  0.00  0.00    +0.087 C 
BRANCH  26  27
ATOM     27  SG  UNL     1       0.790   0.235  -0.060  0.00  0.00    -0.133 S 
BRANCH  27  28
ATOM     28  C   UNL     1       1.306   1.523  -1.217  0.00  0.00    +0.083 C 
BRANCH  28  29
ATOM     29  C   UNL     1       1.942   2.692  -0.517  0.00  0.00    -0.015 C 
ATOM     30  C   UNL     1       3.325   2.870  -0.528  0.00  0.00    -0.025 C 
ATOM     31  C   UNL     1       1.127   3.606   0.151  0.00  0.00    -0.004 C 
ATOM     32  C   UNL     1       3.893   3.963   0.128  0.00  0.00    -0.005 C 
ATOM     33  C   UNL     1       4.218   1.906  -1.236  0.00  0.00    +0.031 C 
ATOM     34  C   UNL     1       1.694   4.698   0.807  0.00  0.00    -0.000 C 
ATOM     35  C   UNL     1       3.078   4.877   0.795  0.00  0.00    -0.000 C 
ENDBRANCH  28  29
ENDBRANCH  27  28
ENDBRANCH  26  27
ENDBRANCH   1  26
TORSDOF 15
