REMARK  Name = 100935756
REMARK  5 active torsions:
REMARK  status: ('A' for Active; 'I' for Inactive)
REMARK    1  A    between atoms: C_4  and  O_22
REMARK    2  A    between atoms: C_5  and  O_24
REMARK    3  A    between atoms: C_15  and  O_26
REMARK    4  A    between atoms: C_19  and  O_30
REMARK    5  A    between atoms: C_20  and  O_28
REMARK                            x       y       z     vdW  Elec       q    Type
REMARK                         _______ _______ _______ _____ _____    ______ ____
ROOT
ATOM      1  O   UNL     1      -0.250  -2.465  -0.055  0.00  0.00    -0.449 OA
ATOM      2  O   UNL     1      -2.857   1.216   2.292  0.00  0.00    -0.289 OA
ATOM      3  O   UNL     1      -0.303  -1.421  -2.123  0.00  0.00    -0.245 OA
ATOM      4  C   UNL     1      -3.082   2.024  -1.071  0.00  0.00    +0.149 C 
ATOM      5  C   UNL     1      -3.914   1.802   0.202  0.00  0.00    +0.199 C 
ATOM      6  C   UNL     1      -1.682   2.643  -0.896  0.00  0.00    +0.058 C 
ATOM      7  C   UNL     1      -1.542  -3.082  -0.244  0.00  0.00    +0.174 C 
ATOM      8  C   UNL     1      -2.347  -2.902   1.050  0.00  0.00    +0.070 C 
ATOM      9  C   UNL     1       1.494   0.461  -0.590  0.00  0.00    +0.046 C 
ATOM     10  C   UNL     1      -0.611   1.723  -0.376  0.00  0.00    -0.023 C 
ATOM     11  C   UNL     1       1.391  -0.940  -0.523  0.00  0.00    +0.112 C 
ATOM     12  C   UNL     1      -3.313   0.836   1.215  0.00  0.00    +0.202 C 
ATOM     13  C   UNL     1       0.430   1.320  -1.121  0.00  0.00    -0.001 C 
ATOM     14  C   UNL     1      -2.470  -1.453   1.431  0.00  0.00    -0.019 C 
ATOM     15  C   UNL     1       2.659   1.075  -0.108  0.00  0.00    +0.173 C 
ATOM     16  C   UNL     1      -3.329  -0.607   0.848  0.00  0.00    +0.036 C 
ATOM     17  C   UNL     1      -1.321  -4.554  -0.561  0.00  0.00    +0.048 C 
ATOM     18  C   UNL     1       0.196  -1.637  -1.033  0.00  0.00    +0.344 C 
ATOM     19  C   UNL     1       2.436  -1.705   0.012  0.00  0.00    +0.143 C 
ATOM     20  C   UNL     1       3.697   0.311   0.427  0.00  0.00    +0.175 C 
ATOM     21  C   UNL     1       3.586  -1.076   0.487  0.00  0.00    +0.077 C 
ENDROOT
BRANCH   4  22
ATOM     22  O   UNL     1      -3.017   0.829  -1.842  0.00  0.00    -0.381 OA
ATOM     23  H   UNL     1      -3.907   0.458  -1.939  0.00  0.00    +0.210 HD
ENDBRANCH   4  22
BRANCH   5  24
ATOM     24  O   UNL     1      -4.099   3.058   0.844  0.00  0.00    -0.375 OA
ATOM     25  H   UNL     1      -4.482   3.689   0.215  0.00  0.00    +0.211 HD
ENDBRANCH   5  24
BRANCH  15  26
ATOM     26  O   UNL     1       2.798   2.435  -0.153  0.00  0.00    -0.468 OA
ATOM     27  C   UNL     1       3.390   2.982  -1.327  0.00  0.00    +0.253 C 
ENDBRANCH  15  26
BRANCH  20  28
ATOM     28  O   UNL     1       4.829   0.909   0.894  0.00  0.00    -0.468 OA
ATOM     29  C   UNL     1       4.841   1.287   2.269  0.00  0.00    +0.253 C 
ENDBRANCH  20  28
BRANCH  19  30
ATOM     30  O   UNL     1       2.390  -3.068   0.051  0.00  0.00    -0.505 OA
ATOM     31  H   UNL     1       1.631  -3.520  -0.261  0.00  0.00    +0.292 HD
ENDBRANCH  19  30
TORSDOF 5
