100968706
  -OEChem-03292013293D

 28 29  0     1  0  0  0  0  0999 V2000
    1.2527    0.1974    0.9257 O   0  0  0  0  0  0  0  0  0  0  0  0
    3.3324   -1.8886    0.0916 O   0  0  0  0  0  0  0  0  0  0  0  0
   -0.9061    1.7557    0.8201 O   0  0  0  0  0  0  0  0  0  0  0  0
    2.2207    2.7482    0.2864 O   0  0  0  0  0  0  0  0  0  0  0  0
   -1.9180   -2.5502    0.4455 O   0  0  0  0  0  0  0  0  0  0  0  0
   -3.5115    1.6225   -0.5917 O   0  0  0  0  0  0  0  0  0  0  0  0
   -0.8326   -0.4871    0.1145 N   0  0  0  0  0  0  0  0  0  0  0  0
   -3.0568   -0.6004   -0.0933 N   0  0  0  0  0  0  0  0  0  0  0  0
    0.5233   -0.8925    0.3443 C   0  0  1  0  0  0  0  0  0  0  0  0
    1.2444   -1.2899   -0.9334 C   0  0  0  0  0  0  0  0  0  0  0  0
    2.6677   -0.8682   -0.6502 C   0  0  1  0  0  0  0  0  0  0  0  0
    2.4940    0.3719    0.2155 C   0  0  1  0  0  0  0  0  0  0  0  0
   -1.2297    0.8691   -0.2220 C   0  0  1  0  0  0  0  0  0  0  0  0
    2.3905    1.6543   -0.6000 C   0  0  0  0  0  0  0  0  0  0  0  0
   -1.9358   -1.3539    0.1877 C   0  0  0  0  0  0  0  0  0  0  0  0
   -2.7351    0.7117   -0.3407 C   0  0  0  0  0  0  0  0  0  0  0  0
    0.5353   -1.7254    1.0571 H   0  0  0  0  0  0  0  0  0  0  0  0
    0.8552   -0.7306   -1.7927 H   0  0  0  0  0  0  0  0  0  0  0  0
    1.1305   -2.3579   -1.1442 H   0  0  0  0  0  0  0  0  0  0  0  0
    3.2466   -0.6925   -1.5617 H   0  0  0  0  0  0  0  0  0  0  0  0
    3.2815    0.4704    0.9707 H   0  0  0  0  0  0  0  0  0  0  0  0
   -0.7873    1.1685   -1.1754 H   0  0  0  0  0  0  0  0  0  0  0  0
    1.5339    1.6382   -1.2793 H   0  0  0  0  0  0  0  0  0  0  0  0
    3.3033    1.8172   -1.1815 H   0  0  0  0  0  0  0  0  0  0  0  0
    4.2257   -1.5632    0.2965 H   0  0  0  0  0  0  0  0  0  0  0  0
   -4.0009   -0.9688   -0.1079 H   0  0  0  0  0  0  0  0  0  0  0  0
   -1.1892    2.6445    0.5456 H   0  0  0  0  0  0  0  0  0  0  0  0
    2.1622    3.5517   -0.2581 H   0  0  0  0  0  0  0  0  0  0  0  0
  1  9  1  0  0  0  0
  1 12  1  0  0  0  0
  2 11  1  0  0  0  0
  2 25  1  0  0  0  0
  3 13  1  0  0  0  0
  3 27  1  0  0  0  0
  4 14  1  0  0  0  0
  4 28  1  0  0  0  0
  5 15  2  0  0  0  0
  6 16  2  0  0  0  0
  7  9  1  0  0  0  0
  7 13  1  0  0  0  0
  7 15  1  0  0  0  0
  8 15  1  0  0  0  0
  8 16  1  0  0  0  0
  8 26  1  0  0  0  0
  9 10  1  0  0  0  0
  9 17  1  0  0  0  0
 10 11  1  0  0  0  0
 10 18  1  0  0  0  0
 10 19  1  0  0  0  0
 11 12  1  0  0  0  0
 11 20  1  0  0  0  0
 12 14  1  0  0  0  0
 12 21  1  0  0  0  0
 13 16  1  0  0  0  0
 13 22  1  0  0  0  0
 14 23  1  0  0  0  0
 14 24  1  0  0  0  0
M  END
> <PUBCHEM_COMPOUND_CID>
100968706

> <PUBCHEM_CONFORMER_RMSD>
0.6

> <PUBCHEM_CONFORMER_DIVERSEORDER>
1
25
14
18
22
2
16
27
28
26
5
24
13
9
19
10
17
8
3
23
12
15
21
6
20
4
7
11

> <PUBCHEM_MMFF94_PARTIAL_CHARGES>
19
1 -0.56
11 0.28
12 0.28
13 0.64
14 0.28
15 0.69
16 0.57
2 -0.68
25 0.4
26 0.37
27 0.4
28 0.4
3 -0.68
4 -0.68
5 -0.57
6 -0.57
7 -0.66
8 -0.49
9 0.58

> <PUBCHEM_EFFECTIVE_ROTOR_COUNT>
3.6

> <PUBCHEM_PHARMACOPHORE_FEATURES>
12
1 1 acceptor
1 2 acceptor
1 2 donor
1 3 acceptor
1 3 donor
1 4 acceptor
1 4 donor
1 5 acceptor
1 6 acceptor
1 8 donor
5 1 9 10 11 12 rings
5 7 8 13 15 16 rings

> <PUBCHEM_HEAVY_ATOM_COUNT>
16

> <PUBCHEM_ATOM_DEF_STEREO_COUNT>
3

> <PUBCHEM_ATOM_UDEF_STEREO_COUNT>
1

> <PUBCHEM_BOND_DEF_STEREO_COUNT>
0

> <PUBCHEM_BOND_UDEF_STEREO_COUNT>
0

> <PUBCHEM_ISOTOPIC_ATOM_COUNT>
0

> <PUBCHEM_COMPONENT_COUNT>
1

> <PUBCHEM_CACTVS_TAUTO_COUNT>
3

> <PUBCHEM_CONFORMER_ID>
0604A90200000001

> <PUBCHEM_MMFF94_ENERGY>
29.9042

> <PUBCHEM_FEATURE_SELFOVERLAP>
60.914

> <PUBCHEM_SHAPE_FINGERPRINT>
10608611 8 18409728495138190021
12716758 59 18335138687430701347
12932764 1 18260561033921302642
13380535 21 18338528546066299201
13897977 150 18340204214661654997
14648413 74 18410293627119471072
15219456 202 18412265059857638874
15375462 6 18193841663467965102
15775835 57 17822295613169090815
16945 1 18269286676673971630
17041 50 18341060622882664206
17990270 104 18411698811574939108
18186145 218 18264762178163110933
19973954 147 18411141354826693116
20201158 50 18129380410445617319
20511035 2 18201706375799690382
21501502 16 18412266172275345543
21524375 3 17838622515413677380
22802520 49 18412272734927364514
2334 1 18339926046624736659
23402539 116 18054493730113393998
23552423 10 18408040727604513858
23559900 14 18338795616477508426
2748010 2 18340771558197405822
7364860 26 18341049700833486632
74978 22 18408323259169468618
81228 2 17625275108699857730
8809292 202 18409736131558699082
93112 12 18409731750712831518

> <PUBCHEM_SHAPE_MULTIPOLES>
284.09
5.33
2.47
0.82
0.91
0.41
0.04
0.37
0.67
-0.45
-0.15
-0.14
0.03
0.44

> <PUBCHEM_SHAPE_SELFOVERLAP>
597.252

> <PUBCHEM_SHAPE_VOLUME>
161

> <PUBCHEM_COORDINATE_TYPE>
2
5
10

$$$$
