REMARK  Name = 100936919
REMARK  8 active torsions:
REMARK  status: ('A' for Active; 'I' for Inactive)
REMARK    1  A    between atoms: C_6  and  C_24
REMARK    2  A    between atoms: C_14  and  O_20
REMARK    3  A    between atoms: O_20  and  C_22
REMARK    4  A    between atoms: C_24  and  C_25
REMARK    5  A    between atoms: C_24  and  O_33
REMARK    6  A    between atoms: C_26  and  C_28
REMARK    7  A    between atoms: C_28  and  C_30
REMARK    8  A    between atoms: C_30  and  O_31
REMARK                            x       y       z     vdW  Elec       q    Type
REMARK                         _______ _______ _______ _____ _____    ______ ____
ROOT
ATOM      1 CL   UNL     1      -1.761  -4.193   1.823  0.00  0.00    -0.087 Cl
ATOM      2  O   UNL     1       1.662  -1.588  -0.521  0.00  0.00    -0.352 OA
ATOM      3  O   UNL     1      -0.270   0.766  -0.604  0.00  0.00    -0.449 OA
ATOM      4  O   UNL     1      -2.098   1.312  -1.901  0.00  0.00    -0.250 OA
ATOM      5  C   UNL     1       0.341   0.022  -1.679  0.00  0.00    +0.201 C 
ATOM      6  C   UNL     1       1.767  -0.373  -1.293  0.00  0.00    +0.186 C 
ATOM      7  C   UNL     1       0.307  -2.069  -0.612  0.00  0.00    +0.119 C 
ATOM      8  C   UNL     1      -0.303  -1.343  -1.804  0.00  0.00    +0.076 C 
ATOM      9  C   UNL     1       0.301  -3.596  -0.701  0.00  0.00    +0.035 C 
ATOM     10  C   UNL     1      -1.089  -4.239  -0.829  0.00  0.00    +0.040 C 
ATOM     11  C   UNL     1      -1.476   1.355  -0.848  0.00  0.00    +0.321 C 
ATOM     12  C   UNL     1      -2.089  -3.743   0.185  0.00  0.00    +0.032 C 
ATOM     13  C   UNL     1      -1.947   2.093   0.388  0.00  0.00    +0.157 C 
ATOM     14  C   UNL     1      -3.295   1.590   0.923  0.00  0.00    +0.198 C 
ATOM     15  C   UNL     1      -3.138  -2.977  -0.160  0.00  0.00    -0.014 C 
ATOM     16  C   UNL     1      -3.315   0.100   1.256  0.00  0.00    -0.008 C 
ATOM     17  C   UNL     1      -4.119  -2.285   0.742  0.00  0.00    +0.052 C 
ATOM     18  C   UNL     1      -4.037  -0.793   0.546  0.00  0.00    -0.026 C 
ATOM     19  C   UNL     1      -2.462  -0.275   2.442  0.00  0.00    +0.030 C 
ENDROOT
BRANCH  14  20
ATOM     20  O   UNL     1      -4.309   1.964  -0.012  0.00  0.00    -0.447 OA
BRANCH  20  22
ATOM     21  O   UNL     1      -4.484   4.038   0.990  0.00  0.00    -0.250 OA
ATOM     22  C   UNL     1      -4.815   3.221   0.141  0.00  0.00    +0.318 C 
ATOM     23  C   UNL     1      -5.862   3.472  -0.902  0.00  0.00    +0.121 C 
ENDBRANCH  20  22
ENDBRANCH  14  20
BRANCH   6  24
ATOM     24  C   UNL     1       2.539   0.663  -0.497  0.00  0.00    +0.162 C 
BRANCH  24  25
ATOM     25  C   UNL     1       4.014   0.366  -0.500  0.00  0.00    -0.003 C 
ATOM     26  C   UNL     1       4.811   0.190   0.572  0.00  0.00    -0.035 C 
ATOM     27  C   UNL     1       4.246   0.284   1.965  0.00  0.00    +0.027 C 
BRANCH  26  28
ATOM     28  C   UNL     1       6.282  -0.132   0.496  0.00  0.00    +0.131 C 
BRANCH  28  30
ATOM     29  O   UNL     1       6.697   2.279   0.507  0.00  0.00    -0.250 OA
ATOM     30  C   UNL     1       7.114   1.130   0.500  0.00  0.00    +0.318 C 
BRANCH  30  31
ATOM     31  O   UNL     1       8.435   0.811   0.480  0.00  0.00    -0.480 OA
ATOM     32  H   UNL     1       8.699  -0.087   0.476  0.00  0.00    +0.295 HD
ENDBRANCH  30  31
ENDBRANCH  28  30
ENDBRANCH  26  28
ENDBRANCH  24  25
BRANCH  24  33
ATOM     33  O   UNL     1       2.356   1.948  -1.095  0.00  0.00    -0.377 OA
ATOM     34  H   UNL     1       1.411   2.167  -1.107  0.00  0.00    +0.211 HD
ENDBRANCH  24  33
ENDBRANCH   6  24
TORSDOF 8
