REMARK  Name = 10096775
REMARK  2 active torsions:
REMARK  status: ('A' for Active; 'I' for Inactive)
REMARK    1  A    between atoms: C_18  and  C_28
REMARK    2  A    between atoms: C_19  and  O_35
REMARK                            x       y       z     vdW  Elec       q    Type
REMARK                         _______ _______ _______ _____ _____    ______ ____
ROOT
ATOM      1  O   UNL     1      -4.179   1.521  -1.540  0.00  0.00    -0.353 OA
ATOM      2  O   UNL     1       2.087  -0.877  -1.137  0.00  0.00    -0.452 OA
ATOM      3  O   UNL     1      -0.016  -0.760  -1.997  0.00  0.00    -0.250 OA
ATOM      4  O   UNL     1      -4.543  -2.064   1.788  0.00  0.00    -0.291 OA
ATOM      5  C   UNL     1      -1.875   0.860  -0.039  0.00  0.00    +0.004 C 
ATOM      6  C   UNL     1       0.342  -0.368   0.406  0.00  0.00    +0.093 C 
ATOM      7  C   UNL     1      -0.487   0.902   0.618  0.00  0.00    +0.010 C 
ATOM      8  C   UNL     1      -2.683  -0.340   0.541  0.00  0.00    +0.009 C 
ATOM      9  C   UNL     1      -4.795   0.869  -0.399  0.00  0.00    +0.152 C 
ATOM     10  C   UNL     1      -4.157  -0.490  -0.051  0.00  0.00    +0.083 C 
ATOM     11  C   UNL     1      -4.007   2.156  -0.278  0.00  0.00    +0.143 C 
ATOM     12  C   UNL     1       1.714   0.000   1.008  0.00  0.00    +0.050 C 
ATOM     13  C   UNL     1      -2.613   2.175   0.224  0.00  0.00    +0.032 C 
ATOM     14  C   UNL     1      -0.417  -1.542   1.019  0.00  0.00    +0.011 C 
ATOM     15  C   UNL     1      -1.841  -1.649   0.446  0.00  0.00    +0.001 C 
ATOM     16  C   UNL     1       0.477   2.008   0.231  0.00  0.00    +0.001 C 
ATOM     17  C   UNL     1       1.759   1.555   0.930  0.00  0.00    +0.004 C 
ATOM     18  C   UNL     1       2.732  -0.750   0.139  0.00  0.00    +0.173 C 
ATOM     19  C   UNL     1      -6.304   0.983  -0.431  0.00  0.00    +0.160 C 
ATOM     20  C   UNL     1       0.737  -0.679  -1.038  0.00  0.00    +0.316 C 
ATOM     21  C   UNL     1      -4.192  -1.385  -1.310  0.00  0.00    +0.010 C 
ATOM     22  C   UNL     1      -5.011  -1.218   1.024  0.00  0.00    +0.174 C 
ATOM     23  C   UNL     1      -7.045   0.022   0.434  0.00  0.00    +0.008 C 
ATOM     24  C   UNL     1       3.028  -2.160   0.673  0.00  0.00    +0.047 C 
ATOM     25  C   UNL     1      -6.467  -0.968   1.114  0.00  0.00    +0.035 C 
ENDROOT
BRANCH  18  28
ATOM     26  O   UNL     1       4.879  -0.880  -0.912  0.00  0.00    -0.445 OA
ATOM     27  O   UNL     1       6.847  -1.105  -1.988  0.00  0.00    -0.245 OA
ATOM     28  C   UNL     1       4.062  -0.042  -0.075  0.00  0.00    +0.209 C 
ATOM     29  C   UNL     1       4.776   0.213   1.241  0.00  0.00    +0.069 C 
ATOM     30  C   UNL     1       6.149   0.758   0.959  0.00  0.00    -0.038 C 
ATOM     31  C   UNL     1       6.187  -0.568  -1.104  0.00  0.00    +0.337 C 
ATOM     32  C   UNL     1       6.796   0.432  -0.177  0.00  0.00    +0.046 C 
ATOM     33  C   UNL     1       6.697   1.646   2.042  0.00  0.00    +0.026 C 
ATOM     34  C   UNL     1       8.143   0.949  -0.596  0.00  0.00    +0.037 C 
ENDBRANCH  18  28
BRANCH  19  35
ATOM     35  O   UNL     1      -6.781   0.795  -1.767  0.00  0.00    -0.378 OA
ATOM     36  H   UNL     1      -6.320   1.405  -2.363  0.00  0.00    +0.211 HD
ENDBRANCH  19  35
TORSDOF 2
