REMARK  Name = 101019050
REMARK  8 active torsions:
REMARK  status: ('A' for Active; 'I' for Inactive)
REMARK    1  A    between atoms: C_3  and  C_17
REMARK    2  A    between atoms: C_3  and  O_23
REMARK    3  A    between atoms: C_10  and  O_25
REMARK    4  A    between atoms: C_11  and  O_27
REMARK    5  A    between atoms: C_13  and  O_31
REMARK    6  A    between atoms: C_14  and  O_33
REMARK    7  A    between atoms: C_15  and  O_29
REMARK    8  A    between atoms: C_17  and  C_21
REMARK                            x       y       z     vdW  Elec       q    Type
REMARK                         _______ _______ _______ _____ _____    ______ ____
ROOT
ATOM      1  O   UNL     1      -1.784  -2.791  -0.973  0.00  0.00    -0.288 OA
ATOM      2  O   UNL     1      -2.025   1.777  -1.449  0.00  0.00    -0.288 OA
ATOM      3  C   UNL     1      -2.151  -0.455  -0.581  0.00  0.00    +0.204 C 
ATOM      4  C   UNL     1      -1.299  -1.706  -0.666  0.00  0.00    +0.207 C 
ATOM      5  C   UNL     1      -1.434   0.834  -0.931  0.00  0.00    +0.207 C 
ATOM      6  C   UNL     1       0.724  -0.276  -0.327  0.00  0.00    +0.015 A 
ATOM      7  C   UNL     1       0.141  -1.560  -0.351  0.00  0.00    +0.074 A 
ATOM      8  C   UNL     1       0.009   0.908  -0.609  0.00  0.00    +0.075 A 
ATOM      9  C   UNL     1       2.104  -0.171  -0.025  0.00  0.00    +0.036 A 
ATOM     10  C   UNL     1       0.897  -2.708  -0.088  0.00  0.00    +0.170 A 
ATOM     11  C   UNL     1       0.638   2.158  -0.597  0.00  0.00    +0.174 A 
ATOM     12  C   UNL     1       2.848  -1.330   0.246  0.00  0.00    +0.018 A 
ATOM     13  C   UNL     1       2.720   1.091  -0.007  0.00  0.00    +0.171 A 
ATOM     14  C   UNL     1       2.249  -2.588   0.213  0.00  0.00    +0.164 A 
ATOM     15  C   UNL     1       1.992   2.245  -0.292  0.00  0.00    +0.206 A 
ATOM     16  C   UNL     1       4.311  -1.311   0.581  0.00  0.00    +0.034 C 
ENDROOT
BRANCH   3  17
ATOM     17  C   UNL     1      -2.730  -0.329   0.830  0.00  0.00    +0.087 C 
ATOM     18  C   UNL     1      -1.575  -0.222   1.842  0.00  0.00    +0.011 C 
ATOM     19  C   UNL     1      -3.564  -1.571   1.175  0.00  0.00    +0.011 C 
BRANCH  17  21
ATOM     20  O   UNL     1      -4.579   1.110   0.180  0.00  0.00    -0.296 OA
ATOM     21  C   UNL     1      -3.595   0.946   0.905  0.00  0.00    +0.153 C 
ATOM     22  C   UNL     1      -3.230   2.003   1.920  0.00  0.00    +0.072 C 
ENDBRANCH  17  21
ENDBRANCH   3  17
BRANCH   3  23
ATOM     23  O   UNL     1      -3.218  -0.595  -1.508  0.00  0.00    -0.373 OA
ATOM     24  H   UNL     1      -3.706  -1.411  -1.318  0.00  0.00    +0.211 HD
ENDBRANCH   3  23
BRANCH  10  25
ATOM     25  O   UNL     1       0.348  -3.957  -0.092  0.00  0.00    -0.503 OA
ATOM     26  H   UNL     1      -0.561  -4.068  -0.292  0.00  0.00    +0.292 HD
ENDBRANCH  10  25
BRANCH  11  27
ATOM     27  O   UNL     1      -0.037   3.315  -0.852  0.00  0.00    -0.503 OA
ATOM     28  H   UNL     1      -0.951   3.288  -1.060  0.00  0.00    +0.292 HD
ENDBRANCH  11  27
BRANCH  15  29
ATOM     29  O   UNL     1       2.606   3.464  -0.271  0.00  0.00    -0.465 OA
ATOM     30  C   UNL     1       2.610   4.163   0.971  0.00  0.00    +0.253 C 
ENDBRANCH  15  29
BRANCH  13  31
ATOM     31  O   UNL     1       4.045   1.266   0.281  0.00  0.00    -0.503 OA
ATOM     32  H   UNL     1       4.583   0.524   0.480  0.00  0.00    +0.292 HD
ENDBRANCH  13  31
BRANCH  14  33
ATOM     33  O   UNL     1       2.981  -3.710   0.478  0.00  0.00    -0.503 OA
ATOM     34  H   UNL     1       2.572  -4.553   0.454  0.00  0.00    +0.292 HD
ENDBRANCH  14  33
TORSDOF 8
