101006108
  -OEChem-03292013293D

 63 69  0     1  0  0  0  0  0999 V2000
   -4.1240    1.0173   -0.4837 O   0  0  0  0  0  0  0  0  0  0  0  0
    0.0486    0.0196    2.6392 O   0  0  0  0  0  0  0  0  0  0  0  0
   -0.4253    2.8054    0.9697 O   0  0  0  0  0  0  0  0  0  0  0  0
    1.9451    1.8000    1.7316 O   0  0  0  0  0  0  0  0  0  0  0  0
   -1.6564   -2.0802   -1.9867 O   0  0  0  0  0  0  0  0  0  0  0  0
    3.9881    1.6302   -0.4797 O   0  0  0  0  0  0  0  0  0  0  0  0
    4.3827   -1.5249   -0.0576 O   0  0  0  0  0  0  0  0  0  0  0  0
   -1.7353   -1.4857    0.8149 N   0  0  2  0  0  0  0  0  0  0  0  0
   -0.7441    0.0167   -0.9692 C   0  0  2  0  0  0  0  0  0  0  0  0
   -1.6438    1.1171   -0.3173 C   0  0  1  0  0  0  0  0  0  0  0  0
   -0.4904   -0.8090    0.3503 C   0  0  1  0  0  0  0  0  0  0  0  0
    0.0592    0.3528    1.2558 C   0  0  2  0  0  0  0  0  0  0  0  0
   -2.9426    0.3778   -0.0242 C   0  0  2  0  0  0  0  0  0  0  0  0
    0.5998    0.5822   -1.5424 C   0  0  1  0  0  0  0  0  0  0  0  0
    1.5419    1.3376   -0.5833 C   0  0  1  0  0  0  0  0  0  0  0  0
    1.5178    0.7443    0.8442 C   0  0  1  0  0  0  0  0  0  0  0  0
   -0.9717    1.4984    1.0213 C   0  0  1  0  0  0  0  0  0  0  0  0
   -3.7139   -0.1394   -1.2149 C   0  0  2  0  0  0  0  0  0  0  0  0
   -1.5103   -0.6741   -2.1757 C   0  0  2  0  0  0  0  0  0  0  0  0
   -2.8988   -0.6207    1.0891 C   0  0  0  0  0  0  0  0  0  0  0  0
    1.5175   -0.4998   -2.1730 C   0  0  0  0  0  0  0  0  0  0  0  0
    2.9037   -0.3121   -1.5382 C   0  0  1  0  0  0  0  0  0  0  0  0
   -2.9103   -0.0729   -2.4610 C   0  0  0  0  0  0  0  0  0  0  0  0
    2.9060    1.1874   -1.2695 C   0  0  2  0  0  0  0  0  0  0  0  0
    2.5650   -0.3898    1.0352 C   0  0  0  0  0  0  0  0  0  0  0  0
    3.0187   -1.1267   -0.2361 C   0  0  2  0  0  0  0  0  0  0  0  0
   -1.5324   -2.4736    1.8641 C   0  0  0  0  0  0  0  0  0  0  0  0
   -1.4234    3.8014    1.1613 C   0  0  0  0  0  0  0  0  0  0  0  0
   -2.7443   -3.3785    2.0078 C   0  0  0  0  0  0  0  0  0  0  0  0
    4.4728   -2.7010    0.7279 C   0  0  0  0  0  0  0  0  0  0  0  0
   -1.7869    1.9745   -0.9835 H   0  0  0  0  0  0  0  0  0  0  0  0
    0.2600   -1.5831    0.1754 H   0  0  0  0  0  0  0  0  0  0  0  0
    0.3342    1.2865   -2.3457 H   0  0  0  0  0  0  0  0  0  0  0  0
    1.3024    2.4059   -0.5608 H   0  0  0  0  0  0  0  0  0  0  0  0
   -1.6829    1.5084    1.8543 H   0  0  0  0  0  0  0  0  0  0  0  0
   -4.3146   -1.0350   -1.1333 H   0  0  0  0  0  0  0  0  0  0  0  0
   -0.9383   -0.5561   -3.1030 H   0  0  0  0  0  0  0  0  0  0  0  0
   -2.8358   -0.1435    2.0718 H   0  0  0  0  0  0  0  0  0  0  0  0
   -3.8284   -1.2003    1.0932 H   0  0  0  0  0  0  0  0  0  0  0  0
    1.1408   -1.5205   -2.0575 H   0  0  0  0  0  0  0  0  0  0  0  0
    1.5875   -0.3136   -3.2527 H   0  0  0  0  0  0  0  0  0  0  0  0
    3.7013   -0.5984   -2.2326 H   0  0  0  0  0  0  0  0  0  0  0  0
   -3.4172   -0.6482   -3.2442 H   0  0  0  0  0  0  0  0  0  0  0  0
   -2.8201    0.9583   -2.8214 H   0  0  0  0  0  0  0  0  0  0  0  0
    2.9220    1.7514   -2.2109 H   0  0  0  0  0  0  0  0  0  0  0  0
    2.2100   -1.1336    1.7565 H   0  0  0  0  0  0  0  0  0  0  0  0
    3.4550    0.0282    1.5292 H   0  0  0  0  0  0  0  0  0  0  0  0
    2.4198   -2.0382   -0.3569 H   0  0  0  0  0  0  0  0  0  0  0  0
    0.5098   -0.8257    2.7584 H   0  0  0  0  0  0  0  0  0  0  0  0
   -0.6737   -3.1076    1.6131 H   0  0  0  0  0  0  0  0  0  0  0  0
   -1.3250   -2.0135    2.8349 H   0  0  0  0  0  0  0  0  0  0  0  0
    1.8636    1.4678    2.6422 H   0  0  0  0  0  0  0  0  0  0  0  0
   -2.0815   -2.4444   -2.7816 H   0  0  0  0  0  0  0  0  0  0  0  0
    4.8069    1.3726   -0.9365 H   0  0  0  0  0  0  0  0  0  0  0  0
   -0.9466    4.7807    1.0637 H   0  0  0  0  0  0  0  0  0  0  0  0
   -1.8501    3.7284    2.1665 H   0  0  0  0  0  0  0  0  0  0  0  0
   -2.2150    3.7290    0.4103 H   0  0  0  0  0  0  0  0  0  0  0  0
   -3.5921   -2.8695    2.4763 H   0  0  0  0  0  0  0  0  0  0  0  0
   -3.0639   -3.7818    1.0407 H   0  0  0  0  0  0  0  0  0  0  0  0
   -2.4928   -4.2296    2.6504 H   0  0  0  0  0  0  0  0  0  0  0  0
    5.5301   -2.9650    0.8215 H   0  0  0  0  0  0  0  0  0  0  0  0
    3.9582   -3.5362    0.2422 H   0  0  0  0  0  0  0  0  0  0  0  0
    4.0750   -2.5443    1.7344 H   0  0  0  0  0  0  0  0  0  0  0  0
  1 13  1  0  0  0  0
  1 18  1  0  0  0  0
  2 12  1  0  0  0  0
  2 49  1  0  0  0  0
  3 17  1  0  0  0  0
  3 28  1  0  0  0  0
  4 16  1  0  0  0  0
  4 52  1  0  0  0  0
  5 19  1  0  0  0  0
  5 53  1  0  0  0  0
  6 24  1  0  0  0  0
  6 54  1  0  0  0  0
  7 26  1  0  0  0  0
  7 30  1  0  0  0  0
  8 11  1  0  0  0  0
  8 20  1  0  0  0  0
  8 27  1  0  0  0  0
  9 10  1  0  0  0  0
  9 11  1  0  0  0  0
  9 14  1  0  0  0  0
  9 19  1  0  0  0  0
 10 13  1  0  0  0  0
 10 17  1  0  0  0  0
 10 31  1  0  0  0  0
 11 12  1  0  0  0  0
 11 32  1  0  0  0  0
 12 16  1  0  0  0  0
 12 17  1  0  0  0  0
 13 18  1  0  0  0  0
 13 20  1  0  0  0  0
 14 15  1  0  0  0  0
 14 21  1  0  0  0  0
 14 33  1  0  0  0  0
 15 16  1  0  0  0  0
 15 24  1  0  0  0  0
 15 34  1  0  0  0  0
 16 25  1  0  0  0  0
 17 35  1  0  0  0  0
 18 23  1  0  0  0  0
 18 36  1  0  0  0  0
 19 23  1  0  0  0  0
 19 37  1  0  0  0  0
 20 38  1  0  0  0  0
 20 39  1  0  0  0  0
 21 22  1  0  0  0  0
 21 40  1  0  0  0  0
 21 41  1  0  0  0  0
 22 24  1  0  0  0  0
 22 26  1  0  0  0  0
 22 42  1  0  0  0  0
 23 43  1  0  0  0  0
 23 44  1  0  0  0  0
 24 45  1  0  0  0  0
 25 26  1  0  0  0  0
 25 46  1  0  0  0  0
 25 47  1  0  0  0  0
 26 48  1  0  0  0  0
 27 29  1  0  0  0  0
 27 50  1  0  0  0  0
 27 51  1  0  0  0  0
 28 55  1  0  0  0  0
 28 56  1  0  0  0  0
 28 57  1  0  0  0  0
 29 58  1  0  0  0  0
 29 59  1  0  0  0  0
 29 60  1  0  0  0  0
 30 61  1  0  0  0  0
 30 62  1  0  0  0  0
 30 63  1  0  0  0  0
M  END
> <PUBCHEM_COMPOUND_CID>
101006108

> <PUBCHEM_CONFORMER_RMSD>
0.8

> <PUBCHEM_CONFORMER_DIVERSEORDER>
1

> <PUBCHEM_MMFF94_PARTIAL_CHARGES>
28
1 -0.3
10 0.09
11 0.27
12 0.28
13 -0.04
16 0.28
17 0.28
18 -0.05
19 0.28
2 -0.68
20 0.37
23 0.09
24 0.28
26 0.28
27 0.27
28 0.28
3 -0.56
30 0.28
36 0.1
4 -0.68
49 0.4
5 -0.68
52 0.4
53 0.4
54 0.4
6 -0.68
7 -0.56
8 -0.81

> <PUBCHEM_EFFECTIVE_ROTOR_COUNT>
5

> <PUBCHEM_PHARMACOPHORE_FEATURES>
16
1 1 acceptor
1 2 acceptor
1 2 donor
1 3 acceptor
1 4 acceptor
1 4 donor
1 5 acceptor
1 5 donor
1 6 acceptor
1 6 donor
1 7 acceptor
1 8 cation
7 1 9 10 13 18 19 23 rings
8 14 15 16 21 22 24 25 26 rings
8 8 9 10 11 12 13 17 20 rings
8 9 10 11 12 14 15 16 17 rings

> <PUBCHEM_HEAVY_ATOM_COUNT>
30

> <PUBCHEM_ATOM_DEF_STEREO_COUNT>
14

> <PUBCHEM_ATOM_UDEF_STEREO_COUNT>
0

> <PUBCHEM_BOND_DEF_STEREO_COUNT>
0

> <PUBCHEM_BOND_UDEF_STEREO_COUNT>
0

> <PUBCHEM_ISOTOPIC_ATOM_COUNT>
0

> <PUBCHEM_COMPONENT_COUNT>
1

> <PUBCHEM_CACTVS_TAUTO_COUNT>
1

> <PUBCHEM_CONFORMER_ID>
06053B1C00000001

> <PUBCHEM_MMFF94_ENERGY>
169.8485

> <PUBCHEM_FEATURE_SELFOVERLAP>
82.505

> <PUBCHEM_SHAPE_FINGERPRINT>
10863032 1 18187656837615541022
10948715 1 15719391732905505869
11578080 2 18115881865094833568
12156800 1 13053306671055387317
12160290 23 17699312987288052048
12403814 3 17989211416962612117
12422481 6 17485114919841755225
12553582 1 17346329205937682692
12788726 201 18200325315906979536
13224815 77 15338838694164075190
133893 2 17342654792665056825
13583140 156 18269275827771107520
14223421 5 17898581031332060374
14955137 171 14316561852496024073
15219462 58 18412266142838458432
16752209 62 17845382041785509564
16945 1 18193864572712518121
17349148 13 18337106753141225982
20600515 1 18116408471008830640
20691752 17 17774422941853061533
20775530 9 18042982032613872242
21285901 2 17631739262130137213
21731516 1 17989212563913721182
23419403 2 17760370294070826481
23557571 272 17532650341709361642
23559900 14 18333169479801934984
3027735 51 17250319610388841986
3380486 77 17846768629059031590
394222 165 16984307426491741960
5845 1 16916803875981757713

> <PUBCHEM_SHAPE_MULTIPOLES>
571.32
6.43
3.03
2.43
3.63
0.74
0.52
2.31
1.2
-0.68
-2.2
-0.94
0.05
0.19

> <PUBCHEM_SHAPE_SELFOVERLAP>
1278.271

> <PUBCHEM_SHAPE_VOLUME>
300.1

> <PUBCHEM_COORDINATE_TYPE>
2
5
10

$$$$
