101052653
  -OEChem-03292013293D

 46 47  0     0  0  0  0  0  0999 V2000
   -1.1208   -1.5073    1.0188 O   0  0  0  0  0  0  0  0  0  0  0  0
   -0.1739    0.6568    2.4844 O   0  0  0  0  0  0  0  0  0  0  0  0
   -3.7044    3.0193    0.6120 O   0  0  0  0  0  0  0  0  0  0  0  0
   -3.1295    3.6286   -2.0387 O   0  0  0  0  0  0  0  0  0  0  0  0
   -3.0266   -4.8511   -0.7818 O   0  0  0  0  0  0  0  0  0  0  0  0
   -1.5635   -4.2775    0.8700 O   0  0  0  0  0  0  0  0  0  0  0  0
    7.1469   -0.3726   -1.4011 O   0  0  0  0  0  0  0  0  0  0  0  0
    6.6410    1.6216   -0.4155 O   0  0  0  0  0  0  0  0  0  0  0  0
   -2.3085   -0.1562   -0.5418 C   0  0  0  0  0  0  0  0  0  0  0  0
    0.1252   -1.0068    0.7886 C   0  0  0  0  0  0  0  0  0  0  0  0
   -2.0156   -1.5031   -0.0134 C   0  0  0  0  0  0  0  0  0  0  0  0
    0.6005    0.0790    1.5239 C   0  0  0  0  0  0  0  0  0  0  0  0
   -2.8745    0.8106    0.2893 C   0  0  0  0  0  0  0  0  0  0  0  0
    2.6806   -0.0011    0.2975 C   0  0  0  0  0  0  0  0  0  0  0  0
    1.8783    0.5817    1.2784 C   0  0  0  0  0  0  0  0  0  0  0  0
   -2.0201    0.1497   -1.8717 C   0  0  0  0  0  0  0  0  0  0  0  0
    0.9275   -1.5898   -0.1922 C   0  0  0  0  0  0  0  0  0  0  0  0
   -3.1518    2.0834   -0.2095 C   0  0  0  0  0  0  0  0  0  0  0  0
    2.2053   -1.0869   -0.4379 C   0  0  0  0  0  0  0  0  0  0  0  0
   -2.8634    2.3893   -1.5394 C   0  0  0  0  0  0  0  0  0  0  0  0
   -2.2977    1.4225   -2.3706 C   0  0  0  0  0  0  0  0  0  0  0  0
   -2.5807   -2.6046   -0.5404 C   0  0  0  0  0  0  0  0  0  0  0  0
    4.0130    0.5233    0.0422 C   0  0  0  0  0  0  0  0  0  0  0  0
    0.3868    1.7621    3.1903 C   0  0  0  0  0  0  0  0  0  0  0  0
    5.0118   -0.1468   -0.5740 C   0  0  0  0  0  0  0  0  0  0  0  0
   -2.3075   -3.9713   -0.0457 C   0  0  0  0  0  0  0  0  0  0  0  0
   -2.8056    3.8509    1.3434 C   0  0  0  0  0  0  0  0  0  0  0  0
    6.3271    0.4964   -0.7650 C   0  0  0  0  0  0  0  0  0  0  0  0
   -3.1063    0.5804    1.3271 H   0  0  0  0  0  0  0  0  0  0  0  0
    2.2965    1.4224    1.8227 H   0  0  0  0  0  0  0  0  0  0  0  0
   -1.5740   -0.5885   -2.5338 H   0  0  0  0  0  0  0  0  0  0  0  0
    0.5767   -2.4402   -0.7707 H   0  0  0  0  0  0  0  0  0  0  0  0
    2.7870   -1.5613   -1.2228 H   0  0  0  0  0  0  0  0  0  0  0  0
   -2.0667    1.6478   -3.4083 H   0  0  0  0  0  0  0  0  0  0  0  0
   -3.2828   -2.5193   -1.3662 H   0  0  0  0  0  0  0  0  0  0  0  0
    4.1935    1.5363    0.3962 H   0  0  0  0  0  0  0  0  0  0  0  0
    0.5830    2.6091    2.5239 H   0  0  0  0  0  0  0  0  0  0  0  0
    1.2711    1.4679    3.7658 H   0  0  0  0  0  0  0  0  0  0  0  0
   -0.3649    2.0961    3.9132 H   0  0  0  0  0  0  0  0  0  0  0  0
    4.9066   -1.1658   -0.9289 H   0  0  0  0  0  0  0  0  0  0  0  0
   -2.8635    3.6572   -2.9738 H   0  0  0  0  0  0  0  0  0  0  0  0
   -3.3953    4.5667    1.9226 H   0  0  0  0  0  0  0  0  0  0  0  0
   -2.1507    4.4053    0.6638 H   0  0  0  0  0  0  0  0  0  0  0  0
   -2.2073    3.2498    2.0349 H   0  0  0  0  0  0  0  0  0  0  0  0
   -2.8807   -5.7772   -0.4929 H   0  0  0  0  0  0  0  0  0  0  0  0
    8.0383    0.0077   -1.5536 H   0  0  0  0  0  0  0  0  0  0  0  0
  1 10  1  0  0  0  0
  1 11  1  0  0  0  0
  2 12  1  0  0  0  0
  2 24  1  0  0  0  0
  3 18  1  0  0  0  0
  3 27  1  0  0  0  0
  4 20  1  0  0  0  0
  4 41  1  0  0  0  0
  5 26  1  0  0  0  0
  5 45  1  0  0  0  0
  6 26  2  0  0  0  0
  7 28  1  0  0  0  0
  7 46  1  0  0  0  0
  8 28  2  0  0  0  0
  9 11  1  0  0  0  0
  9 13  2  0  0  0  0
  9 16  1  0  0  0  0
 10 12  2  0  0  0  0
 10 17  1  0  0  0  0
 11 22  2  0  0  0  0
 12 15  1  0  0  0  0
 13 18  1  0  0  0  0
 13 29  1  0  0  0  0
 14 15  2  0  0  0  0
 14 19  1  0  0  0  0
 14 23  1  0  0  0  0
 15 30  1  0  0  0  0
 16 21  2  0  0  0  0
 16 31  1  0  0  0  0
 17 19  2  0  0  0  0
 17 32  1  0  0  0  0
 18 20  2  0  0  0  0
 19 33  1  0  0  0  0
 20 21  1  0  0  0  0
 21 34  1  0  0  0  0
 22 26  1  0  0  0  0
 22 35  1  0  0  0  0
 23 25  2  0  0  0  0
 23 36  1  0  0  0  0
 24 37  1  0  0  0  0
 24 38  1  0  0  0  0
 24 39  1  0  0  0  0
 25 28  1  0  0  0  0
 25 40  1  0  0  0  0
 27 42  1  0  0  0  0
 27 43  1  0  0  0  0
 27 44  1  0  0  0  0
M  END
> <PUBCHEM_COMPOUND_CID>
101052653

> <PUBCHEM_CONFORMER_RMSD>
1

> <PUBCHEM_CONFORMER_DIVERSEORDER>
2
31
29
8
45
17
27
5
21
35
46
25
41
32
6
48
38
7
36
14
23
22
11
15
28
4
39
40
10
44
16
12
34
43
19
20
24
9
13
26
33
49
47
18
37
42
1
30
3

> <PUBCHEM_MMFF94_PARTIAL_CHARGES>
40
1 -0.16
10 0.08
11 0.05
12 0.08
13 -0.15
14 0.03
15 -0.15
16 -0.15
17 -0.15
18 0.08
19 -0.15
2 -0.36
20 0.08
21 -0.15
22 -0.14
23 -0.18
24 0.28
25 -0.14
26 0.71
27 0.28
28 0.71
29 0.15
3 -0.36
30 0.15
31 0.15
32 0.15
33 0.15
34 0.15
35 0.15
36 0.15
4 -0.53
40 0.15
41 0.45
45 0.5
46 0.5
5 -0.65
6 -0.57
7 -0.65
8 -0.57
9 0.03

> <PUBCHEM_EFFECTIVE_ROTOR_COUNT>
8

> <PUBCHEM_PHARMACOPHORE_FEATURES>
12
1 1 acceptor
1 2 acceptor
1 3 acceptor
1 4 donor
1 5 acceptor
1 6 acceptor
1 7 acceptor
1 8 acceptor
3 5 6 26 anion
3 7 8 28 anion
6 10 12 14 15 17 19 rings
6 9 13 16 18 20 21 rings

> <PUBCHEM_HEAVY_ATOM_COUNT>
28

> <PUBCHEM_ATOM_DEF_STEREO_COUNT>
0

> <PUBCHEM_ATOM_UDEF_STEREO_COUNT>
0

> <PUBCHEM_BOND_DEF_STEREO_COUNT>
2

> <PUBCHEM_BOND_UDEF_STEREO_COUNT>
0

> <PUBCHEM_ISOTOPIC_ATOM_COUNT>
0

> <PUBCHEM_COMPONENT_COUNT>
1

> <PUBCHEM_CACTVS_TAUTO_COUNT>
4

> <PUBCHEM_CONFORMER_ID>
0605F0ED00000002

> <PUBCHEM_MMFF94_ENERGY>
107.7879

> <PUBCHEM_FEATURE_SELFOVERLAP>
61.02

> <PUBCHEM_SHAPE_FINGERPRINT>
10165383 225 18339931420235635121
105312 117 18410296874462874390
107951 10 18129668478571381557
11101153 10 17827648264150599020
11477941 20 18119807165135760628
12293681 160 17559114268167197040
12788726 201 18262505005272024491
13690498 29 18270400637031206894
13761468 95 17605833612938754572
14114211 68 18122038942128279965
14508225 48 18048872193728583895
14713325 29 18410860987893879942
15131766 46 15335726131122084923
15183329 4 18187926141483187942
15463212 79 18113612374484780266
18785283 64 17615968812281290355
19319366 153 17697598797452901681
20771845 65 17693949896513062115
21033650 10 17560230311208536352
23557571 272 17977079573180955995
24893989 43 15750832436039022439
3610482 184 17531263755306441158
469060 322 16588034515078568305
484985 159 14261351392420352527
5283173 99 18343301488105454032
531348 171 18260830376480877150
5364581 5 9222938250419121462
57527585 103 17986933315148580009
59755656 520 18340496547478889032
621550 5 17982735473863638323
6442390 28 18339357453997047891
7808743 9 18187639168004541116
81228 2 18192129703021989475

> <PUBCHEM_SHAPE_MULTIPOLES>
529.27
10.6
4.9
2.18
27.1
3.98
-0.71
-4.76
5.99
-9.08
-0.14
-0.76
-1.81
0.53

> <PUBCHEM_SHAPE_SELFOVERLAP>
1131.854

> <PUBCHEM_SHAPE_VOLUME>
293.1

> <PUBCHEM_COORDINATE_TYPE>
2
5
10

$$$$
