101046838
  -OEChem-03292013293D

 29 29  0     1  0  0  0  0  0999 V2000
   -4.7010   -0.3026    0.7883 O   0  0  0  0  0  0  0  0  0  0  0  0
   -0.5064   -0.3475   -1.7013 O   0  0  0  0  0  0  0  0  0  0  0  0
    2.5352    2.1233    0.4477 O   0  0  0  0  0  0  0  0  0  0  0  0
    4.1528   -1.2830   -0.3950 O   0  0  0  0  0  0  0  0  0  0  0  0
    3.2043   -0.6612    1.5709 O   0  0  0  0  0  0  0  0  0  0  0  0
   -1.9822    0.9256    0.7354 N   0  0  0  0  0  0  0  0  0  0  0  0
    0.8643   -0.1568    0.1707 N   0  0  0  0  0  0  0  0  0  0  0  0
   -1.4939   -0.4326    0.4683 C   0  0  1  0  0  0  0  0  0  0  0  0
   -2.6585   -1.2148   -0.1332 C   0  0  0  0  0  0  0  0  0  0  0  0
   -3.7788   -0.1946   -0.2909 C   0  0  2  0  0  0  0  0  0  0  0  0
   -3.0819    1.1498   -0.2154 C   0  0  0  0  0  0  0  0  0  0  0  0
   -0.3465   -0.3032   -0.4843 C   0  0  0  0  0  0  0  0  0  0  0  0
    2.1275   -0.0345   -0.5207 C   0  0  1  0  0  0  0  0  0  0  0  0
    2.4829    1.4206   -0.7878 C   0  0  0  0  0  0  0  0  0  0  0  0
    3.1822   -0.6885    0.3472 C   0  0  0  0  0  0  0  0  0  0  0  0
   -1.1606   -0.9040    1.3994 H   0  0  0  0  0  0  0  0  0  0  0  0
   -2.4160   -1.6636   -1.1020 H   0  0  0  0  0  0  0  0  0  0  0  0
   -2.9603   -2.0263    0.5393 H   0  0  0  0  0  0  0  0  0  0  0  0
   -4.3317   -0.3202   -1.2268 H   0  0  0  0  0  0  0  0  0  0  0  0
   -2.6749    1.4335   -1.1925 H   0  0  0  0  0  0  0  0  0  0  0  0
   -3.7367    1.9486    0.1449 H   0  0  0  0  0  0  0  0  0  0  0  0
   -1.2539    1.6301    0.6374 H   0  0  0  0  0  0  0  0  0  0  0  0
    0.8711   -0.0991    1.1854 H   0  0  0  0  0  0  0  0  0  0  0  0
    2.0546   -0.5842   -1.4662 H   0  0  0  0  0  0  0  0  0  0  0  0
   -5.1132   -1.1816    0.7319 H   0  0  0  0  0  0  0  0  0  0  0  0
    1.7279    1.8974   -1.4214 H   0  0  0  0  0  0  0  0  0  0  0  0
    3.4607    1.5037   -1.2734 H   0  0  0  0  0  0  0  0  0  0  0  0
    2.7624    3.0460    0.2412 H   0  0  0  0  0  0  0  0  0  0  0  0
    4.8471   -1.6873    0.1679 H   0  0  0  0  0  0  0  0  0  0  0  0
  1 10  1  0  0  0  0
  1 25  1  0  0  0  0
  2 12  2  0  0  0  0
  3 14  1  0  0  0  0
  3 28  1  0  0  0  0
  4 15  1  0  0  0  0
  4 29  1  0  0  0  0
  5 15  2  0  0  0  0
  6  8  1  0  0  0  0
  6 11  1  0  0  0  0
  6 22  1  0  0  0  0
  7 12  1  0  0  0  0
  7 13  1  0  0  0  0
  7 23  1  0  0  0  0
  8  9  1  0  0  0  0
  8 12  1  0  0  0  0
  8 16  1  0  0  0  0
  9 10  1  0  0  0  0
  9 17  1  0  0  0  0
  9 18  1  0  0  0  0
 10 11  1  0  0  0  0
 10 19  1  0  0  0  0
 11 20  1  0  0  0  0
 11 21  1  0  0  0  0
 13 14  1  0  0  0  0
 13 15  1  0  0  0  0
 13 24  1  0  0  0  0
 14 26  1  0  0  0  0
 14 27  1  0  0  0  0
M  END
> <PUBCHEM_COMPOUND_CID>
101046838

> <PUBCHEM_CONFORMER_RMSD>
0.6

> <PUBCHEM_CONFORMER_DIVERSEORDER>
2
21
34
96
80
74
73
38
71
14
32
57
98
22
79
20
90
45
64
67
78
66
39
94
8
26
27
70
84
56
7
69
88
46
92
91
59
19
9
29
31
53
87
63
76
50
48
81
83
5
68
60
75
77
52
37
6
36
11
97
40
89
61
18
58
72
54
10
17
82
35
13
43
95
65
62
85
44
23
33
93
99
1
49
24
16
12
15
41
42
4
86
51
55
3
47
28
30
25

> <PUBCHEM_MMFF94_PARTIAL_CHARGES>
19
1 -0.68
10 0.28
11 0.27
12 0.57
13 0.36
14 0.28
15 0.66
2 -0.57
22 0.36
23 0.37
25 0.4
28 0.4
29 0.5
3 -0.68
4 -0.65
5 -0.57
6 -0.9
7 -0.73
8 0.33

> <PUBCHEM_EFFECTIVE_ROTOR_COUNT>
6

> <PUBCHEM_PHARMACOPHORE_FEATURES>
12
1 1 acceptor
1 1 donor
1 2 acceptor
1 3 acceptor
1 3 donor
1 4 acceptor
1 5 acceptor
1 6 cation
1 6 donor
1 7 donor
3 4 5 15 anion
5 6 8 9 10 11 rings

> <PUBCHEM_HEAVY_ATOM_COUNT>
15

> <PUBCHEM_ATOM_DEF_STEREO_COUNT>
2

> <PUBCHEM_ATOM_UDEF_STEREO_COUNT>
1

> <PUBCHEM_BOND_DEF_STEREO_COUNT>
0

> <PUBCHEM_BOND_UDEF_STEREO_COUNT>
0

> <PUBCHEM_ISOTOPIC_ATOM_COUNT>
0

> <PUBCHEM_COMPONENT_COUNT>
1

> <PUBCHEM_CACTVS_TAUTO_COUNT>
2

> <PUBCHEM_CONFORMER_ID>
0605DA3600000002

> <PUBCHEM_MMFF94_ENERGY>
25.0499

> <PUBCHEM_FEATURE_SELFOVERLAP>
60.961

> <PUBCHEM_SHAPE_FINGERPRINT>
12162725 195 18342461430465809357
12251169 10 18409445886321820182
12932764 1 17531237361962240646
13296908 3 16515682260382124511
13538477 17 18059008518288878206
13675066 3 18059850649622097138
14144814 61 18259703376233634122
17802600 8 18410007723931595765
17834072 33 18335989744053796838
18186145 218 18040430010089761615
20279233 1 14908183057743898535
20281407 28 16298385751425084702
20559304 39 18272374170071035952
20645477 70 18260831509602975214
2255824 54 17894633682057742534
23048698 100 18261116291614547072
23402539 116 18201431455475758685
23557571 272 14907910340152789672
23559900 14 18335984254494767995
3248919 1 17703800218636145359
3286 77 17967244287099091074
42 15 18408887317176992483
449060 50 17749958893533478220
5374978 207 18411701015072620769
57812782 119 18342173354118895189
7364860 26 18342739658922043368
74978 22 18334296491519848730

> <PUBCHEM_SHAPE_MULTIPOLES>
269.38
8.04
1.42
1.07
1.47
0.57
0.05
-1.03
-1.15
-0.89
-0.08
-0.3
-0.06
-0.17

> <PUBCHEM_SHAPE_SELFOVERLAP>
542.173

> <PUBCHEM_SHAPE_VOLUME>
158.3

> <PUBCHEM_COORDINATE_TYPE>
2
5
10

$$$$
