REMARK  Name = 101042104
REMARK  10 active torsions:
REMARK  status: ('A' for Active; 'I' for Inactive)
REMARK    1  A    between atoms: C_6  and  C_26
REMARK    2  A    between atoms: C_7  and  O_20
REMARK    3  A    between atoms: C_11  and  O_22
REMARK    4  A    between atoms: C_19  and  O_24
REMARK    5  A    between atoms: C_26  and  C_28
REMARK    6  A    between atoms: C_28  and  C_29
REMARK    7  A    between atoms: C_29  and  N_30
REMARK    8  A    between atoms: N_30  and  C_33
REMARK    9  A    between atoms: C_33  and  C_34
REMARK   10  A    between atoms: C_34  and  S_35
REMARK                            x       y       z     vdW  Elec       q    Type
REMARK                         _______ _______ _______ _____ _____    ______ ____
ROOT
ATOM      1  C   UNL     1       0.558  -0.019   0.547  0.00  0.00    +0.025 C 
ATOM      2  C   UNL     1       1.468   0.928  -0.277  0.00  0.00    +0.005 C 
ATOM      3  C   UNL     1       2.876   1.092   0.333  0.00  0.00    +0.027 C 
ATOM      4  C   UNL     1       3.550  -0.321   0.412  0.00  0.00    +0.005 C 
ATOM      5  C   UNL     1       5.018  -0.253   0.982  0.00  0.00    +0.000 C 
ATOM      6  C   UNL     1      -0.740   0.093  -0.295  0.00  0.00    +0.002 C 
ATOM      7  C   UNL     1       1.198  -1.420   0.607  0.00  0.00    +0.110 C 
ATOM      8  C   UNL     1       2.645  -1.361   1.134  0.00  0.00    +0.029 C 
ATOM      9  C   UNL     1       5.859   0.752   0.130  0.00  0.00    +0.005 C 
ATOM     10  C   UNL     1       0.587   2.159  -0.494  0.00  0.00    +0.000 C 
ATOM     11  C   UNL     1       3.749   2.079  -0.469  0.00  0.00    +0.110 C 
ATOM     12  C   UNL     1      -0.840   1.599  -0.620  0.00  0.00    +0.000 C 
ATOM     13  C   UNL     1       5.190   2.128   0.039  0.00  0.00    +0.029 C 
ATOM     14  C   UNL     1       5.736  -1.635   0.953  0.00  0.00    +0.002 C 
ATOM     15  C   UNL     1       0.317   0.476   2.000  0.00  0.00    +0.002 C 
ATOM     16  C   UNL     1       6.181   0.219  -1.281  0.00  0.00    +0.029 C 
ATOM     17  C   UNL     1       5.018   0.202   2.464  0.00  0.00    +0.000 C 
ATOM     18  C   UNL     1       6.019  -2.154  -0.451  0.00  0.00    +0.029 C 
ATOM     19  C   UNL     1       6.847  -1.153  -1.246  0.00  0.00    +0.111 C 
ENDROOT
BRANCH   7  20
ATOM     20  O   UNL     1       1.185  -2.071  -0.663  0.00  0.00    -0.384 OA
ATOM     21  H   UNL     1       0.276  -2.111  -0.998  0.00  0.00    +0.210 HD
ENDBRANCH   7  20
BRANCH  11  22
ATOM     22  O   UNL     1       3.212   3.396  -0.358  0.00  0.00    -0.384 OA
ATOM     23  H   UNL     1       2.295   3.399  -0.674  0.00  0.00    +0.210 HD
ENDBRANCH  11  22
BRANCH  19  24
ATOM     24  O   UNL     1       7.003  -1.645  -2.573  0.00  0.00    -0.384 OA
ATOM     25  H   UNL     1       7.529  -1.016  -3.091  0.00  0.00    +0.210 HD
ENDBRANCH  19  24
BRANCH   6  26
ATOM     26  C   UNL     1      -2.008  -0.463   0.338  0.00  0.00    -0.002 C 
ATOM     27  C   UNL     1      -2.022  -1.991   0.232  0.00  0.00    -0.000 C 
BRANCH  26  28
ATOM     28  C   UNL     1      -3.252   0.175  -0.315  0.00  0.00    -0.023 C 
BRANCH  28  29
ATOM     29  C   UNL     1      -4.576  -0.380   0.213  0.00  0.00    -0.082 C 
BRANCH  29  30
ATOM     30  N   UNL     1      -5.697   0.278  -0.449  0.00  0.00    +0.385 N 
ATOM     31  H   UNL     1      -5.640   0.106  -1.453  0.00  0.00    -0.084 HD
ATOM     32  H   UNL     1      -5.649   1.278  -0.256  0.00  0.00    -0.084 HD
BRANCH  30  33
ATOM     33  C   UNL     1      -6.966  -0.233   0.050  0.00  0.00    -0.055 C 
BRANCH  33  34
ATOM     34  C   UNL     1      -8.135   0.418  -0.669  0.00  0.00    +0.135 C 
BRANCH  34  35
ATOM     35  S   UNL     1      -9.677  -0.215  -0.087  0.00  0.00    +0.020 S 
ATOM     36  O   UNL     1     -10.649   0.816  -0.896  0.00  0.00    -0.070 OA
ATOM     37  O   UNL     1      -9.790   0.056   1.334  0.00  0.00    -0.070 OA
ATOM     38  O   UNL     1      -9.866  -1.551  -0.623  0.00  0.00    -0.070 OA
ENDBRANCH  34  35
ENDBRANCH  33  34
ENDBRANCH  30  33
ENDBRANCH  29  30
ENDBRANCH  28  29
ENDBRANCH  26  28
ENDBRANCH   6  26
TORSDOF 10
