REMARK  Name = 101021219
REMARK  14 active torsions:
REMARK  status: ('A' for Active; 'I' for Inactive)
REMARK    1  A    between atoms: C_1  and  C_21
REMARK    2  A    between atoms: C_8  and  C_9
REMARK    3  A    between atoms: C_9  and  O_10
REMARK    4  A    between atoms: C_9  and  C_12
REMARK    5  A    between atoms: C_12  and  C_14
REMARK    6  A    between atoms: C_12  and  C_17
REMARK    7  A    between atoms: C_14  and  O_15
REMARK    8  A    between atoms: C_17  and  C_19
REMARK    9  A    between atoms: C_21  and  C_22
REMARK   10  A    between atoms: C_22  and  N_24
REMARK   11  A    between atoms: C_22  and  C_34
REMARK   12  A    between atoms: C_25  and  CA_27
REMARK   13  A    between atoms: CA_27  and  N_29
REMARK   14  A    between atoms: C_34  and  O_35
REMARK                            x       y       z     vdW  Elec       q    Type
REMARK                         _______ _______ _______ _____ _____    ______ ____
ROOT
ATOM      1  O   ALA A   1       5.303   0.863   0.714  0.00  0.00    -0.277 OA
ATOM      2  N   UNK A   2       3.510  -0.061  -0.432  0.00  0.00    -0.298 N 
ATOM      3  C   ALA A   1       4.329   0.985  -0.027  0.00  0.00    +0.202 C 
ATOM      4  H   UNK A   2       2.752   0.138  -1.029  0.00  0.00    +0.150 HD
ENDROOT
BRANCH   3   5
ATOM      5  CA  ALA A   1       3.875   2.323  -0.596  0.00  0.00    +0.013 C 
ATOM      6  CB  ALA A   1       4.573   2.598  -1.922  0.00  0.00    -0.015 C 
BRANCH   5   7
ATOM      7  N   ALA A   1       4.200   3.368   0.372  0.00  0.00    +0.387 N 
ATOM      8  H1  ALA A   1       3.727   3.173   1.254  0.00  0.00    -0.089 HD
ATOM      9  H2  ALA A   1       3.892   4.272   0.013  0.00  0.00    -0.089 HD
ATOM     10  H3  ALA A   1       5.209   3.388   0.524  0.00  0.00    -0.089 HD
ENDBRANCH   5   7
ENDBRANCH   3   5
BRANCH   2  11
ATOM     11  C   UNK A   2       3.720  -1.427  -0.019  0.00  0.00    +0.171 C 
BRANCH  11  13
ATOM     12  O   UNK A   2       3.483  -3.609  -1.049  0.00  0.00    -0.248 OA
ATOM     13  C   UNK A   2       3.326  -2.396  -1.122  0.00  0.00    +0.332 C 
BRANCH  13  14
ATOM     14  O   UNK A   2       2.772  -1.791  -2.200  0.00  0.00    -0.479 OA
ATOM     15  H   UNK A   2       2.670  -0.860  -2.214  0.00  0.00    +0.295 HD
ENDBRANCH  13  14
ENDBRANCH  11  13
BRANCH  11  16
ATOM     16  C   UNK A   2       2.946  -1.733   1.270  0.00  0.00    +0.031 C 
BRANCH  16  17
ATOM     17  C   UNK A   2       1.470  -1.601   1.111  0.00  0.00    +0.002 C 
ATOM     18  C   UNK A   2       0.802  -0.266   1.318  0.00  0.00    +0.000 C 
ATOM     19  C   UNK A   2       0.597  -1.378   2.314  0.00  0.00    +0.000 C 
ENDBRANCH  16  17
ENDBRANCH  11  16
ENDBRANCH   2  11
TORSDOF 7
REMARK  Name = 101021219
REMARK  14 active torsions:
REMARK  status: ('A' for Active; 'I' for Inactive)
REMARK    1  A    between atoms: C_1  and  C_21
REMARK    2  A    between atoms: C_8  and  C_9
REMARK    3  A    between atoms: C_9  and  O_10
REMARK    4  A    between atoms: C_9  and  C_12
REMARK    5  A    between atoms: C_12  and  C_14
REMARK    6  A    between atoms: C_12  and  C_17
REMARK    7  A    between atoms: C_14  and  O_15
REMARK    8  A    between atoms: C_17  and  C_19
REMARK    9  A    between atoms: C_21  and  C_22
REMARK   10  A    between atoms: C_22  and  N_24
REMARK   11  A    between atoms: C_22  and  C_34
REMARK   12  A    between atoms: C_25  and  CA_27
REMARK   13  A    between atoms: CA_27  and  N_29
REMARK   14  A    between atoms: C_34  and  O_35
REMARK                            x       y       z     vdW  Elec       q    Type
REMARK                         _______ _______ _______ _____ _____    ______ ____
ROOT
ATOM      1  N   UNK A   2      -0.264   0.169   0.461  0.00  0.00    -0.163 NA
ATOM      2  H   UNK A   2      -0.315  -0.195  -0.452  0.00  0.00    +0.163 HD
ENDROOT
TORSDOF 0
REMARK  Name = 101021219
REMARK  14 active torsions:
REMARK  status: ('A' for Active; 'I' for Inactive)
REMARK    1  A    between atoms: C_1  and  C_21
REMARK    2  A    between atoms: C_8  and  C_9
REMARK    3  A    between atoms: C_9  and  O_10
REMARK    4  A    between atoms: C_9  and  C_12
REMARK    5  A    between atoms: C_12  and  C_14
REMARK    6  A    between atoms: C_12  and  C_17
REMARK    7  A    between atoms: C_14  and  O_15
REMARK    8  A    between atoms: C_17  and  C_19
REMARK    9  A    between atoms: C_21  and  C_22
REMARK   10  A    between atoms: C_22  and  N_24
REMARK   11  A    between atoms: C_22  and  C_34
REMARK   12  A    between atoms: C_25  and  CA_27
REMARK   13  A    between atoms: CA_27  and  N_29
REMARK   14  A    between atoms: C_34  and  O_35
REMARK                            x       y       z     vdW  Elec       q    Type
REMARK                         _______ _______ _______ _____ _____    ______ ____
ROOT
ATOM      1  C   UNK A   2      -3.137   0.227  -0.609  0.00  0.00    +0.133 C 
ENDROOT
BRANCH   1   3
ATOM      2  O   UNK A   2      -2.996  -1.779   0.774  0.00  0.00    -0.250 OA
ATOM      3  C   UNK A   2      -3.392  -0.630   0.630  0.00  0.00    +0.319 C 
BRANCH   3   4
ATOM      4  O   UNK A   2      -4.120   0.080   1.541  0.00  0.00    -0.444 OA
ATOM      5  C   UNK A   2      -4.429  -0.609   2.756  0.00  0.00    +0.256 C 
ENDBRANCH   3   4
ENDBRANCH   1   3
BRANCH   1   6
ATOM      6  C   UNK A   2      -4.472   0.631  -1.298  0.00  0.00    +0.013 C 
ATOM      7  C   UNK A   2      -4.278   1.544  -2.517  0.00  0.00    +0.001 C 
BRANCH   6   8
ATOM      8  C   UNK A   2      -5.341  -0.579  -1.709  0.00  0.00    +0.001 C 
ATOM      9  C   UNK A   2      -4.675  -1.498  -2.725  0.00  0.00    +0.000 C 
ENDBRANCH   6   8
ENDBRANCH   1   6
BRANCH   1  10
ATOM     10  C   UNK A   2      -2.245   1.422  -0.207  0.00  0.00    +0.174 C 
BRANCH  10  12
ATOM     11  O   UNK A   2      -1.267   1.605   1.981  0.00  0.00    -0.298 OA
ATOM     12  C   UNK A   2      -1.223   1.081   0.869  0.00  0.00    +0.262 C 
ENDBRANCH  10  12
BRANCH  10  13
ATOM     13  O   UNK A   2      -3.068   2.460   0.321  0.00  0.00    -0.377 OA
ATOM     14  H   UNK A   2      -2.514   3.214   0.575  0.00  0.00    +0.211 HD
ENDBRANCH  10  13
ENDBRANCH   1  10
TORSDOF 7
