REMARK  Name = 101031465
REMARK  9 active torsions:
REMARK  status: ('A' for Active; 'I' for Inactive)
REMARK    1  A    between atoms: C_5  and  C_28
REMARK    2  A    between atoms: C_8  and  O_21
REMARK    3  A    between atoms: C_9  and  O_23
REMARK    4  A    between atoms: C_15  and  O_25
REMARK    5  A    between atoms: C_19  and  O_34
REMARK    6  A    between atoms: C_19  and  C_36
REMARK    7  A    between atoms: C_28  and  C_29
REMARK    8  A    between atoms: C_30  and  C_31
REMARK    9  A    between atoms: C_37  and  C_38
REMARK                            x       y       z     vdW  Elec       q    Type
REMARK                         _______ _______ _______ _____ _____    ______ ____
ROOT
ATOM      1  O   UNL     1      -1.336   2.763  -2.274  0.00  0.00    -0.293 OA
ATOM      2  O   UNL     1       1.434  -0.548  -1.994  0.00  0.00    -0.291 OA
ATOM      3  O   UNL     1      -1.866  -2.034  -0.219  0.00  0.00    -0.291 OA
ATOM      4  C   UNL     1      -0.507   1.139   1.236  0.00  0.00    +0.053 C 
ATOM      5  C   UNL     1      -1.231   0.290   0.116  0.00  0.00    +0.126 C 
ATOM      6  C   UNL     1      -0.597   0.645  -1.292  0.00  0.00    +0.122 C 
ATOM      7  C   UNL     1       0.729   1.898   0.614  0.00  0.00    +0.063 C 
ATOM      8  C   UNL     1       0.209   2.942  -0.421  0.00  0.00    +0.143 C 
ATOM      9  C   UNL     1      -0.205   0.334   2.534  0.00  0.00    +0.139 C 
ATOM     10  C   UNL     1      -0.645   2.185  -1.438  0.00  0.00    +0.182 C 
ATOM     11  C   UNL     1       1.619   0.910  -0.102  0.00  0.00    +0.049 C 
ATOM     12  C   UNL     1       0.892   0.237  -1.226  0.00  0.00    +0.179 C 
ATOM     13  C   UNL     1      -1.108  -1.238   0.339  0.00  0.00    +0.179 C 
ATOM     14  C   UNL     1      -1.273  -0.019  -2.497  0.00  0.00    +0.016 C 
ATOM     15  C   UNL     1       0.400  -1.014   2.225  0.00  0.00    +0.134 C 
ATOM     16  C   UNL     1      -0.014  -1.773   1.200  0.00  0.00    +0.045 C 
ATOM     17  C   UNL     1       1.315   3.720  -1.131  0.00  0.00    +0.037 C 
ATOM     18  C   UNL     1      -1.487   0.137   3.365  0.00  0.00    +0.037 C 
ATOM     19  C   UNL     1       2.896   0.636   0.176  0.00  0.00    +0.132 C 
ATOM     20  C   UNL     1       0.496  -3.143   0.877  0.00  0.00    +0.037 C 
ENDROOT
BRANCH   8  21
ATOM     21  O   UNL     1      -0.652   3.885   0.205  0.00  0.00    -0.379 OA
ATOM     22  H   UNL     1      -1.366   3.417   0.665  0.00  0.00    +0.211 HD
ENDBRANCH   8  21
BRANCH   9  23
ATOM     23  O   UNL     1       0.703   1.108   3.328  0.00  0.00    -0.380 OA
ATOM     24  H   UNL     1       1.524   1.252   2.833  0.00  0.00    +0.211 HD
ENDBRANCH   9  23
BRANCH  15  25
ATOM     25  O   UNL     1       1.392  -1.467   3.076  0.00  0.00    -0.508 OA
ATOM     26  H   UNL     1       1.677  -0.933   3.791  0.00  0.00    +0.292 HD
ENDBRANCH  15  25
BRANCH   5  28
ATOM     27  O   UNL     1      -3.029   1.865  -0.058  0.00  0.00    -0.291 OA
ATOM     28  C   UNL     1      -2.694   0.694   0.105  0.00  0.00    +0.180 C 
BRANCH  28  29
ATOM     29  C   UNL     1      -3.688  -0.392   0.334  0.00  0.00    +0.038 C 
ATOM     30  C   UNL     1      -4.611  -0.677  -0.594  0.00  0.00    +0.003 C 
BRANCH  30  31
ATOM     31  C   UNL     1      -5.597  -1.720  -0.418  0.00  0.00    -0.004 C 
ATOM     32  C   UNL     1      -6.526  -2.015  -1.340  0.00  0.00    -0.026 C 
ATOM     33  C   UNL     1      -7.549  -3.089  -1.171  0.00  0.00    +0.031 C 
ENDBRANCH  30  31
ENDBRANCH  28  29
ENDBRANCH   5  28
BRANCH  19  34
ATOM     34  O   UNL     1       3.568   1.257   1.214  0.00  0.00    -0.506 OA
ATOM     35  H   UNL     1       3.127   1.891   1.745  0.00  0.00    +0.292 HD
ENDBRANCH  19  34
BRANCH  19  36
ATOM     36  C   UNL     1       3.672  -0.330  -0.583  0.00  0.00    +0.036 C 
ATOM     37  C   UNL     1       4.956  -0.652  -0.357  0.00  0.00    +0.003 C 
BRANCH  37  38
ATOM     38  C   UNL     1       5.673  -1.626  -1.152  0.00  0.00    -0.004 C 
ATOM     39  C   UNL     1       6.955  -1.952  -0.931  0.00  0.00    -0.026 C 
ATOM     40  C   UNL     1       7.707  -2.955  -1.744  0.00  0.00    +0.031 C 
ENDBRANCH  37  38
ENDBRANCH  19  36
TORSDOF 9
