1010869
  -OEChem-03292013313D

 46 48  0     0  0  0  0  0  0999 V2000
   -1.5303   -1.1987    2.0126 Br  0  0  0  0  0  0  0  0  0  0  0  0
   -3.2734    3.2653   -1.4121 O   0  0  0  0  0  0  0  0  0  0  0  0
    5.1692   -1.3288   -0.6604 O   0  0  0  0  0  0  0  0  0  0  0  0
    2.6989   -1.9865   -1.7259 O   0  0  0  0  0  0  0  0  0  0  0  0
    5.4126    0.9032    0.9613 O   0  0  0  0  0  0  0  0  0  0  0  0
    0.8185    2.8304    1.1783 O   0  0  0  0  0  0  0  0  0  0  0  0
   -4.5367    1.3042   -1.2720 N   0  0  0  0  0  0  0  0  0  0  0  0
   -1.5061    1.7256    0.5529 N   0  0  0  0  0  0  0  0  0  0  0  0
   -0.4933    1.4260   -0.1284 N   0  0  0  0  0  0  0  0  0  0  0  0
   -3.3545    0.0576    0.1513 C   0  0  0  0  0  0  0  0  0  0  0  0
   -4.5073    0.0832   -0.6367 C   0  0  0  0  0  0  0  0  0  0  0  0
   -2.6945    1.3046   -0.0337 C   0  0  0  0  0  0  0  0  0  0  0  0
   -3.0810   -1.0940    0.9157 C   0  0  0  0  0  0  0  0  0  0  0  0
   -3.9690   -2.1747    0.8637 C   0  0  0  0  0  0  0  0  0  0  0  0
   -3.4454    2.0492   -0.9140 C   0  0  0  0  0  0  0  0  0  0  0  0
   -5.4039   -0.9896   -0.6986 C   0  0  0  0  0  0  0  0  0  0  0  0
   -5.1119   -2.1212    0.0683 C   0  0  0  0  0  0  0  0  0  0  0  0
   -3.7354   -3.4252    1.6529 C   0  0  0  0  0  0  0  0  0  0  0  0
    1.8763    1.0013    0.1591 C   0  0  0  0  0  0  0  0  0  0  0  0
    4.0783   -0.5576   -0.3879 C   0  0  0  0  0  0  0  0  0  0  0  0
    2.8360   -0.8914   -0.9273 C   0  0  0  0  0  0  0  0  0  0  0  0
    4.2048    0.5662    0.4286 C   0  0  0  0  0  0  0  0  0  0  0  0
    1.7203   -0.1015   -0.6501 C   0  0  0  0  0  0  0  0  0  0  0  0
    3.0891    1.3562    0.7057 C   0  0  0  0  0  0  0  0  0  0  0  0
    0.6836    1.8463    0.4555 C   0  0  0  0  0  0  0  0  0  0  0  0
    5.9375   -0.9797   -1.8094 C   0  0  0  0  0  0  0  0  0  0  0  0
    2.3820   -3.2205   -1.0849 C   0  0  0  0  0  0  0  0  0  0  0  0
    5.7358    0.3502    2.2355 C   0  0  0  0  0  0  0  0  0  0  0  0
   -5.2592    1.6068   -1.9104 H   0  0  0  0  0  0  0  0  0  0  0  0
   -6.2938   -0.9485   -1.3175 H   0  0  0  0  0  0  0  0  0  0  0  0
   -5.8016   -2.9615    0.0286 H   0  0  0  0  0  0  0  0  0  0  0  0
   -3.7197   -3.2092    2.7262 H   0  0  0  0  0  0  0  0  0  0  0  0
   -4.5284   -4.1641    1.4907 H   0  0  0  0  0  0  0  0  0  0  0  0
   -2.7949   -3.9010    1.3562 H   0  0  0  0  0  0  0  0  0  0  0  0
    0.7672   -0.3866   -1.0847 H   0  0  0  0  0  0  0  0  0  0  0  0
    3.2030    2.2287    1.3424 H   0  0  0  0  0  0  0  0  0  0  0  0
   -2.4468    3.6129   -1.0334 H   0  0  0  0  0  0  0  0  0  0  0  0
    5.3284   -1.0497   -2.7162 H   0  0  0  0  0  0  0  0  0  0  0  0
    6.3451    0.0310   -1.7081 H   0  0  0  0  0  0  0  0  0  0  0  0
    6.7691   -1.6848   -1.8922 H   0  0  0  0  0  0  0  0  0  0  0  0
    1.4182   -3.1489   -0.5710 H   0  0  0  0  0  0  0  0  0  0  0  0
    2.3129   -3.9970   -1.8516 H   0  0  0  0  0  0  0  0  0  0  0  0
    3.1670   -3.4986   -0.3746 H   0  0  0  0  0  0  0  0  0  0  0  0
    6.7303    0.7043    2.5205 H   0  0  0  0  0  0  0  0  0  0  0  0
    5.7541   -0.7433    2.1879 H   0  0  0  0  0  0  0  0  0  0  0  0
    5.0163    0.6816    2.9909 H   0  0  0  0  0  0  0  0  0  0  0  0
  1 13  1  0  0  0  0
  2 15  1  0  0  0  0
  2 37  1  0  0  0  0
  3 20  1  0  0  0  0
  3 26  1  0  0  0  0
  4 21  1  0  0  0  0
  4 27  1  0  0  0  0
  5 22  1  0  0  0  0
  5 28  1  0  0  0  0
  6 25  2  0  0  0  0
  7 11  1  0  0  0  0
  7 15  1  0  0  0  0
  7 29  1  0  0  0  0
  8  9  2  0  0  0  0
  8 12  1  0  0  0  0
  9 25  1  0  0  0  0
 10 11  2  0  0  0  0
 10 12  1  0  0  0  0
 10 13  1  0  0  0  0
 11 16  1  0  0  0  0
 12 15  2  0  0  0  0
 13 14  2  0  0  0  0
 14 17  1  0  0  0  0
 14 18  1  0  0  0  0
 16 17  2  0  0  0  0
 16 30  1  0  0  0  0
 17 31  1  0  0  0  0
 18 32  1  0  0  0  0
 18 33  1  0  0  0  0
 18 34  1  0  0  0  0
 19 23  2  0  0  0  0
 19 24  1  0  0  0  0
 19 25  1  0  0  0  0
 20 21  2  0  0  0  0
 20 22  1  0  0  0  0
 21 23  1  0  0  0  0
 22 24  2  0  0  0  0
 23 35  1  0  0  0  0
 24 36  1  0  0  0  0
 26 38  1  0  0  0  0
 26 39  1  0  0  0  0
 26 40  1  0  0  0  0
 27 41  1  0  0  0  0
 27 42  1  0  0  0  0
 27 43  1  0  0  0  0
 28 44  1  0  0  0  0
 28 45  1  0  0  0  0
 28 46  1  0  0  0  0
M  END
> <PUBCHEM_COMPOUND_CID>
1010869

> <PUBCHEM_CONFORMER_RMSD>
0.8

> <PUBCHEM_CONFORMER_DIVERSEORDER>
2
12
31
24
34
38
16
40
15
42
1
37
26
44
27
8
46
13
36
10
3
32
18
43
4
28
5
21
41
7
39
17
35
29
23
9
45
22
20
14
33
6
19
11
30
25

> <PUBCHEM_MMFF94_PARTIAL_CHARGES>
33
1 -0.11
11 -0.15
12 0.12
13 0.11
14 -0.14
15 -0.09
16 -0.15
17 -0.15
18 0.14
19 0.09
2 -0.51
20 0.08
21 0.08
22 0.08
23 -0.15
24 -0.15
25 0.69
26 0.28
27 0.28
28 0.28
29 0.27
3 -0.36
30 0.15
31 0.15
35 0.15
36 0.15
37 0.45
4 -0.36
5 -0.36
6 -0.57
7 0.03
8 -0.12
9 -0.21

> <PUBCHEM_EFFECTIVE_ROTOR_COUNT>
6

> <PUBCHEM_PHARMACOPHORE_FEATURES>
12
1 1 hydrophobe
1 2 donor
1 3 acceptor
1 4 acceptor
1 5 acceptor
1 6 acceptor
1 7 cation
1 7 donor
1 9 donor
5 7 10 11 12 15 rings
6 10 11 13 14 16 17 rings
6 19 20 21 22 23 24 rings

> <PUBCHEM_HEAVY_ATOM_COUNT>
28

> <PUBCHEM_ATOM_DEF_STEREO_COUNT>
0

> <PUBCHEM_ATOM_UDEF_STEREO_COUNT>
0

> <PUBCHEM_BOND_DEF_STEREO_COUNT>
0

> <PUBCHEM_BOND_UDEF_STEREO_COUNT>
0

> <PUBCHEM_ISOTOPIC_ATOM_COUNT>
0

> <PUBCHEM_COMPONENT_COUNT>
1

> <PUBCHEM_CACTVS_TAUTO_COUNT>
9

> <PUBCHEM_CONFORMER_ID>
000F6CB500000002

> <PUBCHEM_MMFF94_ENERGY>
100.2958

> <PUBCHEM_FEATURE_SELFOVERLAP>
61.039

> <PUBCHEM_SHAPE_FINGERPRINT>
10 15 18198889470645012032
10675989 125 17401191284337404597
108634 29 18334863826550905706
11796584 16 18260540130357567504
11828532 37 17534344737249053555
12236239 1 15574713582128561053
13402501 40 18412265064390294799
13544653 18 18202568379720092320
14251757 17 18410293567090337763
14659021 117 16254772196855243622
14910302 57 18042681702428953919
15183329 4 15936406732832279106
15361156 5 18411706512831544805
15510800 12 18265899232195538259
15880784 105 16917347026241211886
17870717 6 18333735715099330733
19377110 9 14692567719878639034
20403669 9 18336829792275318387
20511986 3 17168684406572724312
21033650 10 17750244612096288508
21133410 58 17182490132787634507
21623969 137 18131627911635030800
21781051 124 16878514557115282739
22393880 68 18336265626545569254
23559900 14 18335415824638428381
23572383 38 18411695448552639118
392239 28 16701441486078392640
4073 2 18341613681162678528
463206 1 18199749322654831911
484989 97 18270978886232889902
508706 21 18334861619190760527
5104073 3 17846215493459205576
5283173 99 18262798458616799732
59755656 215 18260257569413675923
9709674 26 18337390539005416677
9862886 166 18260826037766888208

> <PUBCHEM_SHAPE_MULTIPOLES>
537.88
14.06
3.38
1.74
7.08
0.48
-0.37
4.5
1.21
-3.01
0.18
1.32
0.53
3.75

> <PUBCHEM_SHAPE_SELFOVERLAP>
1157.932

> <PUBCHEM_SHAPE_VOLUME>
305.5

> <PUBCHEM_COORDINATE_TYPE>
2
5
10

$$$$
