REMARK  Name = 101004432
REMARK  9 active torsions:
REMARK  status: ('A' for Active; 'I' for Inactive)
REMARK    1  A    between atoms: C_1  and  C_5
REMARK    2  A    between atoms: C_1  and  N_18
REMARK    3  A    between atoms: N_4  and  C_7
REMARK    4  A    between atoms: C_7  and  C_9
REMARK    5  A    between atoms: C_7  and  C_12
REMARK    6  A    between atoms: C_9  and  C_11
REMARK    7  A    between atoms: C_12  and  C_14
REMARK    8  A    between atoms: C_14  and  O_15
REMARK    9  A    between atoms: C_19  and  C_22
REMARK                            x       y       z     vdW  Elec       q    Type
REMARK                         _______ _______ _______ _____ _____    ______ ____
ROOT
ATOM      1  C   UNL     1      -0.676  -0.750  -1.252  0.00  0.00    +0.149 C 
ATOM      2  C   UNL     1      -0.849  -2.083  -1.962  0.00  0.00    +0.031 C 
ENDROOT
BRANCH   1   5
ATOM      3  O   UNL     1      -1.495  -0.994   1.016  0.00  0.00    -0.273 OA
ATOM      4  N   UNL     1      -2.872   0.001  -0.566  0.00  0.00    -0.298 N 
ATOM      5  C   UNL     1      -1.694  -0.596  -0.129  0.00  0.00    +0.241 C 
ATOM      6  H   UNL     1      -2.935   0.287  -1.505  0.00  0.00    +0.150 HD
BRANCH   4   7
ATOM      7  C   UNL     1      -4.003   0.219   0.299  0.00  0.00    +0.144 C 
BRANCH   7   9
ATOM      8  O   UNL     1      -4.978  -1.730  -0.744  0.00  0.00    -0.291 OA
ATOM      9  C   UNL     1      -4.830  -1.057   0.277  0.00  0.00    +0.204 C 
BRANCH   9  11
ATOM     10  F   UNL     1      -6.227  -2.588   1.421  0.00  0.00    -0.226 F 
ATOM     11  C   UNL     1      -5.508  -1.442   1.567  0.00  0.00    +0.259 C 
ENDBRANCH   9  11
ENDBRANCH   7   9
BRANCH   7  12
ATOM     12  C   UNL     1      -4.851   1.409  -0.142  0.00  0.00    +0.137 C 
BRANCH  12  14
ATOM     13  O   UNL     1      -3.251   2.883   0.959  0.00  0.00    -0.250 OA
ATOM     14  C   UNL     1      -4.290   2.733   0.331  0.00  0.00    +0.316 C 
BRANCH  14  15
ATOM     15  O   UNL     1      -5.095   3.768  -0.027  0.00  0.00    -0.480 OA
ATOM     16  H   UNL     1      -5.882   3.605  -0.509  0.00  0.00    +0.295 HD
ENDBRANCH  14  15
ENDBRANCH  12  14
ENDBRANCH   7  12
ENDBRANCH   4   7
ENDBRANCH   1   5
BRANCH   1  18
ATOM     17  O   UNL     1       1.652   0.349  -2.522  0.00  0.00    -0.269 OA
ATOM     18  N   UNL     1       0.638  -0.629  -0.679  0.00  0.00    -0.294 N 
ATOM     19  C   UNL     1       1.710  -0.081  -1.373  0.00  0.00    +0.260 C 
ATOM     20  H   UNL     1       0.785  -0.947   0.241  0.00  0.00    +0.150 HD
BRANCH  19  22
ATOM     21  N   UNL     1       4.163   0.453  -1.186  0.00  0.00    -0.309 N 
ATOM     22  C   UNL     1       3.008  -0.051  -0.652  0.00  0.00    +0.102 C 
ATOM     23  C   UNL     1       5.194   0.341  -0.280  0.00  0.00    +0.048 C 
ATOM     24  C   UNL     1       4.668  -0.255   0.868  0.00  0.00    +0.015 C 
ATOM     25  C   UNL     1       3.288  -0.497   0.619  0.00  0.00    +0.020 C 
ATOM     26  C   UNL     1       6.537   0.719  -0.388  0.00  0.00    +0.015 C 
ATOM     27  C   UNL     1       5.524  -0.487   1.964  0.00  0.00    +0.001 C 
ATOM     28  C   UNL     1       7.366   0.478   0.711  0.00  0.00    +0.001 C 
ATOM     29  C   UNL     1       6.870  -0.115   1.870  0.00  0.00    +0.000 C 
ATOM     30  H   UNL     1       4.245   0.840  -2.088  0.00  0.00    +0.152 HD
ENDBRANCH  19  22
ENDBRANCH   1  18
TORSDOF 9
