101039070
  -OEChem-03292013293D

 47 50  0     1  0  0  0  0  0999 V2000
   -2.8589   -2.0435   -1.3578 O   0  0  0  0  0  0  0  0  0  0  0  0
   -0.5353   -1.7887   -2.6968 O   0  0  0  0  0  0  0  0  0  0  0  0
   -2.1752    0.7991   -1.9402 O   0  0  0  0  0  0  0  0  0  0  0  0
    1.2343    0.5332   -2.3999 O   0  0  0  0  0  0  0  0  0  0  0  0
   -3.3768    0.6676    2.6393 O   0  0  0  0  0  0  0  0  0  0  0  0
    2.8625    2.4344   -1.6081 O   0  0  0  0  0  0  0  0  0  0  0  0
   -4.2533    2.6317    0.4428 O   0  0  0  0  0  0  0  0  0  0  0  0
   -2.0489    3.0223   -0.1227 N   0  0  0  0  0  0  0  0  0  0  0  0
   -1.6516   -1.8568    0.7468 C   0  0  2  0  0  0  0  0  0  0  0  0
    0.8710   -1.8759    0.4978 C   0  0  2  0  0  0  0  0  0  0  0  0
   -0.2984   -1.4692    1.4050 C   0  0  0  0  0  0  0  0  0  0  0  0
   -1.8413   -1.2998   -0.6902 C   0  0  1  0  0  0  0  0  0  0  0  0
    2.2639   -1.6767    1.1429 C   0  0  2  0  0  0  0  0  0  0  0  0
    0.7025   -1.1269   -0.7877 C   0  0  0  0  0  0  0  0  0  0  0  0
   -2.8165   -1.4286    1.6393 C   0  0  0  0  0  0  0  0  0  0  0  0
   -0.5515   -1.4591   -1.5146 C   0  0  0  0  0  0  0  0  0  0  0  0
    2.8693   -0.3124    0.8596 C   0  0  0  0  0  0  0  0  0  0  0  0
   -2.2795    0.1541   -0.7149 C   0  0  0  0  0  0  0  0  0  0  0  0
    1.4763   -0.1148   -1.2055 C   0  0  0  0  0  0  0  0  0  0  0  0
    2.5273    0.4102   -0.3047 C   0  0  0  0  0  0  0  0  0  0  0  0
    3.2409   -2.7548    0.6424 C   0  0  0  0  0  0  0  0  0  0  0  0
   -2.9916    0.0725    1.6339 C   0  0  0  0  0  0  0  0  0  0  0  0
   -2.7636    0.8087    0.3563 C   0  0  0  0  0  0  0  0  0  0  0  0
    3.8244    0.2054    1.7526 C   0  0  0  0  0  0  0  0  0  0  0  0
    3.1501    1.6506   -0.5267 C   0  0  0  0  0  0  0  0  0  0  0  0
   -3.1131    2.2327    0.2354 C   0  0  0  0  0  0  0  0  0  0  0  0
    4.4352    1.4315    1.5071 C   0  0  0  0  0  0  0  0  0  0  0  0
    4.0980    2.1531    0.3684 C   0  0  0  0  0  0  0  0  0  0  0  0
   -1.6807   -2.9549    0.6914 H   0  0  0  0  0  0  0  0  0  0  0  0
    0.7539   -2.9498    0.2915 H   0  0  0  0  0  0  0  0  0  0  0  0
   -0.2123   -1.9881    2.3682 H   0  0  0  0  0  0  0  0  0  0  0  0
   -0.2576   -0.3943    1.6222 H   0  0  0  0  0  0  0  0  0  0  0  0
    2.1634   -1.8013    2.2294 H   0  0  0  0  0  0  0  0  0  0  0  0
   -2.6430   -1.7586    2.6700 H   0  0  0  0  0  0  0  0  0  0  0  0
   -3.7567   -1.8778    1.2993 H   0  0  0  0  0  0  0  0  0  0  0  0
    2.8649   -3.7567    0.8765 H   0  0  0  0  0  0  0  0  0  0  0  0
    4.2226   -2.6547    1.1188 H   0  0  0  0  0  0  0  0  0  0  0  0
    3.3914   -2.6943   -0.4415 H   0  0  0  0  0  0  0  0  0  0  0  0
   -3.0208   -1.6430   -2.2289 H   0  0  0  0  0  0  0  0  0  0  0  0
    4.1001   -0.3530    2.6440 H   0  0  0  0  0  0  0  0  0  0  0  0
   -1.9633    0.1416   -2.6229 H   0  0  0  0  0  0  0  0  0  0  0  0
    0.5373    0.0704   -2.8921 H   0  0  0  0  0  0  0  0  0  0  0  0
    5.1718    1.8221    2.2026 H   0  0  0  0  0  0  0  0  0  0  0  0
    4.5795    3.1117    0.1926 H   0  0  0  0  0  0  0  0  0  0  0  0
    3.3949    3.2474   -1.5758 H   0  0  0  0  0  0  0  0  0  0  0  0
   -1.1154    2.6535   -0.2768 H   0  0  0  0  0  0  0  0  0  0  0  0
   -2.1623    4.0238   -0.2399 H   0  0  0  0  0  0  0  0  0  0  0  0
  1 12  1  0  0  0  0
  1 39  1  0  0  0  0
  2 16  2  0  0  0  0
  3 18  1  0  0  0  0
  3 41  1  0  0  0  0
  4 19  1  0  0  0  0
  4 42  1  0  0  0  0
  5 22  2  0  0  0  0
  6 25  1  0  0  0  0
  6 45  1  0  0  0  0
  7 26  2  0  0  0  0
  8 26  1  0  0  0  0
  8 46  1  0  0  0  0
  8 47  1  0  0  0  0
  9 11  1  0  0  0  0
  9 12  1  0  0  0  0
  9 15  1  0  0  0  0
  9 29  1  0  0  0  0
 10 11  1  0  0  0  0
 10 13  1  0  0  0  0
 10 14  1  0  0  0  0
 10 30  1  0  0  0  0
 11 31  1  0  0  0  0
 11 32  1  0  0  0  0
 12 16  1  0  0  0  0
 12 18  1  0  0  0  0
 13 17  1  0  0  0  0
 13 21  1  0  0  0  0
 13 33  1  0  0  0  0
 14 16  1  0  0  0  0
 14 19  2  0  0  0  0
 15 22  1  0  0  0  0
 15 34  1  0  0  0  0
 15 35  1  0  0  0  0
 17 20  2  0  0  0  0
 17 24  1  0  0  0  0
 18 23  2  0  0  0  0
 19 20  1  0  0  0  0
 20 25  1  0  0  0  0
 21 36  1  0  0  0  0
 21 37  1  0  0  0  0
 21 38  1  0  0  0  0
 22 23  1  0  0  0  0
 23 26  1  0  0  0  0
 24 27  2  0  0  0  0
 24 40  1  0  0  0  0
 25 28  2  0  0  0  0
 27 28  1  0  0  0  0
 27 43  1  0  0  0  0
 28 44  1  0  0  0  0
M  END
> <PUBCHEM_COMPOUND_CID>
101039070

> <PUBCHEM_CONFORMER_RMSD>
0.6

> <PUBCHEM_CONFORMER_DIVERSEORDER>
1
10
8
9
5
6
2
4
3
7

> <PUBCHEM_MMFF94_PARTIAL_CHARGES>
34
1 -0.68
10 0.14
12 0.48
13 0.14
14 -0.12
15 0.06
16 0.49
17 -0.14
18 -0.06
19 0.05
2 -0.57
20 0.03
22 0.49
23 0.03
24 -0.15
25 0.08
26 0.62
27 -0.15
28 -0.15
3 -0.53
39 0.4
4 -0.53
40 0.15
41 0.45
42 0.45
43 0.15
44 0.15
45 0.45
46 0.37
47 0.37
5 -0.57
6 -0.53
7 -0.57
8 -0.8

> <PUBCHEM_EFFECTIVE_ROTOR_COUNT>
1.6

> <PUBCHEM_PHARMACOPHORE_FEATURES>
14
1 1 acceptor
1 1 donor
1 2 acceptor
1 23 anion
1 3 donor
1 4 donor
1 5 acceptor
1 6 donor
1 7 acceptor
1 8 donor
6 10 13 14 17 19 20 rings
6 17 20 24 25 27 28 rings
6 9 10 11 12 14 16 rings
6 9 12 15 18 22 23 rings

> <PUBCHEM_HEAVY_ATOM_COUNT>
28

> <PUBCHEM_ATOM_DEF_STEREO_COUNT>
4

> <PUBCHEM_ATOM_UDEF_STEREO_COUNT>
0

> <PUBCHEM_BOND_DEF_STEREO_COUNT>
0

> <PUBCHEM_BOND_UDEF_STEREO_COUNT>
0

> <PUBCHEM_ISOTOPIC_ATOM_COUNT>
0

> <PUBCHEM_COMPONENT_COUNT>
1

> <PUBCHEM_CACTVS_TAUTO_COUNT>
1000

> <PUBCHEM_CONFORMER_ID>
0605BBDE00000001

> <PUBCHEM_MMFF94_ENERGY>
80.4578

> <PUBCHEM_FEATURE_SELFOVERLAP>
71.205

> <PUBCHEM_SHAPE_FINGERPRINT>
10165383 225 16913172236462252463
10498660 4 17275105045934801489
11221954 11 18268998579005630513
11552529 35 17678736976089192266
11640471 11 18201142313365408238
12422481 6 18122317153088107802
12633257 1 17385437709309205472
12788726 201 17844505894512344351
128993 33 18272386277156692648
13134695 92 17551802416863319142
13140716 1 18188485770577810338
13224815 77 18339923817800428392
13583140 156 18339647745724401579
13965767 371 18200607894679521280
14223421 5 17894910754318538942
15295992 7 18191029993250224443
16945 1 17458914858589418766
17492 54 12745536061980661147
17974551 9 17389675089567468353
18981168 100 17489319567764169295
20739085 24 17894623756752623820
20775530 9 8789726296060249841
21033648 29 16807005429878749141
21475661 188 17832139425252272013
21756936 100 18120105133008686596
21864079 5 18262242226234763872
22907989 373 17202464758142218631
23559900 14 17974314044303557335
238 59 13182439106532727576
3797600 57 16737812303679561528
392239 28 17248953350772889984
469060 322 18194682798621752571
474 4 18261098652178477402
5081480 168 17343534135953560356
6287921 2 18114195158802909074
7097593 13 18040715827346980586

> <PUBCHEM_SHAPE_MULTIPOLES>
530.16
7.61
3.09
2.22
2.42
0.91
-0.46
4.34
3.42
-0.16
-0.01
-0.65
-0.29
-0.77

> <PUBCHEM_SHAPE_SELFOVERLAP>
1181.95

> <PUBCHEM_SHAPE_VOLUME>
276.2

> <PUBCHEM_COORDINATE_TYPE>
2
5
10

$$$$
