REMARK  Name = 101024062
REMARK  13 active torsions:
REMARK  status: ('A' for Active; 'I' for Inactive)
REMARK    1  A    between atoms: C_1  and  N_24
REMARK    2  A    between atoms: C_2  and  C_14
REMARK    3  A    between atoms: C_4  and  N_9
REMARK    4  A    between atoms: C_5  and  N_12
REMARK    5  A    between atoms: N_13  and  C_14
REMARK    6  A    between atoms: N_13  and  C_18
REMARK    7  A    between atoms: C_14  and  O_16
REMARK    8  A    between atoms: C_18  and  C_19
REMARK    9  A    between atoms: C_19  and  N_20
REMARK   10  A    between atoms: N_24  and  C_25
REMARK   11  A    between atoms: N_24  and  C_28
REMARK   12  A    between atoms: C_25  and  C_27
REMARK   13  A    between atoms: C_28  and  C_30
REMARK                            x       y       z     vdW  Elec       q    Type
REMARK                         _______ _______ _______ _____ _____    ______ ____
ROOT
ATOM      1  C   UNL     1      -1.904  -0.136  -0.117  0.00  0.00    +0.071 C 
ATOM      2  C   UNL     1       0.436   0.345   0.248  0.00  0.00    +0.044 C 
ATOM      3  C   UNL     1      -0.615  -0.571   0.192  0.00  0.00    +0.017 C 
ATOM      4  C   UNL     1      -2.142   1.215  -0.371  0.00  0.00    +0.158 C 
ATOM      5  C   UNL     1       0.198   1.696  -0.006  0.00  0.00    +0.144 C 
ATOM      6  C   UNL     1      -1.091   2.131  -0.315  0.00  0.00    +0.049 C 
ENDROOT
BRANCH   4   9
ATOM      7  O   UNL     1      -3.805   1.720  -1.886  0.00  0.00    -0.126 OA
ATOM      8  O   UNL     1      -4.200   2.051   0.248  0.00  0.00    -0.126 OA
ATOM      9  N   UNL     1      -3.448   1.686  -0.685  0.00  0.00    +0.059 N 
ENDBRANCH   4   9
BRANCH   5  12
ATOM     10  O   UNL     1       1.500   3.220   1.134  0.00  0.00    -0.126 OA
ATOM     11  O   UNL     1       1.901   2.890  -0.999  0.00  0.00    -0.126 OA
ATOM     12  N   UNL     1       1.252   2.650   0.045  0.00  0.00    +0.058 N 
ENDBRANCH   5  12
BRANCH   2  13
ATOM     13  C   UNL     1       1.778  -0.150   0.573  0.00  0.00    +0.195 C 
BRANCH  13  14
ATOM     14  N   UNL     1       2.458  -1.026  -0.092  0.00  0.00    -0.274 NA
ATOM     15  H   UNL     1       2.018  -1.376  -0.900  0.00  0.00    +0.126 HD
BRANCH  14  16
ATOM     16  C   UNL     1       3.789  -1.573   0.184  0.00  0.00    +0.048 C 
BRANCH  16  17
ATOM     17  C   UNL     1       4.831  -0.683  -0.473  0.00  0.00    -0.060 C 
BRANCH  17  18
ATOM     18  N   UNL     1       6.169  -1.229  -0.245  0.00  0.00    +0.385 N 
ATOM     19  C   UNL     1       6.656  -0.851   1.081  0.00  0.00    -0.101 C 
ATOM     20  C   UNL     1       7.093  -0.766  -1.280  0.00  0.00    -0.101 C 
ATOM     21  H   UNL     1       6.115  -2.246  -0.292  0.00  0.00    -0.080 HD
ENDBRANCH  17  18
ENDBRANCH  16  17
ENDBRANCH  14  16
ENDBRANCH  13  14
BRANCH  13  22
ATOM     22  O   UNL     1       2.365   0.328   1.685  0.00  0.00    -0.367 OA
ATOM     23  H   UNL     1       3.222   0.036   1.926  0.00  0.00    +0.212 HD
ENDBRANCH  13  22
ENDBRANCH   2  13
BRANCH   1  24
ATOM     24  N   UNL     1      -2.951  -1.083  -0.169  0.00  0.00    -0.304 N 
BRANCH  24  25
ATOM     25  C   UNL     1      -3.704  -1.276  -1.391  0.00  0.00    +0.108 C 
BRANCH  25  27
ATOM     26 CL   UNL     1      -1.883  -3.128  -2.237  0.00  0.00    -0.112 Cl
ATOM     27  C   UNL     1      -3.578  -2.707  -1.890  0.00  0.00    +0.116 C 
ENDBRANCH  25  27
ENDBRANCH  24  25
BRANCH  24  28
ATOM     28  C   UNL     1      -3.288  -1.865   1.002  0.00  0.00    +0.108 C 
BRANCH  28  30
ATOM     29 CL   UNL     1      -4.122  -1.919   3.603  0.00  0.00    -0.112 Cl
ATOM     30  C   UNL     1      -3.696  -0.967   2.159  0.00  0.00    +0.116 C 
ENDBRANCH  28  30
ENDBRANCH  24  28
ENDBRANCH   1  24
TORSDOF 13
