101042104
  -OEChem-03292013293D

 78 81  0     1  0  0  0  0  0999 V2000
   -9.6770   -0.2148   -0.0872 S   0  0  0  0  0  0  0  0  0  0  0  0
    1.1855   -2.0715   -0.6633 O   0  0  0  0  0  0  0  0  0  0  0  0
    3.2119    3.3963   -0.3581 O   0  0  0  0  0  0  0  0  0  0  0  0
    7.0026   -1.6449   -2.5730 O   0  0  0  0  0  0  0  0  0  0  0  0
  -10.6485    0.8157   -0.8964 O   0  0  0  0  0  0  0  0  0  0  0  0
   -9.7904    0.0559    1.3343 O   0  0  0  0  0  0  0  0  0  0  0  0
   -9.8655   -1.5507   -0.6230 O   0  0  0  0  0  0  0  0  0  0  0  0
   -5.6974    0.2775   -0.4492 N   0  0  0  0  0  0  0  0  0  0  0  0
    0.5582   -0.0188    0.5469 C   0  0  1  0  0  0  0  0  0  0  0  0
    1.4679    0.9276   -0.2769 C   0  0  2  0  0  0  0  0  0  0  0  0
    2.8757    1.0917    0.3326 C   0  0  1  0  0  0  0  0  0  0  0  0
    3.5498   -0.3207    0.4123 C   0  0  1  0  0  0  0  0  0  0  0  0
    5.0181   -0.2530    0.9820 C   0  0  2  0  0  0  0  0  0  0  0  0
   -0.7400    0.0926   -0.2949 C   0  0  2  0  0  0  0  0  0  0  0  0
    1.1978   -1.4203    0.6065 C   0  0  2  0  0  0  0  0  0  0  0  0
    2.6454   -1.3605    1.1339 C   0  0  0  0  0  0  0  0  0  0  0  0
    5.8595    0.7524    0.1301 C   0  0  2  0  0  0  0  0  0  0  0  0
    0.5873    2.1592   -0.4944 C   0  0  0  0  0  0  0  0  0  0  0  0
    3.7488    2.0785   -0.4691 C   0  0  2  0  0  0  0  0  0  0  0  0
   -0.8402    1.5985   -0.6197 C   0  0  0  0  0  0  0  0  0  0  0  0
    5.1898    2.1281    0.0387 C   0  0  0  0  0  0  0  0  0  0  0  0
    5.7360   -1.6345    0.9528 C   0  0  0  0  0  0  0  0  0  0  0  0
    0.3171    0.4764    2.0000 C   0  0  0  0  0  0  0  0  0  0  0  0
   -2.0078   -0.4627    0.3384 C   0  0  1  0  0  0  0  0  0  0  0  0
    6.1813    0.2187   -1.2813 C   0  0  0  0  0  0  0  0  0  0  0  0
    5.0184    0.2018    2.4644 C   0  0  0  0  0  0  0  0  0  0  0  0
    6.0187   -2.1540   -0.4513 C   0  0  0  0  0  0  0  0  0  0  0  0
    6.8474   -1.1535   -1.2459 C   0  0  1  0  0  0  0  0  0  0  0  0
   -3.2521    0.1755   -0.3152 C   0  0  0  0  0  0  0  0  0  0  0  0
   -2.0216   -1.9914    0.2319 C   0  0  0  0  0  0  0  0  0  0  0  0
   -4.5756   -0.3804    0.2131 C   0  0  0  0  0  0  0  0  0  0  0  0
   -6.9659   -0.2330    0.0501 C   0  0  0  0  0  0  0  0  0  0  0  0
   -8.1354    0.4184   -0.6691 C   0  0  0  0  0  0  0  0  0  0  0  0
    1.6153    0.4850   -1.2759 H   0  0  0  0  0  0  0  0  0  0  0  0
    2.7604    1.5089    1.3383 H   0  0  0  0  0  0  0  0  0  0  0  0
    3.6198   -0.6774   -0.6243 H   0  0  0  0  0  0  0  0  0  0  0  0
   -0.5885   -0.4128   -1.2605 H   0  0  0  0  0  0  0  0  0  0  0  0
    0.6495   -2.0639    1.2992 H   0  0  0  0  0  0  0  0  0  0  0  0
    3.0843   -2.3578    1.0225 H   0  0  0  0  0  0  0  0  0  0  0  0
    2.6186   -1.1434    2.2064 H   0  0  0  0  0  0  0  0  0  0  0  0
    6.8269    0.8998    0.6323 H   0  0  0  0  0  0  0  0  0  0  0  0
    0.8695    2.7072   -1.3992 H   0  0  0  0  0  0  0  0  0  0  0  0
    0.6501    2.8532    0.3513 H   0  0  0  0  0  0  0  0  0  0  0  0
    3.7307    1.8096   -1.5313 H   0  0  0  0  0  0  0  0  0  0  0  0
   -1.4636    2.1518    0.0903 H   0  0  0  0  0  0  0  0  0  0  0  0
   -1.2390    1.7634   -1.6266 H   0  0  0  0  0  0  0  0  0  0  0  0
    5.2104    2.6182    1.0207 H   0  0  0  0  0  0  0  0  0  0  0  0
    5.7792    2.7909   -0.6088 H   0  0  0  0  0  0  0  0  0  0  0  0
    5.1717   -2.3867    1.5141 H   0  0  0  0  0  0  0  0  0  0  0  0
    6.6987   -1.5470    1.4765 H   0  0  0  0  0  0  0  0  0  0  0  0
   -0.2520   -0.2608    2.5774 H   0  0  0  0  0  0  0  0  0  0  0  0
    1.2484    0.6333    2.5506 H   0  0  0  0  0  0  0  0  0  0  0  0
   -0.2356    1.4199    2.0405 H   0  0  0  0  0  0  0  0  0  0  0  0
   -2.0636   -0.2043    1.4005 H   0  0  0  0  0  0  0  0  0  0  0  0
    6.8448    0.9226   -1.8008 H   0  0  0  0  0  0  0  0  0  0  0  0
    5.2823    0.1650   -1.9064 H   0  0  0  0  0  0  0  0  0  0  0  0
    4.4867    1.1432    2.6223 H   0  0  0  0  0  0  0  0  0  0  0  0
    6.0432    0.3488    2.8260 H   0  0  0  0  0  0  0  0  0  0  0  0
    4.5587   -0.5491    3.1153 H   0  0  0  0  0  0  0  0  0  0  0  0
    6.5589   -3.1071   -0.3919 H   0  0  0  0  0  0  0  0  0  0  0  0
    5.0856   -2.3839   -0.9793 H   0  0  0  0  0  0  0  0  0  0  0  0
    7.8469   -1.0711   -0.8024 H   0  0  0  0  0  0  0  0  0  0  0  0
    1.5695   -2.9569   -0.5452 H   0  0  0  0  0  0  0  0  0  0  0  0
   -3.2791    1.2558   -0.1414 H   0  0  0  0  0  0  0  0  0  0  0  0
   -3.2073    0.0237   -1.4023 H   0  0  0  0  0  0  0  0  0  0  0  0
    3.7572    3.9833   -0.9090 H   0  0  0  0  0  0  0  0  0  0  0  0
   -2.0024   -2.3180   -0.8133 H   0  0  0  0  0  0  0  0  0  0  0  0
   -1.1947   -2.4638    0.7538 H   0  0  0  0  0  0  0  0  0  0  0  0
   -2.9149   -2.4169    0.6982 H   0  0  0  0  0  0  0  0  0  0  0  0
   -4.6438   -1.4546    0.0166 H   0  0  0  0  0  0  0  0  0  0  0  0
   -4.6274   -0.2232    1.2969 H   0  0  0  0  0  0  0  0  0  0  0  0
    7.5363   -0.9975   -3.0646 H   0  0  0  0  0  0  0  0  0  0  0  0
   -5.6373    0.1296   -1.4563 H   0  0  0  0  0  0  0  0  0  0  0  0
   -7.0461   -0.0387    1.1265 H   0  0  0  0  0  0  0  0  0  0  0  0
   -7.0183   -1.3202   -0.0881 H   0  0  0  0  0  0  0  0  0  0  0  0
   -8.0918    0.2369   -1.7482 H   0  0  0  0  0  0  0  0  0  0  0  0
   -8.1379    1.4994   -0.4914 H   0  0  0  0  0  0  0  0  0  0  0  0
  -10.6870    0.6841   -1.8730 H   0  0  0  0  0  0  0  0  0  0  0  0
  1  5  1  0  0  0  0
  1  6  2  0  0  0  0
  1  7  2  0  0  0  0
  1 33  1  0  0  0  0
  2 15  1  0  0  0  0
  2 63  1  0  0  0  0
  3 19  1  0  0  0  0
  3 66  1  0  0  0  0
  4 28  1  0  0  0  0
  4 72  1  0  0  0  0
  5 78  1  0  0  0  0
  8 31  1  0  0  0  0
  8 32  1  0  0  0  0
  8 73  1  0  0  0  0
  9 10  1  0  0  0  0
  9 14  1  0  0  0  0
  9 15  1  0  0  0  0
  9 23  1  0  0  0  0
 10 11  1  0  0  0  0
 10 18  1  0  0  0  0
 10 34  1  0  0  0  0
 11 12  1  0  0  0  0
 11 19  1  0  0  0  0
 11 35  1  0  0  0  0
 12 13  1  0  0  0  0
 12 16  1  0  0  0  0
 12 36  1  0  0  0  0
 13 17  1  0  0  0  0
 13 22  1  0  0  0  0
 13 26  1  0  0  0  0
 14 20  1  0  0  0  0
 14 24  1  0  0  0  0
 14 37  1  0  0  0  0
 15 16  1  0  0  0  0
 15 38  1  0  0  0  0
 16 39  1  0  0  0  0
 16 40  1  0  0  0  0
 17 21  1  0  0  0  0
 17 25  1  0  0  0  0
 17 41  1  0  0  0  0
 18 20  1  0  0  0  0
 18 42  1  0  0  0  0
 18 43  1  0  0  0  0
 19 21  1  0  0  0  0
 19 44  1  0  0  0  0
 20 45  1  0  0  0  0
 20 46  1  0  0  0  0
 21 47  1  0  0  0  0
 21 48  1  0  0  0  0
 22 27  1  0  0  0  0
 22 49  1  0  0  0  0
 22 50  1  0  0  0  0
 23 51  1  0  0  0  0
 23 52  1  0  0  0  0
 23 53  1  0  0  0  0
 24 29  1  0  0  0  0
 24 30  1  0  0  0  0
 24 54  1  0  0  0  0
 25 28  1  0  0  0  0
 25 55  1  0  0  0  0
 25 56  1  0  0  0  0
 26 57  1  0  0  0  0
 26 58  1  0  0  0  0
 26 59  1  0  0  0  0
 27 28  1  0  0  0  0
 27 60  1  0  0  0  0
 27 61  1  0  0  0  0
 28 62  1  0  0  0  0
 29 31  1  0  0  0  0
 29 64  1  0  0  0  0
 29 65  1  0  0  0  0
 30 67  1  0  0  0  0
 30 68  1  0  0  0  0
 30 69  1  0  0  0  0
 31 70  1  0  0  0  0
 31 71  1  0  0  0  0
 32 33  1  0  0  0  0
 32 74  1  0  0  0  0
 32 75  1  0  0  0  0
 33 76  1  0  0  0  0
 33 77  1  0  0  0  0
M  END
> <PUBCHEM_COMPOUND_CID>
101042104

> <PUBCHEM_CONFORMER_RMSD>
1

> <PUBCHEM_CONFORMER_DIVERSEORDER>
1
52
49
47
38
10
25
19
6
43
51
29
26
3
58
21
39
13
36
44
9
28
40
48
16
15
17
34
12
18
2
53
37
54
50
57
46
4
27
55
35
24
45
20
22
32
31
56
42
41
11
14
33
5
8
23
7
30

> <PUBCHEM_MMFF94_PARTIAL_CHARGES>
19
1 1.38
15 0.28
19 0.28
2 -0.68
28 0.28
3 -0.68
31 0.27
32 0.27
33 0.11
4 -0.68
5 -0.68
6 -0.65
63 0.4
66 0.4
7 -0.65
72 0.4
73 0.36
78 0.5
8 -0.9

> <PUBCHEM_EFFECTIVE_ROTOR_COUNT>
9.2

> <PUBCHEM_PHARMACOPHORE_FEATURES>
17
1 2 acceptor
1 2 donor
1 3 acceptor
1 3 donor
1 30 hydrophobe
1 4 acceptor
1 4 donor
1 5 acceptor
1 6 acceptor
1 7 acceptor
1 8 cation
1 8 donor
4 1 5 6 7 anion
5 9 10 14 18 20 rings
6 11 12 13 17 19 21 rings
6 13 17 22 25 27 28 rings
6 9 10 11 12 15 16 rings

> <PUBCHEM_HEAVY_ATOM_COUNT>
33

> <PUBCHEM_ATOM_DEF_STEREO_COUNT>
11

> <PUBCHEM_ATOM_UDEF_STEREO_COUNT>
0

> <PUBCHEM_BOND_DEF_STEREO_COUNT>
0

> <PUBCHEM_BOND_UDEF_STEREO_COUNT>
0

> <PUBCHEM_ISOTOPIC_ATOM_COUNT>
0

> <PUBCHEM_COMPONENT_COUNT>
1

> <PUBCHEM_CACTVS_TAUTO_COUNT>
1

> <PUBCHEM_CONFORMER_ID>
0605C7B800000001

> <PUBCHEM_MMFF94_ENERGY>
100.5977

> <PUBCHEM_FEATURE_SELFOVERLAP>
86.452

> <PUBCHEM_SHAPE_FINGERPRINT>
10299344 5 18343017809952587651
10411042 1 17973997363649395994
11638347 137 16558752304253987007
11719270 70 18343580746314803671
12089408 11 17346598587246421129
12522641 24 17132109139564297354
13533116 47 17418094313525562250
13617811 41 16298105384972034332
13811026 1 18113899386528572427
14117953 113 18341897381095862303
14251764 18 18040713667711543049
14537116 161 18259706692370328108
14937079 2 18040999587832485589
15183329 4 18408887330462775689
15840311 113 18333732450539525589
16120349 18 18336259120318851713
20771845 140 16559027152033253110
20771845 171 17531252704224459586
21057603 130 17132109123254632734
21267235 1 18334857190757374153
21360443 126 15285363933330853513
21792934 111 18262224573724076944
221357 26 18335141969386991780
23559900 14 18411702132376008240
249057 3 18261392274103604675
255183 451 18126004854642472030
335352 9 18335423473774261414
3633792 109 18412829058574176611
4073 2 17531812488063453307
4340502 62 10015863172385827200
4625314 4 18409447012589513583
6081469 158 17203609264105811409
9663363 56 18408321082744428898

> <PUBCHEM_SHAPE_MULTIPOLES>
642.78
28.3
2.26
1.45
92.79
0.76
-0.18
-4.92
6.22
-3.51
0.42
-2.49
-0.35
0.78

> <PUBCHEM_SHAPE_SELFOVERLAP>
1319.254

> <PUBCHEM_SHAPE_VOLUME>
373.6

> <PUBCHEM_COORDINATE_TYPE>
2
5
10

$$$$
