101049584
  -OEChem-03292013293D

 68 74  0     1  0  0  0  0  0999 V2000
    4.3275   -1.2875   -0.9744 O   0  0  0  0  0  0  0  0  0  0  0  0
    4.8895    0.9757   -0.4771 O   0  0  0  0  0  0  0  0  0  0  0  0
    5.5463   -0.7552    1.0039 O   0  0  0  0  0  0  0  0  0  0  0  0
   -2.1787   -1.4241   -0.6333 O   0  0  0  0  0  0  0  0  0  0  0  0
    1.2540    2.7802    0.7944 O   0  0  0  0  0  0  0  0  0  0  0  0
    2.4980    2.1334   -2.0073 O   0  0  0  0  0  0  0  0  0  0  0  0
   -5.9800   -1.4618   -0.2044 O   0  0  0  0  0  0  0  0  0  0  0  0
   -7.9676   -0.8718   -1.1366 O   0  0  0  0  0  0  0  0  0  0  0  0
    2.5363    0.3073   -0.4673 C   0  0  2  0  0  0  0  0  0  0  0  0
    1.0850    0.4245    0.1651 C   0  0  2  0  0  0  0  0  0  0  0  0
    0.1030   -0.6297   -0.4497 C   0  0  2  0  0  0  0  0  0  0  0  0
    3.0492   -1.1716   -0.3138 C   0  0  1  0  0  0  0  0  0  0  0  0
   -1.3311   -0.5681    0.1486 C   0  0  1  0  0  0  0  0  0  0  0  0
   -1.9415    0.8581    0.1507 C   0  0  2  0  0  0  0  0  0  0  0  0
    3.6370    1.1904    0.2118 C   0  0  1  0  0  0  0  0  0  0  0  0
    0.4500    1.8355    0.0931 C   0  0  1  0  0  0  0  0  0  0  0  0
    0.6750   -2.0637   -0.4019 C   0  0  0  0  0  0  0  0  0  0  0  0
    2.0881   -2.1674   -0.9641 C   0  0  0  0  0  0  0  0  0  0  0  0
   -0.9347    1.8713    0.7458 C   0  0  0  0  0  0  0  0  0  0  0  0
    3.2990   -1.5567    1.1711 C   0  0  0  0  0  0  0  0  0  0  0  0
   -3.1515    0.7197    1.1293 C   0  0  2  0  0  0  0  0  0  0  0  0
   -1.4444   -1.0085    1.6200 C   0  0  0  0  0  0  0  0  0  0  0  0
    4.3421   -0.6158    1.7709 C   0  0  2  0  0  0  0  0  0  0  0  0
    3.8767    0.8389    1.6851 C   0  0  0  0  0  0  0  0  0  0  0  0
    2.4971    0.7285   -1.9687 C   0  0  0  0  0  0  0  0  0  0  0  0
   -2.6721   -0.2866    2.1934 C   0  0  0  0  0  0  0  0  0  0  0  0
    5.2833   -0.4009   -0.3634 C   0  0  1  0  0  0  0  0  0  0  0  0
   -2.3656    1.3448   -1.2502 C   0  0  0  0  0  0  0  0  0  0  0  0
   -4.4438    0.2562    0.5208 C   0  0  0  0  0  0  0  0  0  0  0  0
    6.5896   -0.5589   -1.1276 C   0  0  0  0  0  0  0  0  0  0  0  0
   -5.3896    1.2471    0.0773 C   0  0  0  0  0  0  0  0  0  0  0  0
   -4.7730   -1.0299    0.3637 C   0  0  0  0  0  0  0  0  0  0  0  0
   -6.5543    0.8874   -0.4708 C   0  0  0  0  0  0  0  0  0  0  0  0
   -6.8986   -0.5406   -0.6343 C   0  0  0  0  0  0  0  0  0  0  0  0
    1.1880    0.1973    1.2315 H   0  0  0  0  0  0  0  0  0  0  0  0
   -0.0173   -0.4012   -1.5160 H   0  0  0  0  0  0  0  0  0  0  0  0
    3.4350    2.2607    0.1407 H   0  0  0  0  0  0  0  0  0  0  0  0
    0.3621    2.1733   -0.9420 H   0  0  0  0  0  0  0  0  0  0  0  0
    0.0378   -2.7421   -0.9809 H   0  0  0  0  0  0  0  0  0  0  0  0
    0.6646   -2.4411    0.6264 H   0  0  0  0  0  0  0  0  0  0  0  0
    2.4617   -3.1916   -0.8362 H   0  0  0  0  0  0  0  0  0  0  0  0
    2.0653   -2.0125   -2.0504 H   0  0  0  0  0  0  0  0  0  0  0  0
   -0.8073    1.7145    1.8255 H   0  0  0  0  0  0  0  0  0  0  0  0
   -1.3436    2.8887    0.6703 H   0  0  0  0  0  0  0  0  0  0  0  0
    3.6992   -2.5788    1.2076 H   0  0  0  0  0  0  0  0  0  0  0  0
    2.3871   -1.5386    1.7741 H   0  0  0  0  0  0  0  0  0  0  0  0
   -3.3421    1.6766    1.6355 H   0  0  0  0  0  0  0  0  0  0  0  0
   -0.5637   -0.7284    2.2066 H   0  0  0  0  0  0  0  0  0  0  0  0
   -1.5716   -2.0923    1.7192 H   0  0  0  0  0  0  0  0  0  0  0  0
    4.5637   -0.8910    2.8066 H   0  0  0  0  0  0  0  0  0  0  0  0
    2.9846    1.0074    2.2951 H   0  0  0  0  0  0  0  0  0  0  0  0
    4.6766    1.4826    2.0724 H   0  0  0  0  0  0  0  0  0  0  0  0
    1.6224    0.3567   -2.5047 H   0  0  0  0  0  0  0  0  0  0  0  0
    3.3783    0.3828   -2.5183 H   0  0  0  0  0  0  0  0  0  0  0  0
   -3.4284   -0.9884    2.5595 H   0  0  0  0  0  0  0  0  0  0  0  0
   -2.3530    0.2674    3.0869 H   0  0  0  0  0  0  0  0  0  0  0  0
   -1.5081    1.4294   -1.9250 H   0  0  0  0  0  0  0  0  0  0  0  0
   -2.8339    2.3339   -1.1952 H   0  0  0  0  0  0  0  0  0  0  0  0
   -3.0712    0.6673   -1.7410 H   0  0  0  0  0  0  0  0  0  0  0  0
   -1.9680   -2.3482   -0.4205 H   0  0  0  0  0  0  0  0  0  0  0  0
    0.8486    3.6566    0.6800 H   0  0  0  0  0  0  0  0  0  0  0  0
    6.4597   -0.2984   -2.1837 H   0  0  0  0  0  0  0  0  0  0  0  0
    6.9511   -1.5917   -1.0775 H   0  0  0  0  0  0  0  0  0  0  0  0
    7.3681    0.0911   -0.7136 H   0  0  0  0  0  0  0  0  0  0  0  0
    2.4762    2.3989   -2.9423 H   0  0  0  0  0  0  0  0  0  0  0  0
   -5.1465    2.2981    0.1925 H   0  0  0  0  0  0  0  0  0  0  0  0
   -4.2032   -1.9003    0.6523 H   0  0  0  0  0  0  0  0  0  0  0  0
   -7.2713    1.6272   -0.8073 H   0  0  0  0  0  0  0  0  0  0  0  0
  1 12  1  0  0  0  0
  1 27  1  0  0  0  0
  2 15  1  0  0  0  0
  2 27  1  0  0  0  0
  3 23  1  0  0  0  0
  3 27  1  0  0  0  0
  4 13  1  0  0  0  0
  4 60  1  0  0  0  0
  5 16  1  0  0  0  0
  5 61  1  0  0  0  0
  6 25  1  0  0  0  0
  6 65  1  0  0  0  0
  7 32  1  0  0  0  0
  7 34  1  0  0  0  0
  8 34  2  0  0  0  0
  9 10  1  0  0  0  0
  9 12  1  0  0  0  0
  9 15  1  0  0  0  0
  9 25  1  0  0  0  0
 10 11  1  0  0  0  0
 10 16  1  0  0  0  0
 10 35  1  0  0  0  0
 11 13  1  0  0  0  0
 11 17  1  0  0  0  0
 11 36  1  0  0  0  0
 12 18  1  0  0  0  0
 12 20  1  0  0  0  0
 13 14  1  0  0  0  0
 13 22  1  0  0  0  0
 14 19  1  0  0  0  0
 14 21  1  0  0  0  0
 14 28  1  0  0  0  0
 15 24  1  0  0  0  0
 15 37  1  0  0  0  0
 16 19  1  0  0  0  0
 16 38  1  0  0  0  0
 17 18  1  0  0  0  0
 17 39  1  0  0  0  0
 17 40  1  0  0  0  0
 18 41  1  0  0  0  0
 18 42  1  0  0  0  0
 19 43  1  0  0  0  0
 19 44  1  0  0  0  0
 20 23  1  0  0  0  0
 20 45  1  0  0  0  0
 20 46  1  0  0  0  0
 21 26  1  0  0  0  0
 21 29  1  0  0  0  0
 21 47  1  0  0  0  0
 22 26  1  0  0  0  0
 22 48  1  0  0  0  0
 22 49  1  0  0  0  0
 23 24  1  0  0  0  0
 23 50  1  0  0  0  0
 24 51  1  0  0  0  0
 24 52  1  0  0  0  0
 25 53  1  0  0  0  0
 25 54  1  0  0  0  0
 26 55  1  0  0  0  0
 26 56  1  0  0  0  0
 27 30  1  0  0  0  0
 28 57  1  0  0  0  0
 28 58  1  0  0  0  0
 28 59  1  0  0  0  0
 29 31  1  0  0  0  0
 29 32  2  0  0  0  0
 30 62  1  0  0  0  0
 30 63  1  0  0  0  0
 30 64  1  0  0  0  0
 31 33  2  0  0  0  0
 31 66  1  0  0  0  0
 32 67  1  0  0  0  0
 33 34  1  0  0  0  0
 33 68  1  0  0  0  0
M  END
> <PUBCHEM_COMPOUND_CID>
101049584

> <PUBCHEM_CONFORMER_RMSD>
0.8

> <PUBCHEM_CONFORMER_DIVERSEORDER>
1
4
2
3

> <PUBCHEM_MMFF94_PARTIAL_CHARGES>
27
1 -0.56
12 0.28
13 0.28
15 0.28
16 0.28
2 -0.56
21 0.14
23 0.28
25 0.28
27 0.84
29 -0.14
3 -0.56
31 -0.15
32 -0.07
33 -0.14
34 0.71
4 -0.68
5 -0.68
6 -0.68
60 0.4
61 0.4
65 0.4
66 0.15
67 0.15
68 0.15
7 -0.23
8 -0.57

> <PUBCHEM_EFFECTIVE_ROTOR_COUNT>
4.4

> <PUBCHEM_PHARMACOPHORE_FEATURES>
18
1 1 acceptor
1 2 acceptor
1 3 acceptor
1 4 acceptor
1 4 donor
1 5 acceptor
1 5 donor
1 6 acceptor
1 6 donor
1 8 acceptor
5 13 14 21 22 26 rings
6 1 2 9 12 15 27 rings
6 1 3 12 20 23 27 rings
6 10 11 13 14 16 19 rings
6 2 3 15 23 24 27 rings
6 7 29 31 32 33 34 rings
6 9 10 11 12 17 18 rings
6 9 12 15 20 23 24 rings

> <PUBCHEM_HEAVY_ATOM_COUNT>
34

> <PUBCHEM_ATOM_DEF_STEREO_COUNT>
11

> <PUBCHEM_ATOM_UDEF_STEREO_COUNT>
0

> <PUBCHEM_BOND_DEF_STEREO_COUNT>
0

> <PUBCHEM_BOND_UDEF_STEREO_COUNT>
0

> <PUBCHEM_ISOTOPIC_ATOM_COUNT>
0

> <PUBCHEM_COMPONENT_COUNT>
1

> <PUBCHEM_CACTVS_TAUTO_COUNT>
1

> <PUBCHEM_CONFORMER_ID>
0605E4F000000001

> <PUBCHEM_MMFF94_ENERGY>
145.6671

> <PUBCHEM_FEATURE_SELFOVERLAP>
105.524

> <PUBCHEM_SHAPE_FINGERPRINT>
10366900 7 18410020914081812170
10674148 151 11530480009270616474
10906281 52 18263382333792870337
11578080 2 15409461469184803914
11719270 70 18342734109618958687
11796584 16 16588031216169061602
11963148 33 18412537726068630631
12011746 2 18411987948884140746
12107698 1 17240481398937928909
12166972 35 18409451384001596692
12236239 1 18187650197886186600
12516196 113 17989485217280911065
12596602 18 16845574210305439611
12788726 201 18114748122831104680
13224815 77 18411423890913481648
13533116 47 17458617865990579938
13583140 156 16950575409977865539
1361 2 18343584019259354735
13782708 43 18187650245526778115
13811026 1 18341327868168408427
14294032 229 18191873310517689597
15142383 8 13839980010504784374
15183329 4 17530962475987523405
15439362 3 16880498136152962668
15788980 27 17458349641330549849
15840311 113 18259987102970953892
15849732 13 18131349713116974222
15927050 60 17482542392987070608
17349148 13 18335424547247066465
18681886 176 18272650164374026082
19315092 285 17630885993451106850
19377110 9 13398634935409360015
20028762 73 17917992788851364663
20511986 3 18335973242409721683
21033648 29 18270670983800102352
21267235 1 18202008719737623238
22149856 69 18059871558419959795
23559900 14 17386012809556301881
23569917 315 17988932149515547566
23569943 247 16984647991793172094
23576562 1 17969800759013362254
3004659 81 18333452044888124413
335352 9 18341618122986719710
3411729 13 18057595676339939984
34797466 226 15123790716624597912
350125 39 18335139786747111517
4325135 7 18202001028052706431
4340502 62 13830132793077819700
439807 62 18265614472217777199
474113 269 17677875852104907530
484989 97 18263937703287932379
5283173 99 18188768341283079029
59755656 215 18341899562960600878
6004065 56 18200587116113072505
6086070 43 17023188270974465497
6669772 16 16699746111904623001

> <PUBCHEM_SHAPE_MULTIPOLES>
652.75
15.83
2.06
1.61
16.43
0.36
-0.25
-3.12
3.04
-0.44
0.2
-0.85
0.1
-0.26

> <PUBCHEM_SHAPE_SELFOVERLAP>
1459.011

> <PUBCHEM_SHAPE_VOLUME>
339.6

> <PUBCHEM_COORDINATE_TYPE>
2
5
10

$$$$
