REMARK  Name = 101019702
REMARK  11 active torsions:
REMARK  status: ('A' for Active; 'I' for Inactive)
REMARK    1  A    between atoms: C_4  and  C_21
REMARK    2  A    between atoms: C_7  and  S_25
REMARK    3  A    between atoms: C_8  and  C_11
REMARK    4  A    between atoms: C_11  and  O_12
REMARK    5  A    between atoms: O_12  and  C_13
REMARK    6  A    between atoms: C_13  and  C_15
REMARK    7  A    between atoms: C_15  and  O_16
REMARK    8  A    between atoms: O_16  and  C_17
REMARK    9  A    between atoms: C_17  and  C_18
REMARK   10  A    between atoms: C_21  and  O_23
REMARK   11  A    between atoms: S_25  and  C_28
REMARK                            x       y       z     vdW  Elec       q    Type
REMARK                         _______ _______ _______ _____ _____    ______ ____
ROOT
ATOM      1  O   UNL     1       0.085   2.986  -1.109  0.00  0.00    -0.274 OA
ATOM      2  N   UNL     1      -1.147   1.370   0.088  0.00  0.00    -0.254 N 
ATOM      3  C   UNL     1      -2.497   1.717   0.577  0.00  0.00    +0.095 C 
ATOM      4  C   UNL     1      -2.221   3.148  -0.010  0.00  0.00    +0.123 C 
ATOM      5  C   UNL     1      -3.398   0.603   0.000  0.00  0.00    +0.049 C 
ATOM      6  C   UNL     1      -0.849   2.582  -0.453  0.00  0.00    +0.233 C 
ATOM      7  C   UNL     1      -2.389  -0.351  -0.616  0.00  0.00    +0.024 C 
ATOM      8  C   UNL     1      -1.154   0.167  -0.553  0.00  0.00    +0.132 C 
ATOM      9  C   UNL     1      -4.415   1.160  -0.988  0.00  0.00    +0.007 C 
ENDROOT
BRANCH   8  11
ATOM     10  O   UNL     1       0.129  -1.082  -2.106  0.00  0.00    -0.243 OA
ATOM     11  C   UNL     1       0.081  -0.383  -1.102  0.00  0.00    +0.356 C 
BRANCH  11  12
ATOM     12  O   UNL     1       1.123   0.011  -0.324  0.00  0.00    -0.432 OA
BRANCH  12  13
ATOM     13  C   UNL     1       2.413  -0.453  -0.736  0.00  0.00    +0.317 C 
BRANCH  13  15
ATOM     14  O   UNL     1       3.211   0.787   1.188  0.00  0.00    -0.246 OA
ATOM     15  C   UNL     1       3.447   0.068   0.227  0.00  0.00    +0.362 C 
BRANCH  15  16
ATOM     16  O   UNL     1       4.676  -0.391  -0.151  0.00  0.00    -0.446 OA
BRANCH  16  17
ATOM     17  C   UNL     1       5.769   0.024   0.675  0.00  0.00    +0.208 C 
BRANCH  17  18
ATOM     18  C   UNL     1       7.079  -0.560   0.139  0.00  0.00    +0.044 C 
ATOM     19  C   UNL     1       8.243  -0.184   1.053  0.00  0.00    +0.004 C 
ATOM     20  C   UNL     1       7.354  -0.092  -1.292  0.00  0.00    +0.004 C 
ENDBRANCH  17  18
ENDBRANCH  16  17
ENDBRANCH  15  16
ENDBRANCH  13  15
ENDBRANCH  12  13
ENDBRANCH  11  12
ENDBRANCH   8  11
BRANCH   4  21
ATOM     21  C   UNL     1      -2.160   4.288   0.989  0.00  0.00    +0.121 C 
ATOM     22  C   UNL     1      -1.894   5.613   0.286  0.00  0.00    +0.032 C 
BRANCH  21  23
ATOM     23  O   UNL     1      -3.398   4.379   1.689  0.00  0.00    -0.384 OA
ATOM     24  H   UNL     1      -3.576   3.540   2.141  0.00  0.00    +0.210 HD
ENDBRANCH  21  23
ENDBRANCH   4  21
BRANCH   7  25
ATOM     25  S   UNL     1      -2.837  -1.861  -1.299  0.00  0.00    -0.115 S 
BRANCH  25  28
ATOM     26  S   UNL     1      -0.476  -4.805   1.502  0.00  0.00    -0.040 S 
ATOM     27  N   UNL     1      -2.809  -4.886   0.118  0.00  0.00    -0.330 N 
ATOM     28  C   UNL     1      -3.562  -2.677   0.170  0.00  0.00    +0.077 C 
ATOM     29  C   UNL     1      -3.986  -4.104  -0.158  0.00  0.00    +0.099 C 
ATOM     30  C   UNL     1      -2.499  -2.862   1.259  0.00  0.00    +0.061 C 
ATOM     31  C   UNL     1      -1.917  -4.215   0.936  0.00  0.00    +0.059 C 
ATOM     32  H   UNL     1      -2.657  -5.793  -0.234  0.00  0.00    +0.147 HD
ENDBRANCH  25  28
ENDBRANCH   7  25
TORSDOF 11
