REMARK  Name = 10108584
REMARK  11 active torsions:
REMARK  status: ('A' for Active; 'I' for Inactive)
REMARK    1  A    between atoms: O_1  and  C_3
REMARK    2  A    between atoms: O_1  and  C_14
REMARK    3  A    between atoms: C_3  and  C_5
REMARK    4  A    between atoms: C_4  and  C_6
REMARK    5  A    between atoms: C_11  and  O_12
REMARK    6  A    between atoms: C_14  and  C_16
REMARK    7  A    between atoms: C_14  and  C_19
REMARK    8  A    between atoms: C_16  and  O_17
REMARK    9  A    between atoms: C_19  and  O_20
REMARK   10  A    between atoms: C_19  and  C_23
REMARK   11  A    between atoms: C_23  and  O_24
REMARK                            x       y       z     vdW  Elec       q    Type
REMARK                         _______ _______ _______ _____ _____    ______ ____
ROOT
ATOM      1  O   UNL     1      -1.704   0.063   0.029  0.00  0.00    -0.434 OA
ENDROOT
BRANCH   1   3
ATOM      2  O   UNL     1      -0.917  -1.850   1.058  0.00  0.00    -0.245 OA
ATOM      3  C   UNL     1      -0.739  -0.786   0.487  0.00  0.00    +0.342 C 
BRANCH   3   5
ATOM      4  C   UNL     1       1.699  -0.843   0.515  0.00  0.00    +0.007 C 
ATOM      5  C   UNL     1       0.580  -0.189   0.173  0.00  0.00    +0.082 C 
BRANCH   4   6
ATOM      6  C   UNL     1       3.065  -0.360   0.248  0.00  0.00    +0.000 C 
ATOM      7  C   UNL     1       3.271   0.987  -0.003  0.00  0.00    +0.003 C 
ATOM      8  C   UNL     1       4.117  -1.262   0.253  0.00  0.00    +0.003 C 
ATOM      9  C   UNL     1       4.564   1.444  -0.256  0.00  0.00    +0.037 C 
ATOM     10  C   UNL     1       5.410  -0.804   0.000  0.00  0.00    +0.037 C 
ATOM     11  C   UNL     1       5.634   0.549  -0.255  0.00  0.00    +0.134 C 
BRANCH  11  12
ATOM     12  O   UNL     1       6.895   0.995  -0.502  0.00  0.00    -0.506 OA
ATOM     13  H   UNL     1       7.045   1.904  -0.673  0.00  0.00    +0.292 HD
ENDBRANCH  11  12
ENDBRANCH   4   6
ENDBRANCH   3   5
ENDBRANCH   1   3
BRANCH   1  14
ATOM     14  C   UNL     1      -3.047  -0.352   0.247  0.00  0.00    +0.304 C 
BRANCH  14  16
ATOM     15  O   UNL     1      -2.653  -2.095  -1.406  0.00  0.00    -0.246 OA
ATOM     16  C   UNL     1      -3.218  -1.722  -0.387  0.00  0.00    +0.358 C 
BRANCH  16  17
ATOM     17  O   UNL     1      -4.102  -2.496   0.293  0.00  0.00    -0.478 OA
ATOM     18  H   UNL     1      -4.511  -2.169   1.070  0.00  0.00    +0.295 HD
ENDBRANCH  16  17
ENDBRANCH  14  16
BRANCH  14  19
ATOM     19  C   UNL     1      -3.979   0.715  -0.329  0.00  0.00    +0.261 C 
BRANCH  19  20
ATOM     20  O   UNL     1      -3.824   0.749  -1.737  0.00  0.00    -0.371 OA
ATOM     21  H   UNL     1      -3.982  -0.137  -2.100  0.00  0.00    +0.211 HD
ENDBRANCH  19  20
BRANCH  19  23
ATOM     22  O   UNL     1      -3.394   3.066  -0.354  0.00  0.00    -0.247 OA
ATOM     23  C   UNL     1      -3.740   2.083   0.291  0.00  0.00    +0.345 C 
BRANCH  23  24
ATOM     24  O   UNL     1      -3.918   2.109   1.635  0.00  0.00    -0.478 OA
ATOM     25  H   UNL     1      -4.184   1.333   2.087  0.00  0.00    +0.295 HD
ENDBRANCH  23  24
ENDBRANCH  19  23
ENDBRANCH  14  19
ENDBRANCH   1  14
TORSDOF 11
