REMARK  Name = 10105749
REMARK  3 active torsions:
REMARK  status: ('A' for Active; 'I' for Inactive)
REMARK    1  A    between atoms: C_2  and  N_8
REMARK    2  A    between atoms: C_3  and  C_13
REMARK    3  A    between atoms: C_13  and  O_14
REMARK                            x       y       z     vdW  Elec       q    Type
REMARK                         _______ _______ _______ _____ _____    ______ ____
ROOT
ATOM      1  S   UNL     1      -2.235  -2.007   0.126  0.00  0.00    -0.079 S 
ATOM      2  C   UNL     1       0.093  -0.921   0.166  0.00  0.00    +0.078 C 
ATOM      3  C   UNL     1      -1.248  -0.608   0.169  0.00  0.00    +0.120 C 
ATOM      4  C   UNL     1       0.314  -2.328   0.129  0.00  0.00    +0.023 C 
ATOM      5  C   UNL     1      -0.867  -3.037   0.104  0.00  0.00    +0.037 C 
ENDROOT
BRANCH   2   8
ATOM      6  S   UNL     1       0.936   1.554   0.951  0.00  0.00    -0.012 S 
ATOM      7  O   UNL     1       2.761  -1.146  -0.993  0.00  0.00    -0.269 OA
ATOM      8  N   UNL     1       1.099   0.025   0.195  0.00  0.00    -0.203 N 
ATOM      9  C   UNL     1       2.351  -0.165  -0.387  0.00  0.00    +0.263 C 
ATOM     10  C   UNL     1       3.192   1.042  -0.174  0.00  0.00    +0.067 C 
ATOM     11  C   UNL     1       2.541   1.982   0.509  0.00  0.00    +0.056 C 
ENDBRANCH   2   8
BRANCH   3  13
ATOM     12  O   UNL     1      -2.207   1.298   1.234  0.00  0.00    -0.244 OA
ATOM     13  C   UNL     1      -1.881   0.673   0.198  0.00  0.00    +0.349 C 
BRANCH  13  14
ATOM     14  O   UNL     1      -2.109   1.179  -1.063  0.00  0.00    -0.441 OA
ATOM     15  C   UNL     1      -2.739   2.460  -1.165  0.00  0.00    +0.256 C 
ENDBRANCH  13  14
ENDBRANCH   3  13
TORSDOF 3
