REMARK  Name = 101073738
REMARK  5 active torsions:
REMARK  status: ('A' for Active; 'I' for Inactive)
REMARK    1  A    between atoms: C_4  and  O_22
REMARK    2  A    between atoms: C_9  and  O_24
REMARK    3  A    between atoms: C_10  and  O_26
REMARK    4  A    between atoms: C_12  and  O_28
REMARK    5  A    between atoms: C_15  and  O_30
REMARK                            x       y       z     vdW  Elec       q    Type
REMARK                         _______ _______ _______ _____ _____    ______ ____
ROOT
ATOM      1  O   UNL     1       3.661   1.665  -0.193  0.00  0.00    -0.354 OA
ATOM      2  C   UNL     1       1.436   0.722   0.497  0.00  0.00    +0.081 C 
ATOM      3  C   UNL     1      -1.366  -0.444  -0.395  0.00  0.00    +0.032 C 
ATOM      4  C   UNL     1       1.939  -0.510  -0.308  0.00  0.00    +0.119 C 
ATOM      5  C   UNL     1       2.708   1.474   0.863  0.00  0.00    +0.147 C 
ATOM      6  C   UNL     1      -0.929   1.026  -0.769  0.00  0.00    +0.027 C 
ATOM      7  C   UNL     1       3.408  -0.787   0.267  0.00  0.00    +0.052 C 
ATOM      8  C   UNL     1       3.880   0.582   0.715  0.00  0.00    +0.144 C 
ATOM      9  C   UNL     1       0.356   1.670  -0.091  0.00  0.00    +0.093 C 
ATOM     10  C   UNL     1       0.966  -1.689  -0.150  0.00  0.00    +0.135 C 
ATOM     11  C   UNL     1      -0.374  -1.529  -0.855  0.00  0.00    +0.034 C 
ATOM     12  C   UNL     1      -1.796  -0.457   1.083  0.00  0.00    +0.113 C 
ATOM     13  C   UNL     1      -3.176   0.235   0.998  0.00  0.00    +0.052 C 
ATOM     14  C   UNL     1      -2.728  -0.796  -1.148  0.00  0.00    +0.029 C 
ATOM     15  C   UNL     1      -3.868  -0.529  -0.148  0.00  0.00    +0.091 C 
ATOM     16  C   UNL     1      -2.157   1.982  -0.599  0.00  0.00    +0.003 C 
ATOM     17  C   UNL     1      -2.970   1.727   0.684  0.00  0.00    +0.005 C 
ATOM     18  C   UNL     1       4.394  -1.350  -0.768  0.00  0.00    +0.005 C 
ATOM     19  C   UNL     1       3.415  -1.698   1.515  0.00  0.00    +0.005 C 
ATOM     20  C   UNL     1       0.946   2.701  -1.090  0.00  0.00    +0.029 C 
ATOM     21  C   UNL     1      -5.094   0.137  -0.764  0.00  0.00    +0.029 C 
ENDROOT
BRANCH   4  22
ATOM     22  O   UNL     1       2.026  -0.162  -1.690  0.00  0.00    -0.384 OA
ATOM     23  H   UNL     1       2.638   0.583  -1.798  0.00  0.00    +0.210 HD
ENDBRANCH   4  22
BRANCH   9  24
ATOM     24  O   UNL     1      -0.051   2.433   1.069  0.00  0.00    -0.387 OA
ATOM     25  H   UNL     1      -0.431   1.835   1.732  0.00  0.00    +0.210 HD
ENDBRANCH   9  24
BRANCH  10  26
ATOM     26  O   UNL     1       1.582  -2.851  -0.726  0.00  0.00    -0.382 OA
ATOM     27  H   UNL     1       2.445  -2.999  -0.310  0.00  0.00    +0.210 HD
ENDBRANCH  10  26
BRANCH  12  28
ATOM     28  O   UNL     1      -1.888  -1.766   1.626  0.00  0.00    -0.384 OA
ATOM     29  H   UNL     1      -1.004  -2.165   1.663  0.00  0.00    +0.210 HD
ENDBRANCH  12  28
BRANCH  15  30
ATOM     30  O   UNL     1      -4.320  -1.786   0.380  0.00  0.00    -0.387 OA
ATOM     31  H   UNL     1      -3.574  -2.254   0.786  0.00  0.00    +0.210 HD
ENDBRANCH  15  30
TORSDOF 5
