REMARK  Name = 101042999
REMARK  4 active torsions:
REMARK  status: ('A' for Active; 'I' for Inactive)
REMARK    1  A    between atoms: N_5  and  O_36
REMARK    2  A    between atoms: C_10  and  N_21
REMARK    3  A    between atoms: C_23  and  C_32
REMARK    4  A    between atoms: C_32  and  C_33
REMARK                            x       y       z     vdW  Elec       q    Type
REMARK                         _______ _______ _______ _____ _____    ______ ____
ROOT
ATOM      1  O   UNL     1       1.304  -0.046  -1.281  0.00  0.00    -0.447 OA
ATOM      2  O   UNL     1       6.118   1.420  -0.390  0.00  0.00    -0.273 OA
ATOM      3  O   UNL     1      -0.629  -0.462  -2.437  0.00  0.00    -0.248 OA
ATOM      4  N   UNL     1       3.992   0.591   0.175  0.00  0.00    -0.241 N 
ATOM      5  N   UNL     1       2.705   2.309  -0.464  0.00  0.00    -0.141 NA
ATOM      6  C   UNL     1       1.719  -0.055   0.094  0.00  0.00    +0.191 C 
ATOM      7  C   UNL     1       2.674   1.125   0.383  0.00  0.00    +0.205 C 
ATOM      8  C   UNL     1       0.436  -0.013   0.900  0.00  0.00    +0.079 C 
ATOM      9  C   UNL     1       2.665  -1.228   0.309  0.00  0.00    +0.030 C 
ATOM     10  C   UNL     1      -0.570  -0.680  -0.014  0.00  0.00    +0.185 C 
ATOM     11  C   UNL     1       4.000  -0.786   0.278  0.00  0.00    +0.055 C 
ATOM     12  C   UNL     1       4.101   2.824  -0.364  0.00  0.00    +0.162 C 
ATOM     13  C   UNL     1       4.919   1.536  -0.199  0.00  0.00    +0.247 C 
ATOM     14  C   UNL     1      -0.019  -0.384  -1.382  0.00  0.00    +0.336 C 
ATOM     15  C   UNL     1       2.391  -2.580   0.416  0.00  0.00    +0.000 C 
ATOM     16  C   UNL     1       5.075  -1.651   0.307  0.00  0.00    +0.015 C 
ATOM     17  C   UNL     1       4.407   3.757   0.805  0.00  0.00    +0.030 C 
ATOM     18  C   UNL     1       3.466  -3.473   0.481  0.00  0.00    -0.000 C 
ATOM     19  C   UNL     1       4.795  -3.013   0.420  0.00  0.00    +0.001 C 
ENDROOT
BRANCH  10  21
ATOM     20  O   UNL     1      -1.234   2.081  -0.258  0.00  0.00    -0.274 OA
ATOM     21  N   UNL     1      -1.889  -0.136   0.107  0.00  0.00    -0.222 N 
ATOM     22  N   UNL     1      -4.225  -0.610   0.489  0.00  0.00    -0.387 NA
ATOM     23  C   UNL     1      -2.988  -0.971   0.379  0.00  0.00    +0.224 C 
ATOM     24  C   UNL     1      -2.115   1.253  -0.044  0.00  0.00    +0.242 C 
ATOM     25  C   UNL     1      -3.521   1.703   0.072  0.00  0.00    +0.151 C 
ATOM     26  C   UNL     1      -4.516   0.753   0.331  0.00  0.00    +0.123 C 
ATOM     27  C   UNL     1      -3.846   3.056  -0.076  0.00  0.00    -0.010 C 
ATOM     28  C   UNL     1      -5.845   1.179   0.439  0.00  0.00    +0.028 C 
ATOM     29  C   UNL     1      -5.175   3.465   0.034  0.00  0.00    -0.004 C 
ATOM     30  C   UNL     1      -6.173   2.527   0.291  0.00  0.00    +0.002 C 
BRANCH  23  32
ATOM     31  O   UNL     1      -2.450  -2.802   1.692  0.00  0.00    -0.287 OA
ATOM     32  C   UNL     1      -2.705  -2.416   0.558  0.00  0.00    +0.216 C 
BRANCH  32  33
ATOM     33  C   UNL     1      -2.750  -3.287  -0.686  0.00  0.00    +0.066 C 
ATOM     34  C   UNL     1      -4.163  -3.820  -0.900  0.00  0.00    +0.008 C 
ATOM     35  C   UNL     1      -1.751  -4.436  -0.583  0.00  0.00    +0.008 C 
ENDBRANCH  32  33
ENDBRANCH  23  32
ENDBRANCH  10  21
BRANCH   5  36
ATOM     36  O   UNL     1       1.799   3.272   0.115  0.00  0.00    -0.309 OA
ATOM     37  H   UNL     1       0.890   2.940   0.052  0.00  0.00    +0.237 HD
ENDBRANCH   5  36
TORSDOF 4
