10105749
  -OEChem-03292013303D

 22 23  0     0  0  0  0  0  0999 V2000
   -2.2349   -2.0070    0.1264 S   0  0  0  0  0  0  0  0  0  0  0  0
    0.9365    1.5540    0.9509 S   0  0  0  0  0  0  0  0  0  0  0  0
   -2.1093    1.1787   -1.0628 O   0  0  0  0  0  0  0  0  0  0  0  0
    2.7606   -1.1460   -0.9932 O   0  0  0  0  0  0  0  0  0  0  0  0
   -2.2068    1.2977    1.2340 O   0  0  0  0  0  0  0  0  0  0  0  0
    1.0988    0.0252    0.1954 N   0  0  0  0  0  0  0  0  0  0  0  0
    0.0932   -0.9213    0.1664 C   0  0  0  0  0  0  0  0  0  0  0  0
   -1.2483   -0.6081    0.1689 C   0  0  0  0  0  0  0  0  0  0  0  0
    0.3139   -2.3283    0.1289 C   0  0  0  0  0  0  0  0  0  0  0  0
    2.3512   -0.1647   -0.3872 C   0  0  0  0  0  0  0  0  0  0  0  0
   -0.8671   -3.0369    0.1044 C   0  0  0  0  0  0  0  0  0  0  0  0
    3.1916    1.0419   -0.1741 C   0  0  0  0  0  0  0  0  0  0  0  0
   -1.8813    0.6727    0.1983 C   0  0  0  0  0  0  0  0  0  0  0  0
    2.5409    1.9819    0.5089 C   0  0  0  0  0  0  0  0  0  0  0  0
   -2.7390    2.4603   -1.1654 C   0  0  0  0  0  0  0  0  0  0  0  0
    1.2771   -2.8215    0.1384 H   0  0  0  0  0  0  0  0  0  0  0  0
   -0.9923   -4.1102    0.0793 H   0  0  0  0  0  0  0  0  0  0  0  0
    4.2031    1.1148   -0.5420 H   0  0  0  0  0  0  0  0  0  0  0  0
    2.9711    2.9388    0.7714 H   0  0  0  0  0  0  0  0  0  0  0  0
   -3.7329    2.4279   -0.7098 H   0  0  0  0  0  0  0  0  0  0  0  0
   -2.8435    2.7052   -2.2255 H   0  0  0  0  0  0  0  0  0  0  0  0
   -2.1188    3.2228   -0.6854 H   0  0  0  0  0  0  0  0  0  0  0  0
  1  8  1  0  0  0  0
  1 11  1  0  0  0  0
  2  6  1  0  0  0  0
  2 14  1  0  0  0  0
  3 13  1  0  0  0  0
  3 15  1  0  0  0  0
  4 10  2  0  0  0  0
  5 13  2  0  0  0  0
  6  7  1  0  0  0  0
  6 10  1  0  0  0  0
  7  8  2  0  0  0  0
  7  9  1  0  0  0  0
  8 13  1  0  0  0  0
  9 11  2  0  0  0  0
  9 16  1  0  0  0  0
 10 12  1  0  0  0  0
 11 17  1  0  0  0  0
 12 14  2  0  0  0  0
 12 18  1  0  0  0  0
 14 19  1  0  0  0  0
 15 20  1  0  0  0  0
 15 21  1  0  0  0  0
 15 22  1  0  0  0  0
M  END
> <PUBCHEM_COMPOUND_CID>
10105749

> <PUBCHEM_CONFORMER_RMSD>
0.6

> <PUBCHEM_CONFORMER_DIVERSEORDER>
1
12
14
5
18
9
2
13
6
17
10
11
15
4
8
3
7
16

> <PUBCHEM_MMFF94_PARTIAL_CHARGES>
19
1 -0.08
10 0.62
11 -0.11
12 -0.14
13 0.81
14 -0.05
15 0.28
16 0.15
17 0.15
18 0.15
19 0.15
2 -0.09
3 -0.43
4 -0.57
5 -0.57
6 -0.13
7 0.06
8 -0.05
9 -0.15

> <PUBCHEM_EFFECTIVE_ROTOR_COUNT>
3

> <PUBCHEM_PHARMACOPHORE_FEATURES>
4
1 4 acceptor
1 5 acceptor
5 1 7 8 9 11 rings
5 2 6 10 12 14 rings

> <PUBCHEM_HEAVY_ATOM_COUNT>
15

> <PUBCHEM_ATOM_DEF_STEREO_COUNT>
0

> <PUBCHEM_ATOM_UDEF_STEREO_COUNT>
0

> <PUBCHEM_BOND_DEF_STEREO_COUNT>
0

> <PUBCHEM_BOND_UDEF_STEREO_COUNT>
0

> <PUBCHEM_ISOTOPIC_ATOM_COUNT>
0

> <PUBCHEM_COMPONENT_COUNT>
1

> <PUBCHEM_CACTVS_TAUTO_COUNT>
1

> <PUBCHEM_CONFORMER_ID>
009A339500000001

> <PUBCHEM_MMFF94_ENERGY>
41.0194

> <PUBCHEM_FEATURE_SELFOVERLAP>
20.297

> <PUBCHEM_SHAPE_FINGERPRINT>
1 1 18192145988856993687
10608611 8 18269273641738398184
11132069 177 17766275753547999218
11206711 2 18268149927637522102
12138202 97 18410005580921996852
12524768 44 17764589115490806715
12730499 353 18118966889408124053
13140716 1 18340491075606229778
13294875 104 18120350100240550752
14614273 12 18196650915602787328
15279308 100 18336547118902381940
15490181 7 18335700524760791675
15775835 57 18260830397111194736
15852999 172 18056167328755974768
16945 1 18123191208000471474
17134986 127 18262790749155602941
17844478 74 18120947358087017706
18186145 218 18270407087786670364
18219364 16 18337681801848786737
19868273 325 17688587590444786970
19973954 147 18198632210013050288
20201158 50 17984709088840681586
20510252 161 18268429216496828755
20588541 1 17909552005567228522
21041028 32 16898788086124326849
21501502 16 18269280217338512154
21524375 3 18188767241333250499
21639500 275 17976808797310859349
21947302 44 18202281411843797580
22721475 48 17909840060591910282
22802520 49 18271534185957597182
2334 1 18412265068605816146
23402539 116 17979905339544815142
23557571 272 17979365479440715030
23559900 14 18200041643109494550
238 59 17975107874271172581
25 1 18120937192105234125
2748010 2 18412831295613951010
3060560 45 18121766249631676029
350125 39 18409173181752815003
353137 74 18192703660280011227
5255222 1 18337399253182869483
81228 2 18120100738639646051
8809292 202 18123476235368979082
90316 7 17686875616538611113

> <PUBCHEM_SHAPE_MULTIPOLES>
293.8
4.55
3.23
1
2.56
0.13
0.02
-1.24
0.5
-2.3
0.46
-0.14
-0.49
1.01

> <PUBCHEM_SHAPE_SELFOVERLAP>
603.891

> <PUBCHEM_SHAPE_VOLUME>
171

> <PUBCHEM_COORDINATE_TYPE>
2
5
10

$$$$
