REMARK  Name = 101039070
REMARK  5 active torsions:
REMARK  status: ('A' for Active; 'I' for Inactive)
REMARK    1  A    between atoms: C_6  and  O_27
REMARK    2  A    between atoms: C_12  and  O_29
REMARK    3  A    between atoms: C_13  and  O_31
REMARK    4  A    between atoms: C_17  and  C_24
REMARK    5  A    between atoms: C_19  and  O_33
REMARK                            x       y       z     vdW  Elec       q    Type
REMARK                         _______ _______ _______ _____ _____    ______ ____
ROOT
ATOM      1  O   UNL     1      -0.535  -1.789  -2.697  0.00  0.00    -0.289 OA
ATOM      2  O   UNL     1      -3.377   0.668   2.639  0.00  0.00    -0.291 OA
ATOM      3  C   UNL     1      -1.652  -1.857   0.747  0.00  0.00    +0.047 C 
ATOM      4  C   UNL     1       0.871  -1.876   0.498  0.00  0.00    +0.032 C 
ATOM      5  C   UNL     1      -0.298  -1.469   1.405  0.00  0.00    +0.009 C 
ATOM      6  C   UNL     1      -1.841  -1.300  -0.690  0.00  0.00    +0.193 C 
ATOM      7  C   UNL     1       2.264  -1.677   1.143  0.00  0.00    +0.027 C 
ATOM      8  C   UNL     1       0.703  -1.127  -0.788  0.00  0.00    +0.049 C 
ATOM      9  C   UNL     1      -2.817  -1.429   1.639  0.00  0.00    +0.073 C 
ATOM     10  C   UNL     1      -0.551  -1.459  -1.515  0.00  0.00    +0.203 C 
ATOM     11  C   UNL     1       2.869  -0.312   0.860  0.00  0.00    -0.016 C 
ATOM     12  C   UNL     1      -2.280   0.154  -0.715  0.00  0.00    +0.149 C 
ATOM     13  C   UNL     1       1.476  -0.115  -1.206  0.00  0.00    +0.135 C 
ATOM     14  C   UNL     1       2.527   0.410  -0.305  0.00  0.00    +0.063 C 
ATOM     15  C   UNL     1       3.241  -2.755   0.642  0.00  0.00    +0.005 C 
ATOM     16  C   UNL     1      -2.992   0.072   1.634  0.00  0.00    +0.180 C 
ATOM     17  C   UNL     1      -2.764   0.809   0.356  0.00  0.00    +0.120 C 
ATOM     18  C   UNL     1       3.824   0.205   1.753  0.00  0.00    -0.004 C 
ATOM     19  C   UNL     1       3.150   1.651  -0.527  0.00  0.00    +0.136 C 
ATOM     20  C   UNL     1       4.435   1.431   1.507  0.00  0.00    +0.003 C 
ATOM     21  C   UNL     1       4.098   2.153   0.368  0.00  0.00    +0.037 C 
ENDROOT
BRANCH  17  24
ATOM     22  O   UNL     1      -4.253   2.632   0.443  0.00  0.00    -0.270 OA
ATOM     23  N   UNL     1      -2.049   3.022  -0.123  0.00  0.00    -0.325 N 
ATOM     24  C   UNL     1      -3.113   2.233   0.235  0.00  0.00    +0.248 C 
ATOM     25  H   UNL     1      -2.171   3.993  -0.232  0.00  0.00    +0.145 HD
ATOM     26  H   UNL     1      -1.164   2.618  -0.270  0.00  0.00    +0.145 HD
ENDBRANCH  17  24
BRANCH   6  27
ATOM     27  O   UNL     1      -2.859  -2.043  -1.358  0.00  0.00    -0.373 OA
ATOM     28  H   UNL     1      -2.620  -2.984  -1.366  0.00  0.00    +0.211 HD
ENDBRANCH   6  27
BRANCH  12  29
ATOM     29  O   UNL     1      -2.175   0.799  -1.940  0.00  0.00    -0.507 OA
ATOM     30  H   UNL     1      -1.838   0.340  -2.684  0.00  0.00    +0.292 HD
ENDBRANCH  12  29
BRANCH  13  31
ATOM     31  O   UNL     1       1.234   0.533  -2.400  0.00  0.00    -0.506 OA
ATOM     32  H   UNL     1       0.572   0.213  -2.981  0.00  0.00    +0.292 HD
ENDBRANCH  13  31
BRANCH  19  33
ATOM     33  O   UNL     1       2.862   2.434  -1.608  0.00  0.00    -0.505 OA
ATOM     34  H   UNL     1       2.234   2.147  -2.241  0.00  0.00    +0.292 HD
ENDBRANCH  19  33
TORSDOF 5
