101078046
  -OEChem-03292013293D

 72 75  0     1  0  0  0  0  0999 V2000
   -2.8372   -3.7328   -0.2324 O   0  0  0  0  0  0  0  0  0  0  0  0
    3.5694    1.4772   -0.3365 O   0  0  0  0  0  0  0  0  0  0  0  0
    4.0128   -2.0611    0.3979 O   0  0  0  0  0  0  0  0  0  0  0  0
    5.8436    0.6832   -1.2408 O   0  0  0  0  0  0  0  0  0  0  0  0
    7.3821    0.5638    1.0939 O   0  0  0  0  0  0  0  0  0  0  0  0
   -3.2143   -0.4759    0.2960 C   0  0  2  0  0  0  0  0  0  0  0  0
   -1.7269   -0.5124    0.7257 C   0  0  2  0  0  0  0  0  0  0  0  0
   -0.8005    0.3613   -0.1802 C   0  0  1  0  0  0  0  0  0  0  0  0
   -1.4100    1.7592   -0.5503 C   0  0  2  0  0  0  0  0  0  0  0  0
    0.6423    0.6594    0.4015 C   0  0  2  0  0  0  0  0  0  0  0  0
   -3.2025   -1.3898   -0.9637 C   0  0  1  0  0  0  0  0  0  0  0  0
   -3.6934    0.9354    0.0943 C   0  0  0  0  0  0  0  0  0  0  0  0
   -1.3943   -2.0052    0.6001 C   0  0  0  0  0  0  0  0  0  0  0  0
   -4.1652   -0.9507    1.4147 C   0  0  0  0  0  0  0  0  0  0  0  0
   -0.5838    2.7430    0.2915 C   0  0  0  0  0  0  0  0  0  0  0  0
   -2.2042   -2.5160   -0.5994 C   0  0  1  0  0  0  0  0  0  0  0  0
    0.8273    2.1834    0.2376 C   0  0  0  0  0  0  0  0  0  0  0  0
   -2.8780    1.9379   -0.2576 C   0  0  0  0  0  0  0  0  0  0  0  0
   -5.0996    1.1363    0.6059 C   0  0  2  0  0  0  0  0  0  0  0  0
   -5.4916   -0.2431    1.1398 C   0  0  0  0  0  0  0  0  0  0  0  0
    1.7216   -0.0770   -0.4112 C   0  0  0  0  0  0  0  0  0  0  0  0
   -1.2115    2.0447   -2.0555 C   0  0  0  0  0  0  0  0  0  0  0  0
    0.8403    0.3028    1.8869 C   0  0  0  0  0  0  0  0  0  0  0  0
   -4.5349   -1.8874   -1.5081 C   0  0  0  0  0  0  0  0  0  0  0  0
   -6.0836    1.6653   -0.4285 C   0  0  0  0  0  0  0  0  0  0  0  0
    3.1511    0.1811    0.0802 C   0  0  1  0  0  0  0  0  0  0  0  0
    4.1787   -0.8764   -0.3807 C   0  0  1  0  0  0  0  0  0  0  0  0
    5.6712   -0.4288   -0.3552 C   0  0  2  0  0  0  0  0  0  0  0  0
    6.0555    0.0465    1.0617 C   0  0  0  0  0  0  0  0  0  0  0  0
    6.6356   -1.5238   -0.8276 C   0  0  0  0  0  0  0  0  0  0  0  0
   -1.6509   -0.1919    1.7678 H   0  0  0  0  0  0  0  0  0  0  0  0
   -0.6646   -0.1892   -1.1217 H   0  0  0  0  0  0  0  0  0  0  0  0
   -2.7476   -0.8141   -1.7822 H   0  0  0  0  0  0  0  0  0  0  0  0
   -0.3270   -2.1971    0.4639 H   0  0  0  0  0  0  0  0  0  0  0  0
   -1.6882   -2.5290    1.5187 H   0  0  0  0  0  0  0  0  0  0  0  0
   -3.7959   -0.6362    2.4000 H   0  0  0  0  0  0  0  0  0  0  0  0
   -4.2927   -2.0368    1.4531 H   0  0  0  0  0  0  0  0  0  0  0  0
   -0.9352    2.7652    1.3314 H   0  0  0  0  0  0  0  0  0  0  0  0
   -0.6223    3.7691   -0.0907 H   0  0  0  0  0  0  0  0  0  0  0  0
   -1.5530   -2.7225   -1.4563 H   0  0  0  0  0  0  0  0  0  0  0  0
    1.2741    2.4434   -0.7284 H   0  0  0  0  0  0  0  0  0  0  0  0
    1.4470    2.6367    1.0183 H   0  0  0  0  0  0  0  0  0  0  0  0
   -3.2741    2.9501   -0.3034 H   0  0  0  0  0  0  0  0  0  0  0  0
   -5.0644    1.8354    1.4523 H   0  0  0  0  0  0  0  0  0  0  0  0
   -6.0934   -0.8005    0.4153 H   0  0  0  0  0  0  0  0  0  0  0  0
   -6.0930   -0.1631    2.0521 H   0  0  0  0  0  0  0  0  0  0  0  0
    1.6498    0.2122   -1.4682 H   0  0  0  0  0  0  0  0  0  0  0  0
    1.5119   -1.1512   -0.3706 H   0  0  0  0  0  0  0  0  0  0  0  0
   -0.1719    1.9111   -2.3711 H   0  0  0  0  0  0  0  0  0  0  0  0
   -1.5025    3.0714   -2.3081 H   0  0  0  0  0  0  0  0  0  0  0  0
   -1.8213    1.3699   -2.6682 H   0  0  0  0  0  0  0  0  0  0  0  0
    1.7431    0.7396    2.3236 H   0  0  0  0  0  0  0  0  0  0  0  0
    0.0336    0.7165    2.5016 H   0  0  0  0  0  0  0  0  0  0  0  0
    0.8710   -0.7792    2.0491 H   0  0  0  0  0  0  0  0  0  0  0  0
   -5.0801   -2.5004   -0.7851 H   0  0  0  0  0  0  0  0  0  0  0  0
   -4.3696   -2.5052   -2.3979 H   0  0  0  0  0  0  0  0  0  0  0  0
   -5.1729   -1.0527   -1.8091 H   0  0  0  0  0  0  0  0  0  0  0  0
   -5.8068    2.6738   -0.7536 H   0  0  0  0  0  0  0  0  0  0  0  0
   -7.0933    1.7163   -0.0073 H   0  0  0  0  0  0  0  0  0  0  0  0
   -6.1215    1.0292   -1.3184 H   0  0  0  0  0  0  0  0  0  0  0  0
    3.2024    0.1547    1.1695 H   0  0  0  0  0  0  0  0  0  0  0  0
   -2.1382   -4.3695   -0.0052 H   0  0  0  0  0  0  0  0  0  0  0  0
    3.9466   -1.1330   -1.4234 H   0  0  0  0  0  0  0  0  0  0  0  0
    3.5125    2.0691    0.4323 H   0  0  0  0  0  0  0  0  0  0  0  0
    3.1152   -2.3999    0.2461 H   0  0  0  0  0  0  0  0  0  0  0  0
    5.4109    0.8615    1.4012 H   0  0  0  0  0  0  0  0  0  0  0  0
    5.9895   -0.7746    1.7834 H   0  0  0  0  0  0  0  0  0  0  0  0
    6.3661   -1.8601   -1.8354 H   0  0  0  0  0  0  0  0  0  0  0  0
    6.6227   -2.3914   -0.1604 H   0  0  0  0  0  0  0  0  0  0  0  0
    7.6649   -1.1538   -0.8937 H   0  0  0  0  0  0  0  0  0  0  0  0
    6.7612    0.9946   -1.1573 H   0  0  0  0  0  0  0  0  0  0  0  0
    7.5607    0.8354    2.0104 H   0  0  0  0  0  0  0  0  0  0  0  0
  1 16  1  0  0  0  0
  1 62  1  0  0  0  0
  2 26  1  0  0  0  0
  2 64  1  0  0  0  0
  3 27  1  0  0  0  0
  3 65  1  0  0  0  0
  4 28  1  0  0  0  0
  4 71  1  0  0  0  0
  5 29  1  0  0  0  0
  5 72  1  0  0  0  0
  6  7  1  0  0  0  0
  6 11  1  0  0  0  0
  6 12  1  0  0  0  0
  6 14  1  0  0  0  0
  7  8  1  0  0  0  0
  7 13  1  0  0  0  0
  7 31  1  0  0  0  0
  8  9  1  0  0  0  0
  8 10  1  0  0  0  0
  8 32  1  0  0  0  0
  9 15  1  0  0  0  0
  9 18  1  0  0  0  0
  9 22  1  0  0  0  0
 10 17  1  0  0  0  0
 10 21  1  0  0  0  0
 10 23  1  0  0  0  0
 11 16  1  0  0  0  0
 11 24  1  0  0  0  0
 11 33  1  0  0  0  0
 12 18  2  0  0  0  0
 12 19  1  0  0  0  0
 13 16  1  0  0  0  0
 13 34  1  0  0  0  0
 13 35  1  0  0  0  0
 14 20  1  0  0  0  0
 14 36  1  0  0  0  0
 14 37  1  0  0  0  0
 15 17  1  0  0  0  0
 15 38  1  0  0  0  0
 15 39  1  0  0  0  0
 16 40  1  0  0  0  0
 17 41  1  0  0  0  0
 17 42  1  0  0  0  0
 18 43  1  0  0  0  0
 19 20  1  0  0  0  0
 19 25  1  0  0  0  0
 19 44  1  0  0  0  0
 20 45  1  0  0  0  0
 20 46  1  0  0  0  0
 21 26  1  0  0  0  0
 21 47  1  0  0  0  0
 21 48  1  0  0  0  0
 22 49  1  0  0  0  0
 22 50  1  0  0  0  0
 22 51  1  0  0  0  0
 23 52  1  0  0  0  0
 23 53  1  0  0  0  0
 23 54  1  0  0  0  0
 24 55  1  0  0  0  0
 24 56  1  0  0  0  0
 24 57  1  0  0  0  0
 25 58  1  0  0  0  0
 25 59  1  0  0  0  0
 25 60  1  0  0  0  0
 26 27  1  0  0  0  0
 26 61  1  0  0  0  0
 27 28  1  0  0  0  0
 27 63  1  0  0  0  0
 28 29  1  0  0  0  0
 28 30  1  0  0  0  0
 29 66  1  0  0  0  0
 29 67  1  0  0  0  0
 30 68  1  0  0  0  0
 30 69  1  0  0  0  0
 30 70  1  0  0  0  0
M  END
> <PUBCHEM_COMPOUND_CID>
101078046

> <PUBCHEM_CONFORMER_RMSD>
0.8

> <PUBCHEM_CONFORMER_DIVERSEORDER>
1
265
61
345
299
67
358
151
52
218
241
41
207
105
180
311
305
196
214
216
157
124
106
239
372
156
44
177
262
204
280
83
103
55
334
272
246
233
137
264
322
16
101
343
230
91
217
228
108
185
366
45
98
139
370
27
165
104
121
5
166
188
335
93
294
259
351
268
7
184
195
99
123
348
22
321
219
110
135
274
344
125
29
376
115
257
15
94
161
179
89
253
20
4
270
81
308
282
258
46
141
28
363
167
328
71
375
374
227
229
48
88
301
251
8
192
240
144
169
379
210
37
281
69
256
367
65
378
289
313
10
72
336
231
100
191
26
359
68
269
73
340
6
232
352
203
23
134
127
293
142
13
164
143
47
295
119
290
223
183
329
266
97
87
273
222
51
25
298
341
84
288
12
350
347
30
213
338
64
354
291
70
198
320
62
306
78
117
129
364
302
136
209
249
56
337
171
54
14
189
243
255
60
325
77
279
307
31
76
339
133
155
92
356
357
40
126
35
140
371
50
102
296
109
79
283
353
95
377
287
66
174
247
346
202
86
237
59
226
148
220
292
19
36
349
175
149
33
168
113
118
248
170
114
182
163
368
18
342
153
38
369
360
152
74
373
211
263
138
362
116
146
32
285
355
11
236
154
303
197
316
96
39
310
284
181
131
244
324
238
90
225
160
250
190
53
276
317
194
245
128
147
261
312
150
111
314
267
85
318
224
277
221
82
330
9
365
234
206
186
271
297
208
173
260
193
21
120
205
286
178
159
327
75
212
333
315
2
49
42
323
107
309
57
176
63
130
304
132
278
17
112
275
326
361
80
162
332
252
199
58
172
300
215
3
319
24
43
331
201
235
200
34
254
187
158
242
145
122

> <PUBCHEM_MMFF94_PARTIAL_CHARGES>
21
1 -0.68
12 -0.28
16 0.28
18 -0.29
19 0.14
2 -0.68
26 0.28
27 0.28
28 0.28
29 0.28
3 -0.68
4 -0.68
43 0.15
5 -0.68
6 0.14
62 0.4
64 0.4
65 0.4
71 0.4
72 0.4
9 0.14

> <PUBCHEM_EFFECTIVE_ROTOR_COUNT>
6.8

> <PUBCHEM_PHARMACOPHORE_FEATURES>
14
1 1 acceptor
1 1 donor
1 2 acceptor
1 2 donor
1 3 acceptor
1 3 donor
1 4 acceptor
1 4 donor
1 5 acceptor
1 5 donor
5 6 12 14 19 20 rings
5 6 7 11 13 16 rings
5 8 9 10 15 17 rings
6 6 7 8 9 12 18 rings

> <PUBCHEM_HEAVY_ATOM_COUNT>
30

> <PUBCHEM_ATOM_DEF_STEREO_COUNT>
7

> <PUBCHEM_ATOM_UDEF_STEREO_COUNT>
4

> <PUBCHEM_BOND_DEF_STEREO_COUNT>
0

> <PUBCHEM_BOND_UDEF_STEREO_COUNT>
0

> <PUBCHEM_ISOTOPIC_ATOM_COUNT>
0

> <PUBCHEM_COMPONENT_COUNT>
1

> <PUBCHEM_CACTVS_TAUTO_COUNT>
1

> <PUBCHEM_CONFORMER_ID>
0606541E00000001

> <PUBCHEM_MMFF94_ENERGY>
126.2548

> <PUBCHEM_FEATURE_SELFOVERLAP>
71.397

> <PUBCHEM_SHAPE_FINGERPRINT>
10 15 18409163325646811856
10290309 65 18265332807265317630
10675989 125 16822479771570947765
10835480 77 18059850688814996944
11315181 36 17060338547650898299
11524674 6 17561365058547568463
11578080 2 17631161077410304361
12011746 2 18409163278180742069
12035758 1 18341630213003133739
12166972 35 14851893564756001350
12236239 1 17313108544367740920
12516196 113 18060701697660805688
12553582 1 18334566966969296123
12633257 1 17918003788678814457
12788726 201 18269839709701063416
12838862 33 18337373964742666517
13402501 40 18342462504281635982
13583140 156 14333411155258885239
13782708 43 17703227433171193342
14394314 77 18412263904617204601
14790565 3 17909271278294901913
14866123 147 18411702123486094859
14955137 171 18189350094661279745
15183329 4 18408884035959161086
15361156 5 18337963371757486828
15537594 2 18260546710369037666
15849732 13 18187368727552798125
16110190 28 18412549846254069776
17492 89 17908139129416540623
17857418 61 18408599275828107074
17980427 23 16200166395175553017
1813 80 17603864554558040469
18603816 31 17203034206476605414
19141452 34 18413392055139313083
19958102 18 18336825269627569150
20511986 3 18201428186678994850
21236236 1 18271804648707031647
21267235 1 18334587831820128161
23402539 116 18260548926387142877
23522609 53 18123222123429256440
23559900 14 18201711890390337168
249057 3 18334859406876635853
3004659 81 18113907048512961924
3178227 256 18336844013492453481
335352 9 18410856551936409933
3383291 50 18335703888200759131
350125 39 18334016055767331940
4073 2 18410856603465494010
463206 1 18335988670212122610
5104073 3 18129665342907632752
5265222 85 18338809987047138830
5364581 5 18127397068190919424
559249 180 18272088296905701463
59755656 215 18341338777960730198
70251023 43 17615410689876722595
7226269 152 17632301129661551065

> <PUBCHEM_SHAPE_MULTIPOLES>
588.04
15.36
2.86
1.35
23.49
0.98
0.06
2.1
-0.49
-2.53
0.67
-0.29
-0.05
0.16

> <PUBCHEM_SHAPE_SELFOVERLAP>
1244.006

> <PUBCHEM_SHAPE_VOLUME>
333.2

> <PUBCHEM_COORDINATE_TYPE>
2
5
10

$$$$
