REMARK  Name = 10105820
REMARK  6 active torsions:
REMARK  status: ('A' for Active; 'I' for Inactive)
REMARK    1  A    between atoms: C_2  and  O_18
REMARK    2  A    between atoms: C_3  and  O_20
REMARK    3  A    between atoms: C_4  and  C_8
REMARK    4  A    between atoms: C_5  and  C_22
REMARK    5  A    between atoms: C_9  and  C_15
REMARK    6  A    between atoms: C_22  and  O_23
REMARK                            x       y       z     vdW  Elec       q    Type
REMARK                         _______ _______ _______ _____ _____    ______ ____
ROOT
ATOM      1  O   UNL     1      -1.736   0.568  -0.936  0.00  0.00    -0.348 OA
ATOM      2  C   UNL     1      -1.519  -1.123   0.706  0.00  0.00    +0.170 C 
ATOM      3  C   UNL     1      -2.989  -0.994   0.353  0.00  0.00    +0.169 C 
ATOM      4  C   UNL     1      -0.846  -0.478  -0.496  0.00  0.00    +0.181 C 
ATOM      5  C   UNL     1      -3.040   0.360  -0.348  0.00  0.00    +0.174 C 
ENDROOT
BRANCH   4   8
ATOM      6  N   UNL     1       1.658  -0.581  -0.384  0.00  0.00    -0.312 N 
ATOM      7  N   UNL     1       0.739   1.325   0.291  0.00  0.00    -0.315 N 
ATOM      8  C   UNL     1       0.504   0.123  -0.184  0.00  0.00    +0.174 C 
ATOM      9  C   UNL     1       2.697   0.225  -0.011  0.00  0.00    +0.114 C 
ATOM     10  C   UNL     1       2.105   1.395   0.401  0.00  0.00    +0.078 C 
ATOM     11  H   UNL     1       1.728  -1.499  -0.731  0.00  0.00    +0.148 HD
ATOM     12  H   UNL     1       0.081   2.021   0.518  0.00  0.00    +0.148 HD
BRANCH   9  15
ATOM     13  O   UNL     1       4.491  -1.242  -0.483  0.00  0.00    -0.269 OA
ATOM     14  N   UNL     1       5.018   0.809   0.360  0.00  0.00    -0.324 N 
ATOM     15  C   UNL     1       4.075  -0.136  -0.063  0.00  0.00    +0.257 C 
ATOM     16  H   UNL     1       5.978   0.591   0.337  0.00  0.00    +0.145 HD
ATOM     17  H   UNL     1       4.721   1.691   0.680  0.00  0.00    +0.145 HD
ENDBRANCH   9  15
ENDBRANCH   4   8
BRANCH   2  18
ATOM     18  O   UNL     1      -1.111  -2.465   0.881  0.00  0.00    -0.379 OA
ATOM     19  H   UNL     1      -1.560  -2.842   1.654  0.00  0.00    +0.211 HD
ENDBRANCH   2  18
BRANCH   3  20
ATOM     20  O   UNL     1      -3.383  -2.015  -0.563  0.00  0.00    -0.379 OA
ATOM     21  H   UNL     1      -3.351  -2.877  -0.119  0.00  0.00    +0.211 HD
ENDBRANCH   3  20
BRANCH   5  22
ATOM     22  C   UNL     1      -3.323   1.511   0.607  0.00  0.00    +0.169 C 
BRANCH  22  23
ATOM     23  O   UNL     1      -3.341   2.720  -0.132  0.00  0.00    -0.379 OA
ATOM     24  H   UNL     1      -3.520   3.462   0.466  0.00  0.00    +0.211 HD
ENDBRANCH  22  23
ENDBRANCH   5  22
TORSDOF 6
