REMARK  Name = 101007098
REMARK  4 active torsions:
REMARK  status: ('A' for Active; 'I' for Inactive)
REMARK    1  A    between atoms: C_8  and  O_24
REMARK    2  A    between atoms: C_12  and  O_26
REMARK    3  A    between atoms: C_20  and  O_28
REMARK    4  A    between atoms: C_22  and  O_30
REMARK                            x       y       z     vdW  Elec       q    Type
REMARK                         _______ _______ _______ _____ _____    ______ ____
ROOT
ATOM      1  O   UNL     1       2.972  -1.953  -0.152  0.00  0.00    -0.479 OA
ATOM      2  O   UNL     1      -1.534   2.441  -0.067  0.00  0.00    -0.286 OA
ATOM      3  O   UNL     1      -2.077  -2.878   0.012  0.00  0.00    -0.287 OA
ATOM      4  C   UNL     1       3.354   0.395  -0.328  0.00  0.00    +0.068 C 
ATOM      5  C   UNL     1       3.867  -0.911   0.288  0.00  0.00    +0.172 C 
ATOM      6  C   UNL     1       4.047   1.572   0.330  0.00  0.00    +0.011 C 
ATOM      7  C   UNL     1       5.324  -1.104  -0.093  0.00  0.00    +0.073 C 
ATOM      8  C   UNL     1       6.141   0.079   0.450  0.00  0.00    +0.114 C 
ATOM      9  C   UNL     1       5.557   1.454   0.068  0.00  0.00    +0.030 C 
ATOM     10  C   UNL     1       1.911   0.108  -0.164  0.00  0.00    +0.049 C 
ATOM     11  C   UNL     1       1.761  -1.280  -0.135  0.00  0.00    +0.137 C 
ATOM     12  C   UNL     1       0.812   0.942  -0.141  0.00  0.00    +0.136 C 
ATOM     13  C   UNL     1       0.522  -1.886  -0.096  0.00  0.00    +0.040 C 
ATOM     14  C   UNL     1      -0.460   0.351  -0.081  0.00  0.00    +0.076 C 
ATOM     15  C   UNL     1      -0.604  -1.050  -0.062  0.00  0.00    +0.048 C 
ATOM     16  C   UNL     1      -1.654   1.222  -0.050  0.00  0.00    +0.202 C 
ATOM     17  C   UNL     1      -1.949  -1.660  -0.007  0.00  0.00    +0.196 C 
ATOM     18  C   UNL     1      -2.994   0.605   0.002  0.00  0.00    +0.076 C 
ATOM     19  C   UNL     1      -3.136  -0.784   0.023  0.00  0.00    +0.048 C 
ATOM     20  C   UNL     1      -4.131   1.423   0.031  0.00  0.00    +0.140 C 
ATOM     21  C   UNL     1      -4.414  -1.354   0.073  0.00  0.00    +0.040 C 
ATOM     22  C   UNL     1      -5.543  -0.535   0.102  0.00  0.00    +0.137 C 
ATOM     23  C   UNL     1      -5.402   0.851   0.081  0.00  0.00    +0.073 C 
ENDROOT
BRANCH   8  24
ATOM     24  O   UNL     1       7.474  -0.027  -0.039  0.00  0.00    -0.384 OA
ATOM     25  H   UNL     1       7.839  -0.892   0.203  0.00  0.00    +0.210 HD
ENDBRANCH   8  24
BRANCH  12  26
ATOM     26  O   UNL     1       1.008   2.285  -0.204  0.00  0.00    -0.506 OA
ATOM     27  H   UNL     1       1.878   2.630  -0.243  0.00  0.00    +0.292 HD
ENDBRANCH  12  26
BRANCH  20  28
ATOM     28  O   UNL     1      -4.067   2.785   0.011  0.00  0.00    -0.505 OA
ATOM     29  H   UNL     1      -3.234   3.214  -0.023  0.00  0.00    +0.292 HD
ENDBRANCH  20  28
BRANCH  22  30
ATOM     30  O   UNL     1      -6.785  -1.091   0.149  0.00  0.00    -0.505 OA
ATOM     31  H   UNL     1      -6.882  -2.023   0.164  0.00  0.00    +0.292 HD
ENDBRANCH  22  30
TORSDOF 4
