REMARK  Name = 101078046
REMARK  10 active torsions:
REMARK  status: ('A' for Active; 'I' for Inactive)
REMARK    1  A    between atoms: C_5  and  C_22
REMARK    2  A    between atoms: C_11  and  O_20
REMARK    3  A    between atoms: C_22  and  C_23
REMARK    4  A    between atoms: C_23  and  O_24
REMARK    5  A    between atoms: C_23  and  C_26
REMARK    6  A    between atoms: C_26  and  O_27
REMARK    7  A    between atoms: C_26  and  C_29
REMARK    8  A    between atoms: C_29  and  O_31
REMARK    9  A    between atoms: C_29  and  C_33
REMARK   10  A    between atoms: C_33  and  O_34
REMARK                            x       y       z     vdW  Elec       q    Type
REMARK                         _______ _______ _______ _____ _____    ______ ____
ROOT
ATOM      1  C   UNL     1      -3.214  -0.476   0.296  0.00  0.00    +0.017 C 
ATOM      2  C   UNL     1      -1.727  -0.512   0.726  0.00  0.00    +0.006 C 
ATOM      3  C   UNL     1      -0.800   0.361  -0.180  0.00  0.00    +0.004 C 
ATOM      4  C   UNL     1      -1.410   1.759  -0.550  0.00  0.00    +0.018 C 
ATOM      5  C   UNL     1       0.642   0.659   0.402  0.00  0.00    +0.003 C 
ATOM      6  C   UNL     1      -3.203  -1.390  -0.964  0.00  0.00    +0.030 C 
ATOM      7  C   UNL     1      -3.693   0.935   0.094  0.00  0.00    -0.049 C 
ATOM      8  C   UNL     1      -1.394  -2.005   0.600  0.00  0.00    +0.030 C 
ATOM      9  C   UNL     1      -4.165  -0.951   1.415  0.00  0.00    +0.004 C 
ATOM     10  C   UNL     1      -0.584   2.743   0.291  0.00  0.00    +0.004 C 
ATOM     11  C   UNL     1      -2.204  -2.516  -0.599  0.00  0.00    +0.111 C 
ATOM     12  C   UNL     1       0.827   2.183   0.238  0.00  0.00    +0.000 C 
ATOM     13  C   UNL     1      -2.878   1.938  -0.258  0.00  0.00    -0.035 C 
ATOM     14  C   UNL     1      -5.100   1.136   0.606  0.00  0.00    +0.018 C 
ATOM     15  C   UNL     1      -5.492  -0.243   1.140  0.00  0.00    +0.004 C 
ATOM     16  C   UNL     1      -1.212   2.045  -2.055  0.00  0.00    +0.004 C 
ATOM     17  C   UNL     1       0.840   0.303   1.887  0.00  0.00    +0.000 C 
ATOM     18  C   UNL     1      -4.535  -1.887  -1.508  0.00  0.00    +0.003 C 
ATOM     19  C   UNL     1      -6.084   1.665  -0.428  0.00  0.00    +0.004 C 
ENDROOT
BRANCH  11  20
ATOM     20  O   UNL     1      -2.837  -3.733  -0.232  0.00  0.00    -0.384 OA
ATOM     21  H   UNL     1      -3.353  -4.068  -0.982  0.00  0.00    +0.210 HD
ENDBRANCH  11  20
BRANCH   5  22
ATOM     22  C   UNL     1       1.722  -0.077  -0.411  0.00  0.00    +0.032 C 
BRANCH  22  23
ATOM     23  C   UNL     1       3.151   0.181   0.080  0.00  0.00    +0.140 C 
BRANCH  23  24
ATOM     24  O   UNL     1       3.569   1.477  -0.337  0.00  0.00    -0.382 OA
ATOM     25  H   UNL     1       2.920   2.136  -0.044  0.00  0.00    +0.210 HD
ENDBRANCH  23  24
BRANCH  23  26
ATOM     26  C   UNL     1       4.179  -0.876  -0.381  0.00  0.00    +0.164 C 
BRANCH  26  27
ATOM     27  O   UNL     1       4.013  -2.061   0.398  0.00  0.00    -0.380 OA
ATOM     28  H   UNL     1       3.082  -2.334   0.378  0.00  0.00    +0.211 HD
ENDBRANCH  26  27
BRANCH  26  29
ATOM     29  C   UNL     1       5.671  -0.429  -0.355  0.00  0.00    +0.142 C 
ATOM     30  C   UNL     1       6.636  -1.524  -0.828  0.00  0.00    +0.034 C 
BRANCH  29  31
ATOM     31  O   UNL     1       5.844   0.683  -1.241  0.00  0.00    -0.382 OA
ATOM     32  H   UNL     1       5.249   1.402  -0.976  0.00  0.00    +0.210 HD
ENDBRANCH  29  31
BRANCH  29  33
ATOM     33  C   UNL     1       6.056   0.046   1.062  0.00  0.00    +0.166 C 
BRANCH  33  34
ATOM     34  O   UNL     1       7.382   0.564   1.094  0.00  0.00    -0.379 OA
ATOM     35  H   UNL     1       7.594   0.854   1.995  0.00  0.00    +0.211 HD
ENDBRANCH  33  34
ENDBRANCH  29  33
ENDBRANCH  26  29
ENDBRANCH  23  26
ENDBRANCH  22  23
ENDBRANCH   5  22
TORSDOF 10
