REMARK  Name = 101000962
REMARK  8 active torsions:
REMARK  status: ('A' for Active; 'I' for Inactive)
REMARK    1  A    between atoms: C_6  and  C_27
REMARK    2  A    between atoms: C_8  and  O_22
REMARK    3  A    between atoms: C_11  and  O_24
REMARK    4  A    between atoms: C_21  and  O_33
REMARK    5  A    between atoms: C_21  and  C_35
REMARK    6  A    between atoms: C_27  and  C_28
REMARK    7  A    between atoms: C_29  and  C_30
REMARK    8  A    between atoms: C_36  and  C_37
REMARK                            x       y       z     vdW  Elec       q    Type
REMARK                         _______ _______ _______ _____ _____    ______ ____
ROOT
ATOM      1  O   UNL     1      -0.982   1.049   1.884  0.00  0.00    -0.453 OA
ATOM      2  O   UNL     1       1.744  -1.066  -2.714  0.00  0.00    -0.293 OA
ATOM      3  O   UNL     1      -1.365   1.684  -2.401  0.00  0.00    -0.291 OA
ATOM      4  O   UNL     1      -2.693   2.567   1.861  0.00  0.00    -0.250 OA
ATOM      5  C   UNL     1       0.653  -0.283   0.595  0.00  0.00    +0.060 C 
ATOM      6  C   UNL     1       1.409   0.211  -0.663  0.00  0.00    +0.121 C 
ATOM      7  C   UNL     1       0.606   1.524  -0.952  0.00  0.00    +0.094 C 
ATOM      8  C   UNL     1       0.569   2.185   0.472  0.00  0.00    +0.139 C 
ATOM      9  C   UNL     1       0.384   0.991   1.440  0.00  0.00    +0.160 C 
ATOM     10  C   UNL     1      -0.573  -0.991  -0.058  0.00  0.00    +0.064 C 
ATOM     11  C   UNL     1       0.100  -1.892  -1.123  0.00  0.00    +0.143 C 
ATOM     12  C   UNL     1       1.156  -0.933  -1.648  0.00  0.00    +0.181 C 
ATOM     13  C   UNL     1      -0.526   3.151   0.927  0.00  0.00    +0.127 C 
ATOM     14  C   UNL     1      -0.813   1.131  -1.453  0.00  0.00    +0.174 C 
ATOM     15  C   UNL     1      -1.492   0.010  -0.721  0.00  0.00    +0.049 C 
ATOM     16  C   UNL     1       1.282   2.389  -2.025  0.00  0.00    +0.011 C 
ATOM     17  C   UNL     1       1.254   1.030   2.700  0.00  0.00    +0.046 C 
ATOM     18  C   UNL     1      -1.543   2.260   1.589  0.00  0.00    +0.319 C 
ATOM     19  C   UNL     1      -0.808  -2.417  -2.228  0.00  0.00    +0.037 C 
ATOM     20  C   UNL     1      -1.118   4.086  -0.109  0.00  0.00    +0.014 C 
ATOM     21  C   UNL     1      -2.829  -0.034  -0.678  0.00  0.00    +0.132 C 
ENDROOT
BRANCH   8  22
ATOM     22  O   UNL     1       1.789   2.899   0.711  0.00  0.00    -0.382 OA
ATOM     23  H   UNL     1       2.543   2.349   0.445  0.00  0.00    +0.210 HD
ENDBRANCH   8  22
BRANCH  11  24
ATOM     24  O   UNL     1       0.741  -3.017  -0.543  0.00  0.00    -0.379 OA
ATOM     25  H   UNL     1       1.331  -2.722   0.168  0.00  0.00    +0.211 HD
ENDBRANCH  11  24
BRANCH   6  27
ATOM     26  O   UNL     1       3.491   1.379  -0.687  0.00  0.00    -0.291 OA
ATOM     27  C   UNL     1       2.891   0.339  -0.423  0.00  0.00    +0.180 C 
BRANCH  27  28
ATOM     28  C   UNL     1       3.586  -0.863   0.117  0.00  0.00    +0.038 C 
ATOM     29  C   UNL     1       4.903  -0.837   0.361  0.00  0.00    +0.003 C 
BRANCH  29  30
ATOM     30  C   UNL     1       5.622  -1.978   0.883  0.00  0.00    -0.004 C 
ATOM     31  C   UNL     1       6.940  -1.963   1.131  0.00  0.00    -0.026 C 
ATOM     32  C   UNL     1       7.694  -3.134   1.670  0.00  0.00    +0.031 C 
ENDBRANCH  29  30
ENDBRANCH  27  28
ENDBRANCH   6  27
BRANCH  21  33
ATOM     33  O   UNL     1      -3.610   0.928  -1.293  0.00  0.00    -0.506 OA
ATOM     34  H   UNL     1      -3.205   1.635  -1.755  0.00  0.00    +0.292 HD
ENDBRANCH  21  33
BRANCH  21  35
ATOM     35  C   UNL     1      -3.553  -1.087   0.011  0.00  0.00    +0.036 C 
ATOM     36  C   UNL     1      -4.889  -1.191   0.092  0.00  0.00    +0.003 C 
BRANCH  36  37
ATOM     37  C   UNL     1      -5.553  -2.267   0.795  0.00  0.00    -0.004 C 
ATOM     38  C   UNL     1      -6.886  -2.377   0.880  0.00  0.00    -0.026 C 
ATOM     39  C   UNL     1      -7.583  -3.483   1.602  0.00  0.00    +0.031 C 
ENDBRANCH  36  37
ENDBRANCH  21  35
TORSDOF 8
