REMARK  Name = 101027374
REMARK  2 active torsions:
REMARK  status: ('A' for Active; 'I' for Inactive)
REMARK    1  A    between atoms: C_16  and  C_36
REMARK    2  A    between atoms: C_36  and  C_37
REMARK                            x       y       z     vdW  Elec       q    Type
REMARK                         _______ _______ _______ _____ _____    ______ ____
ROOT
ATOM      1  O   UNL     1       0.230   0.334   1.266  0.00  0.00    -0.336 OA
ATOM      2  O   UNL     1      -5.114   1.282  -0.747  0.00  0.00    -0.277 OA
ATOM      3  O   UNL     1      -0.191  -3.145  -1.103  0.00  0.00    -0.273 OA
ATOM      4  O   UNL     1       3.516  -0.746  -2.612  0.00  0.00    -0.269 OA
ATOM      5  N   UNL     1      -2.885   1.042  -0.043  0.00  0.00    -0.279 N 
ATOM      6  N   UNL     1      -2.531  -1.128  -0.499  0.00  0.00    +0.405 N 
ATOM      7  N   UNL     1       2.318  -0.819  -0.609  0.00  0.00    -0.224 N 
ATOM      8  N   UNL     1       0.407  -2.052   0.846  0.00  0.00    -0.278 N 
ATOM      9  N   UNL     1       3.405  -0.383   1.462  0.00  0.00    -0.391 NA
ATOM     10  C   UNL     1      -0.543   0.542   0.091  0.00  0.00    +0.116 C 
ATOM     11  C   UNL     1      -1.986  -0.030   0.289  0.00  0.00    +0.053 C 
ATOM     12  C   UNL     1       0.144   0.192  -1.249  0.00  0.00    +0.061 C 
ATOM     13  C   UNL     1      -0.877   2.043   0.097  0.00  0.00    +0.015 C 
ATOM     14  C   UNL     1       1.022  -1.063  -1.258  0.00  0.00    +0.161 C 
ATOM     15  C   UNL     1       0.985  -0.858   1.445  0.00  0.00    +0.213 C 
ATOM     16  C   UNL     1      -3.994  -0.885  -0.579  0.00  0.00    +0.020 C 
ATOM     17  C   UNL     1      -2.253   2.266  -0.025  0.00  0.00    +0.050 C 
ATOM     18  C   UNL     1      -4.123   0.628  -0.469  0.00  0.00    +0.208 C 
ATOM     19  C   UNL     1       2.343  -0.670   0.778  0.00  0.00    +0.209 C 
ATOM     20  C   UNL     1       0.381  -2.224  -0.528  0.00  0.00    +0.243 C 
ATOM     21  C   UNL     1      -0.002   3.118   0.141  0.00  0.00    -0.001 C 
ATOM     22  C   UNL     1       1.123  -1.058   2.954  0.00  0.00    +0.060 C 
ATOM     23  C   UNL     1      -2.792   3.531  -0.156  0.00  0.00    +0.015 C 
ATOM     24  C   UNL     1       3.468  -0.665  -1.389  0.00  0.00    +0.257 C 
ATOM     25  C   UNL     1      -0.528   4.409   0.042  0.00  0.00    -0.000 C 
ATOM     26  C   UNL     1      -1.911   4.613  -0.112  0.00  0.00    +0.001 C 
ATOM     27  C   UNL     1       4.698  -0.364  -0.624  0.00  0.00    +0.080 C 
ATOM     28  C   UNL     1       4.613  -0.232   0.766  0.00  0.00    +0.119 C 
ATOM     29  C   UNL     1       5.922  -0.208  -1.285  0.00  0.00    +0.006 C 
ATOM     30  C   UNL     1       5.776   0.060   1.489  0.00  0.00    +0.085 C 
ATOM     31  C   UNL     1       7.071   0.082  -0.551  0.00  0.00    -0.004 C 
ATOM     32  C   UNL     1       6.999   0.216   0.834  0.00  0.00    -0.019 C 
ATOM     33  H   UNL     1      -2.344  -2.021  -0.042  0.00  0.00    -0.081 HD
ATOM     34  H   UNL     1      -2.108  -1.170  -1.426  0.00  0.00    -0.081 HD
ATOM     35  H   UNL     1       0.028  -2.750   1.428  0.00  0.00    +0.152 HD
ENDROOT
BRANCH  16  36
ATOM     36  C   UNL     1      -4.765  -1.583   0.532  0.00  0.00    -0.012 C 
BRANCH  36  37
ATOM     37  C   UNL     1      -6.286  -1.617   0.301  0.00  0.00    -0.002 C 
ATOM     38  C   UNL     1      -6.662  -2.348  -0.988  0.00  0.00    -0.000 C 
ATOM     39  C   UNL     1      -6.979  -2.280   1.493  0.00  0.00    -0.000 C 
ENDBRANCH  36  37
ENDBRANCH  16  36
TORSDOF 2
