REMARK  Name = 101079053
REMARK  11 active torsions:
REMARK  status: ('A' for Active; 'I' for Inactive)
REMARK    1  A    between atoms: C_2  and  O_13
REMARK    2  A    between atoms: C_4  and  C_16
REMARK    3  A    between atoms: C_7  and  C_34
REMARK    4  A    between atoms: C_16  and  C_20
REMARK    5  A    between atoms: C_21  and  C_25
REMARK    6  A    between atoms: C_25  and  C_26
REMARK    7  A    between atoms: C_25  and  C_28
REMARK    8  A    between atoms: C_28  and  C_29
REMARK    9  A    between atoms: C_29  and  C_30
REMARK   10  A    between atoms: C_30  and  C_31
REMARK   11  A    between atoms: C_34  and  O_35
REMARK                            x       y       z     vdW  Elec       q    Type
REMARK                         _______ _______ _______ _____ _____    ______ ____
ROOT
ATOM      1  C   UNL     1      -1.457   1.433   0.294  0.00  0.00    +0.036 C 
ATOM      2  C   UNL     1      -2.270   0.857  -0.902  0.00  0.00    +0.107 C 
ATOM      3  C   UNL     1      -1.208   0.337   1.367  0.00  0.00    +0.004 C 
ATOM      4  C   UNL     1      -0.196   2.193  -0.184  0.00  0.00    +0.069 C 
ATOM      5  C   UNL     1      -3.625   0.338  -0.386  0.00  0.00    +0.042 C 
ATOM      6  C   UNL     1      -2.560  -0.228   1.850  0.00  0.00    +0.011 C 
ATOM      7  C   UNL     1      -3.440  -0.726   0.703  0.00  0.00    +0.102 C 
ATOM      8  C   UNL     1      -0.553   3.325  -1.183  0.00  0.00    +0.029 C 
ATOM      9  C   UNL     1      -2.447   1.875  -1.997  0.00  0.00    -0.005 C 
ATOM     10  C   UNL     1      -1.689   2.974  -2.113  0.00  0.00    -0.028 C 
ATOM     11  C   UNL     1      -0.423   0.852   2.577  0.00  0.00    +0.000 C 
ATOM     12  C   UNL     1      -0.899   4.620  -0.441  0.00  0.00    +0.005 C 
ENDROOT
BRANCH   2  13
ATOM     13  O   UNL     1      -1.571  -0.255  -1.476  0.00  0.00    -0.383 OA
ATOM     14  H   UNL     1      -1.436  -0.937  -0.800  0.00  0.00    +0.211 HD
ENDBRANCH   2  13
BRANCH   4  16
ATOM     15  O   UNL     1       0.584   0.595  -1.788  0.00  0.00    -0.291 OA
ATOM     16  C   UNL     1       0.827   1.272  -0.791  0.00  0.00    +0.177 C 
BRANCH  16  20
ATOM     17  O   UNL     1       2.877   3.469  -0.318  0.00  0.00    -0.270 OA
ATOM     18  O   UNL     1       4.812  -0.288   1.460  0.00  0.00    -0.270 OA
ATOM     19  N   UNL     1       4.173   1.809   0.678  0.00  0.00    -0.248 N 
ATOM     20  C   UNL     1       2.150   1.193  -0.144  0.00  0.00    +0.089 C 
ATOM     21  C   UNL     1       2.708   0.090   0.372  0.00  0.00    +0.042 C 
ATOM     22  C   UNL     1       3.082   2.322   0.042  0.00  0.00    +0.254 C 
ATOM     23  C   UNL     1       4.031   0.473   0.915  0.00  0.00    +0.248 C 
ATOM     24  H   UNL     1       4.964   2.337   0.934  0.00  0.00    +0.158 HD
BRANCH  21  25
ATOM     25  C   UNL     1       2.220  -1.309   0.459  0.00  0.00    +0.049 C 
BRANCH  25  26
ATOM     26  C   UNL     1       2.104  -1.755   1.901  0.00  0.00    -0.022 C 
ATOM     27  C   UNL     1       1.197  -2.633   2.348  0.00  0.00    -0.005 C 
ENDBRANCH  25  26
BRANCH  25  28
ATOM     28  C   UNL     1       3.150  -2.250  -0.344  0.00  0.00    +0.009 C 
BRANCH  28  29
ATOM     29  C   UNL     1       2.518  -3.613  -0.659  0.00  0.00    +0.001 C 
BRANCH  29  30
ATOM     30  C   UNL     1       1.271  -3.513  -1.544  0.00  0.00    +0.000 C 
BRANCH  30  31
ATOM     31  C   UNL     1       0.627  -4.867  -1.841  0.00  0.00    +0.000 C 
ATOM     32  C   UNL     1      -0.561  -4.722  -2.780  0.00  0.00    +0.000 C 
ENDBRANCH  30  31
ENDBRANCH  29  30
ENDBRANCH  28  29
ENDBRANCH  25  28
ENDBRANCH  21  25
ENDBRANCH  16  20
ENDBRANCH   4  16
BRANCH   7  34
ATOM     33  O   UNL     1      -5.343  -0.604   2.188  0.00  0.00    -0.250 OA
ATOM     34  C   UNL     1      -4.785  -1.122   1.232  0.00  0.00    +0.313 C 
BRANCH  34  35
ATOM     35  O   UNL     1      -5.304  -2.142   0.506  0.00  0.00    -0.480 OA
ATOM     36  H   UNL     1      -4.823  -2.495  -0.217  0.00  0.00    +0.295 HD
ENDBRANCH  34  35
ENDBRANCH   7  34
TORSDOF 11
