REMARK  Name = 101019049
REMARK  7 active torsions:
REMARK  status: ('A' for Active; 'I' for Inactive)
REMARK    1  A    between atoms: C_3  and  C_17
REMARK    2  A    between atoms: C_3  and  O_23
REMARK    3  A    between atoms: C_10  and  O_25
REMARK    4  A    between atoms: C_11  and  O_27
REMARK    5  A    between atoms: C_13  and  O_31
REMARK    6  A    between atoms: C_14  and  O_29
REMARK    7  A    between atoms: C_17  and  C_21
REMARK                            x       y       z     vdW  Elec       q    Type
REMARK                         _______ _______ _______ _____ _____    ______ ____
ROOT
ATOM      1  O   UNL     1      -1.579   1.933  -1.488  0.00  0.00    -0.288 OA
ATOM      2  O   UNL     1      -2.171  -2.593  -0.912  0.00  0.00    -0.288 OA
ATOM      3  C   UNL     1      -2.114  -0.220  -0.575  0.00  0.00    +0.204 C 
ATOM      4  C   UNL     1      -1.172   0.910  -0.944  0.00  0.00    +0.207 C 
ATOM      5  C   UNL     1      -1.501  -1.606  -0.624  0.00  0.00    +0.207 C 
ATOM      6  C   UNL     1       0.745  -0.557  -0.292  0.00  0.00    +0.014 A 
ATOM      7  C   UNL     1       0.258   0.730  -0.607  0.00  0.00    +0.075 A 
ATOM      8  C   UNL     1      -0.061  -1.716  -0.296  0.00  0.00    +0.071 C 
ATOM      9  C   UNL     1       2.119  -0.697   0.023  0.00  0.00    +0.033 A 
ATOM     10  C   UNL     1       1.103   1.845  -0.614  0.00  0.00    +0.174 A 
ATOM     11  C   UNL     1       0.473  -2.974  -0.001  0.00  0.00    +0.136 C 
ATOM     12  C   UNL     1       2.639  -1.965   0.327  0.00  0.00    -0.016 C 
ATOM     13  C   UNL     1       2.952   0.433   0.021  0.00  0.00    +0.170 A 
ATOM     14  C   UNL     1       2.448   1.693  -0.296  0.00  0.00    +0.206 A 
ATOM     15  C   UNL     1       1.822  -3.094   0.313  0.00  0.00    +0.033 C 
ATOM     16  C   UNL     1       4.072  -2.224   0.678  0.00  0.00    +0.031 C 
ENDROOT
BRANCH   3  17
ATOM     17  C   UNL     1      -2.670   0.041   0.826  0.00  0.00    +0.087 C 
ATOM     18  C   UNL     1      -3.718  -1.022   1.189  0.00  0.00    +0.011 C 
ATOM     19  C   UNL     1      -1.522  -0.040   1.849  0.00  0.00    +0.011 C 
BRANCH  17  21
ATOM     20  O   UNL     1      -4.223   1.775   0.126  0.00  0.00    -0.296 OA
ATOM     21  C   UNL     1      -3.291   1.452   0.866  0.00  0.00    +0.153 C 
ATOM     22  C   UNL     1      -2.748   2.449   1.862  0.00  0.00    +0.072 C 
ENDBRANCH  17  21
ENDBRANCH   3  17
BRANCH   3  23
ATOM     23  O   UNL     1      -3.181  -0.186  -1.510  0.00  0.00    -0.373 OA
ATOM     24  H   UNL     1      -3.592   0.693  -1.500  0.00  0.00    +0.211 HD
ENDBRANCH   3  23
BRANCH  10  25
ATOM     25  O   UNL     1       0.649   3.099  -0.901  0.00  0.00    -0.503 OA
ATOM     26  H   UNL     1      -0.252   3.233  -1.119  0.00  0.00    +0.292 HD
ENDBRANCH  10  25
BRANCH  11  27
ATOM     27  O   UNL     1      -0.279  -4.111   0.018  0.00  0.00    -0.505 OA
ATOM     28  H   UNL     1      -1.193  -4.071  -0.188  0.00  0.00    +0.292 HD
ENDBRANCH  11  27
BRANCH  14  29
ATOM     29  O   UNL     1       3.272   2.781  -0.293  0.00  0.00    -0.465 OA
ATOM     30  C   UNL     1       3.393   3.496   0.934  0.00  0.00    +0.253 C 
ENDBRANCH  14  29
BRANCH  13  31
ATOM     31  O   UNL     1       4.285   0.368   0.321  0.00  0.00    -0.503 OA
ATOM     32  H   UNL     1       4.676  -0.454   0.542  0.00  0.00    +0.292 HD
ENDBRANCH  13  31
TORSDOF 7
