101021219
  -OEChem-03292013293D

 59 59  0     1  0  0  0  0  0999 V2000
   -1.2669    1.6053    1.9812 O   0  0  0  0  0  0  0  0  0  0  0  0
   -3.0681    2.4597    0.3205 O   0  0  0  0  0  0  0  0  0  0  0  0
    2.7721   -1.7914   -2.1997 O   0  0  0  0  0  0  0  0  0  0  0  0
    3.4833   -3.6087   -1.0486 O   0  0  0  0  0  0  0  0  0  0  0  0
   -4.1205    0.0801    1.5409 O   0  0  0  0  0  0  0  0  0  0  0  0
    5.3032    0.8633    0.7135 O   0  0  0  0  0  0  0  0  0  0  0  0
   -2.9961   -1.7794    0.7738 O   0  0  0  0  0  0  0  0  0  0  0  0
   -0.2635    0.1691    0.4614 N   0  0  0  0  0  0  0  0  0  0  0  0
    3.5100   -0.0615   -0.4325 N   0  0  0  0  0  0  0  0  0  0  0  0
    4.2003    3.3678    0.3718 N   0  0  0  0  0  0  0  0  0  0  0  0
    1.4704   -1.6010    1.1114 C   0  0  2  0  0  0  0  0  0  0  0  0
    0.8019   -0.2656    1.3181 C   0  0  2  0  0  0  0  0  0  0  0  0
    0.5972   -1.3780    2.3137 C   0  0  0  0  0  0  0  0  0  0  0  0
    2.9456   -1.7327    1.2705 C   0  0  0  0  0  0  0  0  0  0  0  0
    3.7203   -1.4269   -0.0193 C   0  0  1  0  0  0  0  0  0  0  0  0
   -1.2229    1.0811    0.8692 C   0  0  0  0  0  0  0  0  0  0  0  0
   -2.2448    1.4224   -0.2073 C   0  0  1  0  0  0  0  0  0  0  0  0
   -3.1369    0.2271   -0.6092 C   0  0  2  0  0  0  0  0  0  0  0  0
    3.3260   -2.3957   -1.1216 C   0  0  0  0  0  0  0  0  0  0  0  0
   -4.4719    0.6312   -1.2980 C   0  0  2  0  0  0  0  0  0  0  0  0
    4.3293    0.9851   -0.0268 C   0  0  0  0  0  0  0  0  0  0  0  0
   -5.3408   -0.5794   -1.7089 C   0  0  0  0  0  0  0  0  0  0  0  0
   -3.3921   -0.6296    0.6299 C   0  0  0  0  0  0  0  0  0  0  0  0
   -4.2780    1.5438   -2.5173 C   0  0  0  0  0  0  0  0  0  0  0  0
    3.8749    2.3233   -0.5959 C   0  0  2  0  0  0  0  0  0  0  0  0
   -4.6753   -1.4976   -2.7247 C   0  0  0  0  0  0  0  0  0  0  0  0
    4.5729    2.5975   -1.9222 C   0  0  0  0  0  0  0  0  0  0  0  0
   -4.4295   -0.6092    2.7563 C   0  0  0  0  0  0  0  0  0  0  0  0
    1.0700   -2.2684    0.3565 H   0  0  0  0  0  0  0  0  0  0  0  0
    1.4305    0.5601    1.6379 H   0  0  0  0  0  0  0  0  0  0  0  0
   -0.3641   -1.8775    2.3366 H   0  0  0  0  0  0  0  0  0  0  0  0
    1.0664   -1.2747    3.2846 H   0  0  0  0  0  0  0  0  0  0  0  0
    3.1647   -2.7593    1.5899 H   0  0  0  0  0  0  0  0  0  0  0  0
    3.3051   -1.0747    2.0723 H   0  0  0  0  0  0  0  0  0  0  0  0
   -0.2891   -0.1997   -0.4853 H   0  0  0  0  0  0  0  0  0  0  0  0
    4.7938   -1.5663    0.1558 H   0  0  0  0  0  0  0  0  0  0  0  0
   -1.7241    1.8194   -1.0861 H   0  0  0  0  0  0  0  0  0  0  0  0
    2.7204    0.1358   -1.0409 H   0  0  0  0  0  0  0  0  0  0  0  0
   -2.5475   -0.3984   -1.2914 H   0  0  0  0  0  0  0  0  0  0  0  0
   -5.0806    1.1962   -0.5787 H   0  0  0  0  0  0  0  0  0  0  0  0
   -5.6073   -1.1655   -0.8216 H   0  0  0  0  0  0  0  0  0  0  0  0
   -6.2892   -0.2198   -2.1277 H   0  0  0  0  0  0  0  0  0  0  0  0
   -3.5685    1.1152   -3.2322 H   0  0  0  0  0  0  0  0  0  0  0  0
   -3.8896    2.5223   -2.2181 H   0  0  0  0  0  0  0  0  0  0  0  0
   -5.2262    1.7206   -3.0361 H   0  0  0  0  0  0  0  0  0  0  0  0
   -2.5080    3.2463    0.4364 H   0  0  0  0  0  0  0  0  0  0  0  0
    2.5219   -2.4374   -2.8942 H   0  0  0  0  0  0  0  0  0  0  0  0
    2.7895    2.3143   -0.7477 H   0  0  0  0  0  0  0  0  0  0  0  0
   -4.4283   -0.9738   -3.6520 H   0  0  0  0  0  0  0  0  0  0  0  0
   -5.3597   -2.3125   -2.9845 H   0  0  0  0  0  0  0  0  0  0  0  0
   -3.7657   -1.9555   -2.3271 H   0  0  0  0  0  0  0  0  0  0  0  0
    5.6630    2.6110   -1.8076 H   0  0  0  0  0  0  0  0  0  0  0  0
    4.2610    3.5599   -2.3421 H   0  0  0  0  0  0  0  0  0  0  0  0
    4.3329    1.8179   -2.6536 H   0  0  0  0  0  0  0  0  0  0  0  0
    3.6615    3.2229    1.2251 H   0  0  0  0  0  0  0  0  0  0  0  0
    3.9140    4.2752    0.0061 H   0  0  0  0  0  0  0  0  0  0  0  0
   -3.5087   -0.8833    3.2800 H   0  0  0  0  0  0  0  0  0  0  0  0
   -5.0340   -1.4963    2.5450 H   0  0  0  0  0  0  0  0  0  0  0  0
   -5.0073    0.0663    3.3925 H   0  0  0  0  0  0  0  0  0  0  0  0
  1 16  2  0  0  0  0
  2 17  1  0  0  0  0
  2 46  1  0  0  0  0
  3 19  1  0  0  0  0
  3 47  1  0  0  0  0
  4 19  2  0  0  0  0
  5 23  1  0  0  0  0
  5 28  1  0  0  0  0
  6 21  2  0  0  0  0
  7 23  2  0  0  0  0
  8 12  1  0  0  0  0
  8 16  1  0  0  0  0
  8 35  1  0  0  0  0
  9 15  1  0  0  0  0
  9 21  1  0  0  0  0
  9 38  1  0  0  0  0
 10 25  1  0  0  0  0
 10 55  1  0  0  0  0
 10 56  1  0  0  0  0
 11 12  1  0  0  0  0
 11 13  1  0  0  0  0
 11 14  1  0  0  0  0
 11 29  1  0  0  0  0
 12 13  1  0  0  0  0
 12 30  1  0  0  0  0
 13 31  1  0  0  0  0
 13 32  1  0  0  0  0
 14 15  1  0  0  0  0
 14 33  1  0  0  0  0
 14 34  1  0  0  0  0
 15 19  1  0  0  0  0
 15 36  1  0  0  0  0
 16 17  1  0  0  0  0
 17 18  1  0  0  0  0
 17 37  1  0  0  0  0
 18 20  1  0  0  0  0
 18 23  1  0  0  0  0
 18 39  1  0  0  0  0
 20 22  1  0  0  0  0
 20 24  1  0  0  0  0
 20 40  1  0  0  0  0
 21 25  1  0  0  0  0
 22 26  1  0  0  0  0
 22 41  1  0  0  0  0
 22 42  1  0  0  0  0
 24 43  1  0  0  0  0
 24 44  1  0  0  0  0
 24 45  1  0  0  0  0
 25 27  1  0  0  0  0
 25 48  1  0  0  0  0
 26 49  1  0  0  0  0
 26 50  1  0  0  0  0
 26 51  1  0  0  0  0
 27 52  1  0  0  0  0
 27 53  1  0  0  0  0
 27 54  1  0  0  0  0
 28 57  1  0  0  0  0
 28 58  1  0  0  0  0
 28 59  1  0  0  0  0
M  END
> <PUBCHEM_COMPOUND_CID>
101021219

> <PUBCHEM_CONFORMER_RMSD>
1.2

> <PUBCHEM_CONFORMER_DIVERSEORDER>
1
11
32
31
16
52
45
40
58
29
50
23
13
33
6
30
17
19
39
28
26
48
24
53
47
22
15
18
20
57
51
42
9
25
37
43
5
35
56
49
36
10
4
34
14
8
2
55
27
21
38
41
54
46
7
3
12
44

> <PUBCHEM_MMFF94_PARTIAL_CHARGES>
33
1 -0.57
10 -0.99
11 -0.19
12 0.05
13 -0.2
14 0.09
15 0.36
16 0.57
17 0.34
18 0.06
19 0.66
2 -0.68
21 0.57
23 0.66
25 0.33
28 0.28
29 0.1
3 -0.65
30 0.1
31 0.1
32 0.1
35 0.37
38 0.37
4 -0.57
46 0.4
47 0.5
5 -0.43
55 0.36
56 0.36
6 -0.57
7 -0.57
8 -0.58
9 -0.73

> <PUBCHEM_EFFECTIVE_ROTOR_COUNT>
14.6

> <PUBCHEM_PHARMACOPHORE_FEATURES>
14
1 1 acceptor
1 10 cation
1 10 donor
1 2 acceptor
1 2 donor
1 24 hydrophobe
1 26 hydrophobe
1 3 acceptor
1 4 acceptor
1 6 acceptor
1 7 acceptor
1 8 donor
1 9 donor
3 3 4 19 anion

> <PUBCHEM_HEAVY_ATOM_COUNT>
28

> <PUBCHEM_ATOM_DEF_STEREO_COUNT>
7

> <PUBCHEM_ATOM_UDEF_STEREO_COUNT>
0

> <PUBCHEM_BOND_DEF_STEREO_COUNT>
0

> <PUBCHEM_BOND_UDEF_STEREO_COUNT>
0

> <PUBCHEM_ISOTOPIC_ATOM_COUNT>
0

> <PUBCHEM_COMPONENT_COUNT>
1

> <PUBCHEM_CACTVS_TAUTO_COUNT>
8

> <PUBCHEM_CONFORMER_ID>
0605762300000001

> <PUBCHEM_MMFF94_ENERGY>
43.6484

> <PUBCHEM_FEATURE_SELFOVERLAP>
71.121

> <PUBCHEM_SHAPE_FINGERPRINT>
10928967 22 16056875806138907543
12403259 415 17530693121049839088
12616971 3 18200881677348394130
13383661 66 16542975738372497143
13899415 180 17906176157848355030
14251757 5 17986377000741062343
14251764 30 14045753650619704132
14251764 38 17821726139398393388
15463212 79 15357967946552210593
15799311 1 17346604075455379503
1813 80 15267061475485943512
21033648 29 16009297812697763024
21860390 5 18335422323329577412
22182313 1 17822301201180012633
22393880 68 17676770877035780083
23559900 14 18337105675289057922
238 59 18270414879448169640
341906 21 15502378941203975620
508706 21 17313376786513497941
633830 44 18262810553128251769

> <PUBCHEM_SHAPE_MULTIPOLES>
520.2
12.89
3.26
2.63
1.25
0.89
0.67
3.55
5
-4.49
0.63
2.72
-0.89
1.55

> <PUBCHEM_SHAPE_SELFOVERLAP>
1033.318

> <PUBCHEM_SHAPE_VOLUME>
306.8

> <PUBCHEM_COORDINATE_TYPE>
2
5
10

$$$$
