REMARK  Name = 101073206
REMARK  9 active torsions:
REMARK  status: ('A' for Active; 'I' for Inactive)
REMARK    1  A    between atoms: C_3  and  O_21
REMARK    2  A    between atoms: C_3  and  C_28
REMARK    3  A    between atoms: C_4  and  O_32
REMARK    4  A    between atoms: C_9  and  O_23
REMARK    5  A    between atoms: C_10  and  O_25
REMARK    6  A    between atoms: C_28  and  C_29
REMARK    7  A    between atoms: C_29  and  O_30
REMARK    8  A    between atoms: O_32  and  C_34
REMARK    9  A    between atoms: C_36  and  N_40
REMARK                            x       y       z     vdW  Elec       q    Type
REMARK                         _______ _______ _______ _____ _____    ______ ____
ROOT
ATOM      1  O   UNL     1      -2.643  -2.644   0.525  0.00  0.00    -0.286 OA
ATOM      2  O   UNL     1      -4.430   2.284  -0.505  0.00  0.00    -0.286 OA
ATOM      3  C   UNL     1       2.101   2.618   0.008  0.00  0.00    +0.148 C 
ATOM      4  C   UNL     1       1.632   0.200   0.614  0.00  0.00    +0.145 C 
ATOM      5  C   UNL     1       2.442   1.457   0.945  0.00  0.00    +0.069 C 
ATOM      6  C   UNL     1       0.613   2.974   0.089  0.00  0.00    +0.063 C 
ATOM      7  C   UNL     1       0.163   0.480   0.396  0.00  0.00    +0.038 A 
ATOM      8  C   UNL     1      -0.306   1.774   0.114  0.00  0.00    +0.016 A 
ATOM      9  C   UNL     1      -0.750  -0.588   0.447  0.00  0.00    +0.135 A 
ATOM     10  C   UNL     1      -1.681   1.980  -0.094  0.00  0.00    +0.133 A 
ATOM     11  C   UNL     1      -2.116  -0.374   0.230  0.00  0.00    +0.078 A 
ATOM     12  C   UNL     1      -2.582   0.910  -0.041  0.00  0.00    +0.078 A 
ATOM     13  C   UNL     1      -3.053  -1.514   0.289  0.00  0.00    +0.199 C 
ATOM     14  C   UNL     1      -4.021   1.155  -0.269  0.00  0.00    +0.199 C 
ATOM     15  C   UNL     1      -4.492  -1.272   0.062  0.00  0.00    +0.042 C 
ATOM     16  C   UNL     1      -4.959   0.016  -0.208  0.00  0.00    +0.042 C 
ATOM     17  C   UNL     1      -5.391  -2.344   0.117  0.00  0.00    +0.003 C 
ATOM     18  C   UNL     1      -6.325   0.232  -0.422  0.00  0.00    +0.003 C 
ATOM     19  C   UNL     1      -6.752  -2.124  -0.097  0.00  0.00    +0.000 C 
ATOM     20  C   UNL     1      -7.218  -0.838  -0.366  0.00  0.00    +0.000 C 
ENDROOT
BRANCH   3  21
ATOM     21  O   UNL     1       2.464   2.290  -1.328  0.00  0.00    -0.379 OA
ATOM     22  H   UNL     1       1.947   1.525  -1.625  0.00  0.00    +0.211 HD
ENDBRANCH   3  21
BRANCH   9  23
ATOM     23  O   UNL     1      -0.283  -1.835   0.755  0.00  0.00    -0.506 OA
ATOM     24  H   UNL     1       0.633  -1.970   0.900  0.00  0.00    +0.292 HD
ENDBRANCH   9  23
BRANCH  10  25
ATOM     25  O   UNL     1      -2.110   3.252  -0.355  0.00  0.00    -0.506 OA
ATOM     26  H   UNL     1      -1.494   3.957  -0.388  0.00  0.00    +0.292 HD
ENDBRANCH  10  25
BRANCH   3  28
ATOM     27  O   UNL     1       2.449   4.882   0.670  0.00  0.00    -0.291 OA
ATOM     28  C   UNL     1       2.953   3.803   0.364  0.00  0.00    +0.204 C 
BRANCH  28  29
ATOM     29  C   UNL     1       4.451   3.588   0.324  0.00  0.00    +0.204 C 
BRANCH  29  30
ATOM     30  O   UNL     1       5.119   4.791   0.007  0.00  0.00    -0.375 OA
ATOM     31  H   UNL     1       6.076   4.633  -0.014  0.00  0.00    +0.211 HD
ENDBRANCH  29  30
ENDBRANCH  28  29
ENDBRANCH   3  28
BRANCH   4  32
ATOM     32  O   UNL     1       2.196  -0.418  -0.543  0.00  0.00    -0.328 OA
BRANCH  32  34
ATOM     33  O   UNL     1       2.665  -2.632   0.062  0.00  0.00    -0.335 OA
ATOM     34  C   UNL     1       3.222  -1.341  -0.187  0.00  0.00    +0.235 C 
ATOM     35  C   UNL     1       4.268  -1.414  -1.295  0.00  0.00    +0.059 C 
ATOM     36  C   UNL     1       4.721  -3.777  -0.572  0.00  0.00    -0.038 C 
ATOM     37  C   UNL     1       5.350  -2.429  -0.947  0.00  0.00    -0.014 C 
ATOM     38  C   UNL     1       3.644  -3.581   0.512  0.00  0.00    +0.098 C 
ATOM     39  C   UNL     1       2.887  -4.865   0.838  0.00  0.00    +0.030 C 
BRANCH  36  40
ATOM     40  N   UNL     1       5.773  -4.695  -0.141  0.00  0.00    +0.383 N 
ATOM     41  H   UNL     1       6.462  -4.797  -0.886  0.00  0.00    -0.089 HD
ATOM     42  H   UNL     1       5.364  -5.606   0.070  0.00  0.00    -0.089 HD
ATOM     43  H   UNL     1       6.227  -4.324   0.694  0.00  0.00    -0.089 HD
ENDBRANCH  36  40
ENDBRANCH  32  34
ENDBRANCH   4  32
TORSDOF 9
