REMARK  Name = 101040928
REMARK  11 active torsions:
REMARK  status: ('A' for Active; 'I' for Inactive)
REMARK    1  A    between atoms: C_1  and  C_17
REMARK    2  A    between atoms: C_2  and  C_5
REMARK    3  A    between atoms: C_6  and  C_11
REMARK    4  A    between atoms: C_10  and  C_13
REMARK    5  A    between atoms: C_13  and  C_15
REMARK    6  A    between atoms: C_17  and  O_18
REMARK    7  A    between atoms: C_17  and  C_20
REMARK    8  A    between atoms: C_20  and  C_22
REMARK    9  A    between atoms: C_22  and  O_24
REMARK   10  A    between atoms: C_23  and  C_27
REMARK   11  A    between atoms: C_27  and  O_28
REMARK                            x       y       z     vdW  Elec       q    Type
REMARK                         _______ _______ _______ _____ _____    ______ ____
ROOT
ATOM      1  C   UNL     1       1.120   0.337   0.314  0.00  0.00    +0.006 C 
ATOM      2  C   UNL     1       0.487   1.455  -0.076  0.00  0.00    +0.026 C 
ENDROOT
BRANCH   2   5
ATOM      3  S   UNL     1      -3.298   2.459  -0.744  0.00  0.00    -0.073 S 
ATOM      4  N   UNL     1      -1.776   0.484  -0.063  0.00  0.00    -0.397 NA
ATOM      5  C   UNL     1      -0.967   1.584  -0.266  0.00  0.00    +0.121 C 
ATOM      6  C   UNL     1      -3.025   0.828  -0.286  0.00  0.00    +0.183 C 
ATOM      7  C   UNL     1      -1.611   2.745  -0.639  0.00  0.00    +0.123 C 
BRANCH   6  11
ATOM      8  S   UNL     1      -5.443  -2.271   0.271  0.00  0.00    -0.079 S 
ATOM      9  N   UNL     1      -5.448   0.229  -0.387  0.00  0.00    -0.400 NA
ATOM     10  C   UNL     1      -6.223  -0.815  -0.195  0.00  0.00    +0.134 C 
ATOM     11  C   UNL     1      -4.137  -0.138  -0.150  0.00  0.00    +0.156 C 
ATOM     12  C   UNL     1      -3.937  -1.453   0.217  0.00  0.00    +0.126 C 
BRANCH  10  13
ATOM     13  C   UNL     1      -7.693  -0.806  -0.354  0.00  0.00    +0.058 C 
ATOM     14  C   UNL     1      -8.120  -0.495  -1.809  0.00  0.00    +0.008 C 
BRANCH  13  15
ATOM     15  C   UNL     1      -8.446   0.186   0.583  0.00  0.00    +0.008 C 
ATOM     16  C   UNL     1      -8.254  -0.146   2.058  0.00  0.00    +0.000 C 
ENDBRANCH  13  15
ENDBRANCH  10  13
ENDBRANCH   6  11
ENDBRANCH   2   5
BRANCH   1  17
ATOM     17  C   UNL     1       2.612   0.257   0.507  0.00  0.00    +0.144 C 
BRANCH  17  18
ATOM     18  O   UNL     1       2.851  -0.028   1.889  0.00  0.00    -0.349 OA
ATOM     19  C   UNL     1       2.745   1.144   2.679  0.00  0.00    +0.174 C 
ENDBRANCH  17  18
BRANCH  17  20
ATOM     20  C   UNL     1       3.267  -0.861  -0.341  0.00  0.00    +0.088 C 
ATOM     21  C   UNL     1       3.005  -0.686  -1.843  0.00  0.00    +0.011 C 
BRANCH  20  22
ATOM     22  C   UNL     1       4.768  -0.931  -0.091  0.00  0.00    +0.125 C 
ATOM     23  C   UNL     1       5.580   0.105  -0.367  0.00  0.00    +0.114 C 
BRANCH  22  24
ATOM     24  O   UNL     1       5.197  -2.135   0.433  0.00  0.00    -0.475 OA
ATOM     25  C   UNL     1       5.534  -3.039  -0.601  0.00  0.00    +0.252 C 
ENDBRANCH  22  24
BRANCH  23  27
ATOM     26  O   UNL     1       7.682  -0.849   0.314  0.00  0.00    -0.245 OA
ATOM     27  C   UNL     1       7.045   0.087  -0.141  0.00  0.00    +0.344 C 
BRANCH  27  28
ATOM     28  O   UNL     1       7.535   1.295  -0.530  0.00  0.00    -0.441 OA
ATOM     29  C   UNL     1       8.950   1.461  -0.382  0.00  0.00    +0.256 C 
ENDBRANCH  27  28
ENDBRANCH  23  27
ENDBRANCH  20  22
ENDBRANCH  17  20
ENDBRANCH   1  17
TORSDOF 11
