REMARK  Name = 101046838
REMARK  7 active torsions:
REMARK  status: ('A' for Active; 'I' for Inactive)
REMARK    1  A    between atoms: N_2  and  CA_14
REMARK    2  A    between atoms: C_3  and  CA_6
REMARK    3  A    between atoms: CG_8  and  OD_12
REMARK    4  A    between atoms: CA_14  and  C_16
REMARK    5  A    between atoms: CA_14  and  CB_19
REMARK    6  A    between atoms: C_16  and  O_17
REMARK    7  A    between atoms: CB_19  and  OG_20
REMARK                            x       y       z     vdW  Elec       q    Type
REMARK                         _______ _______ _______ _____ _____    ______ ____
ROOT
ATOM      1  O   HYP A   1      -0.506  -0.347  -1.701  0.00  0.00    -0.277 OA
ATOM      2  N   SER A   2       0.864  -0.157   0.171  0.00  0.00    -0.296 N 
ATOM      3  C   HYP A   1      -0.346  -0.303  -0.484  0.00  0.00    +0.203 C 
ATOM      4  H   SER A   2       0.865  -0.135   1.155  0.00  0.00    +0.150 HD
ENDROOT
BRANCH   3   6
ATOM      5  N   HYP A   1      -1.982   0.926   0.735  0.00  0.00    +0.392 N 
ATOM      6  CA  HYP A   1      -1.494  -0.433   0.468  0.00  0.00    +0.019 C 
ATOM      7  CB  HYP A   1      -2.659  -1.215  -0.133  0.00  0.00    +0.015 C 
ATOM      8  CG  HYP A   1      -3.779  -0.195  -0.291  0.00  0.00    +0.088 C 
ATOM      9  CD  HYP A   1      -3.082   1.150  -0.215  0.00  0.00    -0.051 C 
ATOM     10  H1  HYP A   1      -1.238   1.607   0.585  0.00  0.00    -0.084 HD
ATOM     11  H2  HYP A   1      -2.294   1.030   1.701  0.00  0.00    -0.084 HD
BRANCH   8  12
ATOM     12  OD  HYP A   1      -4.701  -0.303   0.788  0.00  0.00    -0.387 OA
ATOM     13  HD  HYP A   1      -5.150  -1.161   0.745  0.00  0.00    +0.210 HD
ENDBRANCH   8  12
ENDBRANCH   3   6
BRANCH   2  14
ATOM     14  CA  SER A   2       2.127  -0.035  -0.521  0.00  0.00    +0.201 C 
BRANCH  14  16
ATOM     15  OXT SER A   2       3.204  -0.661   1.571  0.00  0.00    -0.248 OA
ATOM     16  C   SER A   2       3.182  -0.689   0.347  0.00  0.00    +0.334 C 
BRANCH  16  17
ATOM     17  O   SER A   2       4.153  -1.283  -0.395  0.00  0.00    -0.479 OA
ATOM     18  H   SER A   2       4.095  -1.280  -1.330  0.00  0.00    +0.295 HD
ENDBRANCH  16  17
ENDBRANCH  14  16
BRANCH  14  19
ATOM     19  CB  SER A   2       2.483   1.421  -0.788  0.00  0.00    +0.168 C 
BRANCH  19  20
ATOM     20  OG  SER A   2       2.535   2.123   0.448  0.00  0.00    -0.380 OA
ATOM     21  H   SER A   2       2.762   3.052   0.282  0.00  0.00    +0.211 HD
ENDBRANCH  19  20
ENDBRANCH  14  19
ENDBRANCH   2  14
TORSDOF 7
