REMARK  Name = 10109823
REMARK  6 active torsions:
REMARK  status: ('A' for Active; 'I' for Inactive)
REMARK    1  A    between atoms: N_1  and  C_21
REMARK    2  A    between atoms: C_4  and  C_9
REMARK    3  A    between atoms: C_9  and  C_12
REMARK    4  A    between atoms: C_9  and  C_20
REMARK    5  A    between atoms: C_21  and  C_22
REMARK    6  A    between atoms: C_22  and  C_24
REMARK                            x       y       z     vdW  Elec       q    Type
REMARK                         _______ _______ _______ _____ _____    ______ ____
ROOT
ATOM      1  N   UNL     1      -0.818  -3.368  -0.745  0.00  0.00    -0.268 N 
ATOM      2  N   UNL     1      -1.769  -1.376   0.051  0.00  0.00    -0.341 NA
ATOM      3  N   UNL     1      -3.043  -2.894  -1.320  0.00  0.00    -0.170 NA
ATOM      4  C   UNL     1      -2.856  -0.613   0.078  0.00  0.00    +0.144 C 
ATOM      5  C   UNL     1      -1.932  -2.503  -0.668  0.00  0.00    +0.144 C 
ATOM      6  C   UNL     1      -4.049  -0.859  -0.521  0.00  0.00    +0.052 C 
ATOM      7  C   UNL     1      -4.087  -2.045  -1.225  0.00  0.00    +0.114 C 
ATOM      8  H   UNL     1      -0.904  -4.201  -1.263  0.00  0.00    +0.159 HD
ENDROOT
BRANCH   4   9
ATOM      9  C   UNL     1      -2.715   0.688   0.889  0.00  0.00    +0.202 C 
BRANCH   9  12
ATOM     10  S   UNL     1      -2.003   2.713  -0.834  0.00  0.00    -0.056 S 
ATOM     11  N   UNL     1      -0.411   1.577   0.848  0.00  0.00    -0.402 NA
ATOM     12  C   UNL     1      -1.645   1.583   0.399  0.00  0.00    +0.159 C 
ATOM     13  C   UNL     1      -0.371   3.266  -0.788  0.00  0.00    +0.057 C 
ATOM     14  C   UNL     1       0.332   2.538   0.176  0.00  0.00    +0.120 C 
ATOM     15  C   UNL     1       0.244   4.273  -1.550  0.00  0.00    +0.008 C 
ATOM     16  C   UNL     1       1.698   2.829   0.383  0.00  0.00    +0.085 C 
ATOM     17  C   UNL     1       1.596   4.541  -1.326  0.00  0.00    -0.004 C 
ATOM     18  C   UNL     1       2.316   3.829  -0.372  0.00  0.00    -0.019 C 
ENDBRANCH   9  12
BRANCH   9  20
ATOM     19  N   UNL     1      -2.506   0.238   3.498  0.00  0.00    -0.195 NA
ATOM     20  C   UNL     1      -2.608   0.422   2.357  0.00  0.00    +0.087 C 
ENDBRANCH   9  20
ENDBRANCH   4   9
BRANCH   1  21
ATOM     21  C   UNL     1       0.428  -3.086  -0.105  0.00  0.00    +0.103 C 
BRANCH  21  22
ATOM     22  C   UNL     1       1.274  -2.131  -0.949  0.00  0.00    +0.050 C 
BRANCH  22  24
ATOM     23  N   UNL     1       4.910  -2.433  -0.008  0.00  0.00    -0.243 NA
ATOM     24  C   UNL     1       2.602  -1.843  -0.294  0.00  0.00    -0.001 C 
ATOM     25  C   UNL     1       2.733  -0.781   0.577  0.00  0.00    -0.001 C 
ATOM     26  C   UNL     1       3.693  -2.636  -0.560  0.00  0.00    +0.095 C 
ATOM     27  C   UNL     1       3.970  -0.540   1.165  0.00  0.00    +0.020 C 
ATOM     28  C   UNL     1       5.017  -1.388   0.843  0.00  0.00    +0.099 C 
ENDBRANCH  22  24
ENDBRANCH  21  22
ENDBRANCH   1  21
TORSDOF 6
