REMARK  Name = 101006108
REMARK  7 active torsions:
REMARK  status: ('A' for Active; 'I' for Inactive)
REMARK    1  A    between atoms: N_2  and  C_34
REMARK    2  A    between atoms: C_6  and  O_22
REMARK    3  A    between atoms: C_10  and  O_26
REMARK    4  A    between atoms: C_11  and  O_24
REMARK    5  A    between atoms: C_13  and  O_28
REMARK    6  A    between atoms: C_18  and  O_30
REMARK    7  A    between atoms: C_20  and  O_32
REMARK                            x       y       z     vdW  Elec       q    Type
REMARK                         _______ _______ _______ _____ _____    ______ ____
ROOT
ATOM      1  O   UNL     1      -4.124   1.017  -0.484  0.00  0.00    -0.358 OA
ATOM      2  N   UNL     1      -1.735  -1.486   0.815  0.00  0.00    +0.392 N 
ATOM      3  C   UNL     1      -0.744   0.017  -0.969  0.00  0.00    +0.015 C 
ATOM      4  C   UNL     1      -1.644   1.117  -0.317  0.00  0.00    +0.055 C 
ATOM      5  C   UNL     1      -0.490  -0.809   0.350  0.00  0.00    -0.025 C 
ATOM      6  C   UNL     1       0.059   0.353   1.256  0.00  0.00    +0.119 C 
ATOM      7  C   UNL     1      -2.943   0.378  -0.024  0.00  0.00    +0.101 C 
ATOM      8  C   UNL     1       0.600   0.582  -1.542  0.00  0.00    +0.005 C 
ATOM      9  C   UNL     1       1.542   1.338  -0.583  0.00  0.00    +0.054 C 
ATOM     10  C   UNL     1       1.518   0.744   0.844  0.00  0.00    +0.115 C 
ATOM     11  C   UNL     1      -0.972   1.498   1.021  0.00  0.00    +0.142 C 
ATOM     12  C   UNL     1      -3.714  -0.139  -1.215  0.00  0.00    +0.140 C 
ATOM     13  C   UNL     1      -1.510  -0.674  -2.176  0.00  0.00    +0.111 C 
ATOM     14  C   UNL     1      -2.899  -0.621   1.089  0.00  0.00    -0.047 C 
ATOM     15  C   UNL     1       1.518  -0.500  -2.173  0.00  0.00    +0.005 C 
ATOM     16  C   UNL     1       2.904  -0.312  -1.538  0.00  0.00    +0.054 C 
ATOM     17  C   UNL     1      -2.910  -0.073  -2.461  0.00  0.00    +0.061 C 
ATOM     18  C   UNL     1       2.906   1.187  -1.270  0.00  0.00    +0.115 C 
ATOM     19  C   UNL     1       2.565  -0.390   1.035  0.00  0.00    +0.059 C 
ATOM     20  C   UNL     1       3.019  -1.127  -0.236  0.00  0.00    +0.120 C 
ATOM     21  H   UNL     1      -1.998  -1.997  -0.028  0.00  0.00    -0.079 HD
ENDROOT
BRANCH   6  22
ATOM     22  O   UNL     1       0.049   0.020   2.639  0.00  0.00    -0.384 OA
ATOM     23  H   UNL     1       0.685  -0.693   2.805  0.00  0.00    +0.210 HD
ENDBRANCH   6  22
BRANCH  11  24
ATOM     24  O   UNL     1      -0.425   2.805   0.970  0.00  0.00    -0.351 OA
ATOM     25  C   UNL     1      -1.423   3.801   1.161  0.00  0.00    +0.174 C 
ENDBRANCH  11  24
BRANCH  10  26
ATOM     26  O   UNL     1       1.945   1.800   1.732  0.00  0.00    -0.384 OA
ATOM     27  H   UNL     1       1.331   2.548   1.664  0.00  0.00    +0.210 HD
ENDBRANCH  10  26
BRANCH  13  28
ATOM     28  O   UNL     1      -1.656  -2.080  -1.987  0.00  0.00    -0.384 OA
ATOM     29  H   UNL     1      -0.788  -2.474  -1.807  0.00  0.00    +0.210 HD
ENDBRANCH  13  28
BRANCH  18  30
ATOM     30  O   UNL     1       3.988   1.630  -0.480  0.00  0.00    -0.384 OA
ATOM     31  H   UNL     1       3.923   2.589  -0.351  0.00  0.00    +0.210 HD
ENDBRANCH  18  30
BRANCH  20  32
ATOM     32  O   UNL     1       4.383  -1.525  -0.058  0.00  0.00    -0.353 OA
ATOM     33  C   UNL     1       4.473  -2.701   0.728  0.00  0.00    +0.174 C 
ENDBRANCH  20  32
BRANCH   2  34
ATOM     34  C   UNL     1      -1.532  -2.474   1.864  0.00  0.00    -0.077 C 
ATOM     35  C   UNL     1      -2.744  -3.378   2.008  0.00  0.00    -0.025 C 
ENDBRANCH   2  34
TORSDOF 7
