REMARK  Name = 10104785
REMARK  5 active torsions:
REMARK  status: ('A' for Active; 'I' for Inactive)
REMARK    1  A    between atoms: C_2  and  O_14
REMARK    2  A    between atoms: C_3  and  O_16
REMARK    3  A    between atoms: C_4  and  C_19
REMARK    4  A    between atoms: C_5  and  N_10
REMARK    5  A    between atoms: C_19  and  O_20
REMARK                            x       y       z     vdW  Elec       q    Type
REMARK                         _______ _______ _______ _____ _____    ______ ____
ROOT
ATOM      1  N   UNL     1       0.295   1.518  -0.548  0.00  0.00    +0.398 N 
ATOM      2  C   UNL     1      -1.051  -0.953   0.280  0.00  0.00    +0.145 C 
ATOM      3  C   UNL     1       0.417  -0.938  -0.167  0.00  0.00    +0.136 C 
ATOM      4  C   UNL     1      -1.827   0.224  -0.325  0.00  0.00    +0.107 C 
ATOM      5  C   UNL     1       1.045   0.438   0.095  0.00  0.00    +0.043 C 
ATOM      6  C   UNL     1      -1.093   1.548  -0.082  0.00  0.00    -0.065 C 
ATOM      7  H   UNL     1       0.304   1.375  -1.557  0.00  0.00    -0.082 HD
ATOM      8  H   UNL     1       0.736   2.406  -0.307  0.00  0.00    -0.082 HD
ENDROOT
BRANCH   5  10
ATOM      9  O   UNL     1       3.447  -0.318   1.540  0.00  0.00    -0.275 OA
ATOM     10  N   UNL     1       2.405   0.499  -0.375  0.00  0.00    -0.323 N 
ATOM     11  C   UNL     1       3.495   0.114   0.391  0.00  0.00    +0.221 C 
ATOM     12  C   UNL     1       4.797   0.256  -0.350  0.00  0.00    +0.095 C 
ATOM     13  H   UNL     1       2.569   0.831  -1.287  0.00  0.00    +0.147 HD
ENDBRANCH   5  10
BRANCH   2  14
ATOM     14  O   UNL     1      -1.662  -2.179  -0.113  0.00  0.00    -0.382 OA
ATOM     15  H   UNL     1      -1.171  -2.923   0.270  0.00  0.00    +0.210 HD
ENDBRANCH   2  14
BRANCH   3  16
ATOM     16  O   UNL     1       0.512  -1.271  -1.555  0.00  0.00    -0.382 OA
ATOM     17  H   UNL     1       0.112  -2.141  -1.707  0.00  0.00    +0.210 HD
ENDBRANCH   3  16
BRANCH   4  19
ATOM     18  O   UNL     1      -3.470  -0.037   1.451  0.00  0.00    -0.250 OA
ATOM     19  C   UNL     1      -3.187   0.300   0.304  0.00  0.00    +0.314 C 
BRANCH  19  20
ATOM     20  O   UNL     1      -4.124   0.799  -0.549  0.00  0.00    -0.480 OA
ATOM     21  H   UNL     1      -3.880   1.048  -1.419  0.00  0.00    +0.295 HD
ENDBRANCH  19  20
ENDBRANCH   4  19
TORSDOF 5
