REMARK  Name = 101052653
REMARK  11 active torsions:
REMARK  status: ('A' for Active; 'I' for Inactive)
REMARK    1  A    between atoms: C_1  and  C_3
REMARK    2  A    between atoms: C_1  and  O_17
REMARK    3  A    between atoms: C_2  and  C_14
REMARK    4  A    between atoms: C_6  and  O_9
REMARK    5  A    between atoms: C_7  and  O_11
REMARK    6  A    between atoms: C_14  and  O_15
REMARK    7  A    between atoms: O_17  and  C_18
REMARK    8  A    between atoms: C_19  and  O_24
REMARK    9  A    between atoms: C_20  and  C_26
REMARK   10  A    between atoms: C_27  and  C_29
REMARK   11  A    between atoms: C_29  and  O_30
REMARK                            x       y       z     vdW  Elec       q    Type
REMARK                         _______ _______ _______ _____ _____    ______ ____
ROOT
ATOM      1  C   UNL     1      -2.016  -1.503  -0.013  0.00  0.00    +0.152 C 
ATOM      2  C   UNL     1      -2.581  -2.605  -0.540  0.00  0.00    +0.119 C 
ENDROOT
BRANCH   1   3
ATOM      3  C   UNL     1      -2.308  -0.156  -0.542  0.00  0.00    +0.038 C 
ATOM      4  C   UNL     1      -2.874   0.811   0.289  0.00  0.00    +0.043 C 
ATOM      5  C   UNL     1      -2.020   0.150  -1.872  0.00  0.00    +0.006 C 
ATOM      6  C   UNL     1      -3.152   2.083  -0.209  0.00  0.00    +0.172 C 
ATOM      7  C   UNL     1      -2.863   2.389  -1.539  0.00  0.00    +0.168 C 
ATOM      8  C   UNL     1      -2.298   1.423  -2.371  0.00  0.00    +0.040 C 
BRANCH   6   9
ATOM      9  O   UNL     1      -3.704   3.019   0.612  0.00  0.00    -0.468 OA
ATOM     10  C   UNL     1      -2.806   3.851   1.343  0.00  0.00    +0.253 C 
ENDBRANCH   6   9
BRANCH   7  11
ATOM     11  O   UNL     1      -3.130   3.629  -2.039  0.00  0.00    -0.503 OA
ATOM     12  H   UNL     1      -3.509   4.284  -1.487  0.00  0.00    +0.292 HD
ENDBRANCH   7  11
ENDBRANCH   1   3
BRANCH   2  14
ATOM     13  O   UNL     1      -1.563  -4.277   0.870  0.00  0.00    -0.245 OA
ATOM     14  C   UNL     1      -2.308  -3.971  -0.046  0.00  0.00    +0.341 C 
BRANCH  14  15
ATOM     15  O   UNL     1      -3.027  -4.851  -0.782  0.00  0.00    -0.477 OA
ATOM     16  H   UNL     1      -3.579  -4.542  -1.472  0.00  0.00    +0.295 HD
ENDBRANCH  14  15
ENDBRANCH   2  14
BRANCH   1  17
ATOM     17  O   UNL     1      -1.121  -1.507   1.019  0.00  0.00    -0.450 OA
BRANCH  17  18
ATOM     18  C   UNL     1       0.125  -1.007   0.789  0.00  0.00    +0.179 C 
ATOM     19  C   UNL     1       0.601   0.079   1.524  0.00  0.00    +0.173 C 
ATOM     20  C   UNL     1       2.681  -0.001   0.297  0.00  0.00    +0.003 C 
ATOM     21  C   UNL     1       1.878   0.582   1.278  0.00  0.00    +0.040 C 
ATOM     22  C   UNL     1       0.927  -1.590  -0.192  0.00  0.00    +0.041 C 
ATOM     23  C   UNL     1       2.205  -1.087  -0.438  0.00  0.00    +0.003 C 
BRANCH  19  24
ATOM     24  O   UNL     1      -0.174   0.657   2.484  0.00  0.00    -0.468 OA
ATOM     25  C   UNL     1       0.387   1.762   3.190  0.00  0.00    +0.253 C 
ENDBRANCH  19  24
BRANCH  20  26
ATOM     26  C   UNL     1       4.013   0.523   0.042  0.00  0.00    +0.007 C 
ATOM     27  C   UNL     1       5.012  -0.147  -0.574  0.00  0.00    +0.082 C 
BRANCH  27  29
ATOM     28  O   UNL     1       6.641   1.622  -0.415  0.00  0.00    -0.245 OA
ATOM     29  C   UNL     1       6.327   0.496  -0.765  0.00  0.00    +0.338 C 
BRANCH  29  30
ATOM     30  O   UNL     1       7.147  -0.373  -1.401  0.00  0.00    -0.477 OA
ATOM     31  H   UNL     1       6.834  -1.223  -1.639  0.00  0.00    +0.295 HD
ENDBRANCH  29  30
ENDBRANCH  27  29
ENDBRANCH  20  26
ENDBRANCH  17  18
ENDBRANCH   1  17
TORSDOF 11
