REMARK  Name = 101024952
REMARK  9 active torsions:
REMARK  status: ('A' for Active; 'I' for Inactive)
REMARK    1  A    between atoms: C_3  and  O_15
REMARK    2  A    between atoms: C_6  and  O_19
REMARK    3  A    between atoms: C_7  and  O_17
REMARK    4  A    between atoms: C_10  and  C_34
REMARK    5  A    between atoms: O_19  and  C_21
REMARK    6  A    between atoms: C_21  and  C_23
REMARK    7  A    between atoms: C_25  and  O_30
REMARK    8  A    between atoms: C_29  and  O_32
REMARK    9  A    between atoms: C_34  and  O_35
REMARK                            x       y       z     vdW  Elec       q    Type
REMARK                         _______ _______ _______ _____ _____    ______ ____
ROOT
ATOM      1  C   UNL     1       2.324   1.421   0.508  0.00  0.00    +0.035 C 
ATOM      2  C   UNL     1       3.371   1.007  -0.542  0.00  0.00    +0.034 C 
ATOM      3  C   UNL     1       1.342   0.275   1.012  0.00  0.00    +0.142 C 
ATOM      4  C   UNL     1       2.784   0.086  -1.616  0.00  0.00    +0.024 C 
ATOM      5  C   UNL     1       1.077   2.158  -0.071  0.00  0.00    +0.049 C 
ATOM      6  C   UNL     1       0.176   1.328   0.866  0.00  0.00    +0.197 C 
ATOM      7  C   UNL     1       4.529   0.178   0.057  0.00  0.00    +0.111 C 
ATOM      8  C   UNL     1       5.060  -0.723  -1.095  0.00  0.00    +0.025 C 
ATOM      9  C   UNL     1       4.037  -0.540  -2.240  0.00  0.00    +0.007 C 
ATOM     10  C   UNL     1       1.192  -0.910   0.085  0.00  0.00    +0.008 C 
ATOM     11  C   UNL     1       2.953   2.290   1.615  0.00  0.00    +0.003 C 
ATOM     12  C   UNL     1       1.834  -0.955  -1.093  0.00  0.00    -0.030 C 
ATOM     13  C   UNL     1       6.467  -0.349  -1.590  0.00  0.00    +0.002 C 
ATOM     14  C   UNL     1       5.096  -2.190  -0.631  0.00  0.00    +0.002 C 
ENDROOT
BRANCH   3  15
ATOM     15  O   UNL     1       1.585  -0.159   2.376  0.00  0.00    -0.379 OA
ATOM     16  H   UNL     1       1.677   0.617   2.951  0.00  0.00    +0.211 HD
ENDBRANCH   3  15
BRANCH   7  17
ATOM     17  O   UNL     1       5.539   1.021   0.597  0.00  0.00    -0.384 OA
ATOM     18  H   UNL     1       5.162   1.562   1.309  0.00  0.00    +0.210 HD
ENDBRANCH   7  17
BRANCH   6  19
ATOM     19  O   UNL     1      -1.066   0.875   0.298  0.00  0.00    -0.446 OA
BRANCH  19  21
ATOM     20  O   UNL     1      -1.977   0.674   2.402  0.00  0.00    -0.245 OA
ATOM     21  C   UNL     1      -2.052   0.585   1.187  0.00  0.00    +0.344 C 
BRANCH  21  23
ATOM     22 CL   UNL     1      -5.856   1.567  -2.245  0.00  0.00    -0.079 Cl
ATOM     23  C   UNL     1      -3.275   0.134   0.476  0.00  0.00    +0.106 C 
ATOM     24  C   UNL     1      -3.910   0.971  -0.441  0.00  0.00    +0.001 C 
ATOM     25  C   UNL     1      -3.788  -1.138   0.731  0.00  0.00    +0.143 C 
ATOM     26  C   UNL     1      -5.058   0.537  -1.104  0.00  0.00    +0.088 C 
ATOM     27  C   UNL     1      -4.937  -1.572   0.068  0.00  0.00    +0.074 C 
ATOM     28  C   UNL     1      -3.347   2.334  -0.705  0.00  0.00    +0.032 C 
ATOM     29  C   UNL     1      -5.572  -0.734  -0.849  0.00  0.00    +0.147 C 
BRANCH  25  30
ATOM     30  O   UNL     1      -3.185  -1.973   1.623  0.00  0.00    -0.505 OA
ATOM     31  H   UNL     1      -2.413  -1.696   2.075  0.00  0.00    +0.292 HD
ENDBRANCH  25  30
BRANCH  29  32
ATOM     32  O   UNL     1      -6.692  -1.188  -1.479  0.00  0.00    -0.505 OA
ATOM     33  H   UNL     1      -7.135  -0.643  -2.099  0.00  0.00    +0.292 HD
ENDBRANCH  29  32
ENDBRANCH  21  23
ENDBRANCH  19  21
ENDBRANCH   6  19
BRANCH  10  34
ATOM     34  C   UNL     1       0.298  -2.033   0.532  0.00  0.00    +0.161 C 
BRANCH  34  35
ATOM     35  O   UNL     1       1.052  -2.976   1.268  0.00  0.00    -0.377 OA
ATOM     36  H   UNL     1       0.474  -3.700   1.555  0.00  0.00    +0.211 HD
ENDBRANCH  34  35
ENDBRANCH  10  34
TORSDOF 9
