REMARK  Name = 1010869
REMARK  8 active torsions:
REMARK  status: ('A' for Active; 'I' for Inactive)
REMARK    1  A    between atoms: N_1  and  N_2
REMARK    2  A    between atoms: N_1  and  C_7
REMARK    3  A    between atoms: N_2  and  C_18
REMARK    4  A    between atoms: C_10  and  O_15
REMARK    5  A    between atoms: C_18  and  C_19
REMARK    6  A    between atoms: C_20  and  O_25
REMARK    7  A    between atoms: C_21  and  O_27
REMARK    8  A    between atoms: C_22  and  O_29
REMARK                            x       y       z     vdW  Elec       q    Type
REMARK                         _______ _______ _______ _____ _____    ______ ____
ROOT
ATOM      1  N   UNL     1      -1.506   1.726   0.553  0.00  0.00    -0.120 NA
ENDROOT
BRANCH   1   6
ATOM      2 BR   UNL     1      -1.530  -1.199   2.013  0.00  0.00    -0.049 Br
ATOM      3  N   UNL     1      -4.537   1.304  -1.272  0.00  0.00    -0.324 N 
ATOM      4  C   UNL     1      -3.354   0.058   0.151  0.00  0.00    +0.043 A 
ATOM      5  C   UNL     1      -4.507   0.083  -0.637  0.00  0.00    +0.061 A 
ATOM      6  C   UNL     1      -2.695   1.305  -0.034  0.00  0.00    +0.142 A 
ATOM      7  C   UNL     1      -3.081  -1.094   0.916  0.00  0.00    +0.033 C 
ATOM      8  C   UNL     1      -3.969  -2.175   0.864  0.00  0.00    -0.015 C 
ATOM      9  C   UNL     1      -3.445   2.049  -0.914  0.00  0.00    +0.217 A 
ATOM     10  C   UNL     1      -5.404  -0.990  -0.699  0.00  0.00    +0.017 C 
ATOM     11  C   UNL     1      -5.112  -2.121   0.068  0.00  0.00    -0.002 C 
ATOM     12  C   UNL     1      -3.735  -3.425   1.653  0.00  0.00    +0.032 C 
ATOM     13  H   UNL     1      -5.241   1.599  -1.894  0.00  0.00    +0.169 HD
BRANCH   9  14
ATOM     14  O   UNL     1      -3.273   3.265  -1.412  0.00  0.00    -0.492 OA
ATOM     15  H   UNL     1      -3.900   3.619  -2.012  0.00  0.00    +0.294 HD
ENDBRANCH   9  14
ENDBRANCH   1   6
BRANCH   1  16
ATOM     16  N   UNL     1      -0.493   1.426  -0.128  0.00  0.00    -0.087 NA
BRANCH  16  18
ATOM     17  O   UNL     1       0.819   2.830   1.178  0.00  0.00    -0.267 OA
ATOM     18  C   UNL     1       0.684   1.846   0.456  0.00  0.00    +0.284 C 
BRANCH  18  19
ATOM     19  C   UNL     1       1.876   1.001   0.159  0.00  0.00    +0.063 C 
ATOM     20  C   UNL     1       4.078  -0.558  -0.388  0.00  0.00    +0.206 C 
ATOM     21  C   UNL     1       2.836  -0.891  -0.927  0.00  0.00    +0.176 C 
ATOM     22  C   UNL     1       4.205   0.566   0.429  0.00  0.00    +0.176 C 
ATOM     23  C   UNL     1       1.720  -0.102  -0.650  0.00  0.00    +0.045 C 
ATOM     24  C   UNL     1       3.089   1.356   0.706  0.00  0.00    +0.045 C 
BRANCH  20  25
ATOM     25  O   UNL     1       5.169  -1.329  -0.660  0.00  0.00    -0.465 OA
ATOM     26  C   UNL     1       5.938  -0.980  -1.809  0.00  0.00    +0.253 C 
ENDBRANCH  20  25
BRANCH  21  27
ATOM     27  O   UNL     1       2.699  -1.986  -1.726  0.00  0.00    -0.468 OA
ATOM     28  C   UNL     1       2.382  -3.220  -1.085  0.00  0.00    +0.253 C 
ENDBRANCH  21  27
BRANCH  22  29
ATOM     29  O   UNL     1       5.413   0.903   0.961  0.00  0.00    -0.468 OA
ATOM     30  C   UNL     1       5.736   0.350   2.236  0.00  0.00    +0.253 C 
ENDBRANCH  22  29
ENDBRANCH  18  19
ENDBRANCH  16  18
ENDBRANCH   1  16
TORSDOF 8
