REMARK  Name = 101086062
REMARK  3 active torsions:
REMARK  status: ('A' for Active; 'I' for Inactive)
REMARK    1  A    between atoms: C_11  and  C_33
REMARK    2  A    between atoms: C_12  and  O_31
REMARK    3  A    between atoms: C_33  and  C_35
REMARK                            x       y       z     vdW  Elec       q    Type
REMARK                         _______ _______ _______ _____ _____    ______ ____
ROOT
ATOM      1  S   UNL     1      -2.036   0.858   2.911  0.00  0.00    -0.080 S 
ATOM      2  S   UNL     1      -3.975   0.724   2.226  0.00  0.00    -0.082 S 
ATOM      3  O   UNL     1       0.140   1.822  -1.812  0.00  0.00    -0.447 OA
ATOM      4  O   UNL     1       1.273   0.136   3.178  0.00  0.00    -0.273 OA
ATOM      5  O   UNL     1       0.038   2.244   0.454  0.00  0.00    -0.250 OA
ATOM      6  O   UNL     1      -1.552  -3.733   1.165  0.00  0.00    -0.273 OA
ATOM      7  O   UNL     1       0.246  -1.404  -2.784  0.00  0.00    -0.275 OA
ATOM      8  N   UNL     1       1.599  -0.385   0.946  0.00  0.00    -0.302 N 
ATOM      9  N   UNL     1      -0.842  -1.567   0.774  0.00  0.00    -0.296 N 
ATOM     10  N   UNL     1      -1.830  -1.671  -1.756  0.00  0.00    -0.298 N 
ATOM     11  C   UNL     1       2.927   0.209   0.782  0.00  0.00    +0.099 C 
ATOM     12  C   UNL     1       2.929   1.738   0.539  0.00  0.00    +0.139 C 
ATOM     13  C   UNL     1       2.167   2.262  -0.687  0.00  0.00    +0.140 C 
ATOM     14  C   UNL     1       0.887  -0.398   2.137  0.00  0.00    +0.241 C 
ATOM     15  C   UNL     1      -0.355  -1.307   2.119  0.00  0.00    +0.160 C 
ATOM     16  C   UNL     1       0.668   2.112  -0.586  0.00  0.00    +0.320 C 
ATOM     17  C   UNL     1      -1.478  -0.877   3.075  0.00  0.00    +0.098 C 
ATOM     18  C   UNL     1      -1.236   1.379  -1.830  0.00  0.00    +0.200 C 
ATOM     19  C   UNL     1      -1.585  -2.951  -1.115  0.00  0.00    +0.149 C 
ATOM     20  C   UNL     1      -1.386  -2.786   0.394  0.00  0.00    +0.241 C 
ATOM     21  C   UNL     1      -1.374   0.361  -2.969  0.00  0.00    +0.133 C 
ATOM     22  C   UNL     1      -0.882  -0.999  -2.515  0.00  0.00    +0.227 C 
ATOM     23  C   UNL     1      -2.174   2.531  -2.054  0.00  0.00    +0.013 C 
ATOM     24  C   UNL     1      -2.721  -3.918  -1.421  0.00  0.00    +0.031 C 
ATOM     25  C   UNL     1      -3.100   2.988  -1.194  0.00  0.00    -0.026 C 
ATOM     26  C   UNL     1      -3.317   2.568   0.236  0.00  0.00    +0.038 C 
ATOM     27  C   UNL     1      -3.850   1.148   0.449  0.00  0.00    +0.073 C 
ATOM     28  H   UNL     1       1.183  -0.804   0.158  0.00  0.00    +0.150 HD
ATOM     29  H   UNL     1      -0.784  -0.848   0.104  0.00  0.00    +0.150 HD
ATOM     30  H   UNL     1      -2.717  -1.257  -1.646  0.00  0.00    +0.150 HD
ENDROOT
BRANCH  12  31
ATOM     31  O   UNL     1       2.493   2.435   1.706  0.00  0.00    -0.382 OA
ATOM     32  H   UNL     1       2.975   2.104   2.480  0.00  0.00    +0.210 HD
ENDBRANCH  12  31
BRANCH  11  33
ATOM     33  C   UNL     1       3.674  -0.536  -0.325  0.00  0.00    +0.020 C 
ATOM     34  C   UNL     1       3.592  -2.045  -0.080  0.00  0.00    +0.002 C 
BRANCH  33  35
ATOM     35  C   UNL     1       5.147  -0.107  -0.432  0.00  0.00    +0.002 C 
ATOM     36  C   UNL     1       5.914  -0.830  -1.530  0.00  0.00    +0.000 C 
ENDBRANCH  33  35
ENDBRANCH  11  33
TORSDOF 3
