101085273
  -OEChem-03292013293D

 48 48  0     1  0  0  0  0  0999 V2000
    3.0806    1.8954    1.1272 O   0  0  0  0  0  0  0  0  0  0  0  0
    0.2928    1.4003    1.2075 O   0  0  0  0  0  0  0  0  0  0  0  0
   -1.2464   -0.1344   -2.1183 O   0  0  0  0  0  0  0  0  0  0  0  0
    5.7394    1.7774    0.3510 O   0  0  0  0  0  0  0  0  0  0  0  0
    4.9056    1.0596   -1.6533 O   0  0  0  0  0  0  0  0  0  0  0  0
    0.7783   -0.3175   -0.2886 N   0  0  0  0  0  0  0  0  0  0  0  0
   -2.7510   -0.7121   -0.4466 N   0  0  0  0  0  0  0  0  0  0  0  0
    2.3027    1.5364   -0.0073 C   0  0  1  0  0  0  0  0  0  0  0  0
    3.5915    0.8477    0.2920 C   0  0  1  0  0  0  0  0  0  0  0  0
   -0.3983   -1.1184   -0.0707 C   0  0  2  0  0  0  0  0  0  0  0  0
   -0.1486   -2.6059   -0.3500 C   0  0  0  0  0  0  0  0  0  0  0  0
    0.4987   -3.3826    0.8149 C   0  0  0  0  0  0  0  0  0  0  0  0
    1.0197    0.8748    0.3726 C   0  0  0  0  0  0  0  0  0  0  0  0
   -1.4841   -0.5825   -0.9986 C   0  0  0  0  0  0  0  0  0  0  0  0
    4.7933    1.2283   -0.4485 C   0  0  0  0  0  0  0  0  0  0  0  0
   -4.3454    1.1266   -0.8768 C   0  0  0  0  0  0  0  0  0  0  0  0
   -3.9600   -0.3274   -1.1387 C   0  0  0  0  0  0  0  0  0  0  0  0
    1.8587   -2.7661    1.1538 C   0  0  0  0  0  0  0  0  0  0  0  0
    0.6719   -4.8687    0.4988 C   0  0  0  0  0  0  0  0  0  0  0  0
   -4.5796    1.4825    0.6049 C   0  0  0  0  0  0  0  0  0  0  0  0
   -5.7147    0.6235    1.1691 C   0  0  0  0  0  0  0  0  0  0  0  0
   -4.9051    2.9632    0.8058 C   0  0  0  0  0  0  0  0  0  0  0  0
    2.2514    2.2484   -0.8215 H   0  0  0  0  0  0  0  0  0  0  0  0
    3.5672   -0.1613    0.6830 H   0  0  0  0  0  0  0  0  0  0  0  0
   -0.7241   -0.9776    0.9674 H   0  0  0  0  0  0  0  0  0  0  0  0
    0.4595   -2.7227   -1.2575 H   0  0  0  0  0  0  0  0  0  0  0  0
   -1.1078   -3.0933   -0.5720 H   0  0  0  0  0  0  0  0  0  0  0  0
   -0.1484   -3.3007    1.6972 H   0  0  0  0  0  0  0  0  0  0  0  0
    1.4359   -0.6172   -1.0032 H   0  0  0  0  0  0  0  0  0  0  0  0
   -5.2475    1.3596   -1.4567 H   0  0  0  0  0  0  0  0  0  0  0  0
   -3.5511    1.7769   -1.2661 H   0  0  0  0  0  0  0  0  0  0  0  0
   -4.7516   -1.0179   -0.8341 H   0  0  0  0  0  0  0  0  0  0  0  0
   -3.8067   -0.4688   -2.2147 H   0  0  0  0  0  0  0  0  0  0  0  0
   -3.6677    1.2675    1.1757 H   0  0  0  0  0  0  0  0  0  0  0  0
    1.7486   -1.7872    1.6281 H   0  0  0  0  0  0  0  0  0  0  0  0
   -0.2945   -5.3289    0.2682 H   0  0  0  0  0  0  0  0  0  0  0  0
    1.1021   -5.4033    1.3522 H   0  0  0  0  0  0  0  0  0  0  0  0
    1.3313   -5.0162   -0.3633 H   0  0  0  0  0  0  0  0  0  0  0  0
    2.3967   -3.3950    1.8723 H   0  0  0  0  0  0  0  0  0  0  0  0
    2.4910   -2.6647    0.2654 H   0  0  0  0  0  0  0  0  0  0  0  0
   -2.8505   -1.1055    0.4845 H   0  0  0  0  0  0  0  0  0  0  0  0
   -5.8232    3.2422    0.2778 H   0  0  0  0  0  0  0  0  0  0  0  0
   -6.6267    0.7219    0.5706 H   0  0  0  0  0  0  0  0  0  0  0  0
   -5.4401   -0.4347    1.2091 H   0  0  0  0  0  0  0  0  0  0  0  0
   -5.9536    0.9262    2.1948 H   0  0  0  0  0  0  0  0  0  0  0  0
   -4.0923    3.5911    0.4261 H   0  0  0  0  0  0  0  0  0  0  0  0
   -5.0392    3.1942    1.8678 H   0  0  0  0  0  0  0  0  0  0  0  0
    6.5425    2.0308   -0.1521 H   0  0  0  0  0  0  0  0  0  0  0  0
  1  8  1  0  0  0  0
  1  9  1  0  0  0  0
  2 13  2  0  0  0  0
  3 14  2  0  0  0  0
  4 15  1  0  0  0  0
  4 48  1  0  0  0  0
  5 15  2  0  0  0  0
  6 10  1  0  0  0  0
  6 13  1  0  0  0  0
  6 29  1  0  0  0  0
  7 14  1  0  0  0  0
  7 17  1  0  0  0  0
  7 41  1  0  0  0  0
  8  9  1  0  0  0  0
  8 13  1  0  0  0  0
  8 23  1  0  0  0  0
  9 15  1  0  0  0  0
  9 24  1  0  0  0  0
 10 11  1  0  0  0  0
 10 14  1  0  0  0  0
 10 25  1  0  0  0  0
 11 12  1  0  0  0  0
 11 26  1  0  0  0  0
 11 27  1  0  0  0  0
 12 18  1  0  0  0  0
 12 19  1  0  0  0  0
 12 28  1  0  0  0  0
 16 17  1  0  0  0  0
 16 20  1  0  0  0  0
 16 30  1  0  0  0  0
 16 31  1  0  0  0  0
 17 32  1  0  0  0  0
 17 33  1  0  0  0  0
 18 35  1  0  0  0  0
 18 39  1  0  0  0  0
 18 40  1  0  0  0  0
 19 36  1  0  0  0  0
 19 37  1  0  0  0  0
 19 38  1  0  0  0  0
 20 21  1  0  0  0  0
 20 22  1  0  0  0  0
 20 34  1  0  0  0  0
 21 43  1  0  0  0  0
 21 44  1  0  0  0  0
 21 45  1  0  0  0  0
 22 42  1  0  0  0  0
 22 46  1  0  0  0  0
 22 47  1  0  0  0  0
M  END
> <PUBCHEM_COMPOUND_CID>
101085273

> <PUBCHEM_CONFORMER_RMSD>
1

> <PUBCHEM_CONFORMER_DIVERSEORDER>
3
101
43
133
91
68
70
118
132
11
111
100
117
112
137
16
41
80
94
50
6
74
78
10
124
36
35
95
46
53
128
58
56
85
115
105
24
20
13
5
84
127
96
39
98
72
71
116
27
49
18
63
47
99
136
4
87
110
92
8
82
113
106
67
12
83
9
17
81
93
69
86
38
125
45
108
102
73
126
109
51
14
64
77
66
114
44
29
123
135
89
121
107
61
57
55
15
60
131
122
40
31
119
88
19
7
48
54
104
33
52
25
2
103
130
37
134
65
59
21
79
129
120
97
62
1
90
26
75
23
30
76
28
32
22
42
34

> <PUBCHEM_MMFF94_PARTIAL_CHARGES>
19
1 -0.3
10 0.36
13 0.63
14 0.57
15 0.72
17 0.3
2 -0.57
23 0.1
24 0.1
29 0.37
3 -0.57
4 -0.65
41 0.37
48 0.5
5 -0.57
6 -0.73
7 -0.73
8 0.05
9 0.05

> <PUBCHEM_EFFECTIVE_ROTOR_COUNT>
11.6

> <PUBCHEM_PHARMACOPHORE_FEATURES>
10
1 1 acceptor
1 2 acceptor
1 3 acceptor
1 4 acceptor
1 5 acceptor
1 6 donor
1 7 donor
3 12 18 19 hydrophobe
3 20 21 22 hydrophobe
3 4 5 15 anion

> <PUBCHEM_HEAVY_ATOM_COUNT>
22

> <PUBCHEM_ATOM_DEF_STEREO_COUNT>
3

> <PUBCHEM_ATOM_UDEF_STEREO_COUNT>
0

> <PUBCHEM_BOND_DEF_STEREO_COUNT>
0

> <PUBCHEM_BOND_UDEF_STEREO_COUNT>
0

> <PUBCHEM_ISOTOPIC_ATOM_COUNT>
0

> <PUBCHEM_COMPONENT_COUNT>
1

> <PUBCHEM_CACTVS_TAUTO_COUNT>
4

> <PUBCHEM_CONFORMER_ID>
0606705900000003

> <PUBCHEM_MMFF94_ENERGY>
28.5067

> <PUBCHEM_FEATURE_SELFOVERLAP>
50.809

> <PUBCHEM_SHAPE_FINGERPRINT>
10382601 240 18337112246441145381
10759866 29 18269557126828596329
107951 10 18340212985122056502
11036077 3 18408887347489722382
12644460 14 18263074436061563507
12788726 201 17469036017894770354
12895836 83 17823994513975742068
12954195 1 18197773512749053095
13464514 151 18344148081202526207
14790565 3 18410011031188262968
15183329 4 17704076174633076764
15415430 10 10809341140022576605
15664445 248 17769383720749202742
15842332 3 17914588637176210543
18785283 64 18115306670331972202
19784866 34 18410854352084790663
19784866 9 18341046328920110753
20739085 24 18187647938385528244
21120745 212 16898221833484434782
21279426 13 18131359570399572172
21424621 283 18341327881560245392
23402539 116 9871484126587534541
25147074 1 18058712630113981335
3759504 43 18335989769332990032
38570 142 18200611210736840157
458136 41 18334292033159367623
5385378 56 18338522937023523347
59124914 9 18343865502398550417
59755656 520 18411138073371640854
633830 44 18200865283532370636
7226269 152 18060418049473205440
79837 15 18263641930196223499
81228 2 17105635343076898610

> <PUBCHEM_SHAPE_MULTIPOLES>
413.44
11.33
4.39
1.36
4.31
6.27
-0.35
-12.31
0.78
-2.73
1.59
0.44
-0.12
-1.39

> <PUBCHEM_SHAPE_SELFOVERLAP>
808.88

> <PUBCHEM_SHAPE_VOLUME>
249

> <PUBCHEM_COORDINATE_TYPE>
2
5
10

$$$$
