REMARK  Name = 101049584
REMARK  5 active torsions:
REMARK  status: ('A' for Active; 'I' for Inactive)
REMARK    1  A    between atoms: C_4  and  C_35
REMARK    2  A    between atoms: C_8  and  O_31
REMARK    3  A    between atoms: C_11  and  O_33
REMARK    4  A    between atoms: C_16  and  C_26
REMARK    5  A    between atoms: C_35  and  O_36
REMARK                            x       y       z     vdW  Elec       q    Type
REMARK                         _______ _______ _______ _____ _____    ______ ____
ROOT
ATOM      1  O   UNL     1       4.327  -1.288  -0.974  0.00  0.00    -0.317 OA
ATOM      2  O   UNL     1       4.889   0.976  -0.477  0.00  0.00    -0.315 OA
ATOM      3  O   UNL     1       5.546  -0.755   1.004  0.00  0.00    -0.315 OA
ATOM      4  C   UNL     1       2.536   0.307  -0.467  0.00  0.00    +0.078 C 
ATOM      5  C   UNL     1       1.085   0.424   0.165  0.00  0.00    +0.036 C 
ATOM      6  C   UNL     1       0.103  -0.630  -0.450  0.00  0.00    +0.027 C 
ATOM      7  C   UNL     1       3.049  -1.172  -0.314  0.00  0.00    +0.104 C 
ATOM      8  C   UNL     1      -1.331  -0.568   0.149  0.00  0.00    +0.089 C 
ATOM      9  C   UNL     1      -1.942   0.858   0.151  0.00  0.00    +0.029 C 
ATOM     10  C   UNL     1       3.637   1.190   0.212  0.00  0.00    +0.127 C 
ATOM     11  C   UNL     1       0.450   1.835   0.093  0.00  0.00    +0.111 C 
ATOM     12  C   UNL     1       0.675  -2.064  -0.402  0.00  0.00    +0.005 C 
ATOM     13  C   UNL     1       2.088  -2.167  -0.964  0.00  0.00    +0.028 C 
ATOM     14  C   UNL     1      -0.935   1.871   0.746  0.00  0.00    +0.032 C 
ATOM     15  C   UNL     1       3.299  -1.557   1.171  0.00  0.00    +0.057 C 
ATOM     16  C   UNL     1      -3.151   0.720   1.129  0.00  0.00    +0.028 C 
ATOM     17  C   UNL     1      -1.444  -1.008   1.620  0.00  0.00    +0.027 C 
ATOM     18  C   UNL     1       4.342  -0.616   1.771  0.00  0.00    +0.125 C 
ATOM     19  C   UNL     1       3.877   0.839   1.685  0.00  0.00    +0.060 C 
ATOM     20  C   UNL     1      -2.672  -0.287   2.193  0.00  0.00    +0.007 C 
ATOM     21  C   UNL     1       5.283  -0.401  -0.363  0.00  0.00    +0.296 C 
ATOM     22  C   UNL     1      -2.366   1.345  -1.250  0.00  0.00    +0.003 C 
ATOM     23  C   UNL     1       6.590  -0.559  -1.128  0.00  0.00    +0.096 C 
ENDROOT
BRANCH  16  26
ATOM     24  O   UNL     1      -5.980  -1.462  -0.204  0.00  0.00    -0.418 OA
ATOM     25  O   UNL     1      -7.968  -0.872  -1.137  0.00  0.00    -0.244 OA
ATOM     26  C   UNL     1      -4.444   0.256   0.521  0.00  0.00    +0.015 C 
ATOM     27  C   UNL     1      -5.390   1.247   0.077  0.00  0.00    +0.006 C 
ATOM     28  C   UNL     1      -4.773  -1.030   0.364  0.00  0.00    +0.179 C 
ATOM     29  C   UNL     1      -6.554   0.887  -0.471  0.00  0.00    +0.082 C 
ATOM     30  C   UNL     1      -6.899  -0.541  -0.634  0.00  0.00    +0.346 C 
ENDBRANCH  16  26
BRANCH   8  31
ATOM     31  O   UNL     1      -2.179  -1.424  -0.633  0.00  0.00    -0.387 OA
ATOM     32  H   UNL     1      -2.125  -1.167  -1.567  0.00  0.00    +0.210 HD
ENDBRANCH   8  31
BRANCH  11  33
ATOM     33  O   UNL     1       1.254   2.780   0.794  0.00  0.00    -0.384 OA
ATOM     34  H   UNL     1       2.146   2.792   0.413  0.00  0.00    +0.210 HD
ENDBRANCH  11  33
BRANCH   4  35
ATOM     35  C   UNL     1       2.497   0.729  -1.969  0.00  0.00    +0.142 C 
BRANCH  35  36
ATOM     36  O   UNL     1       2.498   2.133  -2.007  0.00  0.00    -0.382 OA
ATOM     37  H   UNL     1       2.474   2.432  -2.930  0.00  0.00    +0.210 HD
ENDBRANCH  35  36
ENDBRANCH   4  35
TORSDOF 5
