REMARK  Name = 101011058
REMARK  11 active torsions:
REMARK  status: ('A' for Active; 'I' for Inactive)
REMARK    1  A    between atoms: C_1  and  C_18
REMARK    2  A    between atoms: N_4  and  C_8
REMARK    3  A    between atoms: C_8  and  C_11
REMARK    4  A    between atoms: C_12  and  C_14
REMARK    5  A    between atoms: C_14  and  C_16
REMARK    6  A    between atoms: C_18  and  C_19
REMARK    7  A    between atoms: C_19  and  N_21
REMARK    8  A    between atoms: C_19  and  C_31
REMARK    9  A    between atoms: C_22  and  CA_24
REMARK   10  A    between atoms: CA_24  and  N_26
REMARK   11  A    between atoms: C_31  and  O_32
REMARK                            x       y       z     vdW  Elec       q    Type
REMARK                         _______ _______ _______ _____ _____    ______ ____
ROOT
ATOM      1  O   ALA A   1       5.075   1.172   0.396  0.00  0.00    -0.277 OA
ATOM      2  N   UNK A   2       3.312  -0.079  -0.447  0.00  0.00    -0.298 N 
ATOM      3  C   ALA A   1       4.061   1.082  -0.293  0.00  0.00    +0.202 C 
ATOM      4  H   UNK A   2       2.513  -0.050  -1.022  0.00  0.00    +0.150 HD
ENDROOT
BRANCH   3   5
ATOM      5  CA  ALA A   1       3.472   2.252  -1.071  0.00  0.00    +0.013 C 
ATOM      6  CB  ALA A   1       4.083   2.319  -2.465  0.00  0.00    -0.015 C 
BRANCH   5   7
ATOM      7  N   ALA A   1       3.756   3.481  -0.335  0.00  0.00    +0.387 N 
ATOM      8  H1  ALA A   1       3.343   3.424   0.595  0.00  0.00    -0.089 HD
ATOM      9  H2  ALA A   1       3.358   4.276  -0.835  0.00  0.00    -0.089 HD
ATOM     10  H3  ALA A   1       4.765   3.602  -0.252  0.00  0.00    -0.089 HD
ENDBRANCH   5   7
ENDBRANCH   3   5
BRANCH   2  11
ATOM     11  C   UNK A   2       3.652  -1.323   0.199  0.00  0.00    +0.171 C 
BRANCH  11  13
ATOM     12  O   UNK A   2       3.547  -3.671  -0.392  0.00  0.00    -0.248 OA
ATOM     13  C   UNK A   2       3.288  -2.508  -0.679  0.00  0.00    +0.332 C 
BRANCH  13  14
ATOM     14  O   UNK A   2       2.636  -2.160  -1.814  0.00  0.00    -0.479 OA
ATOM     15  H   UNK A   2       2.458  -1.258  -1.995  0.00  0.00    +0.295 HD
ENDBRANCH  13  14
ENDBRANCH  11  13
BRANCH  11  16
ATOM     16  C   UNK A   2       2.966  -1.433   1.568  0.00  0.00    +0.031 C 
BRANCH  16  17
ATOM     17  C   UNK A   2       1.480  -1.440   1.478  0.00  0.00    +0.002 C 
ATOM     18  C   UNK A   2       0.648  -1.056   2.669  0.00  0.00    +0.000 C 
ENDBRANCH  16  17
ENDBRANCH  11  16
ENDBRANCH   2  11
TORSDOF 7
REMARK  Name = 101011058
REMARK  11 active torsions:
REMARK  status: ('A' for Active; 'I' for Inactive)
REMARK    1  A    between atoms: C_1  and  C_18
REMARK    2  A    between atoms: N_4  and  C_8
REMARK    3  A    between atoms: C_8  and  C_11
REMARK    4  A    between atoms: C_12  and  C_14
REMARK    5  A    between atoms: C_14  and  C_16
REMARK    6  A    between atoms: C_18  and  C_19
REMARK    7  A    between atoms: C_19  and  N_21
REMARK    8  A    between atoms: C_19  and  C_31
REMARK    9  A    between atoms: C_22  and  CA_24
REMARK   10  A    between atoms: CA_24  and  N_26
REMARK   11  A    between atoms: C_31  and  O_32
REMARK                            x       y       z     vdW  Elec       q    Type
REMARK                         _______ _______ _______ _____ _____    ______ ____
ROOT
ATOM      1  C   UNK A   2       0.715  -0.141   1.474  0.00  0.00    +0.000 C 
ENDROOT
TORSDOF 0
REMARK  Name = 101011058
REMARK  11 active torsions:
REMARK  status: ('A' for Active; 'I' for Inactive)
REMARK    1  A    between atoms: C_1  and  C_18
REMARK    2  A    between atoms: N_4  and  C_8
REMARK    3  A    between atoms: C_8  and  C_11
REMARK    4  A    between atoms: C_12  and  C_14
REMARK    5  A    between atoms: C_14  and  C_16
REMARK    6  A    between atoms: C_18  and  C_19
REMARK    7  A    between atoms: C_19  and  N_21
REMARK    8  A    between atoms: C_19  and  C_31
REMARK    9  A    between atoms: C_22  and  CA_24
REMARK   10  A    between atoms: CA_24  and  N_26
REMARK   11  A    between atoms: C_31  and  O_32
REMARK                            x       y       z     vdW  Elec       q    Type
REMARK                         _______ _______ _______ _____ _____    ______ ____
ROOT
ATOM      1  O   UNK A   2      -3.247   2.236  -0.231  0.00  0.00    -0.442 OA
ATOM      2  O   UNK A   2      -5.548   2.180   0.026  0.00  0.00    -0.250 OA
ATOM      3  C   UNK A   2      -2.540   0.960  -0.155  0.00  0.00    +0.256 C 
ATOM      4  C   UNK A   2      -3.867   0.247   0.168  0.00  0.00    +0.148 C 
ATOM      5  C   UNK A   2      -4.456   1.659  -0.005  0.00  0.00    +0.321 C 
ENDROOT
BRANCH   3   7
ATOM      6  O   UNK A   2      -1.451   1.663   1.913  0.00  0.00    -0.270 OA
ATOM      7  C   UNK A   2      -1.436   0.949   0.906  0.00  0.00    +0.279 C 
BRANCH   7   8
ATOM      8  N   UNK A   2      -0.422   0.046   0.618  0.00  0.00    -0.231 NA
ATOM      9  H   UNK A   2      -0.485  -0.488  -0.207  0.00  0.00    +0.173 HD
ENDBRANCH   7   8
ENDBRANCH   3   7
BRANCH   4  10
ATOM     10  C   UNK A   2      -4.353  -0.803  -0.832  0.00  0.00    +0.015 C 
ATOM     11  C   UNK A   2      -3.332  -1.942  -0.887  0.00  0.00    +0.001 C 
BRANCH  10  12
ATOM     12  C   UNK A   2      -5.738  -1.327  -0.421  0.00  0.00    +0.001 C 
ATOM     13  C   UNK A   2      -6.301  -2.361  -1.387  0.00  0.00    +0.000 C 
ENDBRANCH  10  12
ENDBRANCH   4  10
TORSDOF 4
