REMARK  Name = 101080655
REMARK  6 active torsions:
REMARK  status: ('A' for Active; 'I' for Inactive)
REMARK    1  A    between atoms: C_13  and  O_27
REMARK    2  A    between atoms: C_14  and  O_29
REMARK    3  A    between atoms: C_15  and  O_35
REMARK    4  A    between atoms: C_18  and  C_32
REMARK    5  A    between atoms: C_32  and  O_33
REMARK    6  A    between atoms: O_35  and  C_37
REMARK                            x       y       z     vdW  Elec       q    Type
REMARK                         _______ _______ _______ _____ _____    ______ ____
ROOT
ATOM      1  O   UNL     1       2.948  -0.783  -1.180  0.00  0.00    -0.339 OA
ATOM      2  O   UNL     1       3.974   2.174   0.741  0.00  0.00    -0.452 OA
ATOM      3  O   UNL     1       2.200   2.435   2.080  0.00  0.00    -0.250 OA
ATOM      4  C   UNL     1       1.166  -0.083   0.959  0.00  0.00    +0.018 C 
ATOM      5  C   UNL     1      -0.292  -0.388   0.521  0.00  0.00    +0.008 C 
ATOM      6  C   UNL     1       1.905  -1.456   0.869  0.00  0.00    +0.026 C 
ATOM      7  C   UNL     1      -0.454  -1.877   0.862  0.00  0.00    +0.029 C 
ATOM      8  C   UNL     1      -1.426   0.421   1.179  0.00  0.00    +0.035 C 
ATOM      9  C   UNL     1       1.845   1.046   0.145  0.00  0.00    +0.150 C 
ATOM     10  C   UNL     1       0.849  -2.433   0.308  0.00  0.00    +0.007 C 
ATOM     11  C   UNL     1       3.220  -1.404   0.068  0.00  0.00    +0.095 C 
ATOM     12  C   UNL     1      -2.833  -0.207   0.909  0.00  0.00    +0.064 C 
ATOM     13  C   UNL     1       2.495   0.566  -1.175  0.00  0.00    +0.197 C 
ATOM     14  C   UNL     1      -1.530   1.865   0.648  0.00  0.00    +0.114 C 
ATOM     15  C   UNL     1      -3.551   0.801   0.001  0.00  0.00    +0.175 C 
ATOM     16  C   UNL     1       3.674   1.469  -1.560  0.00  0.00    +0.092 C 
ATOM     17  C   UNL     1      -3.028   2.142   0.512  0.00  0.00    +0.067 C 
ATOM     18  C   UNL     1      -1.756  -2.388   0.337  0.00  0.00    +0.049 C 
ATOM     19  C   UNL     1       4.348  -0.716   0.878  0.00  0.00    +0.031 C 
ATOM     20  C   UNL     1       4.632   1.539  -0.374  0.00  0.00    +0.174 C 
ATOM     21  C   UNL     1      -2.850  -1.611   0.353  0.00  0.00    -0.021 C 
ATOM     22  C   UNL     1       5.269   0.219   0.091  0.00  0.00    +0.046 C 
ATOM     23  C   UNL     1       2.686   1.929   1.069  0.00  0.00    +0.321 C 
ATOM     24  C   UNL     1       3.711  -2.820  -0.292  0.00  0.00    +0.030 C 
ATOM     25  C   UNL     1       4.407   1.042  -2.840  0.00  0.00    +0.009 C 
ATOM     26  C   UNL     1      -3.332   3.308  -0.419  0.00  0.00    +0.006 C 
ENDROOT
BRANCH  13  27
ATOM     27  O   UNL     1       1.466   0.681  -2.172  0.00  0.00    -0.363 OA
ATOM     28  H   UNL     1       0.718   0.111  -1.933  0.00  0.00    +0.213 HD
ENDBRANCH  13  27
BRANCH  14  29
ATOM     29  O   UNL     1      -0.913   2.791   1.526  0.00  0.00    -0.384 OA
ATOM     30  H   UNL     1       0.034   2.592   1.592  0.00  0.00    +0.210 HD
ENDBRANCH  14  29
BRANCH  18  32
ATOM     31  O   UNL     1      -2.265  -4.036  -1.298  0.00  0.00    -0.245 OA
ATOM     32  C   UNL     1      -1.897  -3.752  -0.172  0.00  0.00    +0.334 C 
BRANCH  32  33
ATOM     33  O   UNL     1      -1.560  -4.635   0.793  0.00  0.00    -0.477 OA
ATOM     34  H   UNL     1      -1.287  -4.327   1.635  0.00  0.00    +0.295 HD
ENDBRANCH  32  33
ENDBRANCH  18  32
BRANCH  15  35
ATOM     35  O   UNL     1      -4.956   0.701   0.160  0.00  0.00    -0.452 OA
BRANCH  35  37
ATOM     36  O   UNL     1      -5.277   1.473  -1.994  0.00  0.00    -0.250 OA
ATOM     37  C   UNL     1      -5.709   1.071  -0.922  0.00  0.00    +0.317 C 
ATOM     38  C   UNL     1      -7.167   0.915  -0.610  0.00  0.00    +0.121 C 
ENDBRANCH  35  37
ENDBRANCH  15  35
TORSDOF 6
