REMARK  Name = 101024951
REMARK  8 active torsions:
REMARK  status: ('A' for Active; 'I' for Inactive)
REMARK    1  A    between atoms: C_3  and  O_15
REMARK    2  A    between atoms: C_6  and  O_21
REMARK    3  A    between atoms: C_7  and  O_17
REMARK    4  A    between atoms: C_10  and  C_20
REMARK    5  A    between atoms: O_21  and  C_23
REMARK    6  A    between atoms: C_23  and  C_25
REMARK    7  A    between atoms: C_27  and  O_32
REMARK    8  A    between atoms: C_31  and  O_34
REMARK                            x       y       z     vdW  Elec       q    Type
REMARK                         _______ _______ _______ _____ _____    ______ ____
ROOT
ATOM      1  C   UNL     1      -2.377   1.428  -0.278  0.00  0.00    +0.036 C 
ATOM      2  C   UNL     1      -3.444   0.839   0.665  0.00  0.00    +0.034 C 
ATOM      3  C   UNL     1      -1.379   0.381  -0.942  0.00  0.00    +0.146 C 
ATOM      4  C   UNL     1      -2.873  -0.243   1.591  0.00  0.00    +0.024 C 
ATOM      5  C   UNL     1      -1.138   2.061   0.434  0.00  0.00    +0.049 C 
ATOM      6  C   UNL     1      -0.226   1.409  -0.627  0.00  0.00    +0.197 C 
ATOM      7  C   UNL     1      -4.575   0.110  -0.089  0.00  0.00    +0.111 C 
ATOM      8  C   UNL     1      -5.134  -0.956   0.895  0.00  0.00    +0.025 C 
ATOM      9  C   UNL     1      -4.132  -0.972   2.072  0.00  0.00    +0.007 C 
ATOM     10  C   UNL     1      -1.230  -0.915  -0.200  0.00  0.00    +0.043 C 
ATOM     11  C   UNL     1      -2.989   2.465  -1.241  0.00  0.00    +0.003 C 
ATOM     12  C   UNL     1      -1.894  -1.178   0.933  0.00  0.00    -0.025 C 
ATOM     13  C   UNL     1      -6.543  -0.640   1.424  0.00  0.00    +0.002 C 
ATOM     14  C   UNL     1      -5.178  -2.330   0.204  0.00  0.00    +0.002 C 
ENDROOT
BRANCH   3  15
ATOM     15  O   UNL     1      -1.606   0.151  -2.357  0.00  0.00    -0.379 OA
ATOM     16  H   UNL     1      -1.699   1.002  -2.812  0.00  0.00    +0.211 HD
ENDBRANCH   3  15
BRANCH   7  17
ATOM     17  O   UNL     1      -5.568   1.044  -0.491  0.00  0.00    -0.384 OA
ATOM     18  H   UNL     1      -5.178   1.689  -1.102  0.00  0.00    +0.210 HD
ENDBRANCH   7  17
BRANCH  10  20
ATOM     19  O   UNL     1       0.339  -1.823  -1.713  0.00  0.00    -0.283 OA
ATOM     20  C   UNL     1      -0.317  -1.955  -0.690  0.00  0.00    +0.232 C 
ENDBRANCH  10  20
BRANCH   6  21
ATOM     21  O   UNL     1       1.022   0.883  -0.139  0.00  0.00    -0.446 OA
BRANCH  21  23
ATOM     22  O   UNL     1       1.934   1.042  -2.247  0.00  0.00    -0.245 OA
ATOM     23  C   UNL     1       2.011   0.755  -1.062  0.00  0.00    +0.344 C 
BRANCH  23  25
ATOM     24 CL   UNL     1       5.805   1.206   2.489  0.00  0.00    -0.079 Cl
ATOM     25  C   UNL     1       3.240   0.208  -0.433  0.00  0.00    +0.106 C 
ATOM     26  C   UNL     1       3.865   0.891   0.610  0.00  0.00    +0.001 C 
ATOM     27  C   UNL     1       3.768  -0.998  -0.893  0.00  0.00    +0.143 C 
ATOM     28  C   UNL     1       5.019   0.368   1.193  0.00  0.00    +0.088 C 
ATOM     29  C   UNL     1       4.922  -1.521  -0.309  0.00  0.00    +0.074 C 
ATOM     30  C   UNL     1       3.285   2.186   1.093  0.00  0.00    +0.032 C 
ATOM     31  C   UNL     1       5.547  -0.838   0.734  0.00  0.00    +0.147 C 
BRANCH  27  32
ATOM     32  O   UNL     1       3.174  -1.682  -1.911  0.00  0.00    -0.505 OA
ATOM     33  H   UNL     1       2.398  -1.344  -2.313  0.00  0.00    +0.292 HD
ENDBRANCH  27  32
BRANCH  31  34
ATOM     34  O   UNL     1       6.674  -1.376   1.282  0.00  0.00    -0.505 OA
ATOM     35  H   UNL     1       7.110  -0.934   1.984  0.00  0.00    +0.292 HD
ENDBRANCH  31  34
ENDBRANCH  23  25
ENDBRANCH  21  23
ENDBRANCH   6  21
TORSDOF 8
