REMARK  Name = 101184928
REMARK  9 active torsions:
REMARK  status: ('A' for Active; 'I' for Inactive)
REMARK    1  A    between atoms: C_3  and  C_15
REMARK    2  A    between atoms: C_5  and  C_26
REMARK    3  A    between atoms: C_7  and  O_23
REMARK    4  A    between atoms: C_12  and  O_32
REMARK    5  A    between atoms: C_12  and  C_34
REMARK    6  A    between atoms: C_16  and  O_21
REMARK    7  A    between atoms: C_26  and  C_27
REMARK    8  A    between atoms: C_28  and  C_29
REMARK    9  A    between atoms: C_35  and  C_36
REMARK                            x       y       z     vdW  Elec       q    Type
REMARK                         _______ _______ _______ _____ _____    ______ ____
ROOT
ATOM      1  O   UNL     1       1.054  -3.652  -1.057  0.00  0.00    -0.293 OA
ATOM      2  O   UNL     1      -1.587  -0.460  -2.173  0.00  0.00    -0.291 OA
ATOM      3  C   UNL     1       0.464  -0.556   1.346  0.00  0.00    +0.059 C 
ATOM      4  C   UNL     1      -0.790  -1.489   1.247  0.00  0.00    +0.064 C 
ATOM      5  C   UNL     1       1.095  -0.382  -0.069  0.00  0.00    +0.080 C 
ATOM      6  C   UNL     1       0.404  -1.320  -1.081  0.00  0.00    +0.129 C 
ATOM      7  C   UNL     1      -0.320  -2.910   0.807  0.00  0.00    +0.143 C 
ATOM      8  C   UNL     1       0.438  -2.739  -0.514  0.00  0.00    +0.182 C 
ATOM      9  C   UNL     1      -1.723  -0.929   0.187  0.00  0.00    +0.049 C 
ATOM     10  C   UNL     1      -1.044  -0.854  -1.151  0.00  0.00    +0.179 C 
ATOM     11  C   UNL     1      -1.466  -3.907   0.644  0.00  0.00    +0.037 C 
ATOM     12  C   UNL     1      -2.989  -0.539   0.358  0.00  0.00    +0.132 C 
ENDROOT
BRANCH   3  15
ATOM     13  O   UNL     1      -0.692   1.526   1.025  0.00  0.00    -0.446 OA
ATOM     14  O   UNL     1      -0.515   3.513  -0.118  0.00  0.00    -0.245 OA
ATOM     15  C   UNL     1       0.126   0.805   1.964  0.00  0.00    +0.186 C 
ATOM     16  C   UNL     1       1.310   1.683   2.103  0.00  0.00    +0.149 C 
ATOM     17  C   UNL     1      -0.662   0.646   3.261  0.00  0.00    +0.052 C 
ATOM     18  C   UNL     1       1.222   2.785   1.359  0.00  0.00    +0.086 C 
ATOM     19  C   UNL     1      -0.070   2.688   0.662  0.00  0.00    +0.340 C 
ATOM     20  C   UNL     1       2.157   3.920   1.195  0.00  0.00    +0.041 C 
BRANCH  16  21
ATOM     21  O   UNL     1       2.356   1.358   2.921  0.00  0.00    -0.506 OA
ATOM     22  H   UNL     1       2.337   0.560   3.411  0.00  0.00    +0.292 HD
ENDBRANCH  16  21
ENDBRANCH   3  15
BRANCH   7  23
ATOM     23  O   UNL     1       0.594  -3.424   1.766  0.00  0.00    -0.379 OA
ATOM     24  H   UNL     1       1.328  -2.800   1.879  0.00  0.00    +0.211 HD
ENDBRANCH   7  23
BRANCH   5  26
ATOM     25  O   UNL     1       3.078  -1.406   0.760  0.00  0.00    -0.291 OA
ATOM     26  C   UNL     1       2.573  -0.636  -0.054  0.00  0.00    +0.174 C 
BRANCH  26  27
ATOM     27  C   UNL     1       3.389   0.115  -1.049  0.00  0.00    +0.037 C 
ATOM     28  C   UNL     1       4.717  -0.051  -1.105  0.00  0.00    +0.003 C 
BRANCH  28  29
ATOM     29  C   UNL     1       5.553   0.655  -2.051  0.00  0.00    -0.004 C 
ATOM     30  C   UNL     1       6.883   0.497  -2.116  0.00  0.00    -0.026 C 
ATOM     31  C   UNL     1       7.756   1.220  -3.088  0.00  0.00    +0.031 C 
ENDBRANCH  28  29
ENDBRANCH  26  27
ENDBRANCH   5  26
BRANCH  12  32
ATOM     32  O   UNL     1      -3.616  -0.607   1.589  0.00  0.00    -0.506 OA
ATOM     33  H   UNL     1      -3.151  -0.935   2.334  0.00  0.00    +0.292 HD
ENDBRANCH  12  32
BRANCH  12  34
ATOM     34  C   UNL     1      -3.800  -0.015  -0.729  0.00  0.00    +0.036 C 
ATOM     35  C   UNL     1      -5.075   0.394  -0.627  0.00  0.00    +0.003 C 
BRANCH  35  36
ATOM     36  C   UNL     1      -5.828   0.907  -1.751  0.00  0.00    -0.004 C 
ATOM     37  C   UNL     1      -7.101   1.317  -1.655  0.00  0.00    -0.026 C 
ATOM     38  C   UNL     1      -7.890   1.848  -2.807  0.00  0.00    +0.031 C 
ENDBRANCH  35  36
ENDBRANCH  12  34
TORSDOF 9
