REMARK  Name = 101109861
REMARK  5 active torsions:
REMARK  status: ('A' for Active; 'I' for Inactive)
REMARK    1  A    between atoms: C_8  and  C_19
REMARK    2  A    between atoms: C_13  and  O_23
REMARK    3  A    between atoms: C_16  and  C_27
REMARK    4  A    between atoms: O_23  and  C_25
REMARK    5  A    between atoms: C_27  and  C_29
REMARK                            x       y       z     vdW  Elec       q    Type
REMARK                         _______ _______ _______ _____ _____    ______ ____
ROOT
ATOM      1  O   UNL     1       2.333  -2.410   0.458  0.00  0.00    -0.447 OA
ATOM      2  O   UNL     1      -1.647   2.977   0.051  0.00  0.00    -0.455 OA
ATOM      3  O   UNL     1      -0.073  -1.067  -2.146  0.00  0.00    -0.296 OA
ATOM      4  O   UNL     1       0.451  -3.106   1.552  0.00  0.00    -0.250 OA
ATOM      5  C   UNL     1       0.407  -1.042   0.239  0.00  0.00    +0.148 C 
ATOM      6  C   UNL     1       1.671  -0.253  -0.126  0.00  0.00    +0.066 C 
ATOM      7  C   UNL     1      -0.430  -0.287   1.293  0.00  0.00    +0.047 C 
ATOM      8  C   UNL     1       2.676  -1.345  -0.439  0.00  0.00    +0.195 C 
ATOM      9  C   UNL     1      -0.432  -1.383  -1.010  0.00  0.00    +0.161 C 
ATOM     10  C   UNL     1      -1.167   0.883   0.728  0.00  0.00    +0.012 C 
ATOM     11  C   UNL     1       1.024  -2.292   0.843  0.00  0.00    +0.323 C 
ATOM     12  C   UNL     1      -1.738  -2.131  -0.816  0.00  0.00    +0.069 C 
ATOM     13  C   UNL     1      -3.383  -0.303  -0.041  0.00  0.00    +0.194 C 
ATOM     14  C   UNL     1      -2.957  -1.273  -1.156  0.00  0.00    +0.056 C 
ATOM     15  C   UNL     1      -2.466   0.872   0.119  0.00  0.00    +0.054 C 
ATOM     16  C   UNL     1      -0.729   2.189   0.661  0.00  0.00    +0.126 C 
ATOM     17  C   UNL     1      -2.691   2.177  -0.277  0.00  0.00    +0.178 C 
ENDROOT
BRANCH   8  19
ATOM     18  O   UNL     1       6.163  -0.113  -0.703  0.00  0.00    -0.448 OA
ATOM     19  C   UNL     1       4.107  -0.904  -0.259  0.00  0.00    +0.058 C 
ATOM     20  C   UNL     1       4.858  -0.917   0.941  0.00  0.00    +0.043 C 
ATOM     21  C   UNL     1       4.946  -0.407  -1.229  0.00  0.00    +0.179 C 
ATOM     22  C   UNL     1       6.102  -0.427   0.618  0.00  0.00    +0.180 C 
ENDBRANCH   8  19
BRANCH  13  23
ATOM     23  O   UNL     1      -4.717   0.137  -0.327  0.00  0.00    -0.448 OA
BRANCH  23  25
ATOM     24  O   UNL     1      -5.569  -1.687   0.806  0.00  0.00    -0.250 OA
ATOM     25  C   UNL     1      -5.711  -0.657   0.161  0.00  0.00    +0.318 C 
ATOM     26  C   UNL     1      -7.042  -0.078  -0.212  0.00  0.00    +0.121 C 
ENDBRANCH  23  25
ENDBRANCH  13  23
BRANCH  16  27
ATOM     27  C   UNL     1       0.498   2.868   1.105  0.00  0.00    +0.128 C 
BRANCH  27  29
ATOM     28  O   UNL     1       1.228   2.967  -1.198  0.00  0.00    -0.296 OA
ATOM     29  C   UNL     1       1.486   3.196  -0.017  0.00  0.00    +0.159 C 
ATOM     30  C   UNL     1       2.802   3.814   0.381  0.00  0.00    +0.073 C 
ENDBRANCH  27  29
ENDBRANCH  16  27
TORSDOF 5
