101194922
  -OEChem-03292013293D

 51 54  0     1  0  0  0  0  0999 V2000
   -0.4123   -3.3075   -1.3074 S   0  0  0  0  0  0  0  0  0  0  0  0
    2.5187   -3.6265   -0.4629 S   0  0  0  0  0  0  0  0  0  0  0  0
   -1.6785    1.0695    2.0581 O   0  0  0  0  0  0  0  0  0  0  0  0
   -4.9528    1.9335   -1.1712 O   0  0  0  0  0  0  0  0  0  0  0  0
   -0.8011   -3.4256    1.9826 O   0  5  0  0  0  0  0  0  0  0  0  0
   -0.0402   -1.3004    2.3544 O   0  0  0  0  0  0  0  0  0  0  0  0
    0.3731    3.6308    0.0534 O   0  0  0  0  0  0  0  0  0  0  0  0
   -2.4763   -0.7051    0.7275 N   0  0  0  0  0  0  0  0  0  0  0  0
    1.3563   -1.3341   -0.7383 N   0  0  0  0  0  0  0  0  0  0  0  0
    3.9898    3.0247   -0.1942 N   0  0  0  0  0  0  0  0  0  0  0  0
   -3.1349   -0.4021   -0.5563 C   0  0  1  0  0  0  0  0  0  0  0  0
   -2.9216    1.1092   -0.1808 C   0  0  2  0  0  0  0  0  0  0  0  0
   -2.3571   -1.2562   -1.5785 C   0  0  2  0  0  0  0  0  0  0  0  0
   -2.2607    0.5790    1.1174 C   0  0  0  0  0  0  0  0  0  0  0  0
   -4.1759    1.9375    0.0231 C   0  0  1  0  0  0  0  0  0  0  0  0
   -1.4386   -2.0758   -0.6891 C   0  0  0  0  0  0  0  0  0  0  0  0
   -1.5379   -1.6867    0.5888 C   0  0  0  0  0  0  0  0  0  0  0  0
   -1.6329   -0.3866   -2.5979 C   0  0  0  0  0  0  0  0  0  0  0  0
   -3.8253    3.3769    0.3769 C   0  0  0  0  0  0  0  0  0  0  0  0
   -0.7113   -2.1871    1.7579 C   0  0  0  0  0  0  0  0  0  0  0  0
    1.1688   -2.6321   -0.8284 C   0  0  0  0  0  0  0  0  0  0  0  0
    2.5950    2.7609    0.1709 C   0  0  2  0  0  0  0  0  0  0  0  0
    2.1457    1.4218   -0.4458 C   0  0  0  0  0  0  0  0  0  0  0  0
    3.1263    0.3000   -0.1806 C   0  0  0  0  0  0  0  0  0  0  0  0
    2.6611   -1.0973   -0.3523 C   0  0  0  0  0  0  0  0  0  0  0  0
    4.8809    2.0002    0.3559 C   0  0  0  0  0  0  0  0  0  0  0  0
    4.3872    0.5899    0.1924 C   0  0  0  0  0  0  0  0  0  0  0  0
    1.7104    3.9048   -0.3206 C   0  0  0  0  0  0  0  0  0  0  0  0
    3.4438   -2.2156   -0.1551 C   0  0  0  0  0  0  0  0  0  0  0  0
   -4.1903   -0.7099   -0.5230 H   0  0  0  0  0  0  0  0  0  0  0  0
   -2.1970    1.6192   -0.8278 H   0  0  0  0  0  0  0  0  0  0  0  0
   -3.0559   -1.9243   -2.0976 H   0  0  0  0  0  0  0  0  0  0  0  0
   -4.7981    1.5048    0.8153 H   0  0  0  0  0  0  0  0  0  0  0  0
   -0.8525    0.2258   -2.1328 H   0  0  0  0  0  0  0  0  0  0  0  0
   -1.1544   -1.0013   -3.3676 H   0  0  0  0  0  0  0  0  0  0  0  0
   -2.3352    0.2887   -3.0982 H   0  0  0  0  0  0  0  0  0  0  0  0
   -3.2540    3.8501   -0.4298 H   0  0  0  0  0  0  0  0  0  0  0  0
   -3.2318    3.4311    1.2944 H   0  0  0  0  0  0  0  0  0  0  0  0
   -4.7341    3.9727    0.5125 H   0  0  0  0  0  0  0  0  0  0  0  0
   -5.7527    2.4605   -1.0034 H   0  0  0  0  0  0  0  0  0  0  0  0
    2.4990    2.6976    1.2642 H   0  0  0  0  0  0  0  0  0  0  0  0
    2.0138    1.5205   -1.5316 H   0  0  0  0  0  0  0  0  0  0  0  0
    1.1678    1.1594   -0.0218 H   0  0  0  0  0  0  0  0  0  0  0  0
    4.2757    3.9411    0.1491 H   0  0  0  0  0  0  0  0  0  0  0  0
    5.0495    2.1898    1.4228 H   0  0  0  0  0  0  0  0  0  0  0  0
    5.8509    2.0926   -0.1446 H   0  0  0  0  0  0  0  0  0  0  0  0
    5.1177   -0.1831    0.4078 H   0  0  0  0  0  0  0  0  0  0  0  0
    1.7551    4.0094   -1.4104 H   0  0  0  0  0  0  0  0  0  0  0  0
    2.0097    4.8551    0.1347 H   0  0  0  0  0  0  0  0  0  0  0  0
    4.4787   -2.3016    0.1431 H   0  0  0  0  0  0  0  0  0  0  0  0
   -0.1731    4.3670   -0.2707 H   0  0  0  0  0  0  0  0  0  0  0  0
  1 16  1  0  0  0  0
  1 21  1  0  0  0  0
  2 21  1  0  0  0  0
  2 29  1  0  0  0  0
  3 14  2  0  0  0  0
  4 15  1  0  0  0  0
  4 40  1  0  0  0  0
  5 20  1  0  0  0  0
  6 20  2  0  0  0  0
  7 28  1  0  0  0  0
  7 51  1  0  0  0  0
  8 11  1  0  0  0  0
  8 14  1  0  0  0  0
  8 17  1  0  0  0  0
  9 21  2  0  0  0  0
  9 25  1  0  0  0  0
 10 22  1  0  0  0  0
 10 26  1  0  0  0  0
 10 44  1  0  0  0  0
 11 12  1  0  0  0  0
 11 13  1  0  0  0  0
 11 30  1  0  0  0  0
 12 14  1  0  0  0  0
 12 15  1  0  0  0  0
 12 31  1  0  0  0  0
 13 16  1  0  0  0  0
 13 18  1  0  0  0  0
 13 32  1  0  0  0  0
 15 19  1  0  0  0  0
 15 33  1  0  0  0  0
 16 17  2  0  0  0  0
 17 20  1  0  0  0  0
 18 34  1  0  0  0  0
 18 35  1  0  0  0  0
 18 36  1  0  0  0  0
 19 37  1  0  0  0  0
 19 38  1  0  0  0  0
 19 39  1  0  0  0  0
 22 23  1  0  0  0  0
 22 28  1  0  0  0  0
 22 41  1  0  0  0  0
 23 24  1  0  0  0  0
 23 42  1  0  0  0  0
 23 43  1  0  0  0  0
 24 25  1  0  0  0  0
 24 27  2  0  0  0  0
 25 29  2  0  0  0  0
 26 27  1  0  0  0  0
 26 45  1  0  0  0  0
 26 46  1  0  0  0  0
 27 47  1  0  0  0  0
 28 48  1  0  0  0  0
 28 49  1  0  0  0  0
 29 50  1  0  0  0  0
M  CHG  1   5  -1
M  END
> <PUBCHEM_COMPOUND_CID>
101194922

> <PUBCHEM_CONFORMER_RMSD>
0.8

> <PUBCHEM_CONFORMER_DIVERSEORDER>
1
253
112
178
65
214
81
117
57
155
148
42
189
230
159
28
101
53
182
205
62
210
94
206
209
4
233
194
227
151
45
104
217
115
231
198
29
124
116
103
201
142
250
123
251
68
137
128
247
89
121
64
160
113
243
44
248
37
88
75
110
183
212
127
66
158
86
175
154
177
234
21
204
218
172
219
132
106
245
186
184
235
58
241
95
173
109
108
48
138
199
24
5
98
252
174
78
246
249
215
76
69
10
187
130
61
229
90
179
171
196
135
147
190
226
153
122
97
165
141
168
84
77
59
133
193
237
6
85
242
36
185
63
228
50
19
87
79
221
16
238
107
145
55
208
195
7
105
23
35
207
74
80
157
144
100
156
225
27
176
163
136
22
26
102
224
71
70
40
99
162
150
131
39
166
143
54
3
146
32
60
34
13
236
180
52
30
164
149
111
114
125
200
211
25
191
232
14
11
93
118
31
41
56
82
47
83
139
203
73
134
223
181
51
239
167
161
92
12
15
46
240
119
17
72
202
140
43
8
192
220
213
170
197
169
33
188
216
67
152
129
126
18
91
96
9
20
38
49
244
2
120
222

> <PUBCHEM_MMFF94_PARTIAL_CHARGES>
32
1 -0.16
10 -0.9
11 0.22
12 0.05
13 0.14
14 0.58
15 0.28
16 -0.04
17 -0.14
2 -0.08
20 1.05
21 0.43
22 0.27
23 0.14
24 -0.09
25 0.18
26 0.41
27 -0.29
28 0.28
29 -0.11
3 -0.57
4 -0.68
40 0.4
44 0.36
47 0.15
5 -0.9
50 0.15
51 0.4
6 -0.9
7 -0.68
8 -0.39
9 -0.57

> <PUBCHEM_EFFECTIVE_ROTOR_COUNT>
7.2

> <PUBCHEM_PHARMACOPHORE_FEATURES>
14
1 10 cation
1 10 donor
1 3 acceptor
1 4 acceptor
1 4 donor
1 5 acceptor
1 6 acceptor
1 7 acceptor
1 7 donor
1 9 acceptor
3 5 6 20 anion
5 2 9 21 25 29 rings
6 10 22 23 24 26 27 rings
7 8 11 12 13 14 16 17 rings

> <PUBCHEM_HEAVY_ATOM_COUNT>
29

> <PUBCHEM_ATOM_DEF_STEREO_COUNT>
5

> <PUBCHEM_ATOM_UDEF_STEREO_COUNT>
0

> <PUBCHEM_BOND_DEF_STEREO_COUNT>
0

> <PUBCHEM_BOND_UDEF_STEREO_COUNT>
0

> <PUBCHEM_ISOTOPIC_ATOM_COUNT>
0

> <PUBCHEM_COMPONENT_COUNT>
1

> <PUBCHEM_CACTVS_TAUTO_COUNT>
2

> <PUBCHEM_CONFORMER_ID>
06081CAA00000001

> <PUBCHEM_MMFF94_ENERGY>
67.1823

> <PUBCHEM_FEATURE_SELFOVERLAP>
71.105

> <PUBCHEM_SHAPE_FINGERPRINT>
10675989 125 18196371424844153697
11221954 11 18409455812038687990
11370993 70 18411979195466783588
11640471 11 17846787290755501750
12539773 59 16262950956988851565
12633257 1 17022902397634557478
13122387 1 18340213985844180680
13583140 156 18117856408133194011
14117953 113 18198337347802912292
14468879 13 18337955700392443610
14790565 3 18193563487849609956
15003188 8 18341316834898799224
19930381 70 18267864991270670221
20621476 13 18267024955459699324
20715895 44 18055629508761729657
20764821 26 16394945635649816228
21475661 188 18191589644811284389
21860390 5 18055360141002291718
23227448 37 18412263947941118375
25265897 201 17701847468805450981
3493558 16 18411705370464942381
469060 322 16105856141911763880
474 4 18340201903810929222
5081480 168 17342421529197008262
7288768 16 18187081775632954779
9981440 41 18267858557409920922

> <PUBCHEM_SHAPE_MULTIPOLES>
560.22
8.02
5.47
1.7
0.63
1.64
0.35
6.78
-0.79
2.38
-0.15
-1.3
-1.13
0.11

> <PUBCHEM_SHAPE_SELFOVERLAP>
1174.514

> <PUBCHEM_SHAPE_VOLUME>
318.9

> <PUBCHEM_COORDINATE_TYPE>
2
5
10

$$$$
