REMARK  Name = 101194923
REMARK  6 active torsions:
REMARK  status: ('A' for Active; 'I' for Inactive)
REMARK    1  A    between atoms: C_4  and  C_13
REMARK    2  A    between atoms: C_7  and  S_17
REMARK    3  A    between atoms: C_8  and  C_12
REMARK    4  A    between atoms: C_13  and  O_15
REMARK    5  A    between atoms: S_17  and  C_20
REMARK    6  A    between atoms: C_21  and  C_26
REMARK                            x       y       z     vdW  Elec       q    Type
REMARK                         _______ _______ _______ _____ _____    ______ ____
ROOT
ATOM      1  O   UNL     1      -4.272  -0.214   1.902  0.00  0.00    -0.274 OA
ATOM      2  N   UNL     1      -2.285  -0.174   0.634  0.00  0.00    -0.254 N 
ATOM      3  C   UNL     1      -2.285  -0.753  -0.722  0.00  0.00    +0.095 C 
ATOM      4  C   UNL     1      -3.783  -1.136  -0.437  0.00  0.00    +0.123 C 
ATOM      5  C   UNL     1      -1.737   0.386  -1.607  0.00  0.00    +0.049 C 
ATOM      6  C   UNL     1      -3.573  -0.476   0.950  0.00  0.00    +0.233 C 
ATOM      7  C   UNL     1      -1.337   1.433  -0.582  0.00  0.00    +0.032 C 
ATOM      8  C   UNL     1      -1.707   1.062   0.651  0.00  0.00    +0.136 C 
ATOM      9  C   UNL     1      -2.775   0.859  -2.616  0.00  0.00    +0.007 C 
ENDROOT
BRANCH   8  12
ATOM     10  O   UNL     1      -2.204   2.976   1.915  0.00  0.00    -0.239 OA
ATOM     11  O   UNL     1      -0.868   1.356   2.823  0.00  0.00    -0.239 OA
ATOM     12  C   UNL     1      -1.580   1.879   1.923  0.00  0.00    +0.401 C 
ENDBRANCH   8  12
BRANCH   4  13
ATOM     13  C   UNL     1      -4.106  -2.618  -0.407  0.00  0.00    +0.121 C 
ATOM     14  C   UNL     1      -5.586  -2.845  -0.126  0.00  0.00    +0.032 C 
BRANCH  13  15
ATOM     15  O   UNL     1      -3.780  -3.206  -1.663  0.00  0.00    -0.384 OA
ATOM     16  H   UNL     1      -2.839  -3.066  -1.851  0.00  0.00    +0.210 HD
ENDBRANCH  13  15
ENDBRANCH   4  13
BRANCH   7  17
ATOM     17  S   UNL     1      -0.541   2.893  -1.016  0.00  0.00    -0.052 S 
BRANCH  17  20
ATOM     18  S   UNL     1       2.480   3.398  -1.166  0.00  0.00    -0.068 S 
ATOM     19  N   UNL     1       1.447   1.127  -0.491  0.00  0.00    -0.393 NA
ATOM     20  C   UNL     1       1.153   2.355  -0.856  0.00  0.00    +0.187 C 
ATOM     21  C   UNL     1       2.821   0.990  -0.450  0.00  0.00    +0.117 C 
ATOM     22  C   UNL     1       3.549   2.113  -0.783  0.00  0.00    +0.124 C 
BRANCH  21  26
ATOM     23  N   UNL     1       4.607  -2.660   1.006  0.00  0.00    +0.388 N 
ATOM     24  C   UNL     1       5.372  -1.925  -0.006  0.00  0.00    -0.057 C 
ATOM     25  C   UNL     1       4.913  -0.452  -0.045  0.00  0.00    +0.007 C 
ATOM     26  C   UNL     1       3.408  -0.309  -0.061  0.00  0.00    -0.004 C 
ATOM     27  C   UNL     1       3.181  -2.685   0.671  0.00  0.00    -0.055 C 
ATOM     28  C   UNL     1       2.622  -1.356   0.250  0.00  0.00    -0.052 C 
ATOM     29  C   UNL     1       6.863  -2.017   0.309  0.00  0.00    -0.023 C 
ATOM     30  H   UNL     1       4.730  -2.206   1.911  0.00  0.00    -0.084 HD
ATOM     31  H   UNL     1       4.951  -3.620   1.038  0.00  0.00    -0.084 HD
ENDBRANCH  21  26
ENDBRANCH  17  20
ENDBRANCH   7  17
TORSDOF 6
