REMARK  Name = 101170461
REMARK  2 active torsions:
REMARK  status: ('A' for Active; 'I' for Inactive)
REMARK    1  A    between atoms: C_19  and  O_27
REMARK    2  A    between atoms: C_20  and  O_29
REMARK                            x       y       z     vdW  Elec       q    Type
REMARK                         _______ _______ _______ _____ _____    ______ ____
ROOT
ATOM      1  O   UNL     1      -0.056  -0.587   1.999  0.00  0.00    -0.354 OA
ATOM      2  O   UNL     1      -1.815   3.071   0.126  0.00  0.00    -0.343 OA
ATOM      3  O   UNL     1       4.555   0.663   0.816  0.00  0.00    -0.343 OA
ATOM      4  O   UNL     1      -2.474  -2.463  -0.322  0.00  0.00    -0.477 OA
ATOM      5  O   UNL     1      -0.160   1.324  -2.138  0.00  0.00    -0.293 OA
ATOM      6  O   UNL     1       3.633  -1.950  -0.992  0.00  0.00    -0.289 OA
ATOM      7  C   UNL     1      -0.930   0.069  -0.182  0.00  0.00    +0.106 C 
ATOM      8  C   UNL     1      -0.341  -1.236  -0.839  0.00  0.00    +0.059 C 
ATOM      9  C   UNL     1       0.838  -1.770   0.040  0.00  0.00    +0.056 C 
ATOM     10  C   UNL     1       0.043   0.459   0.992  0.00  0.00    +0.146 C 
ATOM     11  C   UNL     1       1.483   0.501   0.501  0.00  0.00    +0.011 C 
ATOM     12  C   UNL     1       1.888  -0.669  -0.024  0.00  0.00    +0.014 C 
ATOM     13  C   UNL     1      -2.349  -0.137   0.338  0.00  0.00    +0.030 C 
ATOM     14  C   UNL     1      -0.968   1.219  -1.220  0.00  0.00    +0.186 C 
ATOM     15  C   UNL     1       0.526  -1.834   1.554  0.00  0.00    +0.120 C 
ATOM     16  C   UNL     1      -1.986   2.288  -1.063  0.00  0.00    +0.202 C 
ATOM     17  C   UNL     1      -2.994   2.258   0.049  0.00  0.00    +0.181 C 
ATOM     18  C   UNL     1      -1.389  -2.296  -1.230  0.00  0.00    +0.167 C 
ATOM     19  C   UNL     1      -3.011   1.078   0.970  0.00  0.00    +0.162 C 
ATOM     20  C   UNL     1       2.329   1.730   0.641  0.00  0.00    +0.161 C 
ATOM     21  C   UNL     1       3.724   1.594   0.107  0.00  0.00    +0.181 C 
ATOM     22  C   UNL     1       4.158   0.293  -0.514  0.00  0.00    +0.206 C 
ATOM     23  C   UNL     1       3.252  -0.875  -0.549  0.00  0.00    +0.198 C 
ATOM     24  C   UNL     1      -2.964  -1.325   0.244  0.00  0.00    +0.166 C 
ATOM     25  C   UNL     1      -0.331  -3.002   2.012  0.00  0.00    +0.032 C 
ATOM     26  C   UNL     1      -1.984  -2.018  -2.618  0.00  0.00    +0.047 C 
ENDROOT
BRANCH  19  27
ATOM     27  O   UNL     1      -4.365   0.800   1.333  0.00  0.00    -0.378 OA
ATOM     28  H   UNL     1      -4.389   0.036   1.930  0.00  0.00    +0.211 HD
ENDBRANCH  19  27
BRANCH  20  29
ATOM     29  O   UNL     1       1.688   2.816  -0.030  0.00  0.00    -0.378 OA
ATOM     30  H   UNL     1       0.784   2.915   0.307  0.00  0.00    +0.211 HD
ENDBRANCH  20  29
TORSDOF 2
