REMARK  Name = 101150158
REMARK  5 active torsions:
REMARK  status: ('A' for Active; 'I' for Inactive)
REMARK    1  A    between atoms: C_5  and  O_19
REMARK    2  A    between atoms: C_5  and  C_21
REMARK    3  A    between atoms: C_21  and  C_26
REMARK    4  A    between atoms: CA_28  and  CB_32
REMARK    5  A    between atoms: CB_32  and  CG_33
REMARK                            x       y       z     vdW  Elec       q    Type
REMARK                         _______ _______ _______ _____ _____    ______ ____
ROOT
ATOM      1  O   UNK A   1      -4.782   2.512   1.039  0.00  0.00    -0.277 OA
ATOM      2  N   UNK A   1      -1.456   1.653   0.115  0.00  0.00    +0.408 N 
ATOM      3  N   UNK A   1      -3.431   0.629   0.642  0.00  0.00    -0.279 N 
ATOM      4  C   UNK A   1      -2.021   0.347   0.505  0.00  0.00    +0.056 C 
ATOM      5  C   UNK A   1      -1.952  -1.030  -0.230  0.00  0.00    +0.110 C 
ATOM      6  C   UNK A   1      -2.329   2.615   0.866  0.00  0.00    +0.024 C 
ATOM      7  C   UNK A   1      -3.359  -1.548   0.041  0.00  0.00    +0.015 C 
ATOM      8  C   UNK A   1      -3.711   1.959   0.863  0.00  0.00    +0.208 C 
ATOM      9  C   UNK A   1      -1.485   1.889  -1.335  0.00  0.00    -0.074 C 
ATOM     10  C   UNK A   1      -2.297   4.074   0.422  0.00  0.00    -0.012 C 
ATOM     11  C   UNK A   1      -4.196  -0.510   0.482  0.00  0.00    +0.050 C 
ATOM     12  C   UNK A   1      -1.249   3.350  -1.712  0.00  0.00    -0.023 C 
ATOM     13  C   UNK A   1      -2.317   4.235  -1.089  0.00  0.00    -0.004 C 
ATOM     14  C   UNK A   1      -3.879  -2.811  -0.188  0.00  0.00    -0.001 C 
ATOM     15  C   UNK A   1      -5.551  -0.684   0.683  0.00  0.00    +0.015 C 
ATOM     16  C   UNK A   1      -5.245  -3.013   0.033  0.00  0.00    -0.000 C 
ATOM     17  C   UNK A   1      -6.073  -1.959   0.460  0.00  0.00    +0.001 C 
ATOM     18  H   UNK A   1      -0.464   1.737   0.339  0.00  0.00    -0.076 HD
ENDROOT
BRANCH   5  19
ATOM     19  O   UNK A   1      -1.768  -0.905  -1.634  0.00  0.00    -0.383 OA
ATOM     20  H   UNK A   1      -2.469  -0.345  -2.003  0.00  0.00    +0.211 HD
ENDBRANCH   5  19
BRANCH   5  21
ATOM     21  C   UNK A   1      -0.836  -1.913   0.312  0.00  0.00    +0.060 C 
BRANCH  21  26
ATOM     22  O   UNK A   1       1.345  -2.326   2.086  0.00  0.00    -0.273 OA
ATOM     23  O   PHE A   2       2.556  -1.259  -2.956  0.00  0.00    -0.273 OA
ATOM     24  N   UNK A   1       0.975  -1.615  -1.322  0.00  0.00    -0.297 N 
ATOM     25  N   PHE A   2       2.888  -1.684   0.503  0.00  0.00    -0.297 N 
ATOM     26  C   UNK A   1       0.535  -1.317   0.033  0.00  0.00    +0.151 C 
ATOM     27  C   UNK A   1       1.597  -1.869   0.974  0.00  0.00    +0.241 C 
ATOM     28  CA  PHE A   2       3.175  -0.839  -0.647  0.00  0.00    +0.153 C 
ATOM     29  C   PHE A   2       2.247  -1.290  -1.767  0.00  0.00    +0.241 C 
ATOM     30  H   UNK A   1       0.351  -2.060  -1.940  0.00  0.00    +0.150 HD
ATOM     31  H   PHE A   2       3.633  -2.138   0.960  0.00  0.00    +0.150 HD
BRANCH  28  32
ATOM     32  CB  PHE A   2       4.638  -0.932  -1.049  0.00  0.00    +0.055 C 
BRANCH  32  33
ATOM     33  CG  PHE A   2       5.517  -0.081  -0.170  0.00  0.00    -0.020 C 
ATOM     34  CD1 PHE A   2       5.776   1.245  -0.516  0.00  0.00    -0.004 C 
ATOM     35  CD2 PHE A   2       6.071  -0.619   0.992  0.00  0.00    -0.004 C 
ATOM     36  CE1 PHE A   2       6.589   2.033   0.298  0.00  0.00    -0.000 C 
ATOM     37  CE2 PHE A   2       6.885   0.169   1.806  0.00  0.00    -0.000 C 
ATOM     38  CZ  PHE A   2       7.144   1.495   1.459  0.00  0.00    -0.000 C 
ENDBRANCH  32  33
ENDBRANCH  28  32
ENDBRANCH  21  26
ENDBRANCH   5  21
TORSDOF 5
