REMARK  Name = 101149681
REMARK  9 active torsions:
REMARK  status: ('A' for Active; 'I' for Inactive)
REMARK    1  A    between atoms: C_1  and  C_4
REMARK    2  A    between atoms: C_1  and  O_21
REMARK    3  A    between atoms: O_21  and  C_23
REMARK    4  A    between atoms: C_24  and  O_28
REMARK    5  A    between atoms: C_25  and  O_30
REMARK    6  A    between atoms: C_26  and  O_32
REMARK    7  A    between atoms: C_27  and  C_34
REMARK    8  A    between atoms: C_34  and  O_35
REMARK    9  A    between atoms: O_35  and  C_37
REMARK                            x       y       z     vdW  Elec       q    Type
REMARK                         _______ _______ _______ _____ _____    ______ ____
ROOT
ATOM      1  C   UNL     1      -0.089   1.231  -1.130  0.00  0.00    +0.096 C 
ATOM      2  C   UNL     1      -1.139   2.129  -0.483  0.00  0.00    +0.030 C 
ATOM      3  C   UNL     1       0.122   1.607  -2.592  0.00  0.00    +0.030 C 
ENDROOT
BRANCH   1   4
ATOM      4  C   UNL     1       1.239   1.312  -0.361  0.00  0.00    +0.030 C 
ATOM      5  C   UNL     1       1.794   2.750  -0.489  0.00  0.00    +0.007 C 
ATOM      6  C   UNL     1       1.068   0.926   1.128  0.00  0.00    +0.028 C 
ATOM      7  C   UNL     1       3.287   2.909  -0.164  0.00  0.00    +0.022 C 
ATOM      8  C   UNL     1       0.399  -0.403   1.362  0.00  0.00    -0.035 C 
ATOM      9  C   UNL     1       4.227   2.387  -1.232  0.00  0.00    -0.048 C 
ATOM     10  C   UNL     1       0.935  -1.542   1.843  0.00  0.00    -0.048 C 
ATOM     11  C   UNL     1       2.379  -1.714   2.252  0.00  0.00    +0.026 C 
ATOM     12  C   UNL     1       5.106   1.380  -1.068  0.00  0.00    -0.034 C 
ATOM     13  C   UNL     1       4.200   3.139  -2.541  0.00  0.00    +0.026 C 
ATOM     14  C   UNL     1       5.311   0.518   0.145  0.00  0.00    +0.030 C 
ATOM     15  C   UNL     1       0.071  -2.766   2.019  0.00  0.00    +0.026 C 
ATOM     16  C   UNL     1       3.194  -2.427   1.169  0.00  0.00    +0.030 C 
ATOM     17  C   UNL     1       5.525  -0.947  -0.255  0.00  0.00    +0.026 C 
ATOM     18  C   UNL     1       5.671  -1.846   0.952  0.00  0.00    -0.048 C 
ATOM     19  C   UNL     1       4.648  -2.488   1.547  0.00  0.00    -0.034 C 
ATOM     20  C   UNL     1       7.075  -1.997   1.475  0.00  0.00    +0.026 C 
ENDBRANCH   1   4
BRANCH   1  21
ATOM     21  O   UNL     1      -0.548  -0.118  -1.088  0.00  0.00    -0.333 OA
BRANCH  21  23
ATOM     22  O   UNL     1      -2.680  -0.093  -0.141  0.00  0.00    -0.325 OA
ATOM     23  C   UNL     1      -1.947  -0.200  -1.359  0.00  0.00    +0.266 C 
ATOM     24  C   UNL     1      -2.217  -1.546  -2.032  0.00  0.00    +0.196 C 
ATOM     25  C   UNL     1      -3.716  -1.781  -2.222  0.00  0.00    +0.172 C 
ATOM     26  C   UNL     1      -4.488  -1.501  -0.932  0.00  0.00    +0.171 C 
ATOM     27  C   UNL     1      -4.093  -0.143  -0.346  0.00  0.00    +0.190 C 
BRANCH  24  28
ATOM     28  O   UNL     1      -1.573  -1.547  -3.305  0.00  0.00    -0.378 OA
ATOM     29  H   UNL     1      -0.622  -1.398  -3.186  0.00  0.00    +0.211 HD
ENDBRANCH  24  28
BRANCH  25  30
ATOM     30  O   UNL     1      -3.942  -3.144  -2.585  0.00  0.00    -0.379 OA
ATOM     31  H   UNL     1      -3.460  -3.345  -3.403  0.00  0.00    +0.211 HD
ENDBRANCH  25  30
BRANCH  26  32
ATOM     32  O   UNL     1      -5.886  -1.506  -1.209  0.00  0.00    -0.379 OA
ATOM     33  H   UNL     1      -6.139  -2.366  -1.581  0.00  0.00    +0.211 HD
ENDBRANCH  26  32
BRANCH  27  34
ATOM     34  C   UNL     1      -4.763   0.106   1.001  0.00  0.00    +0.240 C 
BRANCH  34  35
ATOM     35  O   UNL     1      -4.345   1.370   1.485  0.00  0.00    -0.446 OA
BRANCH  35  37
ATOM     36  O   UNL     1      -5.636   1.098   3.381  0.00  0.00    -0.250 OA
ATOM     37  C   UNL     1      -4.859   1.750   2.696  0.00  0.00    +0.318 C 
ATOM     38  C   UNL     1      -4.332   3.099   3.079  0.00  0.00    +0.121 C 
ENDBRANCH  35  37
ENDBRANCH  34  35
ENDBRANCH  27  34
ENDBRANCH  21  23
ENDBRANCH   1  21
TORSDOF 9
