REMARK  Name = 101115422
REMARK  8 active torsions:
REMARK  status: ('A' for Active; 'I' for Inactive)
REMARK    1  A    between atoms: C_3  and  O_18
REMARK    2  A    between atoms: C_4  and  N_9
REMARK    3  A    between atoms: C_5  and  O_20
REMARK    4  A    between atoms: C_6  and  C_22
REMARK    5  A    between atoms: N_10  and  N_14
REMARK    6  A    between atoms: N_10  and  C_15
REMARK    7  A    between atoms: C_15  and  C_17
REMARK    8  A    between atoms: C_22  and  O_23
REMARK                            x       y       z     vdW  Elec       q    Type
REMARK                         _______ _______ _______ _____ _____    ______ ____
ROOT
ATOM      1  O   UNL     1       2.985  -1.035   0.511  0.00  0.00    -0.325 OA
ATOM      2  O   UNL     1       1.198  -2.318   0.809  0.00  0.00    -0.188 OA
ATOM      3  C   UNL     1       1.380   1.136  -0.447  0.00  0.00    +0.163 C 
ATOM      4  C   UNL     1       0.751  -0.102   0.213  0.00  0.00    +0.162 C 
ATOM      5  C   UNL     1       2.841   1.317  -0.033  0.00  0.00    +0.169 C 
ATOM      6  C   UNL     1       3.620   0.015  -0.220  0.00  0.00    +0.176 C 
ATOM      7  C   UNL     1       1.662  -1.349   0.037  0.00  0.00    +0.290 C 
ENDROOT
BRANCH   4   9
ATOM      8  O   UNL     1      -1.679   0.031   1.633  0.00  0.00    -0.251 OA
ATOM      9  N   UNL     1      -0.570  -0.328  -0.348  0.00  0.00    -0.282 N 
ATOM     10  N   UNL     1      -2.919  -0.485  -0.256  0.00  0.00    -0.163 N 
ATOM     11  C   UNL     1      -1.718  -0.241   0.428  0.00  0.00    +0.320 C 
ATOM     12  H   UNL     1      -0.653  -0.548  -1.304  0.00  0.00    +0.151 HD
BRANCH  10  14
ATOM     13  O   UNL     1      -4.023  -0.996  -2.192  0.00  0.00    -0.078 OA
ATOM     14  N   UNL     1      -2.901  -0.804  -1.712  0.00  0.00    +0.054 NA
ENDBRANCH  10  14
BRANCH  10  15
ATOM     15  C   UNL     1      -4.206  -0.429   0.427  0.00  0.00    +0.134 C 
BRANCH  15  17
ATOM     16 CL   UNL     1      -6.390   0.991   1.242  0.00  0.00    -0.112 Cl
ATOM     17  C   UNL     1      -4.824   0.959   0.395  0.00  0.00    +0.118 C 
ENDBRANCH  15  17
ENDBRANCH  10  15
ENDBRANCH   4   9
BRANCH   3  18
ATOM     18  O   UNL     1       0.642   2.292  -0.043  0.00  0.00    -0.380 OA
ATOM     19  H   UNL     1      -0.288   2.188  -0.301  0.00  0.00    +0.211 HD
ENDBRANCH   3  18
BRANCH   5  20
ATOM     20  O   UNL     1       3.402   2.352  -0.837  0.00  0.00    -0.379 OA
ATOM     21  H   UNL     1       2.898   3.171  -0.707  0.00  0.00    +0.211 HD
ENDBRANCH   5  20
BRANCH   6  22
ATOM     22  C   UNL     1       5.052   0.120   0.296  0.00  0.00    +0.169 C 
BRANCH  22  23
ATOM     23  O   UNL     1       5.696  -1.125   0.096  0.00  0.00    -0.379 OA
ATOM     24  H   UNL     1       6.608  -1.073   0.420  0.00  0.00    +0.211 HD
ENDBRANCH  22  23
ENDBRANCH   6  22
TORSDOF 8
