REMARK  Name = 10110873
REMARK  10 active torsions:
REMARK  status: ('A' for Active; 'I' for Inactive)
REMARK    1  A    between atoms: C_1  and  N_25
REMARK    2  A    between atoms: C_2  and  C_9
REMARK    3  A    between atoms: C_5  and  N_24
REMARK    4  A    between atoms: N_8  and  C_11
REMARK    5  A    between atoms: C_11  and  C_12
REMARK    6  A    between atoms: C_15  and  O_18
REMARK    7  A    between atoms: C_16  and  O_20
REMARK    8  A    between atoms: N_25  and  CA_27
REMARK    9  A    between atoms: CA_27  and  C_29
REMARK   10  A    between atoms: C_29  and  O_30
REMARK                            x       y       z     vdW  Elec       q    Type
REMARK                         _______ _______ _______ _____ _____    ______ ____
ROOT
ATOM      1  C   UNK A   0       2.042   0.917  -0.016  0.00  0.00    +0.049 C 
ATOM      2  C   UNK A   0       2.193  -0.465  -0.133  0.00  0.00    +0.068 C 
ATOM      3  C   UNK A   0       3.163   1.730   0.152  0.00  0.00    +0.016 C 
ATOM      4  C   UNK A   0       3.465  -1.034  -0.081  0.00  0.00    +0.030 C 
ATOM      5  C   UNK A   0       4.586  -0.222   0.087  0.00  0.00    +0.143 C 
ATOM      6  C   UNK A   0       4.435   1.160   0.204  0.00  0.00    +0.025 C 
ENDROOT
BRANCH   2   9
ATOM      7  O   UNK A   0       0.783  -2.216   0.532  0.00  0.00    -0.270 OA
ATOM      8  N   UNK A   0       0.251  -1.125  -1.443  0.00  0.00    -0.297 N 
ATOM      9  C   UNK A   0       1.041  -1.341  -0.310  0.00  0.00    +0.247 C 
ATOM     10  H   UNK A   0       0.517  -0.412  -2.068  0.00  0.00    +0.150 HD
BRANCH   8  11
ATOM     11  C   UNK A   0      -0.935  -1.894  -1.745  0.00  0.00    +0.117 C 
BRANCH  11  12
ATOM     12  C   UNK A   0      -2.169  -1.280  -1.150  0.00  0.00    +0.001 C 
ATOM     13  C   UNK A   0      -2.579  -1.641   0.133  0.00  0.00    +0.037 C 
ATOM     14  C   UNK A   0      -2.905  -0.347  -1.881  0.00  0.00    +0.001 C 
ATOM     15  C   UNK A   0      -3.725  -1.070   0.685  0.00  0.00    +0.172 C 
ATOM     16  C   UNK A   0      -4.462  -0.137  -0.045  0.00  0.00    +0.172 C 
ATOM     17  C   UNK A   0      -4.052   0.224  -1.329  0.00  0.00    +0.040 C 
BRANCH  15  18
ATOM     18  O   UNK A   0      -4.115  -1.429   1.940  0.00  0.00    -0.468 OA
ATOM     19  C   UNK A   0      -3.307  -2.388   2.620  0.00  0.00    +0.253 C 
ENDBRANCH  15  18
BRANCH  16  20
ATOM     20  O   UNK A   0      -5.582   0.428   0.484  0.00  0.00    -0.468 OA
ATOM     21  C   UNK A   0      -6.278   1.372  -0.328  0.00  0.00    +0.253 C 
ENDBRANCH  16  20
ENDBRANCH  11  12
ENDBRANCH   8  11
ENDBRANCH   2   9
BRANCH   5  24
ATOM     22  O   UNK A   0       6.877  -0.052   0.293  0.00  0.00    -0.126 OA
ATOM     23  O   UNK A   0       5.996  -2.046   0.035  0.00  0.00    -0.126 OA
ATOM     24  N   UNK A   0       5.882  -0.801   0.141  0.00  0.00    +0.058 N 
ENDBRANCH   5  24
BRANCH   1  25
ATOM     25  N   ALA A   1       0.790   1.501  -0.065  0.00  0.00    -0.332 N 
ATOM     26  H   ALA A   1       0.007   0.916  -0.185  0.00  0.00    +0.147 HD
BRANCH  25  27
ATOM     27  CA  ALA A   1       0.567   2.929   0.050  0.00  0.00    +0.099 C 
ATOM     28  CB  ALA A   1       0.650   3.322   1.519  0.00  0.00    +0.024 C 
BRANCH  27  29
ATOM     29  C   ALA A   1      -0.794   3.285  -0.542  0.00  0.00    +0.156 C 
BRANCH  29  30
ATOM     30  O   ALA A   1      -1.816   2.621   0.193  0.00  0.00    -0.380 OA
ATOM     31  H   ALA A   1      -2.682   2.846  -0.181  0.00  0.00    +0.211 HD
ENDBRANCH  29  30
ENDBRANCH  27  29
ENDBRANCH  25  27
ENDBRANCH   1  25
TORSDOF 10
