REMARK  Name = 101100
REMARK  6 active torsions:
REMARK  status: ('A' for Active; 'I' for Inactive)
REMARK    1  A    between atoms: C_3  and  N_9
REMARK    2  A    between atoms: C_5  and  C_17
REMARK    3  A    between atoms: CA_7  and  C_14
REMARK    4  A    between atoms: C_14  and  O_15
REMARK    5  A    between atoms: C_17  and  C_19
REMARK    6  A    between atoms: C_19  and  O_20
REMARK                            x       y       z     vdW  Elec       q    Type
REMARK                         _______ _______ _______ _____ _____    ______ ____
ROOT
ATOM      1  O   UNL     1       1.051   2.255   0.698  0.00  0.00    -0.294 OA
ATOM      2  N   UNL     1       1.376  -1.617  -0.322  0.00  0.00    -0.329 N 
ATOM      3  C   UNL     1       2.344   0.590  -0.490  0.00  0.00    +0.018 C 
ATOM      4  C   UNL     1       2.607  -0.877  -0.169  0.00  0.00    +0.073 C 
ATOM      5  C   UNL     1      -0.064   0.173   0.401  0.00  0.00    +0.041 C 
ATOM      6  C   UNL     1       1.122   1.103   0.270  0.00  0.00    +0.152 C 
ATOM      7  CA  UNL     1       0.153  -1.112   0.056  0.00  0.00    +0.120 C 
ATOM      8  H   UNL     1       1.413  -2.519  -0.714  0.00  0.00    +0.147 HD
ENDROOT
BRANCH   3   9
ATOM      9  N   UNL     1       3.501   1.399  -0.121  0.00  0.00    +0.388 N 
ATOM     10  H   UNL     1       4.324   1.065  -0.622  0.00  0.00    -0.089 HD
ATOM     11  H   UNL     1       3.662   1.324   0.884  0.00  0.00    -0.089 HD
ATOM     12  H   UNL     1       3.326   2.374  -0.365  0.00  0.00    -0.089 HD
ENDBRANCH   3   9
BRANCH   7  14
ATOM     13  OXT UNL     1      -2.109  -1.817  -0.136  0.00  0.00    -0.244 OA
ATOM     14  C   UNL     1      -0.945  -2.092   0.071  0.00  0.00    +0.351 C 
BRANCH  14  15
ATOM     15  O   UNL     1      -0.449  -3.313   0.346  0.00  0.00    -0.476 OA
ATOM     16  H   UNL     1       0.470  -3.424   0.492  0.00  0.00    +0.295 HD
ENDBRANCH  14  15
ENDBRANCH   7  14
BRANCH   5  17
ATOM     17  C   UNL     1      -1.327   0.811   0.898  0.00  0.00    +0.140 C 
BRANCH  17  19
ATOM     18  O   UNL     1      -1.853   1.255  -1.448  0.00  0.00    -0.250 OA
ATOM     19  C   UNL     1      -2.136   1.327  -0.261  0.00  0.00    +0.318 C 
BRANCH  19  20
ATOM     20  O   UNL     1      -3.269   1.913   0.207  0.00  0.00    -0.480 OA
ATOM     21  H   UNL     1      -3.436   1.940   1.129  0.00  0.00    +0.295 HD
ENDBRANCH  19  20
ENDBRANCH  17  19
ENDBRANCH   5  17
TORSDOF 6
