101149680
  -OEChem-03292013293D

 81 82  0     1  0  0  0  0  0999 V2000
    2.6005   -1.8048   -1.0496 O   0  0  0  0  0  0  0  0  0  0  0  0
    2.2773    0.3137   -0.1244 O   0  0  0  0  0  0  0  0  0  0  0  0
    5.2878   -1.7717   -0.1299 O   0  0  0  0  0  0  0  0  0  0  0  0
    6.3647    0.8973    0.1576 O   0  0  0  0  0  0  0  0  0  0  0  0
    4.1768    2.3540   -0.7479 O   0  0  0  0  0  0  0  0  0  0  0  0
    0.5182    2.1022    1.4358 O   0  0  0  0  0  0  0  0  0  0  0  0
   -0.4326    4.1431    0.9183 O   0  0  0  0  0  0  0  0  0  0  0  0
    1.5757   -2.6485   -0.5297 C   0  0  0  0  0  0  0  0  0  0  0  0
    0.4023   -1.7623   -0.0854 C   0  0  1  0  0  0  0  0  0  0  0  0
    3.0600   -0.8779   -0.0663 C   0  0  2  0  0  0  0  0  0  0  0  0
    4.5334   -0.5806   -0.3535 C   0  0  1  0  0  0  0  0  0  0  0  0
   -0.0512   -0.9137   -1.2930 C   0  0  0  0  0  0  0  0  0  0  0  0
    5.0521    0.5236    0.5672 C   0  0  2  0  0  0  0  0  0  0  0  0
    4.1263    1.7402    0.5416 C   0  0  2  0  0  0  0  0  0  0  0  0
    2.6862    1.3017    0.8298 C   0  0  1  0  0  0  0  0  0  0  0  0
   -0.7267   -2.6548    0.4829 C   0  0  0  0  0  0  0  0  0  0  0  0
    2.1351   -3.4316    0.6535 C   0  0  0  0  0  0  0  0  0  0  0  0
    1.1357   -3.5896   -1.6452 C   0  0  0  0  0  0  0  0  0  0  0  0
   -1.0430    0.1929   -0.9340 C   0  0  0  0  0  0  0  0  0  0  0  0
    1.6983    2.4589    0.7386 C   0  0  0  0  0  0  0  0  0  0  0  0
   -1.4023   -2.0889    1.7067 C   0  0  0  0  0  0  0  0  0  0  0  0
   -1.4722    0.9867   -2.1502 C   0  0  0  0  0  0  0  0  0  0  0  0
   -2.7214   -1.9358    1.9484 C   0  0  0  0  0  0  0  0  0  0  0  0
   -3.8121   -2.2370    0.9404 C   0  0  0  0  0  0  0  0  0  0  0  0
   -2.6448    0.8156   -2.7930 C   0  0  0  0  0  0  0  0  0  0  0  0
   -0.5116    2.0577   -2.5958 C   0  0  0  0  0  0  0  0  0  0  0  0
   -3.7056   -0.2064   -2.4917 C   0  0  0  0  0  0  0  0  0  0  0  0
   -3.1732   -1.5447    3.3334 C   0  0  0  0  0  0  0  0  0  0  0  0
   -5.0163   -1.2802    0.8831 C   0  0  0  0  0  0  0  0  0  0  0  0
   -4.9476    0.3701   -1.7971 C   0  0  0  0  0  0  0  0  0  0  0  0
   -4.6883    0.9161   -0.4095 C   0  0  0  0  0  0  0  0  0  0  0  0
   -4.6957    0.1798    0.7190 C   0  0  0  0  0  0  0  0  0  0  0  0
   -0.4785    3.0418    1.4495 C   0  0  0  0  0  0  0  0  0  0  0  0
   -4.4491    2.4034   -0.3282 C   0  0  0  0  0  0  0  0  0  0  0  0
   -1.6581    2.5297    2.2190 C   0  0  0  0  0  0  0  0  0  0  0  0
    0.7020   -1.0885    0.7230 H   0  0  0  0  0  0  0  0  0  0  0  0
    3.0081   -1.2713    0.9521 H   0  0  0  0  0  0  0  0  0  0  0  0
    4.6792   -0.3069   -1.4050 H   0  0  0  0  0  0  0  0  0  0  0  0
   -0.5524   -1.5619   -2.0240 H   0  0  0  0  0  0  0  0  0  0  0  0
    0.7909   -0.4713   -1.8329 H   0  0  0  0  0  0  0  0  0  0  0  0
    5.1356    0.1401    1.5918 H   0  0  0  0  0  0  0  0  0  0  0  0
    4.4718    2.4840    1.2687 H   0  0  0  0  0  0  0  0  0  0  0  0
    2.6244    0.8554    1.8313 H   0  0  0  0  0  0  0  0  0  0  0  0
   -0.3559   -3.6303    0.8109 H   0  0  0  0  0  0  0  0  0  0  0  0
   -1.4469   -2.8834   -0.3077 H   0  0  0  0  0  0  0  0  0  0  0  0
    3.1981   -3.6608    0.5128 H   0  0  0  0  0  0  0  0  0  0  0  0
    2.0331   -2.9122    1.6128 H   0  0  0  0  0  0  0  0  0  0  0  0
    1.6293   -4.3962    0.7785 H   0  0  0  0  0  0  0  0  0  0  0  0
    0.9083   -3.0601   -2.5761 H   0  0  0  0  0  0  0  0  0  0  0  0
    1.9649   -4.2605   -1.9055 H   0  0  0  0  0  0  0  0  0  0  0  0
    0.2855   -4.2232   -1.3784 H   0  0  0  0  0  0  0  0  0  0  0  0
   -0.5920    0.8697   -0.2153 H   0  0  0  0  0  0  0  0  0  0  0  0
   -1.9119   -0.2305   -0.4289 H   0  0  0  0  0  0  0  0  0  0  0  0
    1.4517    2.6802   -0.3053 H   0  0  0  0  0  0  0  0  0  0  0  0
    2.1213    3.3520    1.2133 H   0  0  0  0  0  0  0  0  0  0  0  0
   -0.7121   -1.8693    2.5213 H   0  0  0  0  0  0  0  0  0  0  0  0
    5.1798   -2.0277    0.8020 H   0  0  0  0  0  0  0  0  0  0  0  0
    6.6659    1.6056    0.7519 H   0  0  0  0  0  0  0  0  0  0  0  0
    3.7315    3.2157   -0.6848 H   0  0  0  0  0  0  0  0  0  0  0  0
   -3.4010   -2.2999   -0.0696 H   0  0  0  0  0  0  0  0  0  0  0  0
   -4.1990   -3.2396    1.1667 H   0  0  0  0  0  0  0  0  0  0  0  0
   -2.8715    1.4649   -3.6374 H   0  0  0  0  0  0  0  0  0  0  0  0
   -0.8502    2.5647   -3.5057 H   0  0  0  0  0  0  0  0  0  0  0  0
    0.4750    1.6345   -2.8068 H   0  0  0  0  0  0  0  0  0  0  0  0
   -0.4080    2.8182   -1.8162 H   0  0  0  0  0  0  0  0  0  0  0  0
   -4.0190   -0.6435   -3.4488 H   0  0  0  0  0  0  0  0  0  0  0  0
   -3.3003   -1.0436   -1.9175 H   0  0  0  0  0  0  0  0  0  0  0  0
   -3.6005   -0.5394    3.3431 H   0  0  0  0  0  0  0  0  0  0  0  0
   -2.3498   -1.5536    4.0562 H   0  0  0  0  0  0  0  0  0  0  0  0
   -3.9275   -2.2501    3.6979 H   0  0  0  0  0  0  0  0  0  0  0  0
   -5.6061   -1.3880    1.8029 H   0  0  0  0  0  0  0  0  0  0  0  0
   -5.6845   -1.6183    0.0830 H   0  0  0  0  0  0  0  0  0  0  0  0
   -5.7139   -0.4126   -1.7518 H   0  0  0  0  0  0  0  0  0  0  0  0
   -5.3891    1.1566   -2.4234 H   0  0  0  0  0  0  0  0  0  0  0  0
   -4.4984    0.6992    1.6551 H   0  0  0  0  0  0  0  0  0  0  0  0
   -3.5150    2.6822   -0.8216 H   0  0  0  0  0  0  0  0  0  0  0  0
   -4.3952    2.7591    0.7058 H   0  0  0  0  0  0  0  0  0  0  0  0
   -5.2706    2.9448   -0.8093 H   0  0  0  0  0  0  0  0  0  0  0  0
   -2.0366    1.6169    1.7549 H   0  0  0  0  0  0  0  0  0  0  0  0
   -2.4505    3.2830    2.2128 H   0  0  0  0  0  0  0  0  0  0  0  0
   -1.3678    2.3391    3.2552 H   0  0  0  0  0  0  0  0  0  0  0  0
  1  8  1  0  0  0  0
  1 10  1  0  0  0  0
  2 10  1  0  0  0  0
  2 15  1  0  0  0  0
  3 11  1  0  0  0  0
  3 57  1  0  0  0  0
  4 13  1  0  0  0  0
  4 58  1  0  0  0  0
  5 14  1  0  0  0  0
  5 59  1  0  0  0  0
  6 20  1  0  0  0  0
  6 33  1  0  0  0  0
  7 33  2  0  0  0  0
  8  9  1  0  0  0  0
  8 17  1  0  0  0  0
  8 18  1  0  0  0  0
  9 12  1  0  0  0  0
  9 16  1  0  0  0  0
  9 36  1  0  0  0  0
 10 11  1  0  0  0  0
 10 37  1  0  0  0  0
 11 13  1  0  0  0  0
 11 38  1  0  0  0  0
 12 19  1  0  0  0  0
 12 39  1  0  0  0  0
 12 40  1  0  0  0  0
 13 14  1  0  0  0  0
 13 41  1  0  0  0  0
 14 15  1  0  0  0  0
 14 42  1  0  0  0  0
 15 20  1  0  0  0  0
 15 43  1  0  0  0  0
 16 21  1  0  0  0  0
 16 44  1  0  0  0  0
 16 45  1  0  0  0  0
 17 46  1  0  0  0  0
 17 47  1  0  0  0  0
 17 48  1  0  0  0  0
 18 49  1  0  0  0  0
 18 50  1  0  0  0  0
 18 51  1  0  0  0  0
 19 22  1  0  0  0  0
 19 52  1  0  0  0  0
 19 53  1  0  0  0  0
 20 54  1  0  0  0  0
 20 55  1  0  0  0  0
 21 23  2  0  0  0  0
 21 56  1  0  0  0  0
 22 25  2  0  0  0  0
 22 26  1  0  0  0  0
 23 24  1  0  0  0  0
 23 28  1  0  0  0  0
 24 29  1  0  0  0  0
 24 60  1  0  0  0  0
 24 61  1  0  0  0  0
 25 27  1  0  0  0  0
 25 62  1  0  0  0  0
 26 63  1  0  0  0  0
 26 64  1  0  0  0  0
 26 65  1  0  0  0  0
 27 30  1  0  0  0  0
 27 66  1  0  0  0  0
 27 67  1  0  0  0  0
 28 68  1  0  0  0  0
 28 69  1  0  0  0  0
 28 70  1  0  0  0  0
 29 32  1  0  0  0  0
 29 71  1  0  0  0  0
 29 72  1  0  0  0  0
 30 31  1  0  0  0  0
 30 73  1  0  0  0  0
 30 74  1  0  0  0  0
 31 32  2  0  0  0  0
 31 34  1  0  0  0  0
 32 75  1  0  0  0  0
 33 35  1  0  0  0  0
 34 76  1  0  0  0  0
 34 77  1  0  0  0  0
 34 78  1  0  0  0  0
 35 79  1  0  0  0  0
 35 80  1  0  0  0  0
 35 81  1  0  0  0  0
M  END
> <PUBCHEM_COMPOUND_CID>
101149680

> <PUBCHEM_CONFORMER_RMSD>
1

> <PUBCHEM_CONFORMER_DIVERSEORDER>
4
93
254
205
37
123
42
2
267
135
125
76
210
162
166
259
9
173
117
241
195
266
52
38
272
274
28
6
149
279
192
11
271
115
206
51
278
245
66
273
30
185
248
182
40
139
45
12
113
60
203
155
236
222
33
90
86
199
134
246
138
214
264
204
103
88
168
277
177
129
229
13
35
36
107
191
126
151
64
102
147
213
190
255
226
34
83
127
223
50
21
232
144
17
20
1
183
10
81
242
78
124
207
154
47
184
29
22
253
180
174
175
59
14
244
91
132
257
25
238
8
239
275
79
237
84
249
202
230
16
217
136
250
181
152
110
146
189
58
157
170
160
19
218
61
18
148
119
172
262
31
176
105
265
54
94
75
74
5
270
227
201
216
141
186
137
46
233
256
43
194
258
68
251
140
133
99
268
98
65
101
219
211
252
178
220
41
26
49
97
225
130
24
188
108
145
104
114
197
234
280
231
209
240
163
96
159
122
198
32
118
95
243
72
263
3
161
187
71
235
69
200
193
208
62
92
82
153
121
167
276
156
215
221
112
158
212
109
23
53
260
39
111
116
128
247
131
56
228
224
70
171
150
63
44
73
85
89
269
142
106
120
87
165
261
57
164
67
179
27
169
7
55
48
100
77
196
143
15
80

> <PUBCHEM_MMFF94_PARTIAL_CHARGES>
37
1 -0.56
10 0.56
11 0.28
13 0.28
14 0.28
15 0.28
16 0.14
19 0.14
2 -0.56
20 0.28
21 -0.29
22 -0.28
23 -0.28
24 0.14
25 -0.29
26 0.14
27 0.14
28 0.14
29 0.14
3 -0.68
30 0.14
31 -0.28
32 -0.29
33 0.66
34 0.14
35 0.06
4 -0.68
5 -0.68
56 0.15
57 0.4
58 0.4
59 0.4
6 -0.43
62 0.15
7 -0.57
75 0.15
8 0.28

> <PUBCHEM_EFFECTIVE_ROTOR_COUNT>
8.8

> <PUBCHEM_PHARMACOPHORE_FEATURES>
11
1 1 acceptor
1 2 acceptor
1 3 acceptor
1 3 donor
1 4 acceptor
1 4 donor
1 5 acceptor
1 5 donor
1 7 acceptor
3 8 17 18 hydrophobe
6 2 10 11 13 14 15 rings

> <PUBCHEM_HEAVY_ATOM_COUNT>
35

> <PUBCHEM_ATOM_DEF_STEREO_COUNT>
6

> <PUBCHEM_ATOM_UDEF_STEREO_COUNT>
0

> <PUBCHEM_BOND_DEF_STEREO_COUNT>
3

> <PUBCHEM_BOND_UDEF_STEREO_COUNT>
0

> <PUBCHEM_ISOTOPIC_ATOM_COUNT>
0

> <PUBCHEM_COMPONENT_COUNT>
1

> <PUBCHEM_CACTVS_TAUTO_COUNT>
2

> <PUBCHEM_CONFORMER_ID>
06076BF000000004

> <PUBCHEM_MMFF94_ENERGY>
93.1604

> <PUBCHEM_FEATURE_SELFOVERLAP>
55.885

> <PUBCHEM_SHAPE_FINGERPRINT>
11578080 2 18188507795301907859
12128747 34 17531802433994309018
12156800 1 17693429590883182236
12422481 6 18114467858902730958
13165053 68 17986388005507551343
13383668 90 14710286165261635954
13402501 40 18260546736317942151
14251757 17 18333731282698369435
14279260 333 18126284130400332478
15219462 58 18123495798475721942
15721738 202 17772731987786520255
15968369 153 17917423191026637904
20600515 1 17458639907847047967
20764821 26 18412831286892141475
21792961 116 18334297531989007862
3380486 145 18337683017535807315
35225 105 17249158874249486281
392239 28 18341905077566233459
4742675 86 18341613668335402968
508706 21 17894905261519740431
56638632 10 17914055562561599945
581034 39 16750434886050935429

> <PUBCHEM_SHAPE_MULTIPOLES>
679.2
10.76
4.38
2.64
5.07
0.02
-0.19
1.15
0.05
0.84
1.26
-3.35
0.29
2.23

> <PUBCHEM_SHAPE_SELFOVERLAP>
1364.665

> <PUBCHEM_SHAPE_VOLUME>
395.1

> <PUBCHEM_COORDINATE_TYPE>
2
5
10

$$$$
