REMARK  Name = 101131483
REMARK  2 active torsions:
REMARK  status: ('A' for Active; 'I' for Inactive)
REMARK    1  A    between atoms: C_8  and  O_19
REMARK    2  A    between atoms: C_10  and  O_21
REMARK                            x       y       z     vdW  Elec       q    Type
REMARK                         _______ _______ _______ _____ _____    ______ ____
ROOT
ATOM      1  O   UNL     1      -2.270  -0.315  -1.264  0.00  0.00    -0.334 OA
ATOM      2  N   UNL     1      -0.166  -0.343  -0.294  0.00  0.00    -0.224 N 
ATOM      3  N   UNL     1       0.861   1.519   0.360  0.00  0.00    -0.383 NA
ATOM      4  N   UNL     1       1.737  -1.844  -0.496  0.00  0.00    -0.227 NA
ATOM      5  N   UNL     1       3.814  -0.695   0.070  0.00  0.00    -0.227 NA
ATOM      6  C   UNL     1      -2.759   0.539  -0.196  0.00  0.00    +0.179 C 
ATOM      7  C   UNL     1      -1.313  -1.173  -0.611  0.00  0.00    +0.201 C 
ATOM      8  C   UNL     1      -2.961  -0.439   0.965  0.00  0.00    +0.145 C 
ATOM      9  C   UNL     1      -2.043  -1.620   0.647  0.00  0.00    +0.083 C 
ATOM     10  C   UNL     1      -1.663   1.595   0.078  0.00  0.00    +0.207 C 
ATOM     11  C   UNL     1      -0.305   0.977   0.071  0.00  0.00    +0.196 C 
ATOM     12  C   UNL     1       1.152  -0.665  -0.233  0.00  0.00    +0.169 C 
ATOM     13  C   UNL     1       1.776   0.507   0.174  0.00  0.00    +0.195 C 
ATOM     14  C   UNL     1       3.159   0.464   0.322  0.00  0.00    +0.155 C 
ATOM     15  C   UNL     1       3.073  -1.761  -0.318  0.00  0.00    +0.253 C 
ATOM     16  N   UNL     1       3.874   1.603   0.730  0.00  0.00    -0.341 N 
ATOM     17  H   UNL     1       4.852   1.561   0.832  0.00  0.00    +0.144 HD
ATOM     18  H   UNL     1       3.395   2.444   0.914  0.00  0.00    +0.144 HD
ENDROOT
BRANCH   8  19
ATOM     19  O   UNL     1      -4.307  -0.905   0.969  0.00  0.00    -0.382 OA
ATOM     20  H   UNL     1      -4.904  -0.167   1.170  0.00  0.00    +0.210 HD
ENDBRANCH   8  19
BRANCH  10  21
ATOM     21  O   UNL     1      -1.660   2.554  -0.975  0.00  0.00    -0.374 OA
ATOM     22  H   UNL     1      -2.525   2.991  -1.018  0.00  0.00    +0.211 HD
ENDBRANCH  10  21
TORSDOF 2
