REMARK  Name = 101197698
REMARK  6 active torsions:
REMARK  status: ('A' for Active; 'I' for Inactive)
REMARK    1  A    between atoms: C_7  and  C_32
REMARK    2  A    between atoms: C_12  and  O_24
REMARK    3  A    between atoms: C_16  and  O_26
REMARK    4  A    between atoms: C_18  and  O_28
REMARK    5  A    between atoms: C_21  and  O_30
REMARK    6  A    between atoms: C_32  and  O_33
REMARK                            x       y       z     vdW  Elec       q    Type
REMARK                         _______ _______ _______ _____ _____    ______ ____
ROOT
ATOM      1  O   UNL     1       0.560  -1.036  -0.103  0.00  0.00    -0.470 OA
ATOM      2  O   UNL     1      -6.388  -2.644   0.093  0.00  0.00    -0.291 OA
ATOM      3  C   UNL     1       1.283   1.253   0.134  0.00  0.00    +0.032 C 
ATOM      4  C   UNL     1       1.571  -0.108   0.013  0.00  0.00    +0.142 C 
ATOM      5  C   UNL     1      -1.110   0.803   0.010  0.00  0.00    +0.055 C 
ATOM      6  C   UNL     1       2.905  -0.578   0.007  0.00  0.00    +0.068 C 
ATOM      7  C   UNL     1       2.328   2.169   0.254  0.00  0.00    +0.010 C 
ATOM      8  C   UNL     1      -0.767  -0.625  -0.060  0.00  0.00    +0.213 C 
ATOM      9  C   UNL     1      -0.108   1.696   0.124  0.00  0.00    +0.005 C 
ATOM     10  C   UNL     1       3.956   0.363   0.130  0.00  0.00    +0.009 C 
ATOM     11  C   UNL     1       3.652   1.727   0.252  0.00  0.00    -0.001 C 
ATOM     12  C   UNL     1      -2.539   1.210  -0.013  0.00  0.00    +0.136 C 
ATOM     13  C   UNL     1      -3.538   0.286   0.000  0.00  0.00    +0.064 C 
ATOM     14  C   UNL     1      -3.143  -1.146  -0.008  0.00  0.00    -0.009 C 
ATOM     15  C   UNL     1      -1.743  -1.547  -0.066  0.00  0.00    +0.018 C 
ATOM     16  C   UNL     1       3.241  -1.944  -0.114  0.00  0.00    +0.140 C 
ATOM     17  C   UNL     1       5.290  -0.077   0.128  0.00  0.00    +0.037 C 
ATOM     18  C   UNL     1      -4.968   0.621   0.006  0.00  0.00    +0.139 C 
ATOM     19  C   UNL     1      -4.089  -2.102   0.020  0.00  0.00    +0.096 C 
ATOM     20  C   UNL     1       4.572  -2.364  -0.114  0.00  0.00    +0.073 C 
ATOM     21  C   UNL     1       5.595  -1.432   0.007  0.00  0.00    +0.137 C 
ATOM     22  C   UNL     1      -5.909  -0.334   0.035  0.00  0.00    +0.074 C 
ATOM     23  C   UNL     1      -5.534  -1.766   0.055  0.00  0.00    +0.181 C 
ENDROOT
BRANCH  12  24
ATOM     24  O   UNL     1      -2.808   2.566  -0.059  0.00  0.00    -0.506 OA
ATOM     25  H   UNL     1      -2.103   3.184  -0.067  0.00  0.00    +0.292 HD
ENDBRANCH  12  24
BRANCH  16  26
ATOM     26  O   UNL     1       2.296  -2.924  -0.238  0.00  0.00    -0.505 OA
ATOM     27  H   UNL     1       1.387  -2.699  -0.244  0.00  0.00    +0.292 HD
ENDBRANCH  16  26
BRANCH  18  28
ATOM     28  O   UNL     1      -5.309   1.958  -0.011  0.00  0.00    -0.505 OA
ATOM     29  H   UNL     1      -4.638   2.612  -0.031  0.00  0.00    +0.292 HD
ENDBRANCH  18  28
BRANCH  21  30
ATOM     30  O   UNL     1       6.894  -1.840   0.005  0.00  0.00    -0.505 OA
ATOM     31  H   UNL     1       7.582  -1.210   0.086  0.00  0.00    +0.292 HD
ENDBRANCH  21  30
BRANCH   7  32
ATOM     32  C   UNL     1       2.093   3.641   0.387  0.00  0.00    +0.164 C 
BRANCH  32  33
ATOM     33  O   UNL     1       1.718   4.171  -0.876  0.00  0.00    -0.377 OA
ATOM     34  H   UNL     1       1.565   5.125  -0.794  0.00  0.00    +0.211 HD
ENDBRANCH  32  33
ENDBRANCH   7  32
TORSDOF 6
