REMARK  Name = 101111
REMARK  8 active torsions:
REMARK  status: ('A' for Active; 'I' for Inactive)
REMARK    1  A    between atoms: N_2  and  CA_17
REMARK    2  A    between atoms: C_3  and  C_5
REMARK    3  A    between atoms: C_8  and  N_13
REMARK    4  A    between atoms: C_9  and  N_16
REMARK    5  A    between atoms: CA_17  and  C_19
REMARK    6  A    between atoms: CA_17  and  CB_22
REMARK    7  A    between atoms: C_19  and  O_20
REMARK    8  A    between atoms: CB_22  and  CG_23
REMARK                            x       y       z     vdW  Elec       q    Type
REMARK                         _______ _______ _______ _____ _____    ______ ____
ROOT
ATOM      1  O   UNK A   0      -1.127   1.431   1.528  0.00  0.00    -0.270 OA
ATOM      2  N   LEU A   1      -1.810  -0.256   0.092  0.00  0.00    -0.293 N 
ATOM      3  C   UNK A   0      -0.864   0.518   0.750  0.00  0.00    +0.246 C 
ATOM      4  H   LEU A   1      -1.500  -0.967  -0.514  0.00  0.00    +0.150 HD
ENDROOT
BRANCH   3   5
ATOM      5  C   UNK A   0       0.557   0.208   0.448  0.00  0.00    +0.057 C 
ATOM      6  C   UNK A   0       1.498   1.209   0.574  0.00  0.00    +0.029 C 
ATOM      7  C   UNK A   0       0.890  -1.070   0.050  0.00  0.00    +0.029 C 
ATOM      8  C   UNK A   0       2.224  -1.361  -0.235  0.00  0.00    +0.145 C 
ATOM      9  C   UNK A   0       2.833   0.918   0.289  0.00  0.00    +0.145 C 
ATOM     10  C   UNK A   0       3.196  -0.367  -0.115  0.00  0.00    +0.048 C 
BRANCH   8  13
ATOM     11  O   UNK A   0       1.704  -3.549  -0.745  0.00  0.00    -0.126 OA
ATOM     12  O   UNK A   0       3.799  -2.910  -0.897  0.00  0.00    -0.126 OA
ATOM     13  N   UNK A   0       2.594  -2.669  -0.645  0.00  0.00    +0.058 N 
ENDBRANCH   8  13
BRANCH   9  16
ATOM     14  O   UNK A   0       3.473   3.079   0.773  0.00  0.00    -0.126 OA
ATOM     15  O   UNK A   0       5.016   1.648   0.149  0.00  0.00    -0.126 OA
ATOM     16  N   UNK A   0       3.821   1.930   0.409  0.00  0.00    +0.058 N 
ENDBRANCH   9  16
ENDBRANCH   3   5
BRANCH   2  17
ATOM     17  CA  LEU A   1      -3.227  -0.061   0.261  0.00  0.00    +0.171 C 
BRANCH  17  19
ATOM     18  OXT LEU A   1      -5.092  -1.213   1.285  0.00  0.00    -0.248 OA
ATOM     19  C   LEU A   1      -3.915  -1.233   0.942  0.00  0.00    +0.332 C 
BRANCH  19  20
ATOM     20  O   LEU A   1      -3.108  -2.292   1.191  0.00  0.00    -0.479 OA
ATOM     21  H   LEU A   1      -2.213  -2.274   0.915  0.00  0.00    +0.295 HD
ENDBRANCH  19  20
ENDBRANCH  17  19
BRANCH  17  22
ATOM     22  CB  LEU A   1      -3.916   0.362  -1.044  0.00  0.00    +0.031 C 
BRANCH  22  23
ATOM     23  CG  LEU A   1      -3.318   1.560  -1.817  0.00  0.00    +0.002 C 
ATOM     24  CD1 LEU A   1      -3.325   2.799  -0.912  0.00  0.00    +0.000 C 
ATOM     25  CD2 LEU A   1      -1.902   1.317  -2.333  0.00  0.00    +0.000 C 
ENDBRANCH  22  23
ENDBRANCH  17  22
ENDBRANCH   2  17
TORSDOF 8
