REMARK  Name = 101174456
REMARK  7 active torsions:
REMARK  status: ('A' for Active; 'I' for Inactive)
REMARK    1  A    between atoms: C_3  and  O_25
REMARK    2  A    between atoms: C_4  and  O_21
REMARK    3  A    between atoms: C_12  and  O_23
REMARK    4  A    between atoms: C_15  and  C_35
REMARK    5  A    between atoms: O_25  and  C_27
REMARK    6  A    between atoms: C_30  and  O_33
REMARK    7  A    between atoms: C_35  and  O_36
REMARK                            x       y       z     vdW  Elec       q    Type
REMARK                         _______ _______ _______ _____ _____    ______ ____
ROOT
ATOM      1  O   UNL     1      -2.484  -1.141   1.194  0.00  0.00    -0.287 OA
ATOM      2  O   UNL     1       2.203  -3.167  -0.227  0.00  0.00    -0.287 OA
ATOM      3  C   UNL     1      -0.384   0.729   1.145  0.00  0.00    +0.174 C 
ATOM      4  C   UNL     1       0.918   1.357   1.663  0.00  0.00    +0.164 C 
ATOM      5  C   UNL     1      -0.210  -0.693   0.658  0.00  0.00    +0.049 C 
ATOM      6  C   UNL     1       2.095   1.004   0.792  0.00  0.00    +0.010 C 
ATOM      7  C   UNL     1       0.974  -1.167   0.218  0.00  0.00    +0.043 C 
ATOM      8  C   UNL     1       2.114  -0.216   0.084  0.00  0.00    +0.035 C 
ATOM      9  C   UNL     1      -1.427  -1.555   0.732  0.00  0.00    +0.194 C 
ATOM     10  C   UNL     1       1.111  -2.625  -0.095  0.00  0.00    +0.196 C 
ATOM     11  C   UNL     1       3.174   1.899   0.698  0.00  0.00    -0.004 C 
ATOM     12  C   UNL     1       3.207  -0.468  -0.761  0.00  0.00    +0.133 C 
ATOM     13  C   UNL     1      -1.338  -2.923   0.202  0.00  0.00    +0.042 C 
ATOM     14  C   UNL     1      -0.111  -3.438  -0.203  0.00  0.00    +0.042 C 
ATOM     15  C   UNL     1       4.260   1.611  -0.122  0.00  0.00    +0.010 C 
ATOM     16  C   UNL     1       4.271   0.433  -0.859  0.00  0.00    +0.035 C 
ATOM     17  C   UNL     1      -2.492  -3.712   0.115  0.00  0.00    +0.003 C 
ATOM     18  C   UNL     1      -0.033  -4.747  -0.696  0.00  0.00    +0.003 C 
ATOM     19  C   UNL     1      -2.412  -5.014  -0.380  0.00  0.00    +0.000 C 
ATOM     20  C   UNL     1      -1.184  -5.530  -0.785  0.00  0.00    +0.000 C 
ENDROOT
BRANCH   4  21
ATOM     21  O   UNL     1       1.198   0.882   2.978  0.00  0.00    -0.377 OA
ATOM     22  H   UNL     1       0.455   1.095   3.564  0.00  0.00    +0.211 HD
ENDBRANCH   4  21
BRANCH  12  23
ATOM     23  O   UNL     1       3.249  -1.511  -1.643  0.00  0.00    -0.506 OA
ATOM     24  H   UNL     1       2.570  -2.157  -1.637  0.00  0.00    +0.292 HD
ENDBRANCH  12  23
BRANCH   3  25
ATOM     25  O   UNL     1      -0.923   1.522   0.087  0.00  0.00    -0.325 OA
BRANCH  25  27
ATOM     26  O   UNL     1      -3.109   2.155   0.760  0.00  0.00    -0.331 OA
ATOM     27  C   UNL     1      -1.751   2.565   0.592  0.00  0.00    +0.235 C 
ATOM     28  C   UNL     1      -1.659   3.783  -0.326  0.00  0.00    +0.064 C 
ATOM     29  C   UNL     1      -2.361   3.526  -1.659  0.00  0.00    +0.037 C 
ATOM     30  C   UNL     1      -3.777   2.999  -1.434  0.00  0.00    +0.138 C 
ATOM     31  C   UNL     1      -3.765   1.809  -0.467  0.00  0.00    +0.144 C 
ATOM     32  C   UNL     1      -5.170   1.336  -0.112  0.00  0.00    +0.035 C 
BRANCH  30  33
ATOM     33  O   UNL     1      -4.586   4.045  -0.895  0.00  0.00    -0.382 OA
ATOM     34  H   UNL     1      -4.593   4.796  -1.508  0.00  0.00    +0.210 HD
ENDBRANCH  30  33
ENDBRANCH  25  27
ENDBRANCH   3  25
BRANCH  15  35
ATOM     35  C   UNL     1       5.395   2.571  -0.226  0.00  0.00    +0.164 C 
BRANCH  35  36
ATOM     36  O   UNL     1       5.006   3.680  -1.028  0.00  0.00    -0.377 OA
ATOM     37  H   UNL     1       5.744   4.305  -1.096  0.00  0.00    +0.211 HD
ENDBRANCH  35  36
ENDBRANCH  15  35
TORSDOF 7
