REMARK  Name = 101182519
REMARK  9 active torsions:
REMARK  status: ('A' for Active; 'I' for Inactive)
REMARK    1  A    between atoms: C_4  and  O_22
REMARK    2  A    between atoms: C_7  and  O_20
REMARK    3  A    between atoms: C_9  and  O_24
REMARK    4  A    between atoms: C_10  and  C_34
REMARK    5  A    between atoms: C_13  and  O_26
REMARK    6  A    between atoms: C_14  and  O_30
REMARK    7  A    between atoms: C_16  and  O_28
REMARK    8  A    between atoms: O_30  and  C_32
REMARK    9  A    between atoms: C_34  and  O_35
REMARK                            x       y       z     vdW  Elec       q    Type
REMARK                         _______ _______ _______ _____ _____    ______ ____
ROOT
ATOM      1  N   UNL     1      -2.095  -0.867   1.695  0.00  0.00    -0.273 NA
ATOM      2  C   UNL     1      -0.979  -0.812  -0.564  0.00  0.00    +0.051 C 
ATOM      3  C   UNL     1       0.418  -0.757  -1.273  0.00  0.00    +0.010 C 
ATOM      4  C   UNL     1      -0.152   0.593   1.177  0.00  0.00    +0.156 C 
ATOM      5  C   UNL     1      -1.766   0.546  -0.680  0.00  0.00    +0.041 C 
ATOM      6  C   UNL     1       1.414   0.331  -0.817  0.00  0.00    +0.068 C 
ATOM      7  C   UNL     1       1.331   0.605   0.703  0.00  0.00    +0.125 C 
ATOM      8  C   UNL     1      -0.805  -0.795   0.967  0.00  0.00    +0.134 C 
ATOM      9  C   UNL     1      -1.090   1.508   0.346  0.00  0.00    +0.144 C 
ATOM     10  C   UNL     1      -3.226   0.254  -0.239  0.00  0.00    +0.066 C 
ATOM     11  C   UNL     1       1.240  -2.070  -1.149  0.00  0.00    +0.006 C 
ATOM     12  C   UNL     1       2.633  -1.663  -0.646  0.00  0.00    +0.067 C 
ATOM     13  C   UNL     1      -1.767  -2.032  -1.158  0.00  0.00    +0.117 C 
ATOM     14  C   UNL     1       2.767  -0.263  -1.232  0.00  0.00    +0.173 C 
ATOM     15  C   UNL     1       2.259  -0.317   1.542  0.00  0.00    +0.059 C 
ATOM     16  C   UNL     1       2.665  -1.649   0.894  0.00  0.00    +0.121 C 
ATOM     17  C   UNL     1      -3.931  -0.728  -1.200  0.00  0.00    +0.011 C 
ATOM     18  C   UNL     1      -2.965  -1.599  -1.992  0.00  0.00    +0.030 C 
ATOM     19  C   UNL     1      -3.162  -0.393   1.143  0.00  0.00    +0.069 C 
ENDROOT
BRANCH   7  20
ATOM     20  O   UNL     1       1.845   1.939   0.902  0.00  0.00    -0.353 OA
ATOM     21  C   UNL     1       1.807   2.289   2.270  0.00  0.00    +0.174 C 
ENDBRANCH   7  20
BRANCH   4  22
ATOM     22  O   UNL     1      -0.209   0.947   2.556  0.00  0.00    -0.380 OA
ATOM     23  H   UNL     1       0.380   0.368   3.064  0.00  0.00    +0.211 HD
ENDBRANCH   4  22
BRANCH   9  24
ATOM     24  O   UNL     1      -0.442   2.581  -0.313  0.00  0.00    -0.351 OA
ATOM     25  C   UNL     1      -1.362   3.598  -0.697  0.00  0.00    +0.174 C 
ENDBRANCH   9  24
BRANCH  13  26
ATOM     26  O   UNL     1      -2.186  -2.943  -0.146  0.00  0.00    -0.354 OA
ATOM     27  C   UNL     1      -2.349  -4.253  -0.666  0.00  0.00    +0.174 C 
ENDBRANCH  13  26
BRANCH  16  28
ATOM     28  O   UNL     1       3.991  -1.971   1.331  0.00  0.00    -0.353 OA
ATOM     29  C   UNL     1       3.978  -2.538   2.630  0.00  0.00    +0.174 C 
ENDBRANCH  16  28
BRANCH  14  30
ATOM     30  O   UNL     1       3.886   0.442  -0.741  0.00  0.00    -0.452 OA
BRANCH  30  32
ATOM     31  O   UNL     1       4.000   1.676  -2.690  0.00  0.00    -0.250 OA
ATOM     32  C   UNL     1       4.415   1.394  -1.574  0.00  0.00    +0.317 C 
ATOM     33  C   UNL     1       5.592   2.057  -0.925  0.00  0.00    +0.121 C 
ENDBRANCH  30  32
ENDBRANCH  14  30
BRANCH  10  34
ATOM     34  C   UNL     1      -4.098   1.518  -0.138  0.00  0.00    +0.148 C 
BRANCH  34  35
ATOM     35  O   UNL     1      -5.389   1.129   0.282  0.00  0.00    -0.351 OA
ATOM     36  C   UNL     1      -6.267   2.244   0.403  0.00  0.00    +0.174 C 
ENDBRANCH  34  35
ENDBRANCH  10  34
TORSDOF 9
