REMARK  Name = 101105
REMARK  7 active torsions:
REMARK  status: ('A' for Active; 'I' for Inactive)
REMARK    1  A    between atoms: C_1  and  C_4
REMARK    2  A    between atoms: C_1  and  C_13
REMARK    3  A    between atoms: C_1  and  C_20
REMARK    4  A    between atoms: C_5  and  C_10
REMARK    5  A    between atoms: C_10  and  O_11
REMARK    6  A    between atoms: C_20  and  O_21
REMARK    7  A    between atoms: O_21  and  C_22
REMARK                            x       y       z     vdW  Elec       q    Type
REMARK                         _______ _______ _______ _____ _____    ______ ____
ROOT
ATOM      1  C   UNK     1      -0.669   0.250  -0.235  0.00  0.00    +0.112 C 
ENDROOT
BRANCH   1   4
ATOM      2  S   UNK     1       0.220  -2.353  -0.408  0.00  0.00    -0.164 S 
ATOM      3  N   UNK     1       1.692  -0.242   0.292  0.00  0.00    +0.401 N 
ATOM      4  C   UNK     1       0.308  -0.726   0.405  0.00  0.00    +0.004 C 
ATOM      5  C   UNK     1       2.546  -1.435   0.383  0.00  0.00    +0.052 C 
ATOM      6  C   UNK     1       2.014  -2.471  -0.597  0.00  0.00    +0.045 C 
ATOM      7  H   UNK     1       1.905   0.404   1.052  0.00  0.00    -0.082 HD
ATOM      8  H   UNK     1       1.843   0.259  -0.583  0.00  0.00    -0.082 HD
BRANCH   5  10
ATOM      9  O   UNK     1       4.267   0.123  -0.276  0.00  0.00    -0.253 OA
ATOM     10  C   UNK     1       3.936  -1.012   0.036  0.00  0.00    +0.294 C 
BRANCH  10  11
ATOM     11  O   UNK     1       4.790  -2.062   0.113  0.00  0.00    -0.482 OA
ATOM     12  H   UNK     1       4.471  -2.908   0.359  0.00  0.00    +0.295 HD
ENDBRANCH  10  11
ENDBRANCH   5  10
ENDBRANCH   1   4
BRANCH   1  13
ATOM     13  C   UNK     1      -2.113  -0.234  -0.169  0.00  0.00    -0.013 C 
ATOM     14  C   UNK     1      -2.527  -0.943   0.939  0.00  0.00    -0.004 C 
ATOM     15  C   UNK     1      -2.959   0.051  -1.220  0.00  0.00    -0.004 C 
ATOM     16  C   UNK     1      -3.848  -1.387   1.000  0.00  0.00    -0.000 C 
ATOM     17  C   UNK     1      -4.280  -0.393  -1.160  0.00  0.00    -0.000 C 
ATOM     18  C   UNK     1      -4.724  -1.112  -0.050  0.00  0.00    -0.000 C 
ENDBRANCH   1  13
BRANCH   1  20
ATOM     19  O   UNK     1      -1.165   2.075   1.320  0.00  0.00    -0.250 OA
ATOM     20  C   UNK     1      -0.519   1.642   0.375  0.00  0.00    +0.319 C 
BRANCH  20  21
ATOM     21  O   UNK     1       0.464   2.324  -0.289  0.00  0.00    -0.448 OA
BRANCH  21  22
ATOM     22  C   UNK     1       0.730   3.646   0.189  0.00  0.00    +0.209 C 
ATOM     23  C   UNK     1       1.835   4.259  -0.646  0.00  0.00    +0.051 C 
ENDBRANCH  21  22
ENDBRANCH  20  21
ENDBRANCH   1  20
TORSDOF 7
