REMARK  Name = 101179
REMARK  7 active torsions:
REMARK  status: ('A' for Active; 'I' for Inactive)
REMARK    1  A    between atoms: CA_1  and  C_4
REMARK    2  A    between atoms: CA_1  and  N_11
REMARK    3  A    between atoms: CA_1  and  CB_15
REMARK    4  A    between atoms: N_3  and  CA_6
REMARK    5  A    between atoms: CA_6  and  C_8
REMARK    6  A    between atoms: C_8  and  O_9
REMARK    7  A    between atoms: CB_15  and  CG_18
REMARK                            x       y       z     vdW  Elec       q    Type
REMARK                         _______ _______ _______ _____ _____    ______ ____
ROOT
ATOM      1  CA  HIS A   1      -0.486  -1.870  -0.522  0.00  0.00    +0.019 C 
ENDROOT
BRANCH   1   4
ATOM      2  O   HIS A   1       0.502  -0.926   1.479  0.00  0.00    -0.277 OA
ATOM      3  N   GLY A   2       1.777  -1.002  -0.456  0.00  0.00    -0.297 N 
ATOM      4  C   HIS A   1       0.631  -1.226   0.293  0.00  0.00    +0.203 C 
ATOM      5  H   GLY A   2       1.790  -1.276  -1.402  0.00  0.00    +0.150 HD
BRANCH   3   6
ATOM      6  CA  GLY A   2       2.951  -0.380   0.109  0.00  0.00    +0.200 C 
BRANCH   6   8
ATOM      7  OXT GLY A   2       3.851   1.836   0.376  0.00  0.00    -0.248 OA
ATOM      8  C   GLY A   2       2.944   1.120  -0.030  0.00  0.00    +0.334 C 
BRANCH   8   9
ATOM      9  O   GLY A   2       1.838   1.602  -0.644  0.00  0.00    -0.479 OA
ATOM     10  H   GLY A   2       1.171   1.013  -0.937  0.00  0.00    +0.295 HD
ENDBRANCH   8   9
ENDBRANCH   6   8
ENDBRANCH   3   6
ENDBRANCH   1   4
BRANCH   1  11
ATOM     11  N   HIS A   1      -0.295  -3.318  -0.425  0.00  0.00    +0.388 N 
ATOM     12  H1  HIS A   1      -1.023  -3.793  -0.958  0.00  0.00    -0.089 HD
ATOM     13  H2  HIS A   1      -0.348  -3.603   0.552  0.00  0.00    -0.089 HD
ATOM     14  H3  HIS A   1       0.620  -3.566  -0.803  0.00  0.00    -0.089 HD
ENDBRANCH   1  11
BRANCH   1  15
ATOM     15  CB  HIS A   1      -1.864  -1.486   0.038  0.00  0.00    +0.029 C 
BRANCH  15  18
ATOM     16  ND1 HIS A   1      -2.883   0.629   0.870  0.00  0.00    -0.319 N 
ATOM     17  NE2 HIS A   1      -2.213   2.155  -0.597  0.00  0.00    -0.315 N 
ATOM     18  CG  HIS A   1      -2.126   0.001  -0.046  0.00  0.00    +0.036 C 
ATOM     19  CD2 HIS A   1      -1.716   0.923  -0.939  0.00  0.00    +0.069 C 
ATOM     20  CE1 HIS A   1      -2.911   1.944   0.496  0.00  0.00    +0.182 C 
ATOM     21  HD1 HIS A   1      -3.327   0.224   1.650  0.00  0.00    +0.148 HD
ATOM     22  HE2 HIS A   1      -2.076   3.010  -1.067  0.00  0.00    +0.148 HD
ENDBRANCH  15  18
ENDBRANCH   1  15
TORSDOF 7
