REMARK  Name = 101124022
REMARK  5 active torsions:
REMARK  status: ('A' for Active; 'I' for Inactive)
REMARK    1  A    between atoms: C_5  and  O_24
REMARK    2  A    between atoms: C_9  and  O_30
REMARK    3  A    between atoms: C_11  and  O_26
REMARK    4  A    between atoms: C_14  and  O_28
REMARK    5  A    between atoms: O_30  and  C_32
REMARK                            x       y       z     vdW  Elec       q    Type
REMARK                         _______ _______ _______ _____ _____    ______ ____
ROOT
ATOM      1  O   UNL     1      -0.789  -2.679   0.316  0.00  0.00    -0.448 OA
ATOM      2  O   UNL     1      -4.029   1.917  -0.472  0.00  0.00    -0.455 OA
ATOM      3  O   UNL     1      -2.699  -2.911  -0.908  0.00  0.00    -0.250 OA
ATOM      4  C   UNL     1       0.264   1.220   0.034  0.00  0.00    +0.054 C 
ATOM      5  C   UNL     1       1.526   0.274   0.325  0.00  0.00    +0.130 C 
ATOM      6  C   UNL     1      -0.843   0.937   1.146  0.00  0.00    +0.017 C 
ATOM      7  C   UNL     1      -1.201  -0.580   1.362  0.00  0.00    +0.059 C 
ATOM      8  C   UNL     1       2.866   0.637  -0.480  0.00  0.00    +0.029 C 
ATOM      9  C   UNL     1       1.065  -1.195   0.160  0.00  0.00    +0.233 C 
ATOM     10  C   UNL     1      -0.127  -1.613   1.031  0.00  0.00    +0.212 C 
ATOM     11  C   UNL     1       0.714   2.724   0.079  0.00  0.00    +0.139 C 
ATOM     12  C   UNL     1      -2.502  -1.160   0.766  0.00  0.00    +0.128 C 
ATOM     13  C   UNL     1       3.123   2.167  -0.432  0.00  0.00    +0.034 C 
ATOM     14  C   UNL     1       1.917   3.006  -0.826  0.00  0.00    +0.137 C 
ATOM     15  C   UNL     1      -2.116   1.835   1.063  0.00  0.00    +0.064 C 
ATOM     16  C   UNL     1      -0.372   0.977  -1.360  0.00  0.00    +0.005 C 
ATOM     17  C   UNL     1      -3.338  -0.166   0.064  0.00  0.00    +0.022 C 
ATOM     18  C   UNL     1       2.884   0.167  -1.953  0.00  0.00    +0.003 C 
ATOM     19  C   UNL     1       4.140   0.001   0.161  0.00  0.00    +0.003 C 
ATOM     20  C   UNL     1      -3.143   1.181   0.237  0.00  0.00    +0.119 C 
ATOM     21  C   UNL     1      -2.041  -2.312  -0.071  0.00  0.00    +0.321 C 
ATOM     22  C   UNL     1      -4.448  -0.276  -0.807  0.00  0.00    +0.040 C 
ATOM     23  C   UNL     1      -4.826   1.015  -1.111  0.00  0.00    +0.179 C 
ENDROOT
BRANCH   5  24
ATOM     24  O   UNL     1       1.895   0.471   1.712  0.00  0.00    -0.383 OA
ATOM     25  H   UNL     1       2.188   1.386   1.842  0.00  0.00    +0.210 HD
ENDBRANCH   5  24
BRANCH  11  26
ATOM     26  O   UNL     1       1.067   3.124   1.406  0.00  0.00    -0.382 OA
ATOM     27  H   UNL     1       0.321   2.957   2.003  0.00  0.00    +0.210 HD
ENDBRANCH  11  26
BRANCH  14  28
ATOM     28  O   UNL     1       2.283   4.383  -0.724  0.00  0.00    -0.382 OA
ATOM     29  H   UNL     1       1.526   4.938  -0.971  0.00  0.00    +0.210 HD
ENDBRANCH  14  28
BRANCH   9  30
ATOM     30  O   UNL     1       2.119  -2.115   0.456  0.00  0.00    -0.446 OA
BRANCH  30  32
ATOM     31  O   UNL     1       1.267  -3.604  -1.091  0.00  0.00    -0.250 OA
ATOM     32  C   UNL     1       2.094  -3.283  -0.248  0.00  0.00    +0.318 C 
ATOM     33  C   UNL     1       3.249  -4.143   0.164  0.00  0.00    +0.121 C 
ENDBRANCH  30  32
ENDBRANCH   9  30
TORSDOF 5
