REMARK  Name = 101109862
REMARK  5 active torsions:
REMARK  status: ('A' for Active; 'I' for Inactive)
REMARK    1  A    between atoms: C_8  and  C_19
REMARK    2  A    between atoms: C_13  and  O_23
REMARK    3  A    between atoms: C_16  and  C_27
REMARK    4  A    between atoms: O_23  and  C_25
REMARK    5  A    between atoms: C_27  and  C_29
REMARK                            x       y       z     vdW  Elec       q    Type
REMARK                         _______ _______ _______ _____ _____    ______ ____
ROOT
ATOM      1  O   UNL     1       2.915  -0.885   0.490  0.00  0.00    -0.447 OA
ATOM      2  O   UNL     1      -2.810  -2.119   0.703  0.00  0.00    -0.455 OA
ATOM      3  O   UNL     1       0.217   1.159   2.539  0.00  0.00    -0.296 OA
ATOM      4  O   UNL     1       1.227  -1.430   1.929  0.00  0.00    -0.250 OA
ATOM      5  C   UNL     1       0.935   0.418   0.346  0.00  0.00    +0.148 C 
ATOM      6  C   UNL     1       2.113   1.165  -0.281  0.00  0.00    +0.066 C 
ATOM      7  C   UNL     1      -0.013  -0.163  -0.727  0.00  0.00    +0.047 C 
ATOM      8  C   UNL     1       3.119   0.067  -0.563  0.00  0.00    +0.195 C 
ATOM      9  C   UNL     1       0.206   1.352   1.322  0.00  0.00    +0.161 C 
ATOM     10  C   UNL     1      -1.292  -0.696  -0.163  0.00  0.00    +0.012 C 
ATOM     11  C   UNL     1       1.669  -0.726   1.033  0.00  0.00    +0.323 C 
ATOM     12  C   UNL     1      -0.544   2.540   0.747  0.00  0.00    +0.069 C 
ATOM     13  C   UNL     1      -2.736   1.500  -0.114  0.00  0.00    +0.194 C 
ATOM     14  C   UNL     1      -2.057   2.416   0.918  0.00  0.00    +0.056 C 
ATOM     15  C   UNL     1      -2.489   0.041   0.124  0.00  0.00    +0.054 C 
ATOM     16  C   UNL     1      -1.557  -2.000   0.201  0.00  0.00    +0.126 C 
ATOM     17  C   UNL     1      -3.365  -0.884   0.658  0.00  0.00    +0.178 C 
ENDROOT
BRANCH   8  19
ATOM     18  O   UNL     1       6.510   1.336  -1.361  0.00  0.00    -0.448 OA
ATOM     19  C   UNL     1       4.544   0.559  -0.598  0.00  0.00    +0.058 C 
ATOM     20  C   UNL     1       5.420   0.714   0.503  0.00  0.00    +0.043 C 
ATOM     21  C   UNL     1       5.255   0.951  -1.709  0.00  0.00    +0.179 C 
ATOM     22  C   UNL     1       6.603   1.189  -0.013  0.00  0.00    +0.180 C 
ENDBRANCH   8  19
BRANCH  13  23
ATOM     23  O   UNL     1      -4.141   1.780  -0.094  0.00  0.00    -0.448 OA
BRANCH  23  25
ATOM     24  O   UNL     1      -3.836   3.459  -1.651  0.00  0.00    -0.250 OA
ATOM     25  C   UNL     1      -4.548   2.788  -0.916  0.00  0.00    +0.318 C 
ATOM     26  C   UNL     1      -6.030   2.968  -0.791  0.00  0.00    +0.121 C 
ENDBRANCH  23  25
ENDBRANCH  13  23
BRANCH  16  27
ATOM     27  C   UNL     1      -0.771  -3.243   0.150  0.00  0.00    +0.128 C 
BRANCH  27  29
ATOM     28  O   UNL     1      -2.450  -4.199  -1.304  0.00  0.00    -0.296 OA
ATOM     29  C   UNL     1      -1.403  -4.364  -0.679  0.00  0.00    +0.159 C 
ATOM     30  C   UNL     1      -0.690  -5.691  -0.701  0.00  0.00    +0.073 C 
ENDBRANCH  27  29
ENDBRANCH  16  27
TORSDOF 5
