REMARK  Name = 101194921
REMARK  6 active torsions:
REMARK  status: ('A' for Active; 'I' for Inactive)
REMARK    1  A    between atoms: C_4  and  C_13
REMARK    2  A    between atoms: C_7  and  S_17
REMARK    3  A    between atoms: C_8  and  C_12
REMARK    4  A    between atoms: C_13  and  O_15
REMARK    5  A    between atoms: S_17  and  C_20
REMARK    6  A    between atoms: C_21  and  C_24
REMARK                            x       y       z     vdW  Elec       q    Type
REMARK                         _______ _______ _______ _____ _____    ______ ____
ROOT
ATOM      1  O   UNL     1      -3.889   0.364   1.847  0.00  0.00    -0.274 OA
ATOM      2  N   UNL     1      -1.901  -0.005   0.636  0.00  0.00    -0.254 N 
ATOM      3  C   UNL     1      -1.972  -0.670  -0.678  0.00  0.00    +0.095 C 
ATOM      4  C   UNL     1      -3.516  -0.788  -0.410  0.00  0.00    +0.123 C 
ATOM      5  C   UNL     1      -1.232   0.300  -1.621  0.00  0.00    +0.049 C 
ATOM      6  C   UNL     1      -3.225  -0.073   0.935  0.00  0.00    +0.233 C 
ATOM      7  C   UNL     1      -0.685   1.340  -0.659  0.00  0.00    +0.032 C 
ATOM      8  C   UNL     1      -1.131   1.121   0.585  0.00  0.00    +0.136 C 
ATOM      9  C   UNL     1      -2.163   0.860  -2.689  0.00  0.00    +0.007 C 
ENDROOT
BRANCH   8  12
ATOM     10  O   UNL     1      -1.333   3.175   1.703  0.00  0.00    -0.239 OA
ATOM     11  O   UNL     1      -0.291   1.431   2.755  0.00  0.00    -0.239 OA
ATOM     12  C   UNL     1      -0.895   1.996   1.802  0.00  0.00    +0.401 C 
ENDBRANCH   8  12
BRANCH   4  13
ATOM     13  C   UNL     1      -4.075  -2.193  -0.289  0.00  0.00    +0.121 C 
ATOM     14  C   UNL     1      -5.576  -2.161  -0.035  0.00  0.00    +0.032 C 
BRANCH  13  15
ATOM     15  O   UNL     1      -3.827  -2.913  -1.493  0.00  0.00    -0.384 OA
ATOM     16  H   UNL     1      -2.873  -2.940  -1.663  0.00  0.00    +0.210 HD
ENDBRANCH  13  15
ENDBRANCH   4  13
BRANCH   7  17
ATOM     17  S   UNL     1       0.343   2.619  -1.168  0.00  0.00    -0.052 S 
BRANCH  17  20
ATOM     18  S   UNL     1       3.408   2.623  -1.268  0.00  0.00    -0.068 S 
ATOM     19  N   UNL     1       2.011   0.600  -0.470  0.00  0.00    -0.393 NA
ATOM     20  C   UNL     1       1.925   1.830  -0.925  0.00  0.00    +0.187 C 
ATOM     21  C   UNL     1       3.344   0.248  -0.382  0.00  0.00    +0.115 C 
ATOM     22  C   UNL     1       4.249   1.214  -0.770  0.00  0.00    +0.123 C 
BRANCH  21  24
ATOM     23  N   UNL     1       5.070  -2.904   0.851  0.00  0.00    +0.389 N 
ATOM     24  C   UNL     1       3.706  -1.093   0.108  0.00  0.00    -0.024 C 
ATOM     25  C   UNL     1       5.122  -1.570   0.223  0.00  0.00    -0.052 C 
ATOM     26  C   UNL     1       3.650  -3.280   0.912  0.00  0.00    -0.055 C 
ATOM     27  C   UNL     1       2.883  -2.073   0.499  0.00  0.00    -0.054 C 
ATOM     28  H   UNL     1       5.466  -2.867   1.790  0.00  0.00    -0.084 HD
ATOM     29  H   UNL     1       5.610  -3.585   0.316  0.00  0.00    -0.084 HD
ENDBRANCH  21  24
ENDBRANCH  17  20
ENDBRANCH   7  17
TORSDOF 6
