101109861
  -OEChem-03292013293D

 52 55  0     1  0  0  0  0  0999 V2000
    2.3325   -2.4096    0.4582 O   0  0  0  0  0  0  0  0  0  0  0  0
   -1.6475    2.9770    0.0511 O   0  0  0  0  0  0  0  0  0  0  0  0
   -0.0726   -1.0665   -2.1462 O   0  0  0  0  0  0  0  0  0  0  0  0
   -4.7167    0.1371   -0.3269 O   0  0  0  0  0  0  0  0  0  0  0  0
    0.4507   -3.1063    1.5520 O   0  0  0  0  0  0  0  0  0  0  0  0
    6.1635   -0.1131   -0.7028 O   0  0  0  0  0  0  0  0  0  0  0  0
    1.2284    2.9671   -1.1984 O   0  0  0  0  0  0  0  0  0  0  0  0
   -5.5686   -1.6869    0.8063 O   0  0  0  0  0  0  0  0  0  0  0  0
    0.4075   -1.0415    0.2390 C   0  0  1  0  0  0  0  0  0  0  0  0
    1.6706   -0.2527   -0.1264 C   0  0  0  0  0  0  0  0  0  0  0  0
   -0.4301   -0.2866    1.2927 C   0  0  0  0  0  0  0  0  0  0  0  0
    2.6763   -1.3446   -0.4394 C   0  0  1  0  0  0  0  0  0  0  0  0
   -0.4318   -1.3831   -1.0096 C   0  0  0  0  0  0  0  0  0  0  0  0
   -1.1675    0.8830    0.7276 C   0  0  0  0  0  0  0  0  0  0  0  0
    1.0245   -2.2925    0.8434 C   0  0  0  0  0  0  0  0  0  0  0  0
   -1.7383   -2.1309   -0.8159 C   0  0  0  0  0  0  0  0  0  0  0  0
   -3.3832   -0.3027   -0.0411 C   0  0  1  0  0  0  0  0  0  0  0  0
   -2.9569   -1.2728   -1.1561 C   0  0  0  0  0  0  0  0  0  0  0  0
   -2.4660    0.8723    0.1194 C   0  0  0  0  0  0  0  0  0  0  0  0
    4.1071   -0.9045   -0.2589 C   0  0  0  0  0  0  0  0  0  0  0  0
   -0.7294    2.1892    0.6609 C   0  0  0  0  0  0  0  0  0  0  0  0
   -2.6914    2.1769   -0.2765 C   0  0  0  0  0  0  0  0  0  0  0  0
    0.4977    2.8682    1.1049 C   0  0  0  0  0  0  0  0  0  0  0  0
    4.8581   -0.9175    0.9407 C   0  0  0  0  0  0  0  0  0  0  0  0
    4.9456   -0.4068   -1.2291 C   0  0  0  0  0  0  0  0  0  0  0  0
    6.1019   -0.4268    0.6180 C   0  0  0  0  0  0  0  0  0  0  0  0
    1.4863    3.1957   -0.0173 C   0  0  0  0  0  0  0  0  0  0  0  0
   -5.7108   -0.6569    0.1613 C   0  0  0  0  0  0  0  0  0  0  0  0
    2.8018    3.8137    0.3811 C   0  0  0  0  0  0  0  0  0  0  0  0
   -7.0416   -0.0776   -0.2121 C   0  0  0  0  0  0  0  0  0  0  0  0
    2.0207    0.3358    0.7306 H   0  0  0  0  0  0  0  0  0  0  0  0
    1.5500    0.4276   -0.9731 H   0  0  0  0  0  0  0  0  0  0  0  0
    0.2085    0.0379    2.1249 H   0  0  0  0  0  0  0  0  0  0  0  0
   -1.1543   -0.9661    1.7600 H   0  0  0  0  0  0  0  0  0  0  0  0
    2.5452   -1.7265   -1.4598 H   0  0  0  0  0  0  0  0  0  0  0  0
   -1.7000   -2.9934   -1.4930 H   0  0  0  0  0  0  0  0  0  0  0  0
   -1.8130   -2.5439    0.1936 H   0  0  0  0  0  0  0  0  0  0  0  0
   -3.3804   -0.8322    0.9212 H   0  0  0  0  0  0  0  0  0  0  0  0
   -2.7905   -0.7166   -2.0880 H   0  0  0  0  0  0  0  0  0  0  0  0
   -3.7896   -1.9555   -1.3694 H   0  0  0  0  0  0  0  0  0  0  0  0
   -3.5134    2.6709   -0.7745 H   0  0  0  0  0  0  0  0  0  0  0  0
    0.2344    3.8149    1.5913 H   0  0  0  0  0  0  0  0  0  0  0  0
    1.0257    2.2589    1.8456 H   0  0  0  0  0  0  0  0  0  0  0  0
    4.5375   -1.2404    1.9209 H   0  0  0  0  0  0  0  0  0  0  0  0
    4.8343   -0.2089   -2.2854 H   0  0  0  0  0  0  0  0  0  0  0  0
    7.0045   -0.2473    1.1836 H   0  0  0  0  0  0  0  0  0  0  0  0
    3.3489    3.1208    1.0251 H   0  0  0  0  0  0  0  0  0  0  0  0
    3.4005    4.0163   -0.5112 H   0  0  0  0  0  0  0  0  0  0  0  0
    2.6192    4.7543    0.9063 H   0  0  0  0  0  0  0  0  0  0  0  0
   -7.1465    0.9201    0.2215 H   0  0  0  0  0  0  0  0  0  0  0  0
   -7.8381   -0.7146    0.1832 H   0  0  0  0  0  0  0  0  0  0  0  0
   -7.1360   -0.0370   -1.3002 H   0  0  0  0  0  0  0  0  0  0  0  0
  1 12  1  0  0  0  0
  1 15  1  0  0  0  0
  2 21  1  0  0  0  0
  2 22  1  0  0  0  0
  3 13  2  0  0  0  0
  4 17  1  0  0  0  0
  4 28  1  0  0  0  0
  5 15  2  0  0  0  0
  6 25  1  0  0  0  0
  6 26  1  0  0  0  0
  7 27  2  0  0  0  0
  8 28  2  0  0  0  0
  9 10  1  0  0  0  0
  9 11  1  0  0  0  0
  9 13  1  0  0  0  0
  9 15  1  0  0  0  0
 10 12  1  0  0  0  0
 10 31  1  0  0  0  0
 10 32  1  0  0  0  0
 11 14  1  0  0  0  0
 11 33  1  0  0  0  0
 11 34  1  0  0  0  0
 12 20  1  0  0  0  0
 12 35  1  0  0  0  0
 13 16  1  0  0  0  0
 14 19  1  0  0  0  0
 14 21  2  0  0  0  0
 16 18  1  0  0  0  0
 16 36  1  0  0  0  0
 16 37  1  0  0  0  0
 17 18  1  0  0  0  0
 17 19  1  0  0  0  0
 17 38  1  0  0  0  0
 18 39  1  0  0  0  0
 18 40  1  0  0  0  0
 19 22  2  0  0  0  0
 20 24  1  0  0  0  0
 20 25  2  0  0  0  0
 21 23  1  0  0  0  0
 22 41  1  0  0  0  0
 23 27  1  0  0  0  0
 23 42  1  0  0  0  0
 23 43  1  0  0  0  0
 24 26  2  0  0  0  0
 24 44  1  0  0  0  0
 25 45  1  0  0  0  0
 26 46  1  0  0  0  0
 27 29  1  0  0  0  0
 28 30  1  0  0  0  0
 29 47  1  0  0  0  0
 29 48  1  0  0  0  0
 29 49  1  0  0  0  0
 30 50  1  0  0  0  0
 30 51  1  0  0  0  0
 30 52  1  0  0  0  0
M  END
> <PUBCHEM_COMPOUND_CID>
101109861

> <PUBCHEM_CONFORMER_RMSD>
0.8

> <PUBCHEM_CONFORMER_DIVERSEORDER>
1
106
94
24
82
136
85
153
109
119
129
105
127
156
125
90
88
55
7
135
4
146
101
141
124
67
152
83
51
97
20
43
112
37
49
61
80
56
62
84
16
52
154
13
8
143
158
27
145
17
58
151
96
25
32
122
22
150
71
19
33
76
30
149
36
81
110
148
93
3
65
23
29
66
64
21
69
140
157
10
28
117
98
31
155
111
130
60
38
47
57
63
59
132
14
87
53
26
91
70
113
160
138
79
108
44
5
72
39
11
41
34
48
6
40
35
74
68
147
118
9
115
2
92
75
133
12
42
120
89
45
95
139
144
77
128
86
123
99
102
100
131
103
107
126
104
78
121
134
46
116
18
73
142
54
137
15
114
159
50

> <PUBCHEM_MMFF94_PARTIAL_CHARGES>
32
1 -0.43
11 0.18
12 0.46
13 0.45
14 -0.18
15 0.66
16 0.06
17 0.46
19 -0.18
2 -0.28
20 -0.18
21 -0.04
22 -0.01
23 0.24
24 -0.15
25 -0.01
26 -0.01
27 0.45
28 0.66
29 0.06
3 -0.57
30 0.06
4 -0.43
41 0.15
44 0.15
45 0.15
46 0.15
5 -0.57
6 -0.28
7 -0.57
8 -0.57
9 0.12

> <PUBCHEM_EFFECTIVE_ROTOR_COUNT>
6.4

> <PUBCHEM_PHARMACOPHORE_FEATURES>
9
1 2 acceptor
1 3 acceptor
1 5 acceptor
1 6 acceptor
1 7 acceptor
1 8 acceptor
5 1 9 10 12 15 rings
5 2 14 19 21 22 rings
5 6 20 24 25 26 rings

> <PUBCHEM_HEAVY_ATOM_COUNT>
30

> <PUBCHEM_ATOM_DEF_STEREO_COUNT>
2

> <PUBCHEM_ATOM_UDEF_STEREO_COUNT>
1

> <PUBCHEM_BOND_DEF_STEREO_COUNT>
0

> <PUBCHEM_BOND_UDEF_STEREO_COUNT>
0

> <PUBCHEM_ISOTOPIC_ATOM_COUNT>
0

> <PUBCHEM_COMPONENT_COUNT>
1

> <PUBCHEM_CACTVS_TAUTO_COUNT>
12

> <PUBCHEM_CONFORMER_ID>
0606D06500000001

> <PUBCHEM_MMFF94_ENERGY>
43.4109

> <PUBCHEM_FEATURE_SELFOVERLAP>
45.677

> <PUBCHEM_SHAPE_FINGERPRINT>
10498660 4 18196372524961344724
10670039 82 18263939743992912646
10906281 52 17840866279544473117
1100329 8 18339641251844339851
11578080 2 17025137541707721309
12107698 1 18410853261632615361
12156800 1 16155919809796676916
12166972 35 17894634730103590238
12236239 1 18260266309012883230
12422481 6 18200588224050825353
12553582 1 18270101462509794447
12788726 201 18338514140582712002
13140716 1 18266457796580674811
14787075 74 18260555502050852914
14955137 171 18060142045994165691
15439362 3 18191868044249318764
15849732 13 17703788133067842087
15927050 60 17836366321611019700
16090146 7 17346331422742876199
17492 54 18194948656944861693
17492 89 18051129190083867059
18336668 15 18333452041089387052
19319366 153 18187358809741024035
20642791 35 18340766039238322584
21033648 29 17489008371655936498
23227448 37 18343297094026427172
23352939 185 18202286892058557049
23419403 2 17606142785568342849
23559900 14 17968377944207487105
3178227 256 18336277803342265411
34934 24 18193271888732356640
350125 39 18412265030231172393
392239 28 18335713770861991123
4258327 124 16589173669713604998
463206 1 18269554003965170708
469060 322 17822298920658243812
484989 97 18116449217463508714
5486654 2 18407763629474174195
6669772 16 18196087974324352780

> <PUBCHEM_SHAPE_MULTIPOLES>
570.43
12.02
3.82
1.24
3.64
3.59
0.15
-3.9
0.46
-1.51
-0.49
-0.38
-0.41
-0.23

> <PUBCHEM_SHAPE_SELFOVERLAP>
1237.389

> <PUBCHEM_SHAPE_VOLUME>
311.9

> <PUBCHEM_COORDINATE_TYPE>
2
5
10

$$$$
