101194923
  -OEChem-03292013293D

 50 53  0     1  0  0  0  0  0999 V2000
   -0.5410    2.8927   -1.0158 S   0  0  0  0  0  0  0  0  0  0  0  0
    2.4802    3.3985   -1.1657 S   0  0  0  0  0  0  0  0  0  0  0  0
   -4.2724   -0.2143    1.9016 O   0  0  0  0  0  0  0  0  0  0  0  0
   -3.7803   -3.2058   -1.6629 O   0  0  0  0  0  0  0  0  0  0  0  0
   -2.2035    2.9759    1.9152 O   0  5  0  0  0  0  0  0  0  0  0  0
   -0.8677    1.3559    2.8234 O   0  0  0  0  0  0  0  0  0  0  0  0
   -2.2852   -0.1745    0.6343 N   0  0  0  0  0  0  0  0  0  0  0  0
    1.4472    1.1269   -0.4907 N   0  0  0  0  0  0  0  0  0  0  0  0
    4.6074   -2.6602    1.0057 N   0  0  0  0  0  0  0  0  0  0  0  0
   -2.2851   -0.7527   -0.7219 C   0  0  1  0  0  0  0  0  0  0  0  0
   -3.7826   -1.1359   -0.4373 C   0  0  2  0  0  0  0  0  0  0  0  0
   -1.7370    0.3859   -1.6065 C   0  0  2  0  0  0  0  0  0  0  0  0
   -3.5726   -0.4759    0.9496 C   0  0  0  0  0  0  0  0  0  0  0  0
   -4.1061   -2.6175   -0.4067 C   0  0  1  0  0  0  0  0  0  0  0  0
   -1.3369    1.4331   -0.5818 C   0  0  0  0  0  0  0  0  0  0  0  0
   -1.7066    1.0618    0.6509 C   0  0  0  0  0  0  0  0  0  0  0  0
   -2.7749    0.8589   -2.6158 C   0  0  0  0  0  0  0  0  0  0  0  0
   -5.5859   -2.8453   -0.1263 C   0  0  0  0  0  0  0  0  0  0  0  0
   -1.5799    1.8789    1.9225 C   0  0  0  0  0  0  0  0  0  0  0  0
    1.1535    2.3552   -0.8559 C   0  0  0  0  0  0  0  0  0  0  0  0
    5.3715   -1.9246   -0.0063 C   0  0  1  0  0  0  0  0  0  0  0  0
    4.9134   -0.4524   -0.0449 C   0  0  0  0  0  0  0  0  0  0  0  0
    3.4082   -0.3091   -0.0614 C   0  0  0  0  0  0  0  0  0  0  0  0
    2.8210    0.9900   -0.4495 C   0  0  0  0  0  0  0  0  0  0  0  0
    3.1809   -2.6854    0.6709 C   0  0  0  0  0  0  0  0  0  0  0  0
    2.6222   -1.3563    0.2497 C   0  0  0  0  0  0  0  0  0  0  0  0
    3.5489    2.1129   -0.7831 C   0  0  0  0  0  0  0  0  0  0  0  0
    6.8632   -2.0166    0.3088 C   0  0  0  0  0  0  0  0  0  0  0  0
   -1.6162   -1.6250   -0.7616 H   0  0  0  0  0  0  0  0  0  0  0  0
   -4.4980   -0.5754   -1.0518 H   0  0  0  0  0  0  0  0  0  0  0  0
   -0.8456    0.0310   -2.1390 H   0  0  0  0  0  0  0  0  0  0  0  0
   -3.5043   -3.1271    0.3549 H   0  0  0  0  0  0  0  0  0  0  0  0
   -3.1384    0.0201   -3.2191 H   0  0  0  0  0  0  0  0  0  0  0  0
   -2.3468    1.6005   -3.2985 H   0  0  0  0  0  0  0  0  0  0  0  0
   -3.6395    1.3212   -2.1269 H   0  0  0  0  0  0  0  0  0  0  0  0
   -6.2063   -2.3970   -0.9104 H   0  0  0  0  0  0  0  0  0  0  0  0
   -5.8827   -2.4147    0.8346 H   0  0  0  0  0  0  0  0  0  0  0  0
   -5.8152   -3.9161   -0.1153 H   0  0  0  0  0  0  0  0  0  0  0  0
   -3.9864   -4.1544   -1.6057 H   0  0  0  0  0  0  0  0  0  0  0  0
    5.2075   -2.3875   -0.9888 H   0  0  0  0  0  0  0  0  0  0  0  0
    5.3494    0.0022   -0.9432 H   0  0  0  0  0  0  0  0  0  0  0  0
    5.3058    0.0924    0.8241 H   0  0  0  0  0  0  0  0  0  0  0  0
    4.7331   -2.2177    1.9164 H   0  0  0  0  0  0  0  0  0  0  0  0
    2.6302   -3.0408    1.5491 H   0  0  0  0  0  0  0  0  0  0  0  0
    3.0040   -3.4157   -0.1273 H   0  0  0  0  0  0  0  0  0  0  0  0
    1.5386   -1.2848    0.2131 H   0  0  0  0  0  0  0  0  0  0  0  0
    4.6192    2.2585   -0.8212 H   0  0  0  0  0  0  0  0  0  0  0  0
    7.0979   -1.5809    1.2865 H   0  0  0  0  0  0  0  0  0  0  0  0
    7.4500   -1.4833   -0.4467 H   0  0  0  0  0  0  0  0  0  0  0  0
    7.1974   -3.0600    0.3155 H   0  0  0  0  0  0  0  0  0  0  0  0
  1 15  1  0  0  0  0
  1 20  1  0  0  0  0
  2 20  1  0  0  0  0
  2 27  1  0  0  0  0
  3 13  2  0  0  0  0
  4 14  1  0  0  0  0
  4 39  1  0  0  0  0
  5 19  1  0  0  0  0
  6 19  2  0  0  0  0
  7 10  1  0  0  0  0
  7 13  1  0  0  0  0
  7 16  1  0  0  0  0
  8 20  2  0  0  0  0
  8 24  1  0  0  0  0
  9 21  1  0  0  0  0
  9 25  1  0  0  0  0
  9 43  1  0  0  0  0
 10 11  1  0  0  0  0
 10 12  1  0  0  0  0
 10 29  1  0  0  0  0
 11 13  1  0  0  0  0
 11 14  1  0  0  0  0
 11 30  1  0  0  0  0
 12 15  1  0  0  0  0
 12 17  1  0  0  0  0
 12 31  1  0  0  0  0
 14 18  1  0  0  0  0
 14 32  1  0  0  0  0
 15 16  2  0  0  0  0
 16 19  1  0  0  0  0
 17 33  1  0  0  0  0
 17 34  1  0  0  0  0
 17 35  1  0  0  0  0
 18 36  1  0  0  0  0
 18 37  1  0  0  0  0
 18 38  1  0  0  0  0
 21 22  1  0  0  0  0
 21 28  1  0  0  0  0
 21 40  1  0  0  0  0
 22 23  1  0  0  0  0
 22 41  1  0  0  0  0
 22 42  1  0  0  0  0
 23 24  1  0  0  0  0
 23 26  2  0  0  0  0
 24 27  2  0  0  0  0
 25 26  1  0  0  0  0
 25 44  1  0  0  0  0
 25 45  1  0  0  0  0
 26 46  1  0  0  0  0
 27 47  1  0  0  0  0
 28 48  1  0  0  0  0
 28 49  1  0  0  0  0
 28 50  1  0  0  0  0
M  CHG  1   5  -1
M  END
> <PUBCHEM_COMPOUND_CID>
101194923

> <PUBCHEM_CONFORMER_RMSD>
0.8

> <PUBCHEM_CONFORMER_DIVERSEORDER>
1
236
13
245
195
255
110
99
63
37
247
125
198
201
272
84
234
216
259
123
228
59
266
9
237
235
55
7
215
119
122
38
85
48
29
145
223
217
200
160
31
205
225
233
107
150
76
133
257
209
44
101
50
175
127
139
178
171
263
152
26
227
189
261
174
185
250
199
239
2
118
240
156
51
93
148
83
129
220
147
92
62
24
53
137
73
260
251
184
40
109
56
204
270
157
141
173
67
144
134
65
20
161
267
97
188
3
98
70
190
176
172
222
35
61
75
90
159
166
163
258
244
269
256
111
11
43
25
68
262
211
100
151
268
126
155
131
77
41
135
136
120
196
265
21
238
72
49
74
179
58
16
241
170
249
121
243
254
183
94
180
149
46
66
19
252
271
128
193
78
54
52
231
117
212
210
224
154
213
82
191
57
45
32
264
194
113
162
214
242
221
186
34
18
181
23
130
138
207
230
182
106
140
248
10
146
202
47
42
208
88
197
36
253
192
64
124
132
165
158
169
5
116
4
79
114
22
6
177
102
91
142
33
187
108
8
206
103
226
28
219
39
167
229
30
143
96
168
164
153
87
86
246
80
95
69
203
232
12
112
17
71
104
218
115
14
105
89
15
27
81
60

> <PUBCHEM_MMFF94_PARTIAL_CHARGES>
29
1 -0.16
10 0.22
11 0.05
12 0.14
13 0.58
14 0.28
15 -0.04
16 -0.14
19 1.05
2 -0.08
20 0.43
21 0.27
22 0.14
23 -0.09
24 0.18
25 0.41
26 -0.29
27 -0.11
3 -0.57
39 0.4
4 -0.68
43 0.36
46 0.15
47 0.15
5 -0.9
6 -0.9
7 -0.39
8 -0.57
9 -0.9

> <PUBCHEM_EFFECTIVE_ROTOR_COUNT>
6.2

> <PUBCHEM_PHARMACOPHORE_FEATURES>
12
1 3 acceptor
1 4 acceptor
1 4 donor
1 5 acceptor
1 6 acceptor
1 8 acceptor
1 9 cation
1 9 donor
3 5 6 19 anion
5 2 8 20 24 27 rings
6 9 21 22 23 25 26 rings
7 7 10 11 12 13 15 16 rings

> <PUBCHEM_HEAVY_ATOM_COUNT>
28

> <PUBCHEM_ATOM_DEF_STEREO_COUNT>
5

> <PUBCHEM_ATOM_UDEF_STEREO_COUNT>
0

> <PUBCHEM_BOND_DEF_STEREO_COUNT>
0

> <PUBCHEM_BOND_UDEF_STEREO_COUNT>
0

> <PUBCHEM_ISOTOPIC_ATOM_COUNT>
0

> <PUBCHEM_COMPONENT_COUNT>
1

> <PUBCHEM_CACTVS_TAUTO_COUNT>
2

> <PUBCHEM_CONFORMER_ID>
06081CAB00000001

> <PUBCHEM_MMFF94_ENERGY>
64.9339

> <PUBCHEM_FEATURE_SELFOVERLAP>
60.951

> <PUBCHEM_SHAPE_FINGERPRINT>
10074138 170 17416987057713069457
10622 236 18411411834492597039
10928967 22 18191315883875977198
11552529 35 18200025123952799178
11578080 2 18129642214910741889
12107183 9 18338526231612034137
12293681 25 17387140968526122536
12553582 1 18117567223926978868
12596599 1 18199201606817871542
12788726 201 17916323773524112873
13009979 54 18273218590779865360
13533116 47 18194966468611775807
13911987 19 17464275085529285964
14068700 675 18412821404383753482
14117953 113 18340485556700115167
14429380 30 18333169470985835794
14844126 61 17321254620513371632
15361156 5 17749395857680652925
15475509 35 17767685328067380595
17138139 8 17336466814106392414
17780758 139 18130784517228128474
19319366 153 17764590215308357556
20775530 9 18338783589725047626
21285901 2 17024575914503967997
23559900 14 18261095375451363916
23598288 3 17988928842516679629
345986 75 18058738030086287593
463206 1 18188211025614762443
484985 159 18191019015160815501
5309563 4 18334855013425460502
57527295 17 17096072598423444746
70251023 43 18114460136446030953
7970288 3 18408882932464432398

> <PUBCHEM_SHAPE_MULTIPOLES>
545.51
12.11
4.3
1.9
9.31
0.13
0.69
-13.74
-0.1
1.06
-0.57
-2.45
1.03
-2.34

> <PUBCHEM_SHAPE_SELFOVERLAP>
1141.967

> <PUBCHEM_SHAPE_VOLUME>
311.9

> <PUBCHEM_COORDINATE_TYPE>
2
5
10

$$$$
