REMARK  Name = 101148162
REMARK  11 active torsions:
REMARK  status: ('A' for Active; 'I' for Inactive)
REMARK    1  A    between atoms: C_2  and  C_3
REMARK    2  A    between atoms: C_2  and  O_14
REMARK    3  A    between atoms: C_5  and  O_12
REMARK    4  A    between atoms: C_6  and  N_9
REMARK    5  A    between atoms: O_14  and  C_15
REMARK    6  A    between atoms: C_15  and  C_16
REMARK    7  A    between atoms: C_16  and  C_17
REMARK    8  A    between atoms: C_17  and  C_18
REMARK    9  A    between atoms: C_18  and  O_19
REMARK   10  A    between atoms: O_19  and  N_21
REMARK   11  A    between atoms: N_21  and  O_22
REMARK                            x       y       z     vdW  Elec       q    Type
REMARK                         _______ _______ _______ _____ _____    ______ ____
ROOT
ATOM      1  O   UNL     1      -1.727   2.300  -0.648  0.00  0.00    -0.245 OA
ATOM      2  C   UNL     1      -1.701   1.125  -0.315  0.00  0.00    +0.344 C 
ENDROOT
BRANCH   2   3
ATOM      3  C   UNL     1      -2.925   0.314  -0.096  0.00  0.00    +0.110 C 
ATOM      4  C   UNL     1      -2.882  -1.059  -0.339  0.00  0.00    +0.024 C 
ATOM      5  C   UNL     1      -4.107   0.907   0.348  0.00  0.00    +0.140 C 
ATOM      6  C   UNL     1      -4.021  -1.839  -0.139  0.00  0.00    +0.042 C 
ATOM      7  C   UNL     1      -5.246   0.127   0.548  0.00  0.00    +0.038 C 
ATOM      8  C   UNL     1      -5.203  -1.246   0.305  0.00  0.00    +0.017 C 
BRANCH   6   9
ATOM      9  N   UNL     1      -3.978  -3.227  -0.385  0.00  0.00    -0.357 N 
ATOM     10  H   UNL     1      -3.144  -3.646  -0.698  0.00  0.00    +0.142 HD
ATOM     11  H   UNL     1      -4.782  -3.777  -0.243  0.00  0.00    +0.142 HD
ENDBRANCH   6   9
BRANCH   5  12
ATOM     12  O   UNL     1      -4.169   2.246   0.591  0.00  0.00    -0.505 OA
ATOM     13  H   UNL     1      -3.411   2.782   0.460  0.00  0.00    +0.292 HD
ENDBRANCH   5  12
ENDBRANCH   2   3
BRANCH   2  14
ATOM     14  O   UNL     1      -0.582   0.382  -0.093  0.00  0.00    -0.445 OA
BRANCH  14  15
ATOM     15  C   UNL     1       0.659   1.052  -0.272  0.00  0.00    +0.209 C 
BRANCH  15  16
ATOM     16  C   UNL     1       1.791   0.076   0.016  0.00  0.00    +0.050 C 
BRANCH  16  17
ATOM     17  C   UNL     1       3.156   0.735  -0.142  0.00  0.00    +0.038 C 
BRANCH  17  18
ATOM     18  C   UNL     1       4.289  -0.252   0.104  0.00  0.00    +0.172 C 
BRANCH  18  19
ATOM     19  O   UNL     1       5.529   0.419  -0.073  0.00  0.00    -0.234 OA
BRANCH  19  21
ATOM     20  O   UNL     1       6.510  -1.679   0.456  0.00  0.00    -0.062 OA
ATOM     21  N   UNL     1       6.648  -0.453   0.144  0.00  0.00    +0.108 NA
BRANCH  21  22
ATOM     22  O   UNL     1       7.958   0.072  -0.009  0.00  0.00    -0.263 OA
ATOM     23  H   UNL     1       8.078   0.972  -0.239  0.00  0.00    +0.242 HD
ENDBRANCH  21  22
ENDBRANCH  19  21
ENDBRANCH  18  19
ENDBRANCH  17  18
ENDBRANCH  16  17
ENDBRANCH  15  16
ENDBRANCH  14  15
ENDBRANCH   2  14
TORSDOF 11
