REMARK  Name = 101142080
REMARK  7 active torsions:
REMARK  status: ('A' for Active; 'I' for Inactive)
REMARK    1  A    between atoms: C_4  and  O_21
REMARK    2  A    between atoms: C_6  and  O_29
REMARK    3  A    between atoms: C_9  and  C_18
REMARK    4  A    between atoms: C_18  and  O_19
REMARK    5  A    between atoms: O_21  and  C_23
REMARK    6  A    between atoms: C_23  and  C_25
REMARK    7  A    between atoms: O_29  and  C_31
REMARK                            x       y       z     vdW  Elec       q    Type
REMARK                         _______ _______ _______ _____ _____    ______ ____
ROOT
ATOM      1  O   UNL     1      -0.109  -3.212  -0.996  0.00  0.00    -0.444 OA
ATOM      2  O   UNL     1      -1.520  -4.486   0.286  0.00  0.00    -0.245 OA
ATOM      3  C   UNL     1       0.343  -1.397   0.514  0.00  0.00    +0.117 C 
ATOM      4  C   UNL     1      -0.299   0.011   0.482  0.00  0.00    +0.221 C 
ATOM      5  C   UNL     1       0.639  -1.982  -0.873  0.00  0.00    +0.198 C 
ATOM      6  C   UNL     1       0.590   1.128  -0.115  0.00  0.00    +0.237 C 
ATOM      7  C   UNL     1      -0.550  -2.439   1.104  0.00  0.00    +0.061 C 
ATOM      8  C   UNL     1       2.099  -2.313  -1.056  0.00  0.00    +0.009 C 
ATOM      9  C   UNL     1       2.000   1.167   0.409  0.00  0.00    +0.092 C 
ATOM     10  C   UNL     1      -0.811  -3.508   0.129  0.00  0.00    +0.338 C 
ATOM     11  C   UNL     1       3.018  -1.602  -1.739  0.00  0.00    -0.044 C 
ATOM     12  C   UNL     1       2.727  -0.310  -2.467  0.00  0.00    +0.026 C 
ATOM     13  C   UNL     1       3.136   1.075  -0.303  0.00  0.00    -0.020 C 
ATOM     14  C   UNL     1       3.286   0.954  -1.797  0.00  0.00    +0.030 C 
ATOM     15  C   UNL     1      -1.063  -2.481   2.337  0.00  0.00    +0.002 C 
ATOM     16  C   UNL     1       4.445  -2.078  -1.816  0.00  0.00    +0.026 C 
ENDROOT
BRANCH   9  18
ATOM     17  O   UNL     1       1.775   2.299   2.480  0.00  0.00    -0.245 OA
ATOM     18  C   UNL     1       2.188   1.336   1.861  0.00  0.00    +0.341 C 
BRANCH  18  19
ATOM     19  O   UNL     1       2.871   0.265   2.330  0.00  0.00    -0.441 OA
ATOM     20  C   UNL     1       3.135   0.283   3.736  0.00  0.00    +0.256 C 
ENDBRANCH  18  19
ENDBRANCH   9  18
BRANCH   4  21
ATOM     21  O   UNL     1      -1.504  -0.046  -0.296  0.00  0.00    -0.446 OA
BRANCH  21  23
ATOM     22  O   UNL     1      -2.453   1.592   1.033  0.00  0.00    -0.247 OA
ATOM     23  C   UNL     1      -2.490   0.802   0.100  0.00  0.00    +0.344 C 
BRANCH  23  25
ATOM     24  O   UNL     1      -4.894   1.068  -0.085  0.00  0.00    -0.345 OA
ATOM     25  C   UNL     1      -3.693   0.671  -0.761  0.00  0.00    +0.206 C 
ATOM     26  C   UNL     1      -4.763  -0.325  -0.379  0.00  0.00    +0.151 C 
ATOM     27  C   UNL     1      -3.613   1.146  -2.172  0.00  0.00    +0.044 C 
ATOM     28  C   UNL     1      -4.676  -1.203   0.819  0.00  0.00    +0.035 C 
ENDBRANCH  23  25
ENDBRANCH  21  23
ENDBRANCH   4  21
BRANCH   6  29
ATOM     29  O   UNL     1      -0.044   2.381   0.184  0.00  0.00    -0.444 OA
BRANCH  29  31
ATOM     30  O   UNL     1       0.711   3.255  -1.820  0.00  0.00    -0.250 OA
ATOM     31  C   UNL     1       0.104   3.346  -0.762  0.00  0.00    +0.318 C 
ATOM     32  C   UNL     1      -0.583   4.601  -0.366  0.00  0.00    +0.121 C 
ENDBRANCH  29  31
ENDBRANCH   6  29
TORSDOF 7
