101150158
  -OEChem-03292013293D

 62 67  0     1  0  0  0  0  0999 V2000
   -1.7682   -0.9050   -1.6337 O   0  0  0  0  0  0  0  0  0  0  0  0
   -4.7819    2.5120    1.0391 O   0  0  0  0  0  0  0  0  0  0  0  0
    1.3454   -2.3257    2.0861 O   0  0  0  0  0  0  0  0  0  0  0  0
    2.5562   -1.2586   -2.9560 O   0  0  0  0  0  0  0  0  0  0  0  0
   -1.4559    1.6530    0.1152 N   0  0  2  0  0  0  0  0  0  0  0  0
   -3.4312    0.6294    0.6423 N   0  0  0  0  0  0  0  0  0  0  0  0
    0.9749   -1.6147   -1.3218 N   0  0  0  0  0  0  0  0  0  0  0  0
    2.8883   -1.6844    0.5029 N   0  0  0  0  0  0  0  0  0  0  0  0
   -2.0208    0.3466    0.5055 C   0  0  1  0  0  0  0  0  0  0  0  0
   -1.9519   -1.0296   -0.2298 C   0  0  1  0  0  0  0  0  0  0  0  0
   -2.3287    2.6154    0.8664 C   0  0  2  0  0  0  0  0  0  0  0  0
   -3.3591   -1.5478    0.0405 C   0  0  0  0  0  0  0  0  0  0  0  0
   -3.7110    1.9586    0.8630 C   0  0  0  0  0  0  0  0  0  0  0  0
   -1.4851    1.8892   -1.3351 C   0  0  0  0  0  0  0  0  0  0  0  0
   -2.2975    4.0742    0.4222 C   0  0  0  0  0  0  0  0  0  0  0  0
   -0.8357   -1.9130    0.3117 C   0  0  0  0  0  0  0  0  0  0  0  0
   -4.1957   -0.5103    0.4820 C   0  0  0  0  0  0  0  0  0  0  0  0
   -1.2493    3.3501   -1.7116 C   0  0  0  0  0  0  0  0  0  0  0  0
   -2.3175    4.2347   -1.0890 C   0  0  0  0  0  0  0  0  0  0  0  0
    0.5346   -1.3167    0.0333 C   0  0  1  0  0  0  0  0  0  0  0  0
   -3.8793   -2.8106   -0.1880 C   0  0  0  0  0  0  0  0  0  0  0  0
   -5.5506   -0.6839    0.6832 C   0  0  0  0  0  0  0  0  0  0  0  0
    1.5972   -1.8690    0.9736 C   0  0  0  0  0  0  0  0  0  0  0  0
   -5.2451   -3.0134    0.0331 C   0  0  0  0  0  0  0  0  0  0  0  0
   -6.0729   -1.9591    0.4598 C   0  0  0  0  0  0  0  0  0  0  0  0
    3.1747   -0.8394   -0.6471 C   0  0  2  0  0  0  0  0  0  0  0  0
    2.2472   -1.2901   -1.7673 C   0  0  0  0  0  0  0  0  0  0  0  0
    4.6379   -0.9322   -1.0488 C   0  0  0  0  0  0  0  0  0  0  0  0
    5.5166   -0.0811   -0.1696 C   0  0  0  0  0  0  0  0  0  0  0  0
    5.7756    1.2449   -0.5165 C   0  0  0  0  0  0  0  0  0  0  0  0
    6.0711   -0.6192    0.9916 C   0  0  0  0  0  0  0  0  0  0  0  0
    6.5892    2.0327    0.2979 C   0  0  0  0  0  0  0  0  0  0  0  0
    6.8847    0.1685    1.8059 C   0  0  0  0  0  0  0  0  0  0  0  0
    7.1438    1.4946    1.4590 C   0  0  0  0  0  0  0  0  0  0  0  0
   -1.6779    0.1745    1.5394 H   0  0  0  0  0  0  0  0  0  0  0  0
   -2.0064    2.5974    1.9184 H   0  0  0  0  0  0  0  0  0  0  0  0
   -0.6915    1.2982   -1.8056 H   0  0  0  0  0  0  0  0  0  0  0  0
   -2.4414    1.5770   -1.7746 H   0  0  0  0  0  0  0  0  0  0  0  0
   -1.3771    4.5351    0.8042 H   0  0  0  0  0  0  0  0  0  0  0  0
   -3.1342    4.6319    0.8583 H   0  0  0  0  0  0  0  0  0  0  0  0
   -0.8904   -2.9152   -0.1355 H   0  0  0  0  0  0  0  0  0  0  0  0
   -0.9912   -2.0579    1.3886 H   0  0  0  0  0  0  0  0  0  0  0  0
   -1.2747    3.4561   -2.8021 H   0  0  0  0  0  0  0  0  0  0  0  0
   -0.2531    3.6688   -1.3807 H   0  0  0  0  0  0  0  0  0  0  0  0
   -2.1407    5.2824   -1.3560 H   0  0  0  0  0  0  0  0  0  0  0  0
   -3.3049    3.9635   -1.4817 H   0  0  0  0  0  0  0  0  0  0  0  0
    0.5494   -0.2296    0.1600 H   0  0  0  0  0  0  0  0  0  0  0  0
   -1.9634   -1.7639   -2.0461 H   0  0  0  0  0  0  0  0  0  0  0  0
   -3.2572   -3.6219   -0.5495 H   0  0  0  0  0  0  0  0  0  0  0  0
   -6.1923    0.1237    1.0152 H   0  0  0  0  0  0  0  0  0  0  0  0
    0.2812   -1.8603   -2.0216 H   0  0  0  0  0  0  0  0  0  0  0  0
   -5.6774   -3.9954   -0.1405 H   0  0  0  0  0  0  0  0  0  0  0  0
   -7.1330   -2.1416    0.6155 H   0  0  0  0  0  0  0  0  0  0  0  0
    2.8944    0.1897   -0.3872 H   0  0  0  0  0  0  0  0  0  0  0  0
    3.6493   -1.9774    1.1070 H   0  0  0  0  0  0  0  0  0  0  0  0
    4.7827   -0.6011   -2.0855 H   0  0  0  0  0  0  0  0  0  0  0  0
    4.9876   -1.9734   -1.0297 H   0  0  0  0  0  0  0  0  0  0  0  0
    5.3474    1.6766   -1.4172 H   0  0  0  0  0  0  0  0  0  0  0  0
    5.8873   -1.6529    1.2708 H   0  0  0  0  0  0  0  0  0  0  0  0
    6.7905    3.0653    0.0281 H   0  0  0  0  0  0  0  0  0  0  0  0
    7.3184   -0.2511    2.7090 H   0  0  0  0  0  0  0  0  0  0  0  0
    7.7776    2.1077    2.0928 H   0  0  0  0  0  0  0  0  0  0  0  0
  1 10  1  0  0  0  0
  1 48  1  0  0  0  0
  2 13  2  0  0  0  0
  3 23  2  0  0  0  0
  4 27  2  0  0  0  0
  5  9  1  0  0  0  0
  5 11  1  0  0  0  0
  5 14  1  0  0  0  0
  6  9  1  0  0  0  0
  6 13  1  0  0  0  0
  6 17  1  0  0  0  0
  7 20  1  0  0  0  0
  7 27  1  0  0  0  0
  7 51  1  0  0  0  0
  8 23  1  0  0  0  0
  8 26  1  0  0  0  0
  8 55  1  0  0  0  0
  9 10  1  0  0  0  0
  9 35  1  0  0  0  0
 10 12  1  0  0  0  0
 10 16  1  0  0  0  0
 11 13  1  0  0  0  0
 11 15  1  0  0  0  0
 11 36  1  0  0  0  0
 12 17  1  0  0  0  0
 12 21  2  0  0  0  0
 14 18  1  0  0  0  0
 14 37  1  0  0  0  0
 14 38  1  0  0  0  0
 15 19  1  0  0  0  0
 15 39  1  0  0  0  0
 15 40  1  0  0  0  0
 16 20  1  0  0  0  0
 16 41  1  0  0  0  0
 16 42  1  0  0  0  0
 17 22  2  0  0  0  0
 18 19  1  0  0  0  0
 18 43  1  0  0  0  0
 18 44  1  0  0  0  0
 19 45  1  0  0  0  0
 19 46  1  0  0  0  0
 20 23  1  0  0  0  0
 20 47  1  0  0  0  0
 21 24  1  0  0  0  0
 21 49  1  0  0  0  0
 22 25  1  0  0  0  0
 22 50  1  0  0  0  0
 24 25  2  0  0  0  0
 24 52  1  0  0  0  0
 25 53  1  0  0  0  0
 26 27  1  0  0  0  0
 26 28  1  0  0  0  0
 26 54  1  0  0  0  0
 28 29  1  0  0  0  0
 28 56  1  0  0  0  0
 28 57  1  0  0  0  0
 29 30  2  0  0  0  0
 29 31  1  0  0  0  0
 30 32  1  0  0  0  0
 30 58  1  0  0  0  0
 31 33  2  0  0  0  0
 31 59  1  0  0  0  0
 32 34  2  0  0  0  0
 32 60  1  0  0  0  0
 33 34  1  0  0  0  0
 33 61  1  0  0  0  0
 34 62  1  0  0  0  0
M  END
> <PUBCHEM_COMPOUND_CID>
101150158

> <PUBCHEM_CONFORMER_RMSD>
0.8

> <PUBCHEM_CONFORMER_DIVERSEORDER>
1
49
47
45
62
42
37
57
34
48
41
39
56
40
3
64
28
22
30
53
21
59
63
36
11
54
18
46
52
14
15
58
24
17
66
65
16
13
4
51
12
61
31
32
19
9
5
33
2
10
27
38
55
25
67
26
44
20
35
8
43
7
60
6
23
29
50

> <PUBCHEM_MMFF94_PARTIAL_CHARGES>
42
1 -0.68
10 0.42
11 0.33
12 -0.14
13 0.57
14 0.27
17 0.12
2 -0.57
20 0.36
21 -0.15
22 -0.15
23 0.57
24 -0.15
25 -0.15
26 0.36
27 0.57
28 0.14
29 -0.14
3 -0.57
30 -0.15
31 -0.15
32 -0.15
33 -0.15
34 -0.15
4 -0.57
48 0.4
49 0.15
5 -0.81
50 0.15
51 0.37
52 0.15
53 0.15
55 0.37
58 0.15
59 0.15
6 -0.48
60 0.15
61 0.15
62 0.15
7 -0.73
8 -0.73
9 0.57

> <PUBCHEM_EFFECTIVE_ROTOR_COUNT>
5.8

> <PUBCHEM_PHARMACOPHORE_FEATURES>
14
1 1 acceptor
1 1 donor
1 2 acceptor
1 3 acceptor
1 4 acceptor
1 5 cation
1 7 donor
1 8 donor
5 5 6 9 11 13 rings
5 6 9 10 12 17 rings
6 12 17 21 22 24 25 rings
6 29 30 31 32 33 34 rings
6 5 11 14 15 18 19 rings
6 7 8 20 23 26 27 rings

> <PUBCHEM_HEAVY_ATOM_COUNT>
34

> <PUBCHEM_ATOM_DEF_STEREO_COUNT>
5

> <PUBCHEM_ATOM_UDEF_STEREO_COUNT>
0

> <PUBCHEM_BOND_DEF_STEREO_COUNT>
0

> <PUBCHEM_BOND_UDEF_STEREO_COUNT>
0

> <PUBCHEM_ISOTOPIC_ATOM_COUNT>
0

> <PUBCHEM_COMPONENT_COUNT>
1

> <PUBCHEM_CACTVS_TAUTO_COUNT>
8

> <PUBCHEM_CONFORMER_ID>
06076DCE00000001

> <PUBCHEM_MMFF94_ENERGY>
121.7284

> <PUBCHEM_FEATURE_SELFOVERLAP>
71.581

> <PUBCHEM_SHAPE_FINGERPRINT>
10087517 78 18411417340729853922
10369192 42 17346598625421241284
10930396 42 18266159777199770003
10939801 23 18124595538718446360
10940486 97 17700409475533431471
12107698 1 18339357582344718722
12166972 35 17095803325607415654
12788726 201 18262242119293248027
13726171 33 18059584546222550760
13782708 43 17774738458377493014
13911987 19 16343706543144461350
13914758 101 15864057772201924791
14028597 1 17894341198658139146
14068700 686 18343310249079537438
14394314 77 18334016090901919993
14395042 24 18336562581639502113
14415361 192 17386546068327511828
14739800 52 18337945689372095162
14932701 244 18408598175836697856
15419008 145 18335688439825393936
15849732 13 12319464311244153731
15961568 22 18340492265428468372
15968369 153 18058169616882218160
18393751 57 18272090547379186206
19377110 9 18186798071890302706
20511986 3 17822287917315625091
21315764 268 18411980252788166288
21716022 299 16048116268152970847
22956985 138 17179128912555129251
23559900 14 17770230353260739766
23569914 2 17625214743030472064
24771293 8 18201726154931073867
25019877 29 17488751197472786047
2838139 119 18059846295347997088
392239 28 18261961833236059304
4280585 95 18337105787211518647
469060 322 17748830700103595621
5081480 168 15625932162523985554
550186 72 18410291397911080089
57527585 21 17058638574000099777
6371009 1 18113899394638634356
7399639 24 18130515162364797982
77296 10 18338515215110772738
7808743 9 18340486647268016257
9962374 69 17982455103765291023

> <PUBCHEM_SHAPE_MULTIPOLES>
656.3
16.45
4.42
1.7
23.94
4.56
-0.64
-0.53
6.47
-5.92
-0.43
1.65
-0.05
0.56

> <PUBCHEM_SHAPE_SELFOVERLAP>
1449.732

> <PUBCHEM_SHAPE_VOLUME>
350.6

> <PUBCHEM_COORDINATE_TYPE>
2
5
10

$$$$
