REMARK  Name = 101159096
REMARK  9 active torsions:
REMARK  status: ('A' for Active; 'I' for Inactive)
REMARK    1  A    between atoms: C_2  and  O_8
REMARK    2  A    between atoms: C_3  and  O_10
REMARK    3  A    between atoms: C_4  and  O_12
REMARK    4  A    between atoms: C_6  and  O_14
REMARK    5  A    between atoms: O_14  and  C_15
REMARK    6  A    between atoms: C_15  and  C_16
REMARK    7  A    between atoms: C_15  and  C_19
REMARK    8  A    between atoms: C_16  and  O_17
REMARK    9  A    between atoms: C_19  and  O_20
REMARK                            x       y       z     vdW  Elec       q    Type
REMARK                         _______ _______ _______ _____ _____    ______ ____
ROOT
ATOM      1  O   UNL     1      -0.640   0.984  -1.060  0.00  0.00    -0.329 OA
ATOM      2  C   UNL     1      -1.725  -0.970   0.751  0.00  0.00    +0.171 C 
ATOM      3  C   UNL     1      -2.403   0.385   0.520  0.00  0.00    +0.167 C 
ATOM      4  C   UNL     1      -0.878  -1.364  -0.458  0.00  0.00    +0.196 C 
ATOM      5  C   UNL     1      -1.370   1.435   0.091  0.00  0.00    +0.147 C 
ATOM      6  C   UNL     1       0.081  -0.232  -0.841  0.00  0.00    +0.266 C 
ATOM      7  C   UNL     1      -2.014   2.768  -0.274  0.00  0.00    +0.035 C 
ENDROOT
BRANCH   2   8
ATOM      8  O   UNL     1      -2.708  -1.975   0.987  0.00  0.00    -0.379 OA
ATOM      9  H   UNL     1      -3.246  -1.727   1.755  0.00  0.00    +0.211 HD
ENDBRANCH   2   8
BRANCH   3  10
ATOM     10  O   UNL     1      -3.412   0.254  -0.485  0.00  0.00    -0.379 OA
ATOM     11  H   UNL     1      -4.061  -0.411  -0.208  0.00  0.00    +0.211 HD
ENDBRANCH   3  10
BRANCH   4  12
ATOM     12  O   UNL     1      -0.145  -2.547  -0.156  0.00  0.00    -0.378 OA
ATOM     13  H   UNL     1      -0.761  -3.257   0.084  0.00  0.00    +0.211 HD
ENDBRANCH   4  12
BRANCH   6  14
ATOM     14  O   UNL     1       1.086  -0.082   0.161  0.00  0.00    -0.326 OA
BRANCH  14  15
ATOM     15  C   UNL     1       2.312   0.360  -0.401  0.00  0.00    +0.176 C 
BRANCH  15  16
ATOM     16  C   UNL     1       3.058   1.187   0.640  0.00  0.00    +0.169 C 
BRANCH  16  17
ATOM     17  O   UNL     1       2.284   2.329   0.995  0.00  0.00    -0.379 OA
ATOM     18  H   UNL     1       2.763   2.851   1.657  0.00  0.00    +0.211 HD
ENDBRANCH  16  17
ENDBRANCH  15  16
BRANCH  15  19
ATOM     19  C   UNL     1       3.111  -0.869  -0.812  0.00  0.00    +0.169 C 
BRANCH  19  20
ATOM     20  O   UNL     1       3.363  -1.664   0.342  0.00  0.00    -0.379 OA
ATOM     21  H   UNL     1       3.872  -2.450   0.089  0.00  0.00    +0.211 HD
ENDBRANCH  19  20
ENDBRANCH  15  19
ENDBRANCH  14  15
ENDBRANCH   6  14
TORSDOF 9
