REMARK  Name = 101168039
REMARK  8 active torsions:
REMARK  status: ('A' for Active; 'I' for Inactive)
REMARK    1  A    between atoms: C_4  and  O_24
REMARK    2  A    between atoms: C_13  and  O_22
REMARK    3  A    between atoms: O_24  and  C_30
REMARK    4  A    between atoms: C_26  and  O_31
REMARK    5  A    between atoms: C_27  and  O_33
REMARK    6  A    between atoms: C_28  and  O_35
REMARK    7  A    between atoms: C_29  and  C_37
REMARK    8  A    between atoms: C_37  and  O_38
REMARK                            x       y       z     vdW  Elec       q    Type
REMARK                         _______ _______ _______ _____ _____    ______ ____
ROOT
ATOM      1  O   UNL     1      -2.904   1.383  -1.111  0.00  0.00    -0.449 OA
ATOM      2  O   UNL     1      -4.686  -3.495  -0.872  0.00  0.00    -0.296 OA
ATOM      3  O   UNL     1      -3.403   2.462   0.877  0.00  0.00    -0.245 OA
ATOM      4  C   UNL     1       1.562   1.547   0.786  0.00  0.00    +0.144 C 
ATOM      5  C   UNL     1      -4.918   0.084  -1.509  0.00  0.00    +0.044 C 
ATOM      6  C   UNL     1      -5.378  -0.223  -0.078  0.00  0.00    +0.011 C 
ATOM      7  C   UNL     1       0.666   1.075   1.747  0.00  0.00    +0.037 C 
ATOM      8  C   UNL     1      -4.255   1.463  -1.623  0.00  0.00    +0.169 C 
ATOM      9  C   UNL     1       1.087   2.125  -0.389  0.00  0.00    +0.074 C 
ATOM     10  C   UNL     1      -0.719   1.174   1.543  0.00  0.00    +0.012 C 
ATOM     11  C   UNL     1      -5.899  -1.651   0.069  0.00  0.00    +0.065 C 
ATOM     12  C   UNL     1      -1.188   1.761   0.355  0.00  0.00    +0.109 C 
ATOM     13  C   UNL     1      -0.285   2.236  -0.606  0.00  0.00    +0.143 C 
ATOM     14  C   UNL     1      -3.795  -2.671   1.196  0.00  0.00    +0.065 C 
ATOM     15  C   UNL     1      -2.434  -2.165   0.723  0.00  0.00    +0.012 C 
ATOM     16  C   UNL     1      -4.786  -2.683   0.048  0.00  0.00    +0.151 C 
ATOM     17  C   UNL     1      -1.477  -1.813   1.864  0.00  0.00    +0.026 C 
ATOM     18  C   UNL     1      -1.619   0.638   2.569  0.00  0.00    -0.004 C 
ATOM     19  C   UNL     1      -4.135   1.885  -3.083  0.00  0.00    +0.047 C 
ATOM     20  C   UNL     1      -2.632   1.931   0.098  0.00  0.00    +0.344 C 
ATOM     21  C   UNL     1      -1.954  -0.655   2.699  0.00  0.00    -0.026 C 
ENDROOT
BRANCH  13  22
ATOM     22  O   UNL     1      -0.703   2.852  -1.750  0.00  0.00    -0.505 OA
ATOM     23  H   UNL     1      -0.074   3.159  -2.373  0.00  0.00    +0.292 HD
ENDBRANCH  13  22
BRANCH   4  24
ATOM     24  O   UNL     1       2.903   1.442   0.998  0.00  0.00    -0.450 OA
BRANCH  24  30
ATOM     25  O   UNL     1       3.164  -0.660   0.019  0.00  0.00    -0.316 OA
ATOM     26  C   UNL     1       5.971  -0.214  -0.393  0.00  0.00    +0.173 C 
ATOM     27  C   UNL     1       5.331  -1.595  -0.534  0.00  0.00    +0.169 C 
ATOM     28  C   UNL     1       5.118   0.704   0.483  0.00  0.00    +0.210 C 
ATOM     29  C   UNL     1       3.857  -1.472  -0.930  0.00  0.00    +0.177 C 
ATOM     30  C   UNL     1       3.652   0.679   0.052  0.00  0.00    +0.318 C 
BRANCH  26  31
ATOM     31  O   UNL     1       7.257  -0.383   0.206  0.00  0.00    -0.379 OA
ATOM     32  H   UNL     1       7.798  -0.965  -0.349  0.00  0.00    +0.211 HD
ENDBRANCH  26  31
BRANCH  27  33
ATOM     33  O   UNL     1       6.027  -2.337  -1.532  0.00  0.00    -0.379 OA
ATOM     34  H   UNL     1       6.961  -2.416  -1.284  0.00  0.00    +0.211 HD
ENDBRANCH  27  33
BRANCH  28  35
ATOM     35  O   UNL     1       5.595   2.045   0.369  0.00  0.00    -0.377 OA
ATOM     36  H   UNL     1       6.526   2.081   0.639  0.00  0.00    +0.211 HD
ENDBRANCH  28  35
BRANCH  29  37
ATOM     37  C   UNL     1       3.167  -2.832  -0.964  0.00  0.00    +0.169 C 
BRANCH  37  38
ATOM     38  O   UNL     1       1.811  -2.640  -1.325  0.00  0.00    -0.379 OA
ATOM     39  H   UNL     1       1.359  -3.498  -1.350  0.00  0.00    +0.211 HD
ENDBRANCH  37  38
ENDBRANCH  29  37
ENDBRANCH  24  30
ENDBRANCH   4  24
TORSDOF 8
