REMARK  Name = 101194922
REMARK  8 active torsions:
REMARK  status: ('A' for Active; 'I' for Inactive)
REMARK    1  A    between atoms: S_1  and  C_8
REMARK    2  A    between atoms: S_1  and  C_20
REMARK    3  A    between atoms: C_5  and  C_14
REMARK    4  A    between atoms: C_9  and  C_13
REMARK    5  A    between atoms: C_14  and  O_16
REMARK    6  A    between atoms: C_21  and  C_26
REMARK    7  A    between atoms: CA_24  and  C_31
REMARK    8  A    between atoms: C_31  and  O_32
REMARK                            x       y       z     vdW  Elec       q    Type
REMARK                         _______ _______ _______ _____ _____    ______ ____
ROOT
ATOM      1  S   UNL     1      -0.412  -3.308  -1.307  0.00  0.00    -0.052 S 
ENDROOT
BRANCH   1   8
ATOM      2  O   UNL     1      -1.679   1.069   2.058  0.00  0.00    -0.274 OA
ATOM      3  N   UNL     1      -2.476  -0.705   0.728  0.00  0.00    -0.254 N 
ATOM      4  C   UNL     1      -3.135  -0.402  -0.556  0.00  0.00    +0.095 C 
ATOM      5  C   UNL     1      -2.922   1.109  -0.181  0.00  0.00    +0.123 C 
ATOM      6  C   UNL     1      -2.357  -1.256  -1.579  0.00  0.00    +0.049 C 
ATOM      7  C   UNL     1      -2.261   0.579   1.117  0.00  0.00    +0.233 C 
ATOM      8  C   UNL     1      -1.439  -2.076  -0.689  0.00  0.00    +0.032 C 
ATOM      9  C   UNL     1      -1.538  -1.687   0.589  0.00  0.00    +0.136 C 
ATOM     10  C   UNL     1      -1.633  -0.387  -2.598  0.00  0.00    +0.007 C 
BRANCH   9  13
ATOM     11  O   UNL     1      -0.801  -3.426   1.983  0.00  0.00    -0.239 OA
ATOM     12  O   UNL     1      -0.040  -1.300   2.354  0.00  0.00    -0.239 OA
ATOM     13  C   UNL     1      -0.711  -2.187   1.758  0.00  0.00    +0.401 C 
ENDBRANCH   9  13
BRANCH   5  14
ATOM     14  C   UNL     1      -4.176   1.938   0.023  0.00  0.00    +0.121 C 
ATOM     15  C   UNL     1      -3.825   3.377   0.377  0.00  0.00    +0.032 C 
BRANCH  14  16
ATOM     16  O   UNL     1      -4.953   1.933  -1.171  0.00  0.00    -0.384 OA
ATOM     17  H   UNL     1      -5.181   1.020  -1.405  0.00  0.00    +0.210 HD
ENDBRANCH  14  16
ENDBRANCH   5  14
ENDBRANCH   1   8
BRANCH   1  20
ATOM     18  S   UNL     1       2.519  -3.627  -0.463  0.00  0.00    -0.068 S 
ATOM     19  N   UNL     1       1.356  -1.334  -0.738  0.00  0.00    -0.393 NA
ATOM     20  C   UNL     1       1.169  -2.632  -0.828  0.00  0.00    +0.187 C 
ATOM     21  C   UNL     1       2.661  -1.097  -0.352  0.00  0.00    +0.117 C 
ATOM     22  C   UNL     1       3.444  -2.216  -0.155  0.00  0.00    +0.124 C 
BRANCH  21  26
ATOM     23  N   UNL     1       3.990   3.025  -0.194  0.00  0.00    +0.390 N 
ATOM     24  CA  UNL     1       2.595   2.761   0.171  0.00  0.00    -0.027 C 
ATOM     25  C   UNL     1       2.146   1.422  -0.446  0.00  0.00    +0.009 C 
ATOM     26  C   UNL     1       3.126   0.300  -0.181  0.00  0.00    -0.004 C 
ATOM     27  C   UNL     1       4.881   2.000   0.356  0.00  0.00    -0.055 C 
ATOM     28  C   UNL     1       4.387   0.590   0.192  0.00  0.00    -0.052 C 
ATOM     29  H1  UNL     1       4.264   3.936   0.172  0.00  0.00    -0.084 HD
ATOM     30  H2  UNL     1       4.067   3.010  -1.211  0.00  0.00    -0.084 HD
BRANCH  24  31
ATOM     31  C   UNL     1       1.710   3.905  -0.321  0.00  0.00    +0.116 C 
BRANCH  31  32
ATOM     32  O   UNL     1       0.373   3.631   0.053  0.00  0.00    -0.384 OA
ATOM     33  H   UNL     1      -0.202   4.350  -0.252  0.00  0.00    +0.210 HD
ENDBRANCH  31  32
ENDBRANCH  24  31
ENDBRANCH  21  26
ENDBRANCH   1  20
TORSDOF 8
