REMARK  Name = 10110427
REMARK  6 active torsions:
REMARK  status: ('A' for Active; 'I' for Inactive)
REMARK    1  A    between atoms: N_1  and  C_6
REMARK    2  A    between atoms: C_3  and  C_18
REMARK    3  A    between atoms: C_5  and  C_30
REMARK    4  A    between atoms: C_9  and  S_12
REMARK    5  A    between atoms: S_12  and  N_15
REMARK    6  A    between atoms: C_23  and  N_24
REMARK                            x       y       z     vdW  Elec       q    Type
REMARK                         _______ _______ _______ _____ _____    ______ ____
ROOT
ATOM      1  N   UNL     1      -1.060  -0.609   0.001  0.00  0.00    -0.190 N 
ATOM      2  N   UNL     1      -1.909  -1.652   0.024  0.00  0.00    -0.170 NA
ATOM      3  C   UNL     1      -1.679   0.608  -0.007  0.00  0.00    +0.075 C 
ATOM      4  C   UNL     1      -3.028   0.339   0.011  0.00  0.00    +0.041 C 
ATOM      5  C   UNL     1      -3.109  -1.066   0.030  0.00  0.00    +0.172 C 
ENDROOT
BRANCH   1   6
ATOM      6  C   UNL     1       0.316  -0.844  -0.011  0.00  0.00    +0.074 C 
ATOM      7  C   UNL     1       1.172   0.080   0.572  0.00  0.00    +0.018 C 
ATOM      8  C   UNL     1       0.807  -1.997  -0.607  0.00  0.00    +0.018 C 
ATOM      9  C   UNL     1       3.052  -1.310  -0.037  0.00  0.00    +0.122 C 
ATOM     10  C   UNL     1       2.547  -0.154   0.559  0.00  0.00    +0.021 C 
ATOM     11  C   UNL     1       2.182  -2.231  -0.621  0.00  0.00    +0.021 C 
BRANCH   9  12
ATOM     12  S   UNL     1       4.774  -1.603  -0.054  0.00  0.00    +0.057 S 
ATOM     13  O   UNL     1       5.078  -2.489  -1.169  0.00  0.00    -0.153 OA
ATOM     14  O   UNL     1       5.461  -0.325   0.063  0.00  0.00    -0.153 OA
BRANCH  12  15
ATOM     15  N   UNL     1       4.971  -2.467   1.407  0.00  0.00    -0.203 NA
ATOM     16  H   UNL     1       5.954  -2.709   1.528  0.00  0.00    +0.144 HD
ATOM     17  H   UNL     1       4.412  -3.320   1.375  0.00  0.00    +0.144 HD
ENDBRANCH  12  15
ENDBRANCH   9  12
ENDBRANCH   1   6
BRANCH   3  18
ATOM     18  C   UNL     1      -0.993   1.876  -0.030  0.00  0.00    +0.016 C 
ATOM     19  C   UNL     1      -0.648   2.505   1.167  0.00  0.00    +0.003 C 
ATOM     20  C   UNL     1      -0.674   2.474  -1.249  0.00  0.00    +0.003 C 
ATOM     21  C   UNL     1       0.017   3.731   1.144  0.00  0.00    +0.014 C 
ATOM     22  C   UNL     1      -0.010   3.700  -1.272  0.00  0.00    +0.014 C 
ATOM     23  C   UNL     1       0.336   4.329  -0.075  0.00  0.00    +0.042 C 
BRANCH  23  24
ATOM     24  N   UNL     1       1.007   5.569  -0.099  0.00  0.00    -0.357 N 
ATOM     25  H   UNL     1       1.251   6.013   0.746  0.00  0.00    +0.142 HD
ATOM     26  H   UNL     1       1.232   5.991  -0.959  0.00  0.00    +0.142 HD
ENDBRANCH  23  24
ENDBRANCH   3  18
BRANCH   5  30
ATOM     27  F   UNL     1      -5.472  -1.154   0.059  0.00  0.00    -0.164 F 
ATOM     28  F   UNL     1      -4.431  -2.730  -1.018  0.00  0.00    -0.164 F 
ATOM     29  F   UNL     1      -4.382  -2.687   1.161  0.00  0.00    -0.164 F 
ATOM     30  C   UNL     1      -4.327  -1.894   0.054  0.00  0.00    +0.436 C 
ENDBRANCH   5  30
TORSDOF 6
