REMARK  Name = 101170
REMARK  4 active torsions:
REMARK  status: ('A' for Active; 'I' for Inactive)
REMARK    1  A    between atoms: C_18  and  O_24
REMARK    2  A    between atoms: C_19  and  O_26
REMARK    3  A    between atoms: C_21  and  O_28
REMARK    4  A    between atoms: C_22  and  O_30
REMARK                            x       y       z     vdW  Elec       q    Type
REMARK                         _______ _______ _______ _____ _____    ______ ____
ROOT
ATOM      1  O   UNL     1       0.000   0.972   1.662  0.00  0.00    -0.440 OA
ATOM      2  O   UNL     1       0.000  -2.413  -0.609  0.00  0.00    -0.454 OA
ATOM      3  O   UNL     1      -0.002   3.104   2.564  0.00  0.00    -0.245 OA
ATOM      4  C   UNL     1       0.000   0.351   0.337  0.00  0.00    +0.198 C 
ATOM      5  C   UNL     1       0.001   1.550  -0.556  0.00  0.00    +0.028 C 
ATOM      6  C   UNL     1       1.259  -0.483   0.206  0.00  0.00    +0.059 C 
ATOM      7  C   UNL     1      -1.259  -0.483   0.205  0.00  0.00    +0.059 C 
ATOM      8  C   UNL     1       0.001   2.704   0.208  0.00  0.00    +0.076 C 
ATOM      9  C   UNL     1       1.180  -1.796  -0.272  0.00  0.00    +0.148 C 
ATOM     10  C   UNL     1      -1.181  -1.796  -0.272  0.00  0.00    +0.148 C 
ATOM     11  C   UNL     1       0.000   2.343   1.617  0.00  0.00    +0.342 C 
ATOM     12  C   UNL     1       2.526   0.036   0.525  0.00  0.00    +0.043 C 
ATOM     13  C   UNL     1      -2.526   0.037   0.523  0.00  0.00    +0.043 C 
ATOM     14  C   UNL     1       0.001   1.631  -1.940  0.00  0.00    -0.000 C 
ATOM     15  C   UNL     1       0.001   3.969  -0.349  0.00  0.00    +0.006 C 
ATOM     16  C   UNL     1       2.336  -2.568  -0.438  0.00  0.00    +0.077 C 
ATOM     17  C   UNL     1      -2.336  -2.567  -0.438  0.00  0.00    +0.077 C 
ATOM     18  C   UNL     1       3.678  -0.736   0.366  0.00  0.00    +0.167 C 
ATOM     19  C   UNL     1      -3.679  -0.735   0.365  0.00  0.00    +0.167 C 
ATOM     20  C   UNL     1       0.002   2.897  -2.532  0.00  0.00    -0.000 C 
ATOM     21  C   UNL     1       3.583  -2.037  -0.118  0.00  0.00    +0.171 C 
ATOM     22  C   UNL     1      -3.584  -2.037  -0.118  0.00  0.00    +0.171 C 
ATOM     23  C   UNL     1       0.002   4.059  -1.741  0.00  0.00    +0.000 C 
ENDROOT
BRANCH  18  24
ATOM     24  O   UNL     1       4.890  -0.202   0.683  0.00  0.00    -0.503 OA
ATOM     25  H   UNL     1       4.945   0.675   1.008  0.00  0.00    +0.292 HD
ENDBRANCH  18  24
BRANCH  19  26
ATOM     26  O   UNL     1      -4.891  -0.200   0.681  0.00  0.00    -0.503 OA
ATOM     27  H   UNL     1      -4.945   0.678   1.005  0.00  0.00    +0.292 HD
ENDBRANCH  19  26
BRANCH  21  28
ATOM     28  O   UNL     1       4.699  -2.801  -0.281  0.00  0.00    -0.503 OA
ATOM     29  H   UNL     1       4.624  -3.676  -0.607  0.00  0.00    +0.292 HD
ENDBRANCH  21  28
BRANCH  22  30
ATOM     30  O   UNL     1      -4.699  -2.800  -0.280  0.00  0.00    -0.503 OA
ATOM     31  H   UNL     1      -4.625  -3.676  -0.606  0.00  0.00    +0.292 HD
ENDBRANCH  22  30
TORSDOF 4
