101159096
  -OEChem-03292013293D

 34 34  0     1  0  0  0  0  0999 V2000
   -0.6401    0.9838   -1.0601 O   0  0  0  0  0  0  0  0  0  0  0  0
    1.0862   -0.0817    0.1607 O   0  0  0  0  0  0  0  0  0  0  0  0
   -2.7076   -1.9750    0.9874 O   0  0  0  0  0  0  0  0  0  0  0  0
   -3.4115    0.2538   -0.4853 O   0  0  0  0  0  0  0  0  0  0  0  0
   -0.1448   -2.5472   -0.1563 O   0  0  0  0  0  0  0  0  0  0  0  0
    2.2836    2.3287    0.9949 O   0  0  0  0  0  0  0  0  0  0  0  0
    3.3628   -1.6638    0.3423 O   0  0  0  0  0  0  0  0  0  0  0  0
   -1.7253   -0.9699    0.7514 C   0  0  2  0  0  0  0  0  0  0  0  0
   -2.4033    0.3846    0.5200 C   0  0  1  0  0  0  0  0  0  0  0  0
   -0.8780   -1.3639   -0.4582 C   0  0  1  0  0  0  0  0  0  0  0  0
   -1.3700    1.4354    0.0911 C   0  0  2  0  0  0  0  0  0  0  0  0
    0.0807   -0.2319   -0.8406 C   0  0  1  0  0  0  0  0  0  0  0  0
   -2.0137    2.7684   -0.2743 C   0  0  0  0  0  0  0  0  0  0  0  0
    2.3121    0.3604   -0.4012 C   0  0  0  0  0  0  0  0  0  0  0  0
    3.0575    1.1874    0.6401 C   0  0  0  0  0  0  0  0  0  0  0  0
    3.1113   -0.8692   -0.8120 C   0  0  0  0  0  0  0  0  0  0  0  0
   -1.0914   -0.9274    1.6457 H   0  0  0  0  0  0  0  0  0  0  0  0
   -2.9200    0.7016    1.4325 H   0  0  0  0  0  0  0  0  0  0  0  0
   -1.5403   -1.5993   -1.3000 H   0  0  0  0  0  0  0  0  0  0  0  0
   -0.6614    1.6117    0.9097 H   0  0  0  0  0  0  0  0  0  0  0  0
    0.5395   -0.5107   -1.7971 H   0  0  0  0  0  0  0  0  0  0  0  0
   -2.6525    2.6778   -1.1593 H   0  0  0  0  0  0  0  0  0  0  0  0
   -1.2406    3.5028   -0.5262 H   0  0  0  0  0  0  0  0  0  0  0  0
   -2.6091    3.1624    0.5547 H   0  0  0  0  0  0  0  0  0  0  0  0
    2.1222    1.0044   -1.2701 H   0  0  0  0  0  0  0  0  0  0  0  0
   -3.2387   -1.6906    1.7507 H   0  0  0  0  0  0  0  0  0  0  0  0
   -2.9703    0.1289   -1.3423 H   0  0  0  0  0  0  0  0  0  0  0  0
    0.3891   -2.7679   -0.9384 H   0  0  0  0  0  0  0  0  0  0  0  0
    3.2209    0.6159    1.5597 H   0  0  0  0  0  0  0  0  0  0  0  0
    4.0226    1.5288    0.2526 H   0  0  0  0  0  0  0  0  0  0  0  0
    2.5648   -1.4890   -1.5285 H   0  0  0  0  0  0  0  0  0  0  0  0
    4.0709   -0.5813   -1.2531 H   0  0  0  0  0  0  0  0  0  0  0  0
    3.8785   -2.4348    0.0503 H   0  0  0  0  0  0  0  0  0  0  0  0
    2.7952    2.8260    1.6556 H   0  0  0  0  0  0  0  0  0  0  0  0
  1 11  1  0  0  0  0
  1 12  1  0  0  0  0
  2 12  1  0  0  0  0
  2 14  1  0  0  0  0
  3  8  1  0  0  0  0
  3 26  1  0  0  0  0
  4  9  1  0  0  0  0
  4 27  1  0  0  0  0
  5 10  1  0  0  0  0
  5 28  1  0  0  0  0
  6 15  1  0  0  0  0
  6 34  1  0  0  0  0
  7 16  1  0  0  0  0
  7 33  1  0  0  0  0
  8  9  1  0  0  0  0
  8 10  1  0  0  0  0
  8 17  1  0  0  0  0
  9 11  1  0  0  0  0
  9 18  1  0  0  0  0
 10 12  1  0  0  0  0
 10 19  1  0  0  0  0
 11 13  1  0  0  0  0
 11 20  1  0  0  0  0
 12 21  1  0  0  0  0
 13 22  1  0  0  0  0
 13 23  1  0  0  0  0
 13 24  1  0  0  0  0
 14 15  1  0  0  0  0
 14 16  1  0  0  0  0
 14 25  1  0  0  0  0
 15 29  1  0  0  0  0
 15 30  1  0  0  0  0
 16 31  1  0  0  0  0
 16 32  1  0  0  0  0
M  END
> <PUBCHEM_COMPOUND_CID>
101159096

> <PUBCHEM_CONFORMER_RMSD>
0.6

> <PUBCHEM_CONFORMER_DIVERSEORDER>
1
39
40
7
18
51
15
24
23
32
49
26
17
45
33
41
12
48
50
10
16
31
20
25
13
11
44
3
36
29
47
4
22
6
38
43
28
42
21
34
19
35
2
37
8
46
5
27
9
30
14

> <PUBCHEM_MMFF94_PARTIAL_CHARGES>
20
1 -0.56
10 0.28
11 0.28
12 0.56
14 0.28
15 0.28
16 0.28
2 -0.56
26 0.4
27 0.4
28 0.4
3 -0.68
33 0.4
34 0.4
4 -0.68
5 -0.68
6 -0.68
7 -0.68
8 0.28
9 0.28

> <PUBCHEM_EFFECTIVE_ROTOR_COUNT>
5.2

> <PUBCHEM_PHARMACOPHORE_FEATURES>
13
1 1 acceptor
1 2 acceptor
1 3 acceptor
1 3 donor
1 4 acceptor
1 4 donor
1 5 acceptor
1 5 donor
1 6 acceptor
1 6 donor
1 7 acceptor
1 7 donor
6 1 8 9 10 11 12 rings

> <PUBCHEM_HEAVY_ATOM_COUNT>
16

> <PUBCHEM_ATOM_DEF_STEREO_COUNT>
5

> <PUBCHEM_ATOM_UDEF_STEREO_COUNT>
0

> <PUBCHEM_BOND_DEF_STEREO_COUNT>
0

> <PUBCHEM_BOND_UDEF_STEREO_COUNT>
0

> <PUBCHEM_ISOTOPIC_ATOM_COUNT>
0

> <PUBCHEM_COMPONENT_COUNT>
1

> <PUBCHEM_CACTVS_TAUTO_COUNT>
1

> <PUBCHEM_CONFORMER_ID>
060790B800000001

> <PUBCHEM_MMFF94_ENERGY>
41.4705

> <PUBCHEM_FEATURE_SELFOVERLAP>
66.043

> <PUBCHEM_SHAPE_FINGERPRINT>
10608611 8 18413106156441577352
12382932 28 18123187067778501248
12932764 1 18201166549992382374
13380535 76 18120375350432450471
15076042 46 18408047303151685454
15375462 6 18339365274362146222
15775835 57 18336837415667922464
16945 1 18336554811109629071
17804303 29 18337684005272413534
17844478 74 18339089292643443024
18186145 218 18060140882026587816
19049666 15 18340488859513737912
20510252 161 18412550928728376889
20528008 55 18412542149730782149
20715346 28 18337960102680914183
20871998 184 18340216275087941519
21028194 46 18340487746779767180
21501502 16 18200305636735483590
21524375 3 18049157774704325445
2334 1 18266465497419931375
23388829 49 16832901530893121910
23402539 116 18409444748877913677
23419403 2 16553090017150406479
23559900 14 18407758144752964284
25 1 17835521526950060701
2748010 2 18338243781260664991
31174 14 18129108977212967720
3286 77 18339072684068089652
598444 67 18339931428313847025
6049 1 18343032102981432028
81228 2 18187364367591423025

> <PUBCHEM_SHAPE_MULTIPOLES>
288.19
5.31
2.64
0.97
2.38
0.46
0
0.13
0.58
-0.58
0.35
0.04
0.04
0.92

> <PUBCHEM_SHAPE_SELFOVERLAP>
570.651

> <PUBCHEM_SHAPE_VOLUME>
170.1

> <PUBCHEM_COORDINATE_TYPE>
2
5
10

$$$$
