REMARK  Name = 10113978
REMARK  4 active torsions:
REMARK  status: ('A' for Active; 'I' for Inactive)
REMARK    1  A    between atoms: N_1  and  C_16
REMARK    2  A    between atoms: N_2  and  C_24
REMARK    3  A    between atoms: C_22  and  S_29
REMARK    4  A    between atoms: S_29  and  N_32
REMARK                            x       y       z     vdW  Elec       q    Type
REMARK                         _______ _______ _______ _____ _____    ______ ____
ROOT
ATOM      1  N   UNL     1      -1.016   0.097   0.386  0.00  0.00    -0.260 N 
ATOM      2  N   UNL     1       3.028   2.440  -0.321  0.00  0.00    -0.247 N 
ATOM      3  N   UNL     1       1.033   1.259   0.035  0.00  0.00    -0.322 NA
ATOM      4  N   UNL     1       0.998   3.557  -0.691  0.00  0.00    -0.170 NA
ATOM      5  C   UNL     1      -0.316   1.273   0.020  0.00  0.00    +0.201 C 
ATOM      6  C   UNL     1      -0.251  -1.151   0.495  0.00  0.00    +0.120 C 
ATOM      7  C   UNL     1       1.617   2.417  -0.326  0.00  0.00    +0.150 C 
ATOM      8  C   UNL     1      -1.068   2.374  -0.334  0.00  0.00    +0.070 C 
ATOM      9  C   UNL     1      -0.350   3.500  -0.684  0.00  0.00    +0.116 C 
ATOM     10  H   UNL     1       3.413   3.327  -0.509  0.00  0.00    +0.165 HD
ENDROOT
BRANCH   1  16
ATOM     11  N   UNL     1      -6.572  -0.955  -0.795  0.00  0.00    -0.253 N 
ATOM     12  N   UNL     1      -5.412  -1.029  -1.476  0.00  0.00    -0.170 NA
ATOM     13  C   UNL     1      -5.111  -0.315   0.659  0.00  0.00    +0.033 A 
ATOM     14  C   UNL     1      -4.474  -0.635  -0.596  0.00  0.00    +0.103 A 
ATOM     15  C   UNL     1      -6.450  -0.530   0.496  0.00  0.00    +0.057 A 
ATOM     16  C   UNL     1      -2.428  -0.062   0.425  0.00  0.00    +0.055 C 
ATOM     17  C   UNL     1      -3.081  -0.512  -0.743  0.00  0.00    +0.036 C 
ATOM     18  C   UNL     1      -4.498   0.129   1.824  0.00  0.00    +0.004 C 
ATOM     19  C   UNL     1      -3.105   0.243   1.648  0.00  0.00    +0.015 C 
ATOM     20  C   UNL     1      -7.604  -0.384   1.403  0.00  0.00    +0.052 C 
ATOM     21  C   UNL     1      -7.798  -1.319  -1.468  0.00  0.00    +0.153 C 
ENDBRANCH   1  16
BRANCH   2  24
ATOM     22  C   UNL     1       4.623  -0.897  -0.102  0.00  0.00    +0.119 C 
ATOM     23  C   UNL     1       5.900  -0.552   0.341  0.00  0.00    -0.003 C 
ATOM     24  C   UNL     1       3.965   1.464  -0.105  0.00  0.00    +0.059 C 
ATOM     25  C   UNL     1       3.670   0.097  -0.323  0.00  0.00    +0.035 C 
ATOM     26  C   UNL     1       6.223   0.787   0.565  0.00  0.00    -0.002 C 
ATOM     27  C   UNL     1       5.269   1.780   0.345  0.00  0.00    +0.015 C 
ATOM     28  C   UNL     1       6.945  -1.591   0.586  0.00  0.00    +0.032 C 
BRANCH  22  29
ATOM     29  S   UNL     1       4.185  -2.566  -0.393  0.00  0.00    +0.057 S 
ATOM     30  O   UNL     1       3.088  -2.588  -1.349  0.00  0.00    -0.153 OA
ATOM     31  O   UNL     1       5.400  -3.319  -0.664  0.00  0.00    -0.153 OA
BRANCH  29  32
ATOM     32  N   UNL     1       3.590  -3.014   1.143  0.00  0.00    -0.203 NA
ATOM     33  H   UNL     1       3.290  -3.989   1.121  0.00  0.00    +0.144 HD
ATOM     34  H   UNL     1       2.797  -2.420   1.388  0.00  0.00    +0.144 HD
ENDBRANCH  29  32
ENDBRANCH  22  29
ENDBRANCH   2  24
TORSDOF 4
