REMARK  Name = 101182124
REMARK  5 active torsions:
REMARK  status: ('A' for Active; 'I' for Inactive)
REMARK    1  A    between atoms: C_7  and  O_22
REMARK    2  A    between atoms: C_10  and  O_24
REMARK    3  A    between atoms: C_18  and  O_26
REMARK    4  A    between atoms: C_19  and  O_30
REMARK    5  A    between atoms: C_20  and  O_28
REMARK                            x       y       z     vdW  Elec       q    Type
REMARK                         _______ _______ _______ _____ _____    ______ ____
ROOT
ATOM      1  O   UNL     1      -0.709   2.522   0.091  0.00  0.00    -0.449 OA
ATOM      2  O   UNL     1      -3.674  -2.350   0.759  0.00  0.00    -0.291 OA
ATOM      3  O   UNL     1      -0.234   1.999   2.297  0.00  0.00    -0.245 OA
ATOM      4  C   UNL     1      -2.853   1.426  -1.430  0.00  0.00    +0.007 C 
ATOM      5  C   UNL     1      -3.063   0.273  -0.445  0.00  0.00    +0.037 C 
ATOM      6  C   UNL     1      -2.937   2.821  -0.793  0.00  0.00    +0.044 C 
ATOM      7  C   UNL     1      -2.939  -1.082  -1.144  0.00  0.00    +0.170 C 
ATOM      8  C   UNL     1      -2.017   3.031   0.418  0.00  0.00    +0.169 C 
ATOM      9  C   UNL     1      -2.830  -2.209  -0.128  0.00  0.00    +0.204 C 
ATOM     10  C   UNL     1      -1.672  -3.188  -0.297  0.00  0.00    +0.174 C 
ATOM     11  C   UNL     1      -1.904   4.508   0.776  0.00  0.00    +0.047 C 
ATOM     12  C   UNL     1      -0.294  -2.570  -0.021  0.00  0.00    +0.063 C 
ATOM     13  C   UNL     1       1.166   1.284   0.506  0.00  0.00    +0.112 C 
ATOM     14  C   UNL     1       1.409  -0.075   0.780  0.00  0.00    +0.046 C 
ATOM     15  C   UNL     1      -0.161  -1.951   1.347  0.00  0.00    -0.023 C 
ATOM     16  C   UNL     1       0.017   1.988   1.105  0.00  0.00    +0.344 C 
ATOM     17  C   UNL     1       0.557  -0.866   1.680  0.00  0.00    -0.001 C 
ATOM     18  C   UNL     1       2.525  -0.686   0.185  0.00  0.00    +0.173 C 
ATOM     19  C   UNL     1       2.010   2.004  -0.350  0.00  0.00    +0.143 C 
ATOM     20  C   UNL     1       3.364   0.033  -0.669  0.00  0.00    +0.175 C 
ATOM     21  C   UNL     1       3.106   1.375  -0.937  0.00  0.00    +0.077 C 
ENDROOT
BRANCH   7  22
ATOM     22  O   UNL     1      -4.077  -1.345  -1.946  0.00  0.00    -0.377 OA
ATOM     23  H   UNL     1      -4.176  -0.643  -2.608  0.00  0.00    +0.211 HD
ENDBRANCH   7  22
BRANCH  10  24
ATOM     24  O   UNL     1      -1.861  -4.302   0.564  0.00  0.00    -0.377 OA
ATOM     25  H   UNL     1      -2.731  -4.697   0.395  0.00  0.00    +0.211 HD
ENDBRANCH  10  24
BRANCH  18  26
ATOM     26  O   UNL     1       2.842  -1.989   0.454  0.00  0.00    -0.468 OA
ATOM     27  C   UNL     1       3.716  -2.223   1.553  0.00  0.00    +0.253 C 
ENDBRANCH  18  26
BRANCH  20  28
ATOM     28  O   UNL     1       4.447  -0.564  -1.242  0.00  0.00    -0.468 OA
ATOM     29  C   UNL     1       4.247  -1.193  -2.506  0.00  0.00    +0.253 C 
ENDBRANCH  20  28
BRANCH  19  30
ATOM     30  O   UNL     1       1.817   3.330  -0.607  0.00  0.00    -0.505 OA
ATOM     31  H   UNL     1       1.088   3.779  -0.226  0.00  0.00    +0.292 HD
ENDBRANCH  19  30
TORSDOF 5
