101197698
  -OEChem-03292013293D

 43 47  0     0  0  0  0  0  0999 V2000
    0.5597   -1.0357   -0.1026 O   0  0  0  0  0  0  0  0  0  0  0  0
   -2.8079    2.5663   -0.0591 O   0  0  0  0  0  0  0  0  0  0  0  0
    2.2962   -2.9237   -0.2382 O   0  0  0  0  0  0  0  0  0  0  0  0
    1.7185    4.1712   -0.8764 O   0  0  0  0  0  0  0  0  0  0  0  0
   -5.3088    1.9584   -0.0113 O   0  0  0  0  0  0  0  0  0  0  0  0
    6.8935   -1.8396    0.0048 O   0  0  0  0  0  0  0  0  0  0  0  0
   -6.3883   -2.6444    0.0934 O   0  0  0  0  0  0  0  0  0  0  0  0
    1.2829    1.2532    0.1340 C   0  0  0  0  0  0  0  0  0  0  0  0
    1.5714   -0.1078    0.0129 C   0  0  0  0  0  0  0  0  0  0  0  0
   -1.1101    0.8034    0.0103 C   0  0  0  0  0  0  0  0  0  0  0  0
    2.9054   -0.5784    0.0074 C   0  0  0  0  0  0  0  0  0  0  0  0
    2.3284    2.1694    0.2540 C   0  0  0  0  0  0  0  0  0  0  0  0
   -0.7674   -0.6255   -0.0596 C   0  0  0  0  0  0  0  0  0  0  0  0
   -0.1084    1.6963    0.1240 C   0  0  0  0  0  0  0  0  0  0  0  0
    3.9556    0.3632    0.1300 C   0  0  0  0  0  0  0  0  0  0  0  0
    3.6516    1.7274    0.2524 C   0  0  0  0  0  0  0  0  0  0  0  0
   -2.5391    1.2097   -0.0126 C   0  0  0  0  0  0  0  0  0  0  0  0
   -3.5377    0.2859    0.0001 C   0  0  0  0  0  0  0  0  0  0  0  0
   -3.1432   -1.1461   -0.0077 C   0  0  0  0  0  0  0  0  0  0  0  0
   -1.7426   -1.5468   -0.0657 C   0  0  0  0  0  0  0  0  0  0  0  0
    3.2413   -1.9439   -0.1137 C   0  0  0  0  0  0  0  0  0  0  0  0
    2.0928    3.6409    0.3873 C   0  0  0  0  0  0  0  0  0  0  0  0
    5.2896   -0.0771    0.1279 C   0  0  0  0  0  0  0  0  0  0  0  0
   -4.9683    0.6209    0.0060 C   0  0  0  0  0  0  0  0  0  0  0  0
   -4.0893   -2.1018    0.0198 C   0  0  0  0  0  0  0  0  0  0  0  0
    4.5720   -2.3644   -0.1139 C   0  0  0  0  0  0  0  0  0  0  0  0
    5.5950   -1.4318    0.0067 C   0  0  0  0  0  0  0  0  0  0  0  0
   -5.9090   -0.3337    0.0349 C   0  0  0  0  0  0  0  0  0  0  0  0
   -5.5337   -1.7657    0.0548 C   0  0  0  0  0  0  0  0  0  0  0  0
   -0.3105    2.7552    0.2120 H   0  0  0  0  0  0  0  0  0  0  0  0
    4.4617    2.4496    0.3440 H   0  0  0  0  0  0  0  0  0  0  0  0
   -1.4967   -2.6040   -0.1098 H   0  0  0  0  0  0  0  0  0  0  0  0
    1.3230    3.8650    1.1333 H   0  0  0  0  0  0  0  0  0  0  0  0
    3.0002    4.1615    0.7145 H   0  0  0  0  0  0  0  0  0  0  0  0
    6.0981    0.6463    0.2217 H   0  0  0  0  0  0  0  0  0  0  0  0
   -3.8437   -3.1597    0.0123 H   0  0  0  0  0  0  0  0  0  0  0  0
    4.8212   -3.4187   -0.2084 H   0  0  0  0  0  0  0  0  0  0  0  0
   -6.9673   -0.0968    0.0448 H   0  0  0  0  0  0  0  0  0  0  0  0
   -2.1136    3.0095   -0.5729 H   0  0  0  0  0  0  0  0  0  0  0  0
    2.7291   -3.7915   -0.3084 H   0  0  0  0  0  0  0  0  0  0  0  0
    1.5698    5.1242   -0.7534 H   0  0  0  0  0  0  0  0  0  0  0  0
   -6.2791    2.0277   -0.0026 H   0  0  0  0  0  0  0  0  0  0  0  0
    7.4694   -1.0613    0.0969 H   0  0  0  0  0  0  0  0  0  0  0  0
  1  9  1  0  0  0  0
  1 13  1  0  0  0  0
  2 17  1  0  0  0  0
  2 39  1  0  0  0  0
  3 21  1  0  0  0  0
  3 40  1  0  0  0  0
  4 22  1  0  0  0  0
  4 41  1  0  0  0  0
  5 24  1  0  0  0  0
  5 42  1  0  0  0  0
  6 27  1  0  0  0  0
  6 43  1  0  0  0  0
  7 29  2  0  0  0  0
  8  9  2  0  0  0  0
  8 12  1  0  0  0  0
  8 14  1  0  0  0  0
  9 11  1  0  0  0  0
 10 13  1  0  0  0  0
 10 14  2  0  0  0  0
 10 17  1  0  0  0  0
 11 15  1  0  0  0  0
 11 21  2  0  0  0  0
 12 16  2  0  0  0  0
 12 22  1  0  0  0  0
 13 20  2  0  0  0  0
 14 30  1  0  0  0  0
 15 16  1  0  0  0  0
 15 23  2  0  0  0  0
 16 31  1  0  0  0  0
 17 18  2  0  0  0  0
 18 19  1  0  0  0  0
 18 24  1  0  0  0  0
 19 20  1  0  0  0  0
 19 25  2  0  0  0  0
 20 32  1  0  0  0  0
 21 26  1  0  0  0  0
 22 33  1  0  0  0  0
 22 34  1  0  0  0  0
 23 27  1  0  0  0  0
 23 35  1  0  0  0  0
 24 28  2  0  0  0  0
 25 29  1  0  0  0  0
 25 36  1  0  0  0  0
 26 27  2  0  0  0  0
 26 37  1  0  0  0  0
 28 29  1  0  0  0  0
 28 38  1  0  0  0  0
M  END
> <PUBCHEM_COMPOUND_CID>
101197698

> <PUBCHEM_CONFORMER_RMSD>
0.6

> <PUBCHEM_CONFORMER_DIVERSEORDER>
1

> <PUBCHEM_MMFF94_PARTIAL_CHARGES>
36
1 -0.16
12 -0.14
13 0.08
14 -0.18
16 -0.15
17 0.08
2 -0.53
20 -0.15
21 0.08
22 0.42
23 -0.15
24 0.08
25 -0.14
26 -0.15
27 0.08
28 -0.14
29 0.54
3 -0.53
30 0.15
31 0.15
32 0.15
35 0.15
36 0.15
37 0.15
38 0.15
39 0.45
4 -0.68
40 0.45
41 0.4
42 0.45
43 0.45
5 -0.53
6 -0.53
7 -0.57
8 0.03
9 0.08

> <PUBCHEM_EFFECTIVE_ROTOR_COUNT>
1

> <PUBCHEM_PHARMACOPHORE_FEATURES>
13
1 1 acceptor
1 2 donor
1 3 donor
1 4 acceptor
1 4 donor
1 5 donor
1 6 donor
1 7 acceptor
6 1 8 9 10 13 14 rings
6 10 13 17 18 19 20 rings
6 11 15 21 23 26 27 rings
6 18 19 24 25 28 29 rings
6 8 9 11 12 15 16 rings

> <PUBCHEM_HEAVY_ATOM_COUNT>
29

> <PUBCHEM_ATOM_DEF_STEREO_COUNT>
0

> <PUBCHEM_ATOM_UDEF_STEREO_COUNT>
0

> <PUBCHEM_BOND_DEF_STEREO_COUNT>
0

> <PUBCHEM_BOND_UDEF_STEREO_COUNT>
0

> <PUBCHEM_ISOTOPIC_ATOM_COUNT>
0

> <PUBCHEM_COMPONENT_COUNT>
1

> <PUBCHEM_CACTVS_TAUTO_COUNT>
303

> <PUBCHEM_CONFORMER_ID>
0608278200000001

> <PUBCHEM_MMFF94_ENERGY>
102.9449

> <PUBCHEM_FEATURE_SELFOVERLAP>
66.092

> <PUBCHEM_SHAPE_FINGERPRINT>
10411042 1 18411137996895776482
10622 236 17413850348545152255
11578080 2 16699752717738637442
11963148 33 17833827549295140135
12107183 9 18269846315814542689
12166972 35 18272653475688472544
12236239 1 18041000622307205998
12403259 226 18409443683088545565
12516196 113 18412544284778038066
13140716 1 17763172945183813032
13402501 40 18410012122041559738
13533116 47 18268148832610700521
13782708 43 17821725031054036226
138480 1 18411136970013990560
14341114 176 18412547617192644393
15183329 4 18408882910846579987
15196674 1 18411418427667673193
15320467 1 16753811486555416375
15361156 5 18186813486612115717
15927050 60 17838334443567439548
16087824 20 18122627154579058997
17492 89 18337954622714315555
17844677 252 18412269462721278835
17857418 61 18411136926652347803
1813 80 17313099769654545300
18681886 176 18341326760568337410
1979834 28 17775003484135439014
20028762 73 18273493494077838310
21049683 271 18335427902461017948
21065198 57 18338236076152665315
21130935 74 18272651246832931050
21133410 127 17825939592700844701
21197605 99 18197782304452389479
21236236 1 18413388709987588947
21267235 1 18412550898906477990
21279426 13 18409726236322859709
21315763 129 18411418423325441015
21792934 111 18413385463282392537
221490 88 18409171047164410576
22393880 68 18113887248481475733
23522609 53 18121251789717439308
23559900 14 18411693309759133241
24771293 8 18057586854956486008
249057 3 18339079286013572301
3004659 81 18260266339604778722
335352 9 18411136892793795677
338550 245 18409730702846416966
3421961 26 18412542137262865104
350125 39 18411702097035269853
4015057 19 18339353180330450177
4073 2 18186806910785337187
4214541 1 18411418389086846545
46194498 28 17676767673348828540
465052 167 18272374178687487590
5104073 3 18343022203160800409
6443956 14 18409732859400014700
9709674 26 18335703905047616851
9981440 41 17544473510771811064

> <PUBCHEM_SHAPE_MULTIPOLES>
555.72
14.58
3.77
0.63
5.83
2.25
0.01
-8.78
-0.37
-1.8
0.27
-0.08
0.11
0.24

> <PUBCHEM_SHAPE_SELFOVERLAP>
1274.012

> <PUBCHEM_SHAPE_VOLUME>
284.2

> <PUBCHEM_COORDINATE_TYPE>
2
5
10

$$$$
