REMARK  Name = 101158593
REMARK  6 active torsions:
REMARK  status: ('A' for Active; 'I' for Inactive)
REMARK    1  A    between atoms: C_11  and  O_24
REMARK    2  A    between atoms: C_17  and  C_32
REMARK    3  A    between atoms: C_18  and  O_28
REMARK    4  A    between atoms: C_19  and  O_26
REMARK    5  A    between atoms: O_28  and  C_30
REMARK    6  A    between atoms: C_32  and  O_33
REMARK                            x       y       z     vdW  Elec       q    Type
REMARK                         _______ _______ _______ _____ _____    ______ ____
ROOT
ATOM      1  O   UNL     1       0.409   0.875   2.243  0.00  0.00    -0.452 OA
ATOM      2  O   UNL     1       0.388  -3.083   0.632  0.00  0.00    -0.331 OA
ATOM      3  O   UNL     1      -3.396  -0.614   1.477  0.00  0.00    -0.295 OA
ATOM      4  O   UNL     1      -1.642   1.159   3.121  0.00  0.00    -0.250 OA
ATOM      5  C   UNL     1       0.600  -0.693   0.382  0.00  0.00    +0.072 C 
ATOM      6  C   UNL     1      -0.768  -0.202  -0.242  0.00  0.00    +0.049 C 
ATOM      7  C   UNL     1      -1.520   0.768   0.741  0.00  0.00    +0.143 C 
ATOM      8  C   UNL     1       1.553  -1.423  -0.602  0.00  0.00    +0.065 C 
ATOM      9  C   UNL     1       1.195   0.538   1.085  0.00  0.00    +0.175 C 
ATOM     10  C   UNL     1       3.083  -1.454  -0.192  0.00  0.00    +0.042 C 
ATOM     11  C   UNL     1      -0.696   0.398  -1.681  0.00  0.00    +0.112 C 
ATOM     12  C   UNL     1      -2.735   1.853  -0.997  0.00  0.00    +0.013 C 
ATOM     13  C   UNL     1      -1.762   2.168   0.138  0.00  0.00    +0.018 C 
ATOM     14  C   UNL     1       0.267  -1.848   1.355  0.00  0.00    +0.148 C 
ATOM     15  C   UNL     1      -1.996   1.100  -2.124  0.00  0.00    +0.030 C 
ATOM     16  C   UNL     1       2.647   0.377   1.525  0.00  0.00    +0.087 C 
ATOM     17  C   UNL     1      -3.817   1.036  -0.250  0.00  0.00    +0.088 C 
ATOM     18  C   UNL     1       3.524  -0.074   0.360  0.00  0.00    +0.172 C 
ATOM     19  C   UNL     1       0.928  -2.823  -0.669  0.00  0.00    +0.232 C 
ATOM     20  C   UNL     1      -2.971   0.280   0.755  0.00  0.00    +0.162 C 
ATOM     21  C   UNL     1      -0.941   0.933   2.138  0.00  0.00    +0.323 C 
ATOM     22  C   UNL     1       3.470  -2.539   0.844  0.00  0.00    +0.004 C 
ATOM     23  C   UNL     1       3.907  -1.774  -1.468  0.00  0.00    +0.004 C 
ENDROOT
BRANCH  11  24
ATOM     24  O   UNL     1       0.386   1.320  -1.803  0.00  0.00    -0.384 OA
ATOM     25  H   UNL     1       1.210   0.889  -1.527  0.00  0.00    +0.210 HD
ENDBRANCH  11  24
BRANCH  19  26
ATOM     26  O   UNL     1      -0.101  -2.855  -1.654  0.00  0.00    -0.360 OA
ATOM     27  H   UNL     1      -0.489  -3.744  -1.688  0.00  0.00    +0.213 HD
ENDBRANCH  19  26
BRANCH  18  28
ATOM     28  O   UNL     1       3.466   0.910  -0.675  0.00  0.00    -0.452 OA
BRANCH  28  30
ATOM     29  O   UNL     1       5.206   2.066   0.310  0.00  0.00    -0.250 OA
ATOM     30  C   UNL     1       4.369   1.927  -0.572  0.00  0.00    +0.317 C 
ATOM     31  C   UNL     1       4.191   2.877  -1.718  0.00  0.00    +0.121 C 
ENDBRANCH  28  30
ENDBRANCH  18  28
BRANCH  17  32
ATOM     32  C   UNL     1      -4.697   0.125  -1.083  0.00  0.00    +0.150 C 
BRANCH  32  33
ATOM     33  O   UNL     1      -5.840  -0.234  -0.323  0.00  0.00    -0.351 OA
ATOM     34  C   UNL     1      -6.707  -1.091  -1.053  0.00  0.00    +0.174 C 
ENDBRANCH  32  33
ENDBRANCH  17  32
TORSDOF 6
