101100
  -OEChem-03292013323D

 25 25  0     1  0  0  0  0  0999 V2000
    1.0506    2.2551    0.6978 O   0  0  0  0  0  0  0  0  0  0  0  0
   -0.4490   -3.3134    0.3465 O   0  0  0  0  0  0  0  0  0  0  0  0
   -3.2692    1.9130    0.2070 O   0  0  0  0  0  0  0  0  0  0  0  0
   -2.1094   -1.8165   -0.1359 O   0  0  0  0  0  0  0  0  0  0  0  0
   -1.8535    1.2554   -1.4477 O   0  0  0  0  0  0  0  0  0  0  0  0
    1.3760   -1.6168   -0.3223 N   0  0  0  0  0  0  0  0  0  0  0  0
    3.5011    1.3991   -0.1207 N   0  0  0  0  0  0  0  0  0  0  0  0
    2.3442    0.5897   -0.4901 C   0  0  1  0  0  0  0  0  0  0  0  0
    2.6075   -0.8768   -0.1688 C   0  0  0  0  0  0  0  0  0  0  0  0
   -0.0639    0.1731    0.4011 C   0  0  0  0  0  0  0  0  0  0  0  0
    1.1218    1.1032    0.2695 C   0  0  0  0  0  0  0  0  0  0  0  0
    0.1527   -1.1118    0.0561 C   0  0  0  0  0  0  0  0  0  0  0  0
   -1.3273    0.8113    0.8978 C   0  0  0  0  0  0  0  0  0  0  0  0
   -0.9453   -2.0916    0.0709 C   0  0  0  0  0  0  0  0  0  0  0  0
   -2.1361    1.3269   -0.2611 C   0  0  0  0  0  0  0  0  0  0  0  0
    2.1376    0.7152   -1.5603 H   0  0  0  0  0  0  0  0  0  0  0  0
    3.3750   -1.2904   -0.8325 H   0  0  0  0  0  0  0  0  0  0  0  0
    2.9618   -0.9978    0.8627 H   0  0  0  0  0  0  0  0  0  0  0  0
    1.4278   -2.6057   -0.5443 H   0  0  0  0  0  0  0  0  0  0  0  0
   -1.1137    1.6400    1.5813 H   0  0  0  0  0  0  0  0  0  0  0  0
   -1.9319    0.0919    1.4601 H   0  0  0  0  0  0  0  0  0  0  0  0
    3.3523    2.3634   -0.4158 H   0  0  0  0  0  0  0  0  0  0  0  0
    4.3236    1.0714   -0.6258 H   0  0  0  0  0  0  0  0  0  0  0  0
   -1.1488   -4.0005    0.3667 H   0  0  0  0  0  0  0  0  0  0  0  0
   -3.8252    2.2657   -0.5201 H   0  0  0  0  0  0  0  0  0  0  0  0
  1 11  2  0  0  0  0
  2 14  1  0  0  0  0
  2 24  1  0  0  0  0
  3 15  1  0  0  0  0
  3 25  1  0  0  0  0
  4 14  2  0  0  0  0
  5 15  2  0  0  0  0
  6  9  1  0  0  0  0
  6 12  1  0  0  0  0
  6 19  1  0  0  0  0
  7  8  1  0  0  0  0
  7 22  1  0  0  0  0
  7 23  1  0  0  0  0
  8  9  1  0  0  0  0
  8 11  1  0  0  0  0
  8 16  1  0  0  0  0
  9 17  1  0  0  0  0
  9 18  1  0  0  0  0
 10 11  1  0  0  0  0
 10 12  2  0  0  0  0
 10 13  1  0  0  0  0
 12 14  1  0  0  0  0
 13 15  1  0  0  0  0
 13 20  1  0  0  0  0
 13 21  1  0  0  0  0
M  END
> <PUBCHEM_COMPOUND_CID>
101100

> <PUBCHEM_CONFORMER_RMSD>
0.6

> <PUBCHEM_CONFORMER_DIVERSEORDER>
1
21
18
8
4
22
20
10
23
11
24
6
5
13
17
16
14
15
3
12
19
7
2
9

> <PUBCHEM_MMFF94_PARTIAL_CHARGES>
20
1 -0.57
10 -0.12
11 0.49
12 0.11
13 0.2
14 0.71
15 0.66
19 0.4
2 -0.65
22 0.36
23 0.36
24 0.5
25 0.5
3 -0.65
4 -0.57
5 -0.57
6 -0.87
7 -0.99
8 0.33
9 0.37

> <PUBCHEM_EFFECTIVE_ROTOR_COUNT>
3.6

> <PUBCHEM_PHARMACOPHORE_FEATURES>
12
1 1 acceptor
1 2 acceptor
1 3 acceptor
1 4 acceptor
1 5 acceptor
1 6 cation
1 6 donor
1 7 cation
1 7 donor
3 2 4 14 anion
3 3 5 15 anion
6 6 8 9 10 11 12 rings

> <PUBCHEM_HEAVY_ATOM_COUNT>
15

> <PUBCHEM_ATOM_DEF_STEREO_COUNT>
0

> <PUBCHEM_ATOM_UDEF_STEREO_COUNT>
1

> <PUBCHEM_BOND_DEF_STEREO_COUNT>
0

> <PUBCHEM_BOND_UDEF_STEREO_COUNT>
0

> <PUBCHEM_ISOTOPIC_ATOM_COUNT>
0

> <PUBCHEM_COMPONENT_COUNT>
1

> <PUBCHEM_CACTVS_TAUTO_COUNT>
17

> <PUBCHEM_CONFORMER_ID>
00018AEC00000001

> <PUBCHEM_MMFF94_ENERGY>
25.3284

> <PUBCHEM_FEATURE_SELFOVERLAP>
61.008

> <PUBCHEM_SHAPE_FINGERPRINT>
1 1 18119249467415352631
10967382 1 18123192294600797570
11206711 2 18196098960981934852
12138202 97 18334566975559165572
12423570 1 11223005803798505256
13140716 1 18338797801993129802
13380535 76 18413103957402231278
14614273 12 18337673147484053102
15775835 57 18334863792016736621
161256 15 17910114942788403834
16945 1 18195249046909674482
193761 8 18339926021129343506
20711985 344 18120646091916805322
20820808 20 18267583498766099561
21501502 16 18409444821333318134
2334 1 18411985766924976074
23559900 14 18272098189212130564
241688 4 17761780962893375490
25 1 18120938308854746805
2748010 2 18342188769031073998
3060560 45 18264758862311267069
353137 74 18262789808520841503
5255222 1 18267873950208387792
528886 8 18268427923627419432
81228 2 18118962744152117251
8272917 22 17766003796947355601

> <PUBCHEM_SHAPE_MULTIPOLES>
269.38
4.06
2.97
0.83
0.71
1.86
0.1
-2.23
0.54
-0.84
-0.25
-0.24
-0.25
0.22

> <PUBCHEM_SHAPE_SELFOVERLAP>
560.478

> <PUBCHEM_SHAPE_VOLUME>
150.6

> <PUBCHEM_COORDINATE_TYPE>
2
5
10

$$$$
