101148162
  -OEChem-03292013293D

 34 34  0     0  0  0  0  0  0999 V2000
   -0.5816    0.3815   -0.0934 O   0  0  0  0  0  0  0  0  0  0  0  0
    5.5289    0.4188   -0.0726 O   0  0  0  0  0  0  0  0  0  0  0  0
   -4.1686    2.2464    0.5909 O   0  0  0  0  0  0  0  0  0  0  0  0
   -1.7270    2.2998   -0.6484 O   0  0  0  0  0  0  0  0  0  0  0  0
    7.9578    0.0719   -0.0092 O   0  0  0  0  0  0  0  0  0  0  0  0
    6.5102   -1.6788    0.4562 O   0  0  0  0  0  0  0  0  0  0  0  0
   -3.9781   -3.2269   -0.3845 N   0  0  0  0  0  0  0  0  0  0  0  0
    6.6481   -0.4528    0.1439 N   0  3  0  0  0  0  0  0  0  0  0  0
    1.7909    0.0757    0.0157 C   0  0  0  0  0  0  0  0  0  0  0  0
    3.1564    0.7351   -0.1421 C   0  0  0  0  0  0  0  0  0  0  0  0
    0.6587    1.0515   -0.2718 C   0  0  0  0  0  0  0  0  0  0  0  0
    4.2888   -0.2518    0.1036 C   0  0  0  0  0  0  0  0  0  0  0  0
   -2.9247    0.3137   -0.0958 C   0  0  0  0  0  0  0  0  0  0  0  0
   -1.7008    1.1253   -0.3149 C   0  0  0  0  0  0  0  0  0  0  0  0
   -2.8820   -1.0591   -0.3391 C   0  0  0  0  0  0  0  0  0  0  0  0
   -4.1067    0.9068    0.3478 C   0  0  0  0  0  0  0  0  0  0  0  0
   -4.0212   -1.8388   -0.1390 C   0  0  0  0  0  0  0  0  0  0  0  0
   -5.2460    0.1272    0.5481 C   0  0  0  0  0  0  0  0  0  0  0  0
   -5.2032   -1.2455    0.3047 C   0  0  0  0  0  0  0  0  0  0  0  0
    1.7039   -0.7862   -0.6578 H   0  0  0  0  0  0  0  0  0  0  0  0
    1.6779   -0.3249    1.0308 H   0  0  0  0  0  0  0  0  0  0  0  0
    3.2529    1.5806    0.5503 H   0  0  0  0  0  0  0  0  0  0  0  0
    3.2590    1.1592   -1.1489 H   0  0  0  0  0  0  0  0  0  0  0  0
    0.7146    1.9037    0.4158 H   0  0  0  0  0  0  0  0  0  0  0  0
    0.7312    1.4172   -1.3028 H   0  0  0  0  0  0  0  0  0  0  0  0
    4.2169   -1.0827   -0.6079 H   0  0  0  0  0  0  0  0  0  0  0  0
    4.2237   -0.6426    1.1258 H   0  0  0  0  0  0  0  0  0  0  0  0
   -1.9731   -1.5368   -0.6981 H   0  0  0  0  0  0  0  0  0  0  0  0
   -6.1736    0.5760    0.8934 H   0  0  0  0  0  0  0  0  0  0  0  0
   -6.0975   -1.8423    0.4646 H   0  0  0  0  0  0  0  0  0  0  0  0
   -4.8042   -3.7922   -0.2402 H   0  0  0  0  0  0  0  0  0  0  0  0
   -3.1220   -3.6581   -0.7068 H   0  0  0  0  0  0  0  0  0  0  0  0
   -5.0656    2.4740    0.8901 H   0  0  0  0  0  0  0  0  0  0  0  0
    8.5046   -0.7080    0.1847 H   0  0  0  0  0  0  0  0  0  0  0  0
  1 11  1  0  0  0  0
  1 14  1  0  0  0  0
  2  8  1  0  0  0  0
  2 12  1  0  0  0  0
  3 16  1  0  0  0  0
  3 33  1  0  0  0  0
  4 14  2  0  0  0  0
  5  8  1  0  0  0  0
  5 34  1  0  0  0  0
  6  8  2  0  0  0  0
  7 17  1  0  0  0  0
  7 31  1  0  0  0  0
  7 32  1  0  0  0  0
  9 10  1  0  0  0  0
  9 11  1  0  0  0  0
  9 20  1  0  0  0  0
  9 21  1  0  0  0  0
 10 12  1  0  0  0  0
 10 22  1  0  0  0  0
 10 23  1  0  0  0  0
 11 24  1  0  0  0  0
 11 25  1  0  0  0  0
 12 26  1  0  0  0  0
 12 27  1  0  0  0  0
 13 14  1  0  0  0  0
 13 15  1  0  0  0  0
 13 16  2  0  0  0  0
 15 17  2  0  0  0  0
 15 28  1  0  0  0  0
 16 18  1  0  0  0  0
 17 19  1  0  0  0  0
 18 19  2  0  0  0  0
 18 29  1  0  0  0  0
 19 30  1  0  0  0  0
M  CHG  1   8   1
M  END
> <PUBCHEM_COMPOUND_CID>
101148162

> <PUBCHEM_CONFORMER_RMSD>
0.8

> <PUBCHEM_CONFORMER_DIVERSEORDER>
1
99
7
139
105
205
175
115
138
206
193
35
110
60
27
188
80
109
171
50
219
9
212
73
190
148
34
125
37
211
134
187
67
6
220
157
136
202
81
102
126
119
168
154
182
137
216
97
172
49
77
140
184
130
173
107
166
3
127
123
103
20
204
218
209
78
25
167
39
83
79
69
135
98
44
149
177
101
165
32
155
88
147
14
38
192
59
24
150
214
5
120
2
178
71
210
203
95
199
164
15
12
104
18
90
53
129
100
163
10
132
121
21
195
65
31
28
179
13
66
17
112
4
133
156
36
62
91
208
64
89
16
72
70
189
23
42
86
87
56
194
33
46
128
142
151
84
96
52
146
58
111
74
200
63
68
19
29
93
143
215
43
201
159
207
174
54
92
11
30
41
196
114
213
118
117
161
186
116
8
131
61
176
191
198
141
113
180
169
26
145
55
152
22
40
162
75
170
57
51
47
106
76
94
153
48
185
108
45
124
160
181
85
197
82
158
122
144
217
183

> <PUBCHEM_MMFF94_PARTIAL_CHARGES>
24
1 -0.43
11 0.28
12 0.28
13 0.09
14 0.63
15 -0.15
16 0.08
17 0.1
18 -0.15
19 -0.15
2 -0.42
28 0.15
29 0.15
3 -0.53
30 0.15
31 0.4
32 0.4
33 0.45
34 0.4
4 -0.57
5 -0.54
6 -0.63
7 -0.9
8 0.92

> <PUBCHEM_EFFECTIVE_ROTOR_COUNT>
8

> <PUBCHEM_PHARMACOPHORE_FEATURES>
7
1 3 donor
1 4 acceptor
1 5 acceptor
1 6 acceptor
1 7 cation
1 7 donor
6 13 15 16 17 18 19 rings

> <PUBCHEM_HEAVY_ATOM_COUNT>
19

> <PUBCHEM_ATOM_DEF_STEREO_COUNT>
0

> <PUBCHEM_ATOM_UDEF_STEREO_COUNT>
0

> <PUBCHEM_BOND_DEF_STEREO_COUNT>
0

> <PUBCHEM_BOND_UDEF_STEREO_COUNT>
0

> <PUBCHEM_ISOTOPIC_ATOM_COUNT>
0

> <PUBCHEM_COMPONENT_COUNT>
1

> <PUBCHEM_CACTVS_TAUTO_COUNT>
9

> <PUBCHEM_CONFORMER_ID>
0607660200000001

> <PUBCHEM_MMFF94_ENERGY>
48.4243

> <PUBCHEM_FEATURE_SELFOVERLAP>
35.568

> <PUBCHEM_SHAPE_FINGERPRINT>
10319926 262 18200864128317790352
11089746 13 10519982665204257362
11315181 36 18410294722378719425
11524674 6 17203608194131889471
12091667 2 16950564363517509572
12616971 3 17603877705868953908
13167823 11 18335420179323244746
13288520 33 18335420179687319517
13668630 136 16153432748553126938
14251732 16 18341048618844788408
15348495 7 17917423276593453722
15716309 27 18333732416606573882
15880784 105 18270683185316542952
17093844 174 18409726253323751129
17492 89 17977385263737558915
17780758 139 18272653446029798585
17844677 252 18342745134652327432
18927931 339 18335144197936883279
20645477 56 7925639903827186029
20645477 70 13912589525674466768
21267235 1 18261678168569936611
21623969 137 17346885533610846150
220451 1 18261396616273083138
22896161 15 18335420197457980388
23035841 295 18408323285187042946
23402539 116 17967250896853533492
23466295 7 17025169681159487875
23522609 53 18044968755941879396
23559900 14 18270109257975852217
335352 9 18409727375132907957
351380 3 18040433304261106066
4214541 1 18412265030104389993
5104073 3 18129947891578973937
559249 180 18334574634044834983
58260988 114 17024050297049680227
7495541 125 18201155546634602560
999808 66 17822304512969420707

> <PUBCHEM_SHAPE_MULTIPOLES>
345.83
18.19
2.22
0.68
39.82
0.86
0
6.51
-2.52
-3.43
0.19
-0.28
-0.04
-0.74

> <PUBCHEM_SHAPE_SELFOVERLAP>
699.722

> <PUBCHEM_SHAPE_VOLUME>
199.2

> <PUBCHEM_COORDINATE_TYPE>
2
5
10

$$$$
