REMARK  Name = 101187
REMARK  7 active torsions:
REMARK  status: ('A' for Active; 'I' for Inactive)
REMARK    1  A    between atoms: C_1  and  C_4
REMARK    2  A    between atoms: C_1  and  N_8
REMARK    3  A    between atoms: C_1  and  C_16
REMARK    4  A    between atoms: C_9  and  C_11
REMARK    5  A    between atoms: C_11  and  N_12
REMARK    6  A    between atoms: C_16  and  C_17
REMARK    7  A    between atoms: C_22  and  O_23
REMARK                            x       y       z     vdW  Elec       q    Type
REMARK                         _______ _______ _______ _____ _____    ______ ____
ROOT
ATOM      1  C   UNL     1      -1.017   0.932   0.003  0.00  0.00    +0.153 C 
ENDROOT
BRANCH   1   4
ATOM      2  O   UNL     1      -3.002   1.984  -0.923  0.00  0.00    -0.274 OA
ATOM      3  N   UNL     1      -2.118   2.828   1.022  0.00  0.00    -0.327 N 
ATOM      4  C   UNL     1      -2.140   1.958  -0.049  0.00  0.00    +0.238 C 
ATOM      5  H   UNL     1      -2.798   3.535   1.095  0.00  0.00    +0.145 HD
ATOM      6  H   UNL     1      -1.422   2.740   1.712  0.00  0.00    +0.145 HD
ENDBRANCH   1   4
BRANCH   1   8
ATOM      7  O   UNL     1      -2.414  -1.097   1.520  0.00  0.00    -0.277 OA
ATOM      8  N   UNL     1      -1.554  -0.311  -0.490  0.00  0.00    -0.300 N 
ATOM      9  C   UNL     1      -2.215  -1.231   0.314  0.00  0.00    +0.201 C 
ATOM     10  H   UNL     1      -1.449  -0.518  -1.447  0.00  0.00    +0.150 HD
BRANCH   9  11
ATOM     11  C   UNL     1      -2.644  -2.459  -0.462  0.00  0.00    +0.001 C 
BRANCH  11  12
ATOM     12  N   UNL     1      -3.836  -3.015   0.164  0.00  0.00    +0.386 N 
ATOM     13  H   UNL     1      -4.135  -3.843  -0.350  0.00  0.00    -0.089 HD
ATOM     14  H   UNL     1      -4.582  -2.319   0.152  0.00  0.00    -0.089 HD
ATOM     15  H   UNL     1      -3.626  -3.271   1.128  0.00  0.00    -0.089 HD
ENDBRANCH  11  12
ENDBRANCH   9  11
ENDBRANCH   1   8
BRANCH   1  16
ATOM     16  C   UNL     1       0.183   1.412  -0.822  0.00  0.00    +0.055 C 
BRANCH  16  17
ATOM     17  C   UNL     1       1.462   0.697  -0.463  0.00  0.00    -0.020 C 
ATOM     18  C   UNL     1       2.274   1.217   0.533  0.00  0.00    -0.001 C 
ATOM     19  C   UNL     1       1.802  -0.467  -1.134  0.00  0.00    -0.001 C 
ATOM     20  C   UNL     1       3.456   0.556   0.866  0.00  0.00    +0.036 C 
ATOM     21  C   UNL     1       2.985  -1.127  -0.801  0.00  0.00    +0.036 C 
ATOM     22  C   UNL     1       3.812  -0.616   0.199  0.00  0.00    +0.134 C 
BRANCH  22  23
ATOM     23  O   UNL     1       4.966  -1.260   0.524  0.00  0.00    -0.506 OA
ATOM     24  H   UNL     1       5.521  -0.917   1.196  0.00  0.00    +0.292 HD
ENDBRANCH  22  23
ENDBRANCH  16  17
ENDBRANCH   1  16
TORSDOF 7
