REMARK  Name = 101180
REMARK  7 active torsions:
REMARK  status: ('A' for Active; 'I' for Inactive)
REMARK    1  A    between atoms: CA_1  and  C_4
REMARK    2  A    between atoms: CA_1  and  N_12
REMARK    3  A    between atoms: CA_1  and  CB_16
REMARK    4  A    between atoms: N_3  and  CA_6
REMARK    5  A    between atoms: CA_6  and  C_9
REMARK    6  A    between atoms: C_9  and  O_10
REMARK    7  A    between atoms: CB_16  and  CG_19
REMARK                            x       y       z     vdW  Elec       q    Type
REMARK                         _______ _______ _______ _____ _____    ______ ____
ROOT
ATOM      1  CA  HIS A   1       0.858   1.812  -0.692  0.00  0.00    +0.019 C 
ENDROOT
BRANCH   1   4
ATOM      2  O   HIS A   1      -0.270   1.752   1.451  0.00  0.00    -0.277 OA
ATOM      3  N   ALA A   2      -1.219   0.614  -0.332  0.00  0.00    -0.298 N 
ATOM      4  C   HIS A   1      -0.257   1.412   0.270  0.00  0.00    +0.203 C 
ATOM      5  H   ALA A   2      -1.126   0.392  -1.287  0.00  0.00    +0.150 HD
BRANCH   3   6
ATOM      6  CA  ALA A   2      -2.352   0.100   0.399  0.00  0.00    +0.171 C 
ATOM      7  CB  ALA A   2      -3.518   1.075   0.333  0.00  0.00    +0.033 C 
BRANCH   6   9
ATOM      8  OXT ALA A   2      -3.674  -1.924   0.409  0.00  0.00    -0.248 OA
ATOM      9  C   ALA A   2      -2.776  -1.268  -0.109  0.00  0.00    +0.332 C 
BRANCH   9  10
ATOM     10  O   ALA A   2      -2.076  -1.717  -1.178  0.00  0.00    -0.479 OA
ATOM     11  H   ALA A   2      -1.397  -1.188  -1.549  0.00  0.00    +0.295 HD
ENDBRANCH   9  10
ENDBRANCH   6   9
ENDBRANCH   3   6
ENDBRANCH   1   4
BRANCH   1  12
ATOM     12  N   HIS A   1       0.828   3.273  -0.784  0.00  0.00    +0.388 N 
ATOM     13  H1  HIS A   1       1.560   3.589  -1.420  0.00  0.00    -0.089 HD
ATOM     14  H2  HIS A   1       0.984   3.675   0.140  0.00  0.00    -0.089 HD
ATOM     15  H3  HIS A   1      -0.081   3.573  -1.136  0.00  0.00    -0.089 HD
ENDBRANCH   1  12
BRANCH   1  16
ATOM     16  CB  HIS A   1       2.226   1.350  -0.168  0.00  0.00    +0.029 C 
BRANCH  16  19
ATOM     17  ND1 HIS A   1       3.076  -0.742   0.883  0.00  0.00    -0.319 N 
ATOM     18  NE2 HIS A   1       2.141  -2.360  -0.317  0.00  0.00    -0.315 N 
ATOM     19  CG  HIS A   1       2.322  -0.156  -0.063  0.00  0.00    +0.036 C 
ATOM     20  CD2 HIS A   1       1.753  -1.133  -0.795  0.00  0.00    +0.069 C 
ATOM     21  CE1 HIS A   1       2.938  -2.089   0.693  0.00  0.00    +0.182 C 
ATOM     22  HD1 HIS A   1       3.618  -0.293   1.572  0.00  0.00    +0.148 HD
ATOM     23  HE2 HIS A   1       1.881  -3.246  -0.656  0.00  0.00    +0.148 HD
ENDBRANCH  16  19
ENDBRANCH   1  16
TORSDOF 7
