101142080
  -OEChem-03292013293D

 60 62  0     1  0  0  0  0  0999 V2000
   -4.8938    1.0681   -0.0848 O   0  0  0  0  0  0  0  0  0  0  0  0
   -1.5041   -0.0458   -0.2957 O   0  0  0  0  0  0  0  0  0  0  0  0
   -0.1089   -3.2124   -0.9957 O   0  0  0  0  0  0  0  0  0  0  0  0
   -0.0438    2.3809    0.1838 O   0  0  0  0  0  0  0  0  0  0  0  0
   -2.4533    1.5921    1.0331 O   0  0  0  0  0  0  0  0  0  0  0  0
   -1.5202   -4.4857    0.2857 O   0  0  0  0  0  0  0  0  0  0  0  0
    2.8714    0.2651    2.3296 O   0  0  0  0  0  0  0  0  0  0  0  0
    1.7748    2.2985    2.4799 O   0  0  0  0  0  0  0  0  0  0  0  0
    0.7111    3.2549   -1.8201 O   0  0  0  0  0  0  0  0  0  0  0  0
   -3.6929    0.6707   -0.7607 C   0  0  2  0  0  0  0  0  0  0  0  0
   -4.7626   -0.3252   -0.3791 C   0  0  1  0  0  0  0  0  0  0  0  0
    0.3430   -1.3971    0.5136 C   0  0  2  0  0  0  0  0  0  0  0  0
   -0.2994    0.0112    0.4816 C   0  0  1  0  0  0  0  0  0  0  0  0
    0.6386   -1.9817   -0.8734 C   0  0  1  0  0  0  0  0  0  0  0  0
   -2.4900    0.8023    0.1004 C   0  0  0  0  0  0  0  0  0  0  0  0
   -3.6133    1.1459   -2.1722 C   0  0  0  0  0  0  0  0  0  0  0  0
    0.5901    1.1283   -0.1146 C   0  0  2  0  0  0  0  0  0  0  0  0
   -4.6760   -1.2028    0.8189 C   0  0  0  0  0  0  0  0  0  0  0  0
   -0.5499   -2.4389    1.1037 C   0  0  0  0  0  0  0  0  0  0  0  0
    2.0985   -2.3125   -1.0561 C   0  0  0  0  0  0  0  0  0  0  0  0
    1.9997    1.1673    0.4094 C   0  0  0  0  0  0  0  0  0  0  0  0
   -0.8112   -3.5078    0.1289 C   0  0  0  0  0  0  0  0  0  0  0  0
    3.0181   -1.6017   -1.7387 C   0  0  0  0  0  0  0  0  0  0  0  0
    2.7271   -0.3102   -2.4674 C   0  0  0  0  0  0  0  0  0  0  0  0
    3.1360    1.0753   -0.3028 C   0  0  0  0  0  0  0  0  0  0  0  0
    3.2857    0.9535   -1.7967 C   0  0  0  0  0  0  0  0  0  0  0  0
   -1.0629   -2.4807    2.3367 C   0  0  0  0  0  0  0  0  0  0  0  0
    2.1876    1.3362    1.8610 C   0  0  0  0  0  0  0  0  0  0  0  0
    4.4446   -2.0781   -1.8164 C   0  0  0  0  0  0  0  0  0  0  0  0
    0.1043    3.3460   -0.7625 C   0  0  0  0  0  0  0  0  0  0  0  0
   -0.5831    4.6013   -0.3657 C   0  0  0  0  0  0  0  0  0  0  0  0
    3.1347    0.2828    3.7364 C   0  0  0  0  0  0  0  0  0  0  0  0
   -5.3854   -0.7455   -1.1580 H   0  0  0  0  0  0  0  0  0  0  0  0
    1.2557   -1.3623    1.1184 H   0  0  0  0  0  0  0  0  0  0  0  0
   -0.5485    0.2781    1.5188 H   0  0  0  0  0  0  0  0  0  0  0  0
    0.2707   -1.3414   -1.6777 H   0  0  0  0  0  0  0  0  0  0  0  0
   -4.5846    1.1013   -2.6765 H   0  0  0  0  0  0  0  0  0  0  0  0
   -2.9105    0.5301   -2.7425 H   0  0  0  0  0  0  0  0  0  0  0  0
   -3.2649    2.1834   -2.2074 H   0  0  0  0  0  0  0  0  0  0  0  0
    0.5793    0.9906   -1.1995 H   0  0  0  0  0  0  0  0  0  0  0  0
   -4.2034   -0.7065    1.6724 H   0  0  0  0  0  0  0  0  0  0  0  0
   -4.0995   -2.1025    0.5832 H   0  0  0  0  0  0  0  0  0  0  0  0
   -5.6789   -1.5138    1.1278 H   0  0  0  0  0  0  0  0  0  0  0  0
    2.4275   -3.2218   -0.5537 H   0  0  0  0  0  0  0  0  0  0  0  0
    3.1509   -0.3802   -3.4786 H   0  0  0  0  0  0  0  0  0  0  0  0
    1.6575   -0.1797   -2.6444 H   0  0  0  0  0  0  0  0  0  0  0  0
    4.0897    1.1378    0.2222 H   0  0  0  0  0  0  0  0  0  0  0  0
    2.8638    1.8411   -2.2815 H   0  0  0  0  0  0  0  0  0  0  0  0
    4.3615    1.0020   -2.0153 H   0  0  0  0  0  0  0  0  0  0  0  0
   -0.8522   -1.6926    3.0520 H   0  0  0  0  0  0  0  0  0  0  0  0
   -1.6995   -3.2946    2.6666 H   0  0  0  0  0  0  0  0  0  0  0  0
    4.5930   -3.0328   -1.3008 H   0  0  0  0  0  0  0  0  0  0  0  0
    5.1195   -1.3482   -1.3585 H   0  0  0  0  0  0  0  0  0  0  0  0
    4.7407   -2.2188   -2.8611 H   0  0  0  0  0  0  0  0  0  0  0  0
   -1.6568    4.4207   -0.2699 H   0  0  0  0  0  0  0  0  0  0  0  0
   -0.4264    5.3674   -1.1306 H   0  0  0  0  0  0  0  0  0  0  0  0
   -0.1714    4.9670    0.5785 H   0  0  0  0  0  0  0  0  0  0  0  0
    3.6910   -0.6237    3.9891 H   0  0  0  0  0  0  0  0  0  0  0  0
    2.1949    0.2859    4.2969 H   0  0  0  0  0  0  0  0  0  0  0  0
    3.7441    1.1534    3.9974 H   0  0  0  0  0  0  0  0  0  0  0  0
  1 10  1  0  0  0  0
  1 11  1  0  0  0  0
  2 13  1  0  0  0  0
  2 15  1  0  0  0  0
  3 14  1  0  0  0  0
  3 22  1  0  0  0  0
  4 17  1  0  0  0  0
  4 30  1  0  0  0  0
  5 15  2  0  0  0  0
  6 22  2  0  0  0  0
  7 28  1  0  0  0  0
  7 32  1  0  0  0  0
  8 28  2  0  0  0  0
  9 30  2  0  0  0  0
 10 11  1  0  0  0  0
 10 15  1  0  0  0  0
 10 16  1  0  0  0  0
 11 18  1  0  0  0  0
 11 33  1  0  0  0  0
 12 13  1  0  0  0  0
 12 14  1  0  0  0  0
 12 19  1  0  0  0  0
 12 34  1  0  0  0  0
 13 17  1  0  0  0  0
 13 35  1  0  0  0  0
 14 20  1  0  0  0  0
 14 36  1  0  0  0  0
 16 37  1  0  0  0  0
 16 38  1  0  0  0  0
 16 39  1  0  0  0  0
 17 21  1  0  0  0  0
 17 40  1  0  0  0  0
 18 41  1  0  0  0  0
 18 42  1  0  0  0  0
 18 43  1  0  0  0  0
 19 22  1  0  0  0  0
 19 27  2  0  0  0  0
 20 23  2  0  0  0  0
 20 44  1  0  0  0  0
 21 25  2  0  0  0  0
 21 28  1  0  0  0  0
 23 24  1  0  0  0  0
 23 29  1  0  0  0  0
 24 26  1  0  0  0  0
 24 45  1  0  0  0  0
 24 46  1  0  0  0  0
 25 26  1  0  0  0  0
 25 47  1  0  0  0  0
 26 48  1  0  0  0  0
 26 49  1  0  0  0  0
 27 50  1  0  0  0  0
 27 51  1  0  0  0  0
 29 52  1  0  0  0  0
 29 53  1  0  0  0  0
 29 54  1  0  0  0  0
 30 31  1  0  0  0  0
 31 55  1  0  0  0  0
 31 56  1  0  0  0  0
 31 57  1  0  0  0  0
 32 58  1  0  0  0  0
 32 59  1  0  0  0  0
 32 60  1  0  0  0  0
M  END
> <PUBCHEM_COMPOUND_CID>
101142080

> <PUBCHEM_CONFORMER_RMSD>
1

> <PUBCHEM_CONFORMER_DIVERSEORDER>
1
19
10
13
21
20
22
17
3
8
16
14
12
5
9
2
7
15
18
11
4
6

> <PUBCHEM_MMFF94_PARTIAL_CHARGES>
37
1 -0.3
10 0.05
11 -0.05
12 0.14
13 0.28
14 0.42
15 0.72
16 0.09
17 0.42
18 0.09
19 -0.12
2 -0.43
20 -0.29
21 -0.12
22 0.71
23 -0.28
24 0.14
25 -0.29
26 0.14
27 -0.3
28 0.71
29 0.14
3 -0.43
30 0.66
31 0.06
32 0.28
33 0.1
4 -0.43
44 0.15
47 0.15
5 -0.57
50 0.15
51 0.15
6 -0.57
7 -0.43
8 -0.57
9 -0.57

> <PUBCHEM_EFFECTIVE_ROTOR_COUNT>
8.6

> <PUBCHEM_PHARMACOPHORE_FEATURES>
6
1 1 acceptor
1 5 acceptor
1 6 acceptor
1 8 acceptor
1 9 acceptor
5 3 12 14 19 22 rings

> <PUBCHEM_HEAVY_ATOM_COUNT>
32

> <PUBCHEM_ATOM_DEF_STEREO_COUNT>
6

> <PUBCHEM_ATOM_UDEF_STEREO_COUNT>
0

> <PUBCHEM_BOND_DEF_STEREO_COUNT>
2

> <PUBCHEM_BOND_UDEF_STEREO_COUNT>
0

> <PUBCHEM_ISOTOPIC_ATOM_COUNT>
0

> <PUBCHEM_COMPONENT_COUNT>
1

> <PUBCHEM_CACTVS_TAUTO_COUNT>
2

> <PUBCHEM_CONFORMER_ID>
06074E4000000001

> <PUBCHEM_MMFF94_ENERGY>
69.5887

> <PUBCHEM_FEATURE_SELFOVERLAP>
30.455

> <PUBCHEM_SHAPE_FINGERPRINT>
10930396 42 18337653249898168514
11578080 2 17200244934128229715
13140716 1 18265045847767623267
13149001 5 18342750619109208790
13583140 156 17024572611811097843
14787075 74 17987517005800013350
17492 54 18117304513277360710
17921350 177 18042691774069331072
19319366 153 17477796501406002523
20600515 1 18194938941697293640
20691752 17 18263654969473937960
20764821 26 18266477549087848551
20775438 99 17987498442503747359
22907989 373 17468534391473586350
23419403 2 17917162709312480250
23559900 14 18125167275240421309
238 59 17775292702515736462
35225 105 17968652856110510523
484989 97 18265637487892579119
6376802 137 17415287118443159210
70251023 43 17842820154397572871

> <PUBCHEM_SHAPE_MULTIPOLES>
605.72
7.18
4.85
2.68
5.67
0.1
-1.82
-0.52
1.94
0.62
0.47
-3.12
0.21
2.05

> <PUBCHEM_SHAPE_SELFOVERLAP>
1267.838

> <PUBCHEM_SHAPE_VOLUME>
341.1

> <PUBCHEM_COORDINATE_TYPE>
2
5
10

$$$$
