101297646
  -OEChem-03292013293D

 64 68  0     1  0  0  0  0  0999 V2000
   -0.4555   -1.8156    2.0645 O   0  0  0  0  0  0  0  0  0  0  0  0
   -2.4608   -2.6965    1.2303 O   0  0  0  0  0  0  0  0  0  0  0  0
   -1.3005   -2.9600   -1.3030 O   0  0  0  0  0  0  0  0  0  0  0  0
    2.4308    1.1517    1.1288 O   0  0  0  0  0  0  0  0  0  0  0  0
    0.3955    2.6382   -0.2424 O   0  0  0  0  0  0  0  0  0  0  0  0
   -3.0837   -0.9726   -1.4280 O   0  0  0  0  0  0  0  0  0  0  0  0
    3.5120    2.5215   -0.3850 O   0  0  0  0  0  0  0  0  0  0  0  0
   -0.9435    2.1630   -2.0639 O   0  0  0  0  0  0  0  0  0  0  0  0
    0.8423   -0.5513    0.3653 C   0  0  1  0  0  0  0  0  0  0  0  0
   -0.4526    0.3492    0.0553 C   0  0  1  0  0  0  0  0  0  0  0  0
   -1.7197   -0.4321    0.5554 C   0  0  1  0  0  0  0  0  0  0  0  0
    0.7204   -1.8118   -0.5755 C   0  0  2  0  0  0  0  0  0  0  0  0
   -1.3324   -1.8814    0.9175 C   0  0  1  0  0  0  0  0  0  0  0  0
   -0.5225   -2.6297   -0.1588 C   0  0  1  0  0  0  0  0  0  0  0  0
    2.0119   -2.6873   -0.7933 C   0  0  0  0  0  0  0  0  0  0  0  0
   -2.3909    0.3279    1.7407 C   0  0  0  0  0  0  0  0  0  0  0  0
    2.1685    0.2036    0.0955 C   0  0  2  0  0  0  0  0  0  0  0  0
   -0.4257    1.8148    0.5860 C   0  0  2  0  0  0  0  0  0  0  0  0
    0.7027   -0.9968    1.8423 C   0  0  0  0  0  0  0  0  0  0  0  0
   -2.9469    1.5824    1.0670 C   0  0  1  0  0  0  0  0  0  0  0  0
   -1.8033    2.5029    0.6317 C   0  0  0  0  0  0  0  0  0  0  0  0
   -2.8430   -0.2616   -0.4680 C   0  0  0  0  0  0  0  0  0  0  0  0
    3.2079   -1.7575   -1.0890 C   0  0  0  0  0  0  0  0  0  0  0  0
    3.3956   -0.6965   -0.0182 C   0  0  0  0  0  0  0  0  0  0  0  0
   -3.6101    0.9732   -0.1364 C   0  0  0  0  0  0  0  0  0  0  0  0
    2.3877   -3.6253    0.3753 C   0  0  0  0  0  0  0  0  0  0  0  0
    1.8088   -3.5941   -2.0328 C   0  0  0  0  0  0  0  0  0  0  0  0
   -4.7059    1.3697   -0.7844 C   0  0  0  0  0  0  0  0  0  0  0  0
    3.1142    2.2693    0.7444 C   0  0  0  0  0  0  0  0  0  0  0  0
    0.0172    2.7212   -1.5516 C   0  0  0  0  0  0  0  0  0  0  0  0
    3.3165    3.1688    1.9259 C   0  0  0  0  0  0  0  0  0  0  0  0
    0.9647    3.6129   -2.2954 C   0  0  0  0  0  0  0  0  0  0  0  0
   -0.5000    0.3501   -1.0338 H   0  0  0  0  0  0  0  0  0  0  0  0
    0.5227   -1.4024   -1.5790 H   0  0  0  0  0  0  0  0  0  0  0  0
   -0.2276   -3.5917    0.2657 H   0  0  0  0  0  0  0  0  0  0  0  0
   -1.7020    0.5617    2.5588 H   0  0  0  0  0  0  0  0  0  0  0  0
   -3.2086   -0.2668    2.1720 H   0  0  0  0  0  0  0  0  0  0  0  0
    2.0503    0.7132   -0.8703 H   0  0  0  0  0  0  0  0  0  0  0  0
    0.0029    1.8428    1.5930 H   0  0  0  0  0  0  0  0  0  0  0  0
    1.5709   -1.5527    2.1971 H   0  0  0  0  0  0  0  0  0  0  0  0
    0.6193   -0.1356    2.5134 H   0  0  0  0  0  0  0  0  0  0  0  0
   -3.6642    2.1073    1.7059 H   0  0  0  0  0  0  0  0  0  0  0  0
   -2.0836    3.0668   -0.2634 H   0  0  0  0  0  0  0  0  0  0  0  0
   -1.7137    3.2932    1.3925 H   0  0  0  0  0  0  0  0  0  0  0  0
    3.0626   -1.2598   -2.0574 H   0  0  0  0  0  0  0  0  0  0  0  0
    4.1327   -2.3408   -1.1833 H   0  0  0  0  0  0  0  0  0  0  0  0
    3.6341   -1.1457    0.9524 H   0  0  0  0  0  0  0  0  0  0  0  0
    4.2763   -0.0931   -0.2713 H   0  0  0  0  0  0  0  0  0  0  0  0
    1.0142   -4.3294   -1.8687 H   0  0  0  0  0  0  0  0  0  0  0  0
    1.6367   -4.4005    0.5508 H   0  0  0  0  0  0  0  0  0  0  0  0
    2.7239   -4.1496   -2.2695 H   0  0  0  0  0  0  0  0  0  0  0  0
    1.5444   -3.0065   -2.9191 H   0  0  0  0  0  0  0  0  0  0  0  0
    2.5496   -3.0992    1.3147 H   0  0  0  0  0  0  0  0  0  0  0  0
    3.3228   -4.1553    0.1536 H   0  0  0  0  0  0  0  0  0  0  0  0
   -2.2218   -3.6299    1.1067 H   0  0  0  0  0  0  0  0  0  0  0  0
   -1.5075   -2.1388   -1.7784 H   0  0  0  0  0  0  0  0  0  0  0  0
   -5.2359    2.2648   -0.4769 H   0  0  0  0  0  0  0  0  0  0  0  0
   -5.0986    0.8184   -1.6317 H   0  0  0  0  0  0  0  0  0  0  0  0
    2.3473    3.4729    2.3293 H   0  0  0  0  0  0  0  0  0  0  0  0
    3.8592    4.0646    1.6109 H   0  0  0  0  0  0  0  0  0  0  0  0
    3.9066    2.6529    2.6874 H   0  0  0  0  0  0  0  0  0  0  0  0
    1.2237    4.4830   -1.6859 H   0  0  0  0  0  0  0  0  0  0  0  0
    0.4781    3.9754   -3.2053 H   0  0  0  0  0  0  0  0  0  0  0  0
    1.8631    3.0529   -2.5630 H   0  0  0  0  0  0  0  0  0  0  0  0
  1 13  1  0  0  0  0
  1 19  1  0  0  0  0
  2 13  1  0  0  0  0
  2 55  1  0  0  0  0
  3 14  1  0  0  0  0
  3 56  1  0  0  0  0
  4 17  1  0  0  0  0
  4 29  1  0  0  0  0
  5 18  1  0  0  0  0
  5 30  1  0  0  0  0
  6 22  2  0  0  0  0
  7 29  2  0  0  0  0
  8 30  2  0  0  0  0
  9 10  1  0  0  0  0
  9 12  1  0  0  0  0
  9 17  1  0  0  0  0
  9 19  1  0  0  0  0
 10 11  1  0  0  0  0
 10 18  1  0  0  0  0
 10 33  1  0  0  0  0
 11 13  1  0  0  0  0
 11 16  1  0  0  0  0
 11 22  1  0  0  0  0
 12 14  1  0  0  0  0
 12 15  1  0  0  0  0
 12 34  1  0  0  0  0
 13 14  1  0  0  0  0
 14 35  1  0  0  0  0
 15 23  1  0  0  0  0
 15 26  1  0  0  0  0
 15 27  1  0  0  0  0
 16 20  1  0  0  0  0
 16 36  1  0  0  0  0
 16 37  1  0  0  0  0
 17 24  1  0  0  0  0
 17 38  1  0  0  0  0
 18 21  1  0  0  0  0
 18 39  1  0  0  0  0
 19 40  1  0  0  0  0
 19 41  1  0  0  0  0
 20 21  1  0  0  0  0
 20 25  1  0  0  0  0
 20 42  1  0  0  0  0
 21 43  1  0  0  0  0
 21 44  1  0  0  0  0
 22 25  1  0  0  0  0
 23 24  1  0  0  0  0
 23 45  1  0  0  0  0
 23 46  1  0  0  0  0
 24 47  1  0  0  0  0
 24 48  1  0  0  0  0
 25 28  2  0  0  0  0
 26 50  1  0  0  0  0
 26 53  1  0  0  0  0
 26 54  1  0  0  0  0
 27 49  1  0  0  0  0
 27 51  1  0  0  0  0
 27 52  1  0  0  0  0
 28 57  1  0  0  0  0
 28 58  1  0  0  0  0
 29 31  1  0  0  0  0
 30 32  1  0  0  0  0
 31 59  1  0  0  0  0
 31 60  1  0  0  0  0
 31 61  1  0  0  0  0
 32 62  1  0  0  0  0
 32 63  1  0  0  0  0
 32 64  1  0  0  0  0
M  END
> <PUBCHEM_COMPOUND_CID>
101297646

> <PUBCHEM_CONFORMER_RMSD>
0.8

> <PUBCHEM_CONFORMER_DIVERSEORDER>
3
1
6
5
4
2

> <PUBCHEM_MMFF94_PARTIAL_CHARGES>
26
1 -0.56
11 0.06
13 0.56
14 0.28
17 0.28
18 0.28
19 0.28
2 -0.68
20 0.14
22 0.49
25 -0.12
28 -0.3
29 0.66
3 -0.68
30 0.66
31 0.06
32 0.06
4 -0.43
5 -0.43
55 0.4
56 0.4
57 0.15
58 0.15
6 -0.57
7 -0.57
8 -0.57

> <PUBCHEM_EFFECTIVE_ROTOR_COUNT>
6

> <PUBCHEM_PHARMACOPHORE_FEATURES>
12
1 1 acceptor
1 2 acceptor
1 2 donor
1 3 acceptor
1 3 donor
1 6 acceptor
1 7 acceptor
1 8 acceptor
3 15 26 27 hydrophobe
6 9 12 15 17 23 24 rings
8 1 9 10 11 12 13 14 19 rings
8 10 11 16 18 20 21 22 25 rings

> <PUBCHEM_HEAVY_ATOM_COUNT>
32

> <PUBCHEM_ATOM_DEF_STEREO_COUNT>
8

> <PUBCHEM_ATOM_UDEF_STEREO_COUNT>
1

> <PUBCHEM_BOND_DEF_STEREO_COUNT>
0

> <PUBCHEM_BOND_UDEF_STEREO_COUNT>
0

> <PUBCHEM_ISOTOPIC_ATOM_COUNT>
0

> <PUBCHEM_COMPONENT_COUNT>
1

> <PUBCHEM_CACTVS_TAUTO_COUNT>
4

> <PUBCHEM_CONFORMER_ID>
0609ADEE00000003

> <PUBCHEM_MMFF94_ENERGY>
138.8434

> <PUBCHEM_FEATURE_SELFOVERLAP>
60.978

> <PUBCHEM_SHAPE_FINGERPRINT>
10863032 1 17775280595061042153
11370993 70 18057313084360053904
12156800 1 15763250315650735182
12403259 226 18047755888456601923
12422481 6 18266156479419540240
12788726 201 17333386605992310890
13140716 1 18411418457806479650
13544592 271 18265326403241569923
14142880 1 17975107036362315032
14955137 171 17479769042694333489
15324884 4 18266190602655047090
15840311 113 18127978499921722289
16945 1 18270691865340030874
17492 54 18190476960149527262
19930381 70 18056478352780341716
20691752 17 17973454204382294307
20775438 99 18195781095206982607
22149856 69 18197800971619526739
22182313 1 18266752439700248795
2334 1 18196094575941833138
23419403 2 17976017277376436427
23559900 14 18200867388150332482
238 59 18270679757938096883
2748010 2 18266470969340193810
3380486 77 17539075759235630603
35225 105 14763761140109883780
463206 1 16392391045152598666
484985 159 15248975853418300201
57527306 92 15579266552204656900
6287921 2 18341063946965739877
70251023 43 18049996697992256695
9925002 15 16757184784049282724
9981440 41 18198043979808447866

> <PUBCHEM_SHAPE_MULTIPOLES>
611.59
5.89
4.94
1.93
2.18
2.21
0.26
-0.57
0.7
-3.44
0.77
-0.05
0.57
1.47

> <PUBCHEM_SHAPE_SELFOVERLAP>
1339.431

> <PUBCHEM_SHAPE_VOLUME>
321

> <PUBCHEM_COORDINATE_TYPE>
2
5
10

$$$$
