REMARK  Name = 101283368
REMARK  4 active torsions:
REMARK  status: ('A' for Active; 'I' for Inactive)
REMARK    1  A    between atoms: C_5  and  O_23
REMARK    2  A    between atoms: C_6  and  O_25
REMARK    3  A    between atoms: C_16  and  O_27
REMARK    4  A    between atoms: C_17  and  C_29
REMARK                            x       y       z     vdW  Elec       q    Type
REMARK                         _______ _______ _______ _____ _____    ______ ____
ROOT
ATOM      1  O   UNL     1      -3.567  -0.140  -0.564  0.00  0.00    -0.331 OA
ATOM      2  O   UNL     1       1.985   1.218  -0.141  0.00  0.00    -0.449 OA
ATOM      3  O   UNL     1      -1.983   2.880   0.918  0.00  0.00    -0.293 OA
ATOM      4  O   UNL     1       0.968   1.575   1.901  0.00  0.00    -0.250 OA
ATOM      5  C   UNL     1      -2.308  -0.620  -0.069  0.00  0.00    +0.190 C 
ATOM      6  C   UNL     1      -1.880   1.494  -1.071  0.00  0.00    +0.171 C 
ATOM      7  C   UNL     1      -1.310   0.090  -0.964  0.00  0.00    +0.093 C 
ATOM      8  C   UNL     1      -2.225  -2.155  -0.158  0.00  0.00    +0.057 C 
ATOM      9  C   UNL     1      -3.386   1.239  -0.955  0.00  0.00    +0.179 C 
ATOM     10  C   UNL     1      -1.035  -2.777   0.618  0.00  0.00    +0.009 C 
ATOM     11  C   UNL     1      -1.290   2.433   0.001  0.00  0.00    +0.187 C 
ATOM     12  C   UNL     1       0.137  -3.328  -0.233  0.00  0.00    +0.022 C 
ATOM     13  C   UNL     1       0.207   2.762  -0.078  0.00  0.00    +0.159 C 
ATOM     14  C   UNL     1      -1.554  -3.923   1.505  0.00  0.00    +0.001 C 
ATOM     15  C   UNL     1       0.846  -2.421  -1.217  0.00  0.00    -0.046 C 
ATOM     16  C   UNL     1       2.507  -1.163   0.372  0.00  0.00    +0.143 C 
ATOM     17  C   UNL     1       3.002   0.321   0.385  0.00  0.00    +0.197 C 
ATOM     18  C   UNL     1       1.855  -1.563  -0.944  0.00  0.00    -0.005 C 
ATOM     19  C   UNL     1       1.078   1.790   0.702  0.00  0.00    +0.324 C 
ATOM     20  C   UNL     1       0.477   4.177   0.429  0.00  0.00    +0.020 C 
ATOM     21  C   UNL     1       0.448  -2.638  -2.660  0.00  0.00    +0.026 C 
ATOM     22  C   UNL     1       3.653  -2.139   0.676  0.00  0.00    +0.038 C 
ENDROOT
BRANCH   5  23
ATOM     23  O   UNL     1      -2.138  -0.193   1.284  0.00  0.00    -0.332 OA
ATOM     24  C   UNL     1      -3.339  -0.337   2.027  0.00  0.00    +0.177 C 
ENDBRANCH   5  23
BRANCH   6  25
ATOM     25  O   UNL     1      -1.620   2.066  -2.342  0.00  0.00    -0.377 OA
ATOM     26  H   UNL     1      -1.983   1.492  -3.035  0.00  0.00    +0.211 HD
ENDBRANCH   6  25
BRANCH  16  27
ATOM     27  O   UNL     1       1.569  -1.289   1.440  0.00  0.00    -0.379 OA
ATOM     28  H   UNL     1       0.824  -0.686   1.289  0.00  0.00    +0.211 HD
ENDBRANCH  16  27
BRANCH  17  29
ATOM     29  C   UNL     1       4.253   0.587  -0.454  0.00  0.00    +0.046 C 
ATOM     30  C   UNL     1       4.647   2.050  -0.409  0.00  0.00    +0.004 C 
ENDBRANCH  17  29
TORSDOF 4
