REMARK  Name = 101288424
REMARK  5 active torsions:
REMARK  status: ('A' for Active; 'I' for Inactive)
REMARK    1  A    between atoms: C_14  and  O_34
REMARK    2  A    between atoms: C_20  and  C_22
REMARK    3  A    between atoms: C_23  and  O_28
REMARK    4  A    between atoms: C_25  and  O_30
REMARK    5  A    between atoms: C_27  and  O_32
REMARK                            x       y       z     vdW  Elec       q    Type
REMARK                         _______ _______ _______ _____ _____    ______ ____
ROOT
ATOM      1  S   UNL     1       1.326  -1.568  -1.494  0.00  0.00    -0.054 S 
ATOM      2  S   UNL     1      -0.281  -0.301  -1.545  0.00  0.00    -0.074 S 
ATOM      3  O   UNL     1       4.463  -0.451  -1.874  0.00  0.00    -0.349 OA
ATOM      4  O   UNL     1       2.747   0.848   1.072  0.00  0.00    -0.259 OA
ATOM      5  O   UNL     1       1.852  -3.569   1.176  0.00  0.00    -0.272 OA
ATOM      6  O   UNL     1       0.209   1.376   1.855  0.00  0.00    -0.271 OA
ATOM      7  N   UNL     1       1.709  -0.081   0.863  0.00  0.00    -0.151 N 
ATOM      8  N   UNL     1       0.152  -2.075   1.577  0.00  0.00    -0.295 N 
ATOM      9  C   UNL     1       4.198  -0.315  -0.464  0.00  0.00    +0.154 C 
ATOM     10  C   UNL     1       5.608  -0.361  -1.022  0.00  0.00    +0.164 C 
ATOM     11  C   UNL     1       3.559   1.008  -0.108  0.00  0.00    +0.200 C 
ATOM     12  C   UNL     1       3.564  -1.539   0.134  0.00  0.00    +0.073 C 
ATOM     13  C   UNL     1       2.040  -1.353   0.198  0.00  0.00    +0.204 C 
ATOM     14  C   UNL     1       4.577   2.122   0.236  0.00  0.00    +0.164 C 
ATOM     15  C   UNL     1       6.398   0.863  -0.919  0.00  0.00    +0.003 C 
ATOM     16  C   UNL     1       5.950   1.994  -0.359  0.00  0.00    +0.003 C 
ATOM     17  C   UNL     1       1.385  -2.438   1.054  0.00  0.00    +0.252 C 
ATOM     18  C   UNL     1      -0.552  -0.832   1.243  0.00  0.00    +0.166 C 
ATOM     19  C   UNL     1       0.486   0.275   1.387  0.00  0.00    +0.268 C 
ATOM     20  C   UNL     1      -1.280  -0.907  -0.123  0.00  0.00    +0.110 C 
ATOM     21  H   UNL     1      -0.278  -2.691   2.212  0.00  0.00    +0.150 HD
ENDROOT
BRANCH  20  22
ATOM     22  C   UNL     1      -2.621  -0.185  -0.082  0.00  0.00    +0.027 C 
ATOM     23  C   UNL     1      -3.812  -0.881  -0.289  0.00  0.00    +0.168 C 
ATOM     24  C   UNL     1      -2.649   1.187   0.165  0.00  0.00    +0.003 C 
ATOM     25  C   UNL     1      -5.031  -0.205  -0.249  0.00  0.00    +0.205 C 
ATOM     26  C   UNL     1      -3.868   1.864   0.205  0.00  0.00    +0.040 C 
ATOM     27  C   UNL     1      -5.059   1.167  -0.002  0.00  0.00    +0.175 C 
BRANCH  23  28
ATOM     28  O   UNL     1      -3.788  -2.224  -0.530  0.00  0.00    -0.503 OA
ATOM     29  H   UNL     1      -2.970  -2.680  -0.558  0.00  0.00    +0.292 HD
ENDBRANCH  23  28
BRANCH  25  30
ATOM     30  O   UNL     1      -6.196  -0.884  -0.451  0.00  0.00    -0.465 OA
ATOM     31  C   UNL     1      -6.664  -0.980  -1.794  0.00  0.00    +0.253 C 
ENDBRANCH  25  30
BRANCH  27  32
ATOM     32  O   UNL     1      -6.243   1.840   0.041  0.00  0.00    -0.468 OA
ATOM     33  C   UNL     1      -6.183   3.242   0.300  0.00  0.00    +0.253 C 
ENDBRANCH  27  32
ENDBRANCH  20  22
BRANCH  14  34
ATOM     34  O   UNL     1       4.006   3.362  -0.198  0.00  0.00    -0.377 OA
ATOM     35  H   UNL     1       3.117   3.458   0.179  0.00  0.00    +0.211 HD
ENDBRANCH  14  34
TORSDOF 5
