101240076
  -OEChem-03292013293D

 72 72  0     1  0  0  0  0  0999 V2000
   -5.6480   -1.0385   -2.7013 O   0  0  0  0  0  0  0  0  0  0  0  0
   -6.2977   -3.1887   -0.8589 O   0  0  0  0  0  0  0  0  0  0  0  0
   -4.9186   -2.6782    1.7361 O   0  0  0  0  0  0  0  0  0  0  0  0
   -7.3634   -1.3901    2.7770 O   0  0  0  0  0  0  0  0  0  0  0  0
   -7.5061    1.7767   -2.1721 O   0  0  0  0  0  0  0  0  0  0  0  0
   -4.5295    2.4731    0.8349 O   0  0  0  0  0  0  0  0  0  0  0  0
   -4.4025    0.7891   -0.7601 N   0  0  0  0  0  0  0  0  0  0  0  0
    7.5347   -1.5884   -0.0954 C   0  0  0  0  0  0  0  0  0  0  0  0
    9.0613   -1.3492   -0.2532 C   0  0  0  0  0  0  0  0  0  0  0  0
    9.5163   -0.0714    0.4287 C   0  0  0  0  0  0  0  0  0  0  0  0
    6.7269   -0.2930   -0.3452 C   0  0  0  0  0  0  0  0  0  0  0  0
    8.8019    1.1265   -0.1787 C   0  0  0  0  0  0  0  0  0  0  0  0
    7.3168    0.9273   -0.4068 C   0  0  0  0  0  0  0  0  0  0  0  0
    7.1715   -2.7052   -1.1043 C   0  0  0  0  0  0  0  0  0  0  0  0
    7.2520   -2.1065    1.3336 C   0  0  0  0  0  0  0  0  0  0  0  0
    5.2901   -0.4654   -0.4844 C   0  0  0  0  0  0  0  0  0  0  0  0
    6.6151    2.2336   -0.6989 C   0  0  0  0  0  0  0  0  0  0  0  0
    4.3930    0.3716    0.0616 C   0  0  0  0  0  0  0  0  0  0  0  0
   -6.1706   -0.8525   -1.3783 C   0  0  1  0  0  0  0  0  0  0  0  0
   -5.6144   -1.9831   -0.4888 C   0  0  1  0  0  0  0  0  0  0  0  0
    2.9370    0.2623   -0.0346 C   0  0  0  0  0  0  0  0  0  0  0  0
   -5.8225    0.5699   -0.9199 C   0  0  2  0  0  0  0  0  0  0  0  0
   -5.7612   -1.7684    1.0270 C   0  0  1  0  0  0  0  0  0  0  0  0
   -7.1935   -2.0060    1.5039 C   0  0  0  0  0  0  0  0  0  0  0  0
    2.3767   -0.9018   -0.8193 C   0  0  0  0  0  0  0  0  0  0  0  0
    2.0728    1.1312    0.5334 C   0  0  0  0  0  0  0  0  0  0  0  0
   -6.3182    1.6110   -1.9057 C   0  0  0  0  0  0  0  0  0  0  0  0
   -3.8773    1.7295    0.1107 C   0  0  0  0  0  0  0  0  0  0  0  0
    0.6233    1.1134    0.4985 C   0  0  0  0  0  0  0  0  0  0  0  0
   -2.3839    1.7262    0.0866 C   0  0  0  0  0  0  0  0  0  0  0  0
   -0.1281    2.0442    1.1097 C   0  0  0  0  0  0  0  0  0  0  0  0
   -1.5821    2.0436    1.1205 C   0  0  0  0  0  0  0  0  0  0  0  0
   -2.1715    2.4572    2.4438 C   0  0  0  0  0  0  0  0  0  0  0  0
    9.3229   -1.2872   -1.3189 H   0  0  0  0  0  0  0  0  0  0  0  0
    9.6266   -2.1984    0.1514 H   0  0  0  0  0  0  0  0  0  0  0  0
   10.5995    0.0504    0.3129 H   0  0  0  0  0  0  0  0  0  0  0  0
    9.3215   -0.1196    1.5061 H   0  0  0  0  0  0  0  0  0  0  0  0
    9.2664    1.3720   -1.1425 H   0  0  0  0  0  0  0  0  0  0  0  0
    8.9623    1.9884    0.4809 H   0  0  0  0  0  0  0  0  0  0  0  0
    7.2213   -2.3414   -2.1372 H   0  0  0  0  0  0  0  0  0  0  0  0
    6.1686   -3.1110   -0.9331 H   0  0  0  0  0  0  0  0  0  0  0  0
    7.4589   -1.3442    2.0925 H   0  0  0  0  0  0  0  0  0  0  0  0
    6.2038   -2.4056    1.4515 H   0  0  0  0  0  0  0  0  0  0  0  0
    7.8651   -3.5504   -1.0173 H   0  0  0  0  0  0  0  0  0  0  0  0
    7.8663   -2.9843    1.5648 H   0  0  0  0  0  0  0  0  0  0  0  0
    4.9582   -1.2960   -1.0960 H   0  0  0  0  0  0  0  0  0  0  0  0
    6.3849    2.7649    0.2297 H   0  0  0  0  0  0  0  0  0  0  0  0
    5.7090    2.1194   -1.2991 H   0  0  0  0  0  0  0  0  0  0  0  0
    7.2684    2.8818   -1.2957 H   0  0  0  0  0  0  0  0  0  0  0  0
    4.7257    1.1849    0.7026 H   0  0  0  0  0  0  0  0  0  0  0  0
   -7.2593   -0.9583   -1.4651 H   0  0  0  0  0  0  0  0  0  0  0  0
   -4.5589   -2.1504   -0.7373 H   0  0  0  0  0  0  0  0  0  0  0  0
   -6.3157    0.7979    0.0320 H   0  0  0  0  0  0  0  0  0  0  0  0
   -5.4209   -0.7743    1.3287 H   0  0  0  0  0  0  0  0  0  0  0  0
   -7.4127   -3.0729    1.6156 H   0  0  0  0  0  0  0  0  0  0  0  0
   -7.9218   -1.5494    0.8275 H   0  0  0  0  0  0  0  0  0  0  0  0
    2.7239   -0.8533   -1.8584 H   0  0  0  0  0  0  0  0  0  0  0  0
    1.2920   -0.9815   -0.8711 H   0  0  0  0  0  0  0  0  0  0  0  0
    2.7240   -1.8471   -0.3851 H   0  0  0  0  0  0  0  0  0  0  0  0
   -3.7756    0.2456   -1.3471 H   0  0  0  0  0  0  0  0  0  0  0  0
    2.4996    1.9635    1.0946 H   0  0  0  0  0  0  0  0  0  0  0  0
   -5.5501    2.2174   -2.4172 H   0  0  0  0  0  0  0  0  0  0  0  0
   -6.1621   -0.4788   -3.3074 H   0  0  0  0  0  0  0  0  0  0  0  0
   -5.9160   -3.9111   -0.3314 H   0  0  0  0  0  0  0  0  0  0  0  0
   -4.0031   -2.5091    1.4550 H   0  0  0  0  0  0  0  0  0  0  0  0
    0.1137    0.3138   -0.0237 H   0  0  0  0  0  0  0  0  0  0  0  0
   -8.2812   -1.5549    3.0531 H   0  0  0  0  0  0  0  0  0  0  0  0
   -1.9385    1.4237   -0.8591 H   0  0  0  0  0  0  0  0  0  0  0  0
    0.3486    2.8522    1.6613 H   0  0  0  0  0  0  0  0  0  0  0  0
   -2.4499    3.5163    2.4267 H   0  0  0  0  0  0  0  0  0  0  0  0
   -3.0448    1.8554    2.7155 H   0  0  0  0  0  0  0  0  0  0  0  0
   -1.4557    2.3170    3.2632 H   0  0  0  0  0  0  0  0  0  0  0  0
  1 19  1  0  0  0  0
  1 63  1  0  0  0  0
  2 20  1  0  0  0  0
  2 64  1  0  0  0  0
  3 23  1  0  0  0  0
  3 65  1  0  0  0  0
  4 24  1  0  0  0  0
  4 67  1  0  0  0  0
  5 27  2  0  0  0  0
  6 28  2  0  0  0  0
  7 22  1  0  0  0  0
  7 28  1  0  0  0  0
  7 60  1  0  0  0  0
  8  9  1  0  0  0  0
  8 11  1  0  0  0  0
  8 14  1  0  0  0  0
  8 15  1  0  0  0  0
  9 10  1  0  0  0  0
  9 34  1  0  0  0  0
  9 35  1  0  0  0  0
 10 12  1  0  0  0  0
 10 36  1  0  0  0  0
 10 37  1  0  0  0  0
 11 13  2  0  0  0  0
 11 16  1  0  0  0  0
 12 13  1  0  0  0  0
 12 38  1  0  0  0  0
 12 39  1  0  0  0  0
 13 17  1  0  0  0  0
 14 40  1  0  0  0  0
 14 41  1  0  0  0  0
 14 44  1  0  0  0  0
 15 42  1  0  0  0  0
 15 43  1  0  0  0  0
 15 45  1  0  0  0  0
 16 18  2  0  0  0  0
 16 46  1  0  0  0  0
 17 47  1  0  0  0  0
 17 48  1  0  0  0  0
 17 49  1  0  0  0  0
 18 21  1  0  0  0  0
 18 50  1  0  0  0  0
 19 20  1  0  0  0  0
 19 22  1  0  0  0  0
 19 51  1  0  0  0  0
 20 23  1  0  0  0  0
 20 52  1  0  0  0  0
 21 25  1  0  0  0  0
 21 26  2  0  0  0  0
 22 27  1  0  0  0  0
 22 53  1  0  0  0  0
 23 24  1  0  0  0  0
 23 54  1  0  0  0  0
 24 55  1  0  0  0  0
 24 56  1  0  0  0  0
 25 57  1  0  0  0  0
 25 58  1  0  0  0  0
 25 59  1  0  0  0  0
 26 29  1  0  0  0  0
 26 61  1  0  0  0  0
 27 62  1  0  0  0  0
 28 30  1  0  0  0  0
 29 31  2  0  0  0  0
 29 66  1  0  0  0  0
 30 32  2  0  0  0  0
 30 68  1  0  0  0  0
 31 32  1  0  0  0  0
 31 69  1  0  0  0  0
 32 33  1  0  0  0  0
 33 70  1  0  0  0  0
 33 71  1  0  0  0  0
 33 72  1  0  0  0  0
M  END
> <PUBCHEM_COMPOUND_CID>
101240076

> <PUBCHEM_CONFORMER_RMSD>
1.2

> <PUBCHEM_CONFORMER_DIVERSEORDER>
1
41
61
15
63
5
55
27
20
28
47
50
60
59
40
48
42
58
46
19
23
21
13
39
22
14
33
12
35
56
43
18
44
54
2
31
38
62
53
17
36
25
34
52
9
37
51
10
45
3
26
7
6
16
29
32
11
57
4
24
30
49
8

> <PUBCHEM_MMFF94_PARTIAL_CHARGES>
41
1 -0.68
11 -0.14
12 0.14
13 -0.28
16 -0.15
17 0.14
18 -0.15
19 0.28
2 -0.68
20 0.28
21 -0.14
22 0.36
23 0.28
24 0.28
25 0.14
26 -0.15
27 0.45
28 0.62
29 -0.15
3 -0.68
30 -0.14
31 -0.15
32 -0.14
33 0.14
4 -0.68
46 0.15
5 -0.57
50 0.15
6 -0.57
60 0.37
61 0.15
62 0.06
63 0.4
64 0.4
65 0.4
66 0.15
67 0.4
68 0.15
69 0.15
7 -0.73
8 0.14

> <PUBCHEM_EFFECTIVE_ROTOR_COUNT>
12.8

> <PUBCHEM_PHARMACOPHORE_FEATURES>
15
1 1 acceptor
1 1 donor
1 2 acceptor
1 2 donor
1 25 hydrophobe
1 3 acceptor
1 3 donor
1 33 hydrophobe
1 4 acceptor
1 4 donor
1 5 acceptor
1 6 acceptor
1 7 donor
3 8 14 15 hydrophobe
6 8 9 10 11 12 13 rings

> <PUBCHEM_HEAVY_ATOM_COUNT>
33

> <PUBCHEM_ATOM_DEF_STEREO_COUNT>
4

> <PUBCHEM_ATOM_UDEF_STEREO_COUNT>
0

> <PUBCHEM_BOND_DEF_STEREO_COUNT>
4

> <PUBCHEM_BOND_UDEF_STEREO_COUNT>
0

> <PUBCHEM_ISOTOPIC_ATOM_COUNT>
0

> <PUBCHEM_COMPONENT_COUNT>
1

> <PUBCHEM_CACTVS_TAUTO_COUNT>
65

> <PUBCHEM_CONFORMER_ID>
0608CD0C00000001

> <PUBCHEM_MMFF94_ENERGY>
86.7541

> <PUBCHEM_FEATURE_SELFOVERLAP>
76.136

> <PUBCHEM_SHAPE_FINGERPRINT>
10162869 55 18333448760609773556
10369192 42 13190342323631805729
10391435 84 18340759403482279632
10577160 183 13262669387580226656
10930396 42 12463293648958567247
12082328 90 17894347783227690095
12373685 5 17385996244457947992
15064981 113 14923953366000931464
15064986 266 18411137996917401785
15461852 350 17167866374190446872
17686467 74 18343016701683084904
18603816 31 17703512194663197843
21792938 79 17059774559507395576
22149856 69 16415213234949395146
22164985 6 18333731303930891988
22288116 15 16009035016470318305
25269216 80 17095519635318785659
3711267 37 10735862994627202930
395649 100 18408602552529776205
437795 150 17967818275604344819
437795 163 18412261727538530310
44802255 64 17531798058228736245
4625314 4 18334854996293402164
54039377 194 18411140281749682795
5470011 282 18334576867132962940
58083652 198 16988835112101172913
70634741 139 18187648028780048499
9953998 17 15123516900049225987
999808 66 18342179981517216015

> <PUBCHEM_SHAPE_MULTIPOLES>
638.93
34.38
3.3
1.94
31.39
0.86
-0.24
15.47
4.56
-3.43
-0.72
-5.61
0.15
1.4

> <PUBCHEM_SHAPE_SELFOVERLAP>
1281.895

> <PUBCHEM_SHAPE_VOLUME>
373.3

> <PUBCHEM_COORDINATE_TYPE>
2
5
10

$$$$
