REMARK  Name = 101232078
REMARK  10 active torsions:
REMARK  status: ('A' for Active; 'I' for Inactive)
REMARK    1  A    between atoms: N_1  and  C_35
REMARK    2  A    between atoms: C_3  and  O_21
REMARK    3  A    between atoms: C_6  and  O_23
REMARK    4  A    between atoms: C_8  and  O_25
REMARK    5  A    between atoms: C_9  and  O_27
REMARK    6  A    between atoms: C_10  and  C_37
REMARK    7  A    between atoms: C_11  and  O_29
REMARK    8  A    between atoms: C_14  and  O_31
REMARK    9  A    between atoms: C_18  and  O_33
REMARK   10  A    between atoms: C_37  and  O_38
REMARK                            x       y       z     vdW  Elec       q    Type
REMARK                         _______ _______ _______ _____ _____    ______ ____
ROOT
ATOM      1  N   UNL     1       1.604   1.088   1.431  0.00  0.00    +0.390 N 
ATOM      2  C   UNL     1       0.499   0.571  -0.731  0.00  0.00    +0.035 C 
ATOM      3  C   UNL     1      -0.923   0.266  -1.395  0.00  0.00    +0.093 C 
ATOM      4  C   UNL     1       1.498  -0.654  -0.805  0.00  0.00    +0.033 C 
ATOM      5  C   UNL     1       0.345   0.613   0.817  0.00  0.00    -0.023 C 
ATOM      6  C   UNL     1      -0.070  -0.879   1.074  0.00  0.00    +0.119 C 
ATOM      7  C   UNL     1      -1.710  -0.958  -0.865  0.00  0.00    +0.079 C 
ATOM      8  C   UNL     1      -1.549  -1.140   0.658  0.00  0.00    +0.118 C 
ATOM      9  C   UNL     1       0.952  -1.687   0.224  0.00  0.00    +0.140 C 
ATOM     10  C   UNL     1       2.914  -0.195  -0.315  0.00  0.00    +0.011 C 
ATOM     11  C   UNL     1       1.109   1.858  -1.411  0.00  0.00    +0.116 C 
ATOM     12  C   UNL     1      -1.971   1.415  -1.270  0.00  0.00    +0.032 C 
ATOM     13  C   UNL     1      -3.268   0.779  -0.737  0.00  0.00    +0.057 C 
ATOM     14  C   UNL     1      -3.159  -0.642  -1.261  0.00  0.00    +0.122 C 
ATOM     15  C   UNL     1      -2.577  -0.339   1.505  0.00  0.00    +0.059 C 
ATOM     16  C   UNL     1       2.803   0.279   1.169  0.00  0.00    -0.075 C 
ATOM     17  C   UNL     1       3.436   0.934  -1.225  0.00  0.00    +0.003 C 
ATOM     18  C   UNL     1      -3.301   0.821   0.801  0.00  0.00    +0.120 C 
ATOM     19  C   UNL     1       2.578   2.173  -1.164  0.00  0.00    +0.030 C 
ATOM     20  H   UNL     1       1.769   1.951   0.914  0.00  0.00    -0.080 HD
ENDROOT
BRANCH   3  21
ATOM     21  O   UNL     1      -0.719  -0.003  -2.795  0.00  0.00    -0.387 OA
ATOM     22  H   UNL     1      -0.070  -0.717  -2.896  0.00  0.00    +0.210 HD
ENDBRANCH   3  21
BRANCH   6  23
ATOM     23  O   UNL     1       0.072  -1.218   2.450  0.00  0.00    -0.384 OA
ATOM     24  H   UNL     1      -0.567  -0.712   2.975  0.00  0.00    +0.210 HD
ENDBRANCH   6  23
BRANCH   8  25
ATOM     25  O   UNL     1      -1.819  -2.528   0.956  0.00  0.00    -0.384 OA
ATOM     26  H   UNL     1      -1.207  -3.091   0.457  0.00  0.00    +0.210 HD
ENDBRANCH   8  25
BRANCH   9  27
ATOM     27  O   UNL     1       0.435  -2.831  -0.435  0.00  0.00    -0.351 OA
ATOM     28  C   UNL     1       1.469  -3.726  -0.825  0.00  0.00    +0.174 C 
ENDBRANCH   9  27
BRANCH  11  29
ATOM     29  O   UNL     1       0.388   3.042  -1.078  0.00  0.00    -0.354 OA
ATOM     30  C   UNL     1       0.441   3.992  -2.132  0.00  0.00    +0.174 C 
ENDBRANCH  11  29
BRANCH  14  31
ATOM     31  O   UNL     1      -4.100  -1.534  -0.703  0.00  0.00    -0.353 OA
ATOM     32  C   UNL     1      -5.379  -1.412  -1.319  0.00  0.00    +0.174 C 
ENDBRANCH  14  31
BRANCH  18  33
ATOM     33  O   UNL     1      -4.673   0.811   1.212  0.00  0.00    -0.353 OA
ATOM     34  C   UNL     1      -4.830   1.410   2.487  0.00  0.00    +0.174 C 
ENDBRANCH  18  33
BRANCH   1  35
ATOM     35  C   UNL     1       1.482   1.452   2.835  0.00  0.00    -0.077 C 
ATOM     36  C   UNL     1       2.680   2.264   3.298  0.00  0.00    -0.025 C 
ENDBRANCH   1  35
BRANCH  10  37
ATOM     37  C   UNL     1       3.944  -1.343  -0.419  0.00  0.00    +0.140 C 
BRANCH  37  38
ATOM     38  O   UNL     1       5.189  -0.843   0.013  0.00  0.00    -0.351 OA
ATOM     39  C   UNL     1       6.211  -1.835  -0.047  0.00  0.00    +0.174 C 
ENDBRANCH  37  38
ENDBRANCH  10  37
TORSDOF 10
