REMARK  Name = 101293596
REMARK  3 active torsions:
REMARK  status: ('A' for Active; 'I' for Inactive)
REMARK    1  A    between atoms: C_9  and  O_18
REMARK    2  A    between atoms: C_10  and  O_20
REMARK    3  A    between atoms: C_13  and  O_22
REMARK                            x       y       z     vdW  Elec       q    Type
REMARK                         _______ _______ _______ _____ _____    ______ ____
ROOT
ATOM      1  O   UNL     1       2.651   1.300  -0.257  0.00  0.00    -0.471 OA
ATOM      2  O   UNL     1      -2.237   2.563  -0.045  0.00  0.00    -0.283 OA
ATOM      3  O   UNL     1      -4.512   1.220   0.112  0.00  0.00    -0.283 OA
ATOM      4  C   UNL     1       1.494  -0.838  -0.124  0.00  0.00    +0.058 C 
ATOM      5  C   UNL     1       1.508   0.556  -0.168  0.00  0.00    +0.246 C 
ATOM      6  C   UNL     1      -0.949  -0.820   0.000  0.00  0.00    +0.073 C 
ATOM      7  C   UNL     1      -0.906   0.581  -0.048  0.00  0.00    +0.081 C 
ATOM      8  C   UNL     1       3.922   0.625  -0.197  0.00  0.00    +0.117 C 
ATOM      9  C   UNL     1       0.270  -1.518  -0.040  0.00  0.00    +0.136 C 
ATOM     10  C   UNL     1       0.309   1.269  -0.132  0.00  0.00    +0.159 C 
ATOM     11  C   UNL     1       2.747  -1.573  -0.175  0.00  0.00    +0.005 C 
ATOM     12  C   UNL     1       3.885  -0.877  -0.208  0.00  0.00    +0.032 C 
ATOM     13  C   UNL     1      -2.241  -1.525   0.089  0.00  0.00    +0.140 C 
ATOM     14  C   UNL     1      -2.167   1.345  -0.009  0.00  0.00    +0.237 C 
ATOM     15  C   UNL     1       4.652   1.137   1.042  0.00  0.00    +0.072 C 
ATOM     16  C   UNL     1      -3.413  -0.877   0.127  0.00  0.00    +0.082 C 
ATOM     17  C   UNL     1      -3.463   0.594   0.081  0.00  0.00    +0.237 C 
ENDROOT
BRANCH   9  18
ATOM     18  O   UNL     1       0.300  -2.887   0.000  0.00  0.00    -0.506 OA
ATOM     19  H   UNL     1       1.121  -3.338  -0.028  0.00  0.00    +0.292 HD
ENDBRANCH   9  18
BRANCH  10  20
ATOM     20  O   UNL     1       0.362   2.632  -0.182  0.00  0.00    -0.506 OA
ATOM     21  H   UNL     1       1.191   3.067  -0.239  0.00  0.00    +0.292 HD
ENDBRANCH  10  20
BRANCH  13  22
ATOM     22  O   UNL     1      -2.212  -2.907   0.134  0.00  0.00    -0.505 OA
ATOM     23  H   UNL     1      -1.392  -3.359   0.107  0.00  0.00    +0.292 HD
ENDBRANCH  13  22
TORSDOF 3
