101204
  -OEChem-03292013323D

 37 40  0     1  0  0  0  0  0999 V2000
    3.9032   -1.7405    0.7354 O   0  0  0  0  0  0  0  0  0  0  0  0
    3.8108    0.8177    1.8011 O   0  0  0  0  0  0  0  0  0  0  0  0
    3.5203    1.7594   -1.7181 O   0  0  0  0  0  0  0  0  0  0  0  0
   -3.5215    2.3216    0.1955 O   0  0  0  0  0  0  0  0  0  0  0  0
   -0.6994   -3.2165   -0.5588 O   0  0  0  0  0  0  0  0  0  0  0  0
   -4.5078    0.1268    0.3033 O   0  0  0  0  0  0  0  0  0  0  0  0
   -3.0136   -2.2717    0.0780 O   0  0  0  0  0  0  0  0  0  0  0  0
    1.1816   -1.9472   -0.2043 N   0  0  0  0  0  0  0  0  0  0  0  0
    1.0813    0.4811   -0.4890 C   0  0  2  0  0  0  0  0  0  0  0  0
    1.7737   -0.6900    0.2350 C   0  0  2  0  0  0  0  0  0  0  0  0
    3.2890   -0.6893   -0.0102 C   0  0  1  0  0  0  0  0  0  0  0  0
    1.7380    1.8222   -0.1019 C   0  0  0  0  0  0  0  0  0  0  0  0
    3.9311    0.6446    0.3887 C   0  0  1  0  0  0  0  0  0  0  0  0
    3.2566    1.8198   -0.3189 C   0  0  1  0  0  0  0  0  0  0  0  0
   -0.4176    0.3815   -0.2373 C   0  0  0  0  0  0  0  0  0  0  0  0
   -1.0178   -0.9068   -0.1804 C   0  0  0  0  0  0  0  0  0  0  0  0
   -0.1824   -2.1271   -0.3304 C   0  0  0  0  0  0  0  0  0  0  0  0
   -1.2394    1.5150   -0.1227 C   0  0  0  0  0  0  0  0  0  0  0  0
   -2.3999   -1.0624    0.0005 C   0  0  0  0  0  0  0  0  0  0  0  0
   -2.5965    1.3312    0.0614 C   0  0  0  0  0  0  0  0  0  0  0  0
   -3.1599    0.0801    0.1219 C   0  0  0  0  0  0  0  0  0  0  0  0
   -4.7299    1.5507    0.3511 C   0  0  0  0  0  0  0  0  0  0  0  0
    1.2081    0.3513   -1.5743 H   0  0  0  0  0  0  0  0  0  0  0  0
    1.5779   -0.6417    1.3155 H   0  0  0  0  0  0  0  0  0  0  0  0
    3.4955   -0.8856   -1.0702 H   0  0  0  0  0  0  0  0  0  0  0  0
    1.3043    2.6279   -0.7067 H   0  0  0  0  0  0  0  0  0  0  0  0
    1.5198    2.0521    0.9490 H   0  0  0  0  0  0  0  0  0  0  0  0
    5.0012    0.6184    0.1519 H   0  0  0  0  0  0  0  0  0  0  0  0
    3.6689    2.7624    0.0599 H   0  0  0  0  0  0  0  0  0  0  0  0
    1.7669   -2.7730   -0.2781 H   0  0  0  0  0  0  0  0  0  0  0  0
   -0.8433    2.5223   -0.1781 H   0  0  0  0  0  0  0  0  0  0  0  0
    3.6014   -2.5863    0.3654 H   0  0  0  0  0  0  0  0  0  0  0  0
    4.2229    0.0455    2.2247 H   0  0  0  0  0  0  0  0  0  0  0  0
    3.1059    2.5366   -2.1300 H   0  0  0  0  0  0  0  0  0  0  0  0
   -5.1855    1.8028    1.3156 H   0  0  0  0  0  0  0  0  0  0  0  0
   -5.4265    1.8244   -0.4496 H   0  0  0  0  0  0  0  0  0  0  0  0
   -2.3569   -2.9838    0.1183 H   0  0  0  0  0  0  0  0  0  0  0  0
  1 11  1  0  0  0  0
  1 32  1  0  0  0  0
  2 13  1  0  0  0  0
  2 33  1  0  0  0  0
  3 14  1  0  0  0  0
  3 34  1  0  0  0  0
  4 20  1  0  0  0  0
  4 22  1  0  0  0  0
  5 17  2  0  0  0  0
  6 21  1  0  0  0  0
  6 22  1  0  0  0  0
  7 19  1  0  0  0  0
  7 37  1  0  0  0  0
  8 10  1  0  0  0  0
  8 17  1  0  0  0  0
  8 30  1  0  0  0  0
  9 10  1  0  0  0  0
  9 12  1  0  0  0  0
  9 15  1  0  0  0  0
  9 23  1  0  0  0  0
 10 11  1  0  0  0  0
 10 24  1  0  0  0  0
 11 13  1  0  0  0  0
 11 25  1  0  0  0  0
 12 14  1  0  0  0  0
 12 26  1  0  0  0  0
 12 27  1  0  0  0  0
 13 14  1  0  0  0  0
 13 28  1  0  0  0  0
 14 29  1  0  0  0  0
 15 16  1  0  0  0  0
 15 18  2  0  0  0  0
 16 17  1  0  0  0  0
 16 19  2  0  0  0  0
 18 20  1  0  0  0  0
 18 31  1  0  0  0  0
 19 21  1  0  0  0  0
 20 21  2  0  0  0  0
 22 35  1  0  0  0  0
 22 36  1  0  0  0  0
M  END
> <PUBCHEM_COMPOUND_CID>
101204

> <PUBCHEM_CONFORMER_RMSD>
0.6

> <PUBCHEM_CONFORMER_DIVERSEORDER>
1
2

> <PUBCHEM_MMFF94_PARTIAL_CHARGES>
27
1 -0.68
10 0.3
11 0.28
13 0.28
14 0.28
15 -0.14
16 0.09
17 0.54
18 -0.15
19 0.08
2 -0.68
20 0.08
21 0.08
22 0.56
3 -0.68
30 0.37
31 0.15
32 0.4
33 0.4
34 0.4
37 0.45
4 -0.36
5 -0.57
6 -0.36
7 -0.53
8 -0.73
9 0.14

> <PUBCHEM_EFFECTIVE_ROTOR_COUNT>
1.6

> <PUBCHEM_PHARMACOPHORE_FEATURES>
15
1 1 acceptor
1 1 donor
1 2 acceptor
1 2 donor
1 3 acceptor
1 3 donor
1 4 acceptor
1 5 acceptor
1 6 acceptor
1 7 donor
1 8 donor
5 4 6 20 21 22 rings
6 15 16 18 19 20 21 rings
6 8 9 10 15 16 17 rings
6 9 10 11 12 13 14 rings

> <PUBCHEM_HEAVY_ATOM_COUNT>
22

> <PUBCHEM_ATOM_DEF_STEREO_COUNT>
5

> <PUBCHEM_ATOM_UDEF_STEREO_COUNT>
0

> <PUBCHEM_BOND_DEF_STEREO_COUNT>
0

> <PUBCHEM_BOND_UDEF_STEREO_COUNT>
0

> <PUBCHEM_ISOTOPIC_ATOM_COUNT>
0

> <PUBCHEM_COMPONENT_COUNT>
1

> <PUBCHEM_CACTVS_TAUTO_COUNT>
22

> <PUBCHEM_CONFORMER_ID>
00018B5400000001

> <PUBCHEM_MMFF94_ENERGY>
65.019

> <PUBCHEM_FEATURE_SELFOVERLAP>
76.335

> <PUBCHEM_SHAPE_FINGERPRINT>
10319926 262 18056458755873498528
10411042 1 16970270636188277783
10616163 171 18265619960030050630
10646746 165 18343582958211976288
10759866 29 18188501262783309676
10967382 1 18339362963696101831
11132069 177 18409726261850154633
11370993 70 18340200804657796281
12173636 292 18341608235259724199
12251169 10 18334856095435140681
12390115 104 18200332007460543961
12403260 363 18338509742968340263
12403814 3 17894625968238697381
12553582 1 17763182844408840039
12592029 89 18337398140875958995
12633257 1 17603297150860228728
12788726 201 17756147039559308602
13140716 1 18410291389193616178
138480 1 17546731448220160855
14178342 30 18122890191444764680
15196674 1 18410856563955888371
15256400 18 18339359656650528616
15442244 35 18409163303607550458
15536298 74 18342459209819829494
16110190 28 18264469717140501842
16752209 62 18269274723690277334
16945 1 18196368345609895798
17492 89 18408604790018522098
1813 80 17168420451405891022
18186145 218 17845948397684874144
18222031 100 11674887718657490617
19591789 44 18411421721665171559
20510252 161 18200601422384910625
20715895 44 17902503788858920749
21267235 1 18409457968001539747
21501502 16 18408604789943694518
21524375 3 18409729547600310795
23184049 59 18334293132681317524
2334 1 18411139168503697301
23463225 33 18335138683072196612
23558518 356 17831019392212363284
23559900 14 18200884997980404886
25147074 1 18115300219918438388
2748010 2 18339651052843593615
335352 9 18338798888514250198
350125 39 18337957775093690812
474 4 18259707787128156345
495365 180 17275097328337356574
5104073 3 18410292514474983480
58807428 26 18336256860401332443
69090 78 18411695487338823807
7064713 232 18412538803898823000
7097593 13 18187910756367443690
7364860 26 18126851490883895863
7808743 9 18195809789704073504
7832392 63 18411415155108321974
9709674 26 18340774762639102415
9862522 239 18189596294570467461
9999458 23 18040440945335135654

> <PUBCHEM_SHAPE_MULTIPOLES>
406.68
8.34
2.8
0.89
1.44
1.25
0.04
-3.39
1.53
0.52
-0.35
-0.91
-0.23
-0.65

> <PUBCHEM_SHAPE_SELFOVERLAP>
908.253

> <PUBCHEM_SHAPE_VOLUME>
212.4

> <PUBCHEM_COORDINATE_TYPE>
2
5
10

$$$$
