REMARK  Name = 10126389
REMARK  4 active torsions:
REMARK  status: ('A' for Active; 'I' for Inactive)
REMARK    1  A    between atoms: C_6  and  O_23
REMARK    2  A    between atoms: C_7  and  O_25
REMARK    3  A    between atoms: C_19  and  O_27
REMARK    4  A    between atoms: C_21  and  O_29
REMARK                            x       y       z     vdW  Elec       q    Type
REMARK                         _______ _______ _______ _____ _____    ______ ____
ROOT
ATOM      1  O   UNL     1       0.141  -1.901   0.649  0.00  0.00    -0.449 OA
ATOM      2  O   UNL     1      -3.767   0.396   0.603  0.00  0.00    -0.289 OA
ATOM      3  O   UNL     1       0.568  -2.034  -1.619  0.00  0.00    -0.245 OA
ATOM      4  C   UNL     1      -2.272  -2.310   0.499  0.00  0.00    +0.062 C 
ATOM      5  C   UNL     1      -0.864  -2.950   0.631  0.00  0.00    +0.173 C 
ATOM      6  C   UNL     1      -2.571   3.001   0.074  0.00  0.00    +0.149 C 
ATOM      7  C   UNL     1      -2.749   1.909  -0.991  0.00  0.00    +0.199 C 
ATOM      8  C   UNL     1      -2.496  -1.825  -0.918  0.00  0.00    -0.020 C 
ATOM      9  C   UNL     1      -3.405  -3.279   0.846  0.00  0.00    +0.008 C 
ATOM     10  C   UNL     1      -1.560   2.669   1.181  0.00  0.00    +0.058 C 
ATOM     11  C   UNL     1      -0.665  -3.709   1.942  0.00  0.00    +0.048 C 
ATOM     12  C   UNL     1      -3.175   0.546  -0.462  0.00  0.00    +0.202 C 
ATOM     13  C   UNL     1      -2.864  -0.611  -1.347  0.00  0.00    +0.036 C 
ATOM     14  C   UNL     1       1.846  -0.610  -0.209  0.00  0.00    +0.109 C 
ATOM     15  C   UNL     1      -0.216   2.242   0.669  0.00  0.00    -0.024 C 
ATOM     16  C   UNL     1       1.640   0.614   0.458  0.00  0.00    +0.012 C 
ATOM     17  C   UNL     1       0.771  -1.580  -0.505  0.00  0.00    +0.344 C 
ATOM     18  C   UNL     1       0.325   1.047   0.952  0.00  0.00    -0.004 C 
ATOM     19  C   UNL     1       3.121  -0.959  -0.679  0.00  0.00    +0.143 C 
ATOM     20  C   UNL     1       2.752   1.448   0.671  0.00  0.00    +0.037 C 
ATOM     21  C   UNL     1       4.022   1.089   0.213  0.00  0.00    +0.142 C 
ATOM     22  C   UNL     1       4.205  -0.111  -0.464  0.00  0.00    +0.074 C 
ENDROOT
BRANCH   6  23
ATOM     23  O   UNL     1      -3.827   3.309   0.684  0.00  0.00    -0.381 OA
ATOM     24  H   UNL     1      -4.477   3.521  -0.005  0.00  0.00    +0.210 HD
ENDBRANCH   6  23
BRANCH   7  25
ATOM     25  O   UNL     1      -3.742   2.339  -1.914  0.00  0.00    -0.375 OA
ATOM     26  H   UNL     1      -3.498   3.208  -2.270  0.00  0.00    +0.211 HD
ENDBRANCH   7  25
BRANCH  19  27
ATOM     27  O   UNL     1       3.351  -2.138  -1.328  0.00  0.00    -0.505 OA
ATOM     28  H   UNL     1       2.644  -2.731  -1.487  0.00  0.00    +0.292 HD
ENDBRANCH  19  27
BRANCH  21  29
ATOM     29  O   UNL     1       5.081   1.917   0.429  0.00  0.00    -0.471 OA
ATOM     30  C   UNL     1       6.350   1.490  -0.064  0.00  0.00    +0.252 C 
ENDBRANCH  21  29
TORSDOF 4
