REMARK  Name = 101268765
REMARK  8 active torsions:
REMARK  status: ('A' for Active; 'I' for Inactive)
REMARK    1  A    between atoms: C_7  and  C_21
REMARK    2  A    between atoms: C_15  and  O_19
REMARK    3  A    between atoms: C_21  and  C_22
REMARK    4  A    between atoms: C_23  and  N_25
REMARK    5  A    between atoms: C_26  and  C_28
REMARK    6  A    between atoms: C_29  and  C_31
REMARK    7  A    between atoms: N_30  and  C_31
REMARK    8  A    between atoms: N_30  and  O_32
REMARK                            x       y       z     vdW  Elec       q    Type
REMARK                         _______ _______ _______ _____ _____    ______ ____
ROOT
ATOM      1  O   UNL     1      -2.520   3.323   0.676  0.00  0.00    -0.349 OA
ATOM      2  O   UNL     1      -1.881   0.247   0.735  0.00  0.00    -0.449 OA
ATOM      3  O   UNL     1      -3.660  -0.175   2.167  0.00  0.00    -0.245 OA
ATOM      4  C   UNL     1      -1.094   3.376   0.584  0.00  0.00    +0.150 C 
ATOM      5  C   UNL     1      -1.984   3.532  -0.640  0.00  0.00    +0.164 C 
ATOM      6  C   UNL     1      -0.355   2.112   0.940  0.00  0.00    +0.076 C 
ATOM      7  C   UNL     1      -1.181   1.064   1.701  0.00  0.00    +0.176 C 
ATOM      8  C   UNL     1      -1.999   2.497  -1.679  0.00  0.00    +0.005 C 
ATOM      9  C   UNL     1      -3.007   1.669  -1.992  0.00  0.00    -0.002 C 
ATOM     10  C   UNL     1      -3.054  -0.311   1.120  0.00  0.00    +0.344 C 
ATOM     11  C   UNL     1      -4.310   1.700  -1.366  0.00  0.00    -0.000 C 
ATOM     12  C   UNL     1      -3.511  -1.181   0.028  0.00  0.00    +0.109 C 
ATOM     13  C   UNL     1      -4.451  -0.740  -0.918  0.00  0.00    +0.009 C 
ATOM     14  C   UNL     1      -4.982   0.628  -0.918  0.00  0.00    +0.000 C 
ATOM     15  C   UNL     1      -3.007  -2.485  -0.011  0.00  0.00    +0.140 C 
ATOM     16  C   UNL     1      -4.878  -1.633  -1.909  0.00  0.00    +0.000 C 
ATOM     17  C   UNL     1      -3.439  -3.359  -1.006  0.00  0.00    +0.037 C 
ATOM     18  C   UNL     1      -4.373  -2.935  -1.952  0.00  0.00    +0.003 C 
ENDROOT
BRANCH  15  19
ATOM     19  O   UNL     1      -2.104  -2.925   0.909  0.00  0.00    -0.505 OA
ATOM     20  H   UNL     1      -1.804  -2.349   1.584  0.00  0.00    +0.292 HD
ENDBRANCH  15  19
BRANCH   7  21
ATOM     21  C   UNL     1      -0.268   0.139   2.504  0.00  0.00    +0.071 C 
BRANCH  21  22
ATOM     22  C   UNL     1       0.718  -0.553   1.615  0.00  0.00    -0.006 C 
ATOM     23  C   UNL     1       2.044  -0.425   1.744  0.00  0.00    +0.060 C 
BRANCH  23  25
ATOM     24  O   UNL     1       4.901  -0.264   1.879  0.00  0.00    -0.270 OA
ATOM     25  N   UNL     1       2.929  -1.069   0.934  0.00  0.00    -0.280 N 
ATOM     26  C   UNL     1       4.307  -0.949   1.052  0.00  0.00    +0.249 C 
ATOM     27  H   UNL     1       2.571  -1.653   0.226  0.00  0.00    +0.155 HD
BRANCH  26  28
ATOM     28  C   UNL     1       5.023  -1.768   0.033  0.00  0.00    +0.055 C 
ATOM     29  C   UNL     1       5.837  -1.170  -0.844  0.00  0.00    -0.000 C 
BRANCH  29  30
ATOM     30  C   UNL     1       5.998   0.295  -0.769  0.00  0.00    +0.148 C 
BRANCH  30  31
ATOM     31  N   UNL     1       7.092   0.884  -1.123  0.00  0.00    -0.079 NA
BRANCH  31  32
ATOM     32  O   UNL     1       8.005  -0.090  -1.552  0.00  0.00    -0.263 OA
ATOM     33  C   UNL     1       9.203   0.567  -1.938  0.00  0.00    +0.202 C 
ENDBRANCH  31  32
ENDBRANCH  30  31
ENDBRANCH  29  30
ENDBRANCH  26  28
ENDBRANCH  23  25
ENDBRANCH  21  22
ENDBRANCH   7  21
TORSDOF 8
