REMARK  Name = 101236717
REMARK  4 active torsions:
REMARK  status: ('A' for Active; 'I' for Inactive)
REMARK    1  A    between atoms: C_9  and  O_24
REMARK    2  A    between atoms: C_10  and  C_28
REMARK    3  A    between atoms: C_11  and  O_26
REMARK    4  A    between atoms: C_28  and  O_29
REMARK                            x       y       z     vdW  Elec       q    Type
REMARK                         _______ _______ _______ _____ _____    ______ ____
ROOT
ATOM      1  O   UNL     1      -2.924   1.384   0.754  0.00  0.00    -0.452 OA
ATOM      2  O   UNL     1      -0.001  -2.869  -1.346  0.00  0.00    -0.294 OA
ATOM      3  O   UNL     1       4.477  -0.454  -0.043  0.00  0.00    -0.289 OA
ATOM      4  O   UNL     1      -4.095   2.421  -0.871  0.00  0.00    -0.250 OA
ATOM      5  C   UNL     1       0.934  -0.475   1.054  0.00  0.00    +0.042 C 
ATOM      6  C   UNL     1       0.705   0.984   0.515  0.00  0.00    +0.024 C 
ATOM      7  C   UNL     1       0.484   0.596  -1.034  0.00  0.00    +0.036 C 
ATOM      8  C   UNL     1      -0.304  -1.364   0.559  0.00  0.00    +0.069 C 
ATOM      9  C   UNL     1       1.301  -0.806  -1.138  0.00  0.00    +0.168 C 
ATOM     10  C   UNL     1      -1.499  -0.482   0.083  0.00  0.00    +0.072 C 
ATOM     11  C   UNL     1       2.116  -0.916   0.159  0.00  0.00    +0.172 C 
ATOM     12  C   UNL     1      -1.072   0.290  -1.213  0.00  0.00    +0.020 C 
ATOM     13  C   UNL     1      -0.549   1.569   1.210  0.00  0.00    +0.048 C 
ATOM     14  C   UNL     1      -1.755   0.622   1.110  0.00  0.00    +0.172 C 
ATOM     15  C   UNL     1       0.292  -1.856  -0.737  0.00  0.00    +0.177 C 
ATOM     16  C   UNL     1       1.939   1.873   0.714  0.00  0.00    -0.041 C 
ATOM     17  C   UNL     1       1.181  -0.637   2.550  0.00  0.00    +0.004 C 
ATOM     18  C   UNL     1       1.002   1.597  -2.073  0.00  0.00    +0.003 C 
ATOM     19  C   UNL     1      -1.962   1.521  -1.490  0.00  0.00    +0.110 C 
ATOM     20  C   UNL     1       3.351  -0.031   0.212  0.00  0.00    +0.199 C 
ATOM     21  C   UNL     1       3.181   1.387   0.576  0.00  0.00    +0.031 C 
ATOM     22  C   UNL     1      -3.094   1.798  -0.525  0.00  0.00    +0.317 C 
ATOM     23  C   UNL     1       1.759   3.338   1.010  0.00  0.00    +0.026 C 
ENDROOT
BRANCH   9  24
ATOM     24  O   UNL     1       1.969  -1.052  -2.329  0.00  0.00    -0.377 OA
ATOM     25  H   UNL     1       2.593  -0.330  -2.505  0.00  0.00    +0.211 HD
ENDBRANCH   9  24
BRANCH  11  26
ATOM     26  O   UNL     1       2.562  -2.234   0.444  0.00  0.00    -0.377 OA
ATOM     27  H   UNL     1       1.806  -2.842   0.422  0.00  0.00    +0.211 HD
ENDBRANCH  11  26
BRANCH  10  28
ATOM     28  C   UNL     1      -2.739  -1.360  -0.151  0.00  0.00    +0.146 C 
BRANCH  28  29
ATOM     29  O   UNL     1      -3.058  -2.003   1.065  0.00  0.00    -0.351 OA
ATOM     30  C   UNL     1      -4.202  -2.842   0.938  0.00  0.00    +0.174 C 
ENDBRANCH  28  29
ENDBRANCH  10  28
TORSDOF 4
