REMARK  Name = 101205
REMARK  6 active torsions:
REMARK  status: ('A' for Active; 'I' for Inactive)
REMARK    1  A    between atoms: C_2  and  O_16
REMARK    2  A    between atoms: C_3  and  O_18
REMARK    3  A    between atoms: C_4  and  C_20
REMARK    4  A    between atoms: C_5  and  C_8
REMARK    5  A    between atoms: C_9  and  C_13
REMARK    6  A    between atoms: C_20  and  O_21
REMARK                            x       y       z     vdW  Elec       q    Type
REMARK                         _______ _______ _______ _____ _____    ______ ____
ROOT
ATOM      1  O   UNL     1      -1.535  -0.201   1.016  0.00  0.00    -0.343 OA
ATOM      2  C   UNL     1      -2.421   0.193  -1.134  0.00  0.00    +0.170 C 
ATOM      3  C   UNL     1      -1.672   1.446  -0.720  0.00  0.00    +0.174 C 
ATOM      4  C   UNL     1      -2.684  -0.491   0.202  0.00  0.00    +0.174 C 
ATOM      5  C   UNL     1      -0.993   1.066   0.600  0.00  0.00    +0.202 C 
ENDROOT
BRANCH   5   8
ATOM      6  S   UNL     1       1.498   2.288   0.857  0.00  0.00    -0.077 S 
ATOM      7  N   UNL     1       1.135  -0.158   0.104  0.00  0.00    -0.396 NA
ATOM      8  C   UNL     1       0.509   0.936   0.482  0.00  0.00    +0.164 C 
ATOM      9  C   UNL     1       2.495   0.080   0.108  0.00  0.00    +0.173 C 
ATOM     10  C   UNL     1       2.884   1.348   0.489  0.00  0.00    +0.128 C 
BRANCH   9  13
ATOM     11  O   UNL     1       4.653  -0.811  -0.264  0.00  0.00    -0.268 OA
ATOM     12  N   UNL     1       2.879  -2.194  -0.630  0.00  0.00    -0.323 N 
ATOM     13  C   UNL     1       3.414  -0.957  -0.268  0.00  0.00    +0.269 C 
ATOM     14  H   UNL     1       3.477  -2.931  -0.894  0.00  0.00    +0.145 HD
ATOM     15  H   UNL     1       1.904  -2.330  -0.623  0.00  0.00    +0.145 HD
ENDBRANCH   9  13
ENDBRANCH   5   8
BRANCH   2  16
ATOM     16  O   UNL     1      -1.571  -0.587  -1.965  0.00  0.00    -0.379 OA
ATOM     17  H   UNL     1      -1.426  -0.124  -2.804  0.00  0.00    +0.211 HD
ENDBRANCH   2  16
BRANCH   3  18
ATOM     18  O   UNL     1      -2.594   2.510  -0.489  0.00  0.00    -0.379 OA
ATOM     19  H   UNL     1      -3.025   2.751  -1.325  0.00  0.00    +0.211 HD
ENDBRANCH   3  18
BRANCH   4  20
ATOM     20  C   UNL     1      -2.889  -1.994   0.148  0.00  0.00    +0.169 C 
BRANCH  20  21
ATOM     21  O   UNL     1      -3.109  -2.474   1.464  0.00  0.00    -0.379 OA
ATOM     22  H   UNL     1      -3.242  -3.435   1.439  0.00  0.00    +0.211 HD
ENDBRANCH  20  21
ENDBRANCH   4  20
TORSDOF 6
