REMARK  Name = 101203822
REMARK  5 active torsions:
REMARK  status: ('A' for Active; 'I' for Inactive)
REMARK    1  A    between atoms: C_2  and  O_21
REMARK    2  A    between atoms: C_3  and  O_23
REMARK    3  A    between atoms: C_4  and  O_25
REMARK    4  A    between atoms: C_16  and  O_27
REMARK    5  A    between atoms: C_19  and  O_29
REMARK                            x       y       z     vdW  Elec       q    Type
REMARK                         _______ _______ _______ _____ _____    ______ ____
ROOT
ATOM      1  O   UNL     1      -1.907  -1.829  -1.826  0.00  0.00    -0.293 OA
ATOM      2  C   UNL     1      -2.725   0.036   0.862  0.00  0.00    +0.171 C 
ATOM      3  C   UNL     1      -2.539   1.330   0.022  0.00  0.00    +0.144 C 
ATOM      4  C   UNL     1      -3.224  -1.215   0.102  0.00  0.00    +0.197 C 
ATOM      5  C   UNL     1      -1.805   2.487   0.771  0.00  0.00    +0.058 C 
ATOM      6  C   UNL     1      -0.333   2.521   0.421  0.00  0.00    -0.019 C 
ATOM      7  C   UNL     1      -1.284  -2.972   0.216  0.00  0.00    +0.072 C 
ATOM      8  C   UNL     1      -2.098  -1.972  -0.618  0.00  0.00    +0.180 C 
ATOM      9  C   UNL     1       0.044  -3.452  -0.418  0.00  0.00    +0.034 C 
ATOM     10  C   UNL     1       1.227  -2.551  -0.138  0.00  0.00    -0.022 C 
ATOM     11  C   UNL     1       1.669   1.154   0.119  0.00  0.00    +0.036 C 
ATOM     12  C   UNL     1       0.451   1.425   0.766  0.00  0.00    -0.001 C 
ATOM     13  C   UNL     1       2.086  -0.253   0.102  0.00  0.00    +0.036 C 
ATOM     14  C   UNL     1       1.100  -1.177  -0.308  0.00  0.00    -0.001 C 
ATOM     15  C   UNL     1       0.242   3.513  -0.374  0.00  0.00    -0.001 C 
ATOM     16  C   UNL     1       2.244   2.155  -0.661  0.00  0.00    +0.134 C 
ATOM     17  C   UNL     1       2.459  -3.028   0.312  0.00  0.00    -0.001 C 
ATOM     18  C   UNL     1       1.543   3.349  -0.872  0.00  0.00    +0.036 C 
ATOM     19  C   UNL     1       3.306  -0.747   0.548  0.00  0.00    +0.134 C 
ATOM     20  C   UNL     1       3.494  -2.133   0.633  0.00  0.00    +0.036 C 
ENDROOT
BRANCH   2  21
ATOM     21  O   UNL     1      -3.651   0.328   1.915  0.00  0.00    -0.379 OA
ATOM     22  H   UNL     1      -3.350   1.112   2.401  0.00  0.00    +0.211 HD
ENDBRANCH   2  21
BRANCH   3  23
ATOM     23  O   UNL     1      -3.815   1.843  -0.376  0.00  0.00    -0.382 OA
ATOM     24  H   UNL     1      -4.308   1.154  -0.847  0.00  0.00    +0.210 HD
ENDBRANCH   3  23
BRANCH   4  25
ATOM     25  O   UNL     1      -4.214  -0.860  -0.849  0.00  0.00    -0.375 OA
ATOM     26  H   UNL     1      -4.932  -0.381  -0.406  0.00  0.00    +0.211 HD
ENDBRANCH   4  25
BRANCH  16  27
ATOM     27  O   UNL     1       3.429   1.966  -1.306  0.00  0.00    -0.506 OA
ATOM     28  H   UNL     1       3.911   1.174  -1.177  0.00  0.00    +0.292 HD
ENDBRANCH  16  27
BRANCH  19  29
ATOM     29  O   UNL     1       4.305   0.083   0.957  0.00  0.00    -0.506 OA
ATOM     30  H   UNL     1       4.192   1.011   0.906  0.00  0.00    +0.292 HD
ENDBRANCH  19  29
TORSDOF 5
