REMARK  Name = 101240076
REMARK  15 active torsions:
REMARK  status: ('A' for Active; 'I' for Inactive)
REMARK    1  A    between atoms: N_2  and  CA_24
REMARK    2  A    between atoms: C_3  and  C_5
REMARK    3  A    between atoms: C_6  and  C_9
REMARK    4  A    between atoms: C_8  and  C_12
REMARK    5  A    between atoms: C_10  and  C_14
REMARK    6  A    between atoms: C_13  and  C_18
REMARK    7  A    between atoms: CA_24  and  C_26
REMARK    8  A    between atoms: CA_24  and  C_27
REMARK    9  A    between atoms: C_27  and  O_28
REMARK   10  A    between atoms: C_27  and  C_30
REMARK   11  A    between atoms: C_30  and  O_31
REMARK   12  A    between atoms: C_30  and  C_33
REMARK   13  A    between atoms: C_33  and  O_34
REMARK   14  A    between atoms: C_33  and  C_36
REMARK   15  A    between atoms: C_36  and  O_37
REMARK                            x       y       z     vdW  Elec       q    Type
REMARK                         _______ _______ _______ _____ _____    ______ ____
ROOT
ATOM      1  O   UNL     1      -4.529   2.473   0.835  0.00  0.00    -0.270 OA
ATOM      2  N   UNL     1      -4.402   0.789  -0.760  0.00  0.00    -0.294 N 
ATOM      3  C   UNL     1      -3.877   1.730   0.111  0.00  0.00    +0.246 C 
ATOM      4  H   UNL     1      -3.780   0.245  -1.295  0.00  0.00    +0.150 HD
ENDROOT
BRANCH   3   5
ATOM      5  C   UNL     1      -2.384   1.726   0.087  0.00  0.00    +0.053 C 
ATOM      6  C   UNL     1      -1.582   2.044   1.121  0.00  0.00    -0.017 C 
ATOM      7  C   UNL     1      -2.171   2.457   2.444  0.00  0.00    +0.031 C 
BRANCH   6   9
ATOM      8  C   UNL     1       0.623   1.113   0.498  0.00  0.00    -0.001 C 
ATOM      9  C   UNL     1      -0.128   2.044   1.110  0.00  0.00    -0.004 C 
BRANCH   8  12
ATOM     10  C   UNL     1       2.937   0.262  -0.035  0.00  0.00    -0.022 C 
ATOM     11  C   UNL     1       2.377  -0.902  -0.819  0.00  0.00    +0.031 C 
ATOM     12  C   UNL     1       2.073   1.131   0.533  0.00  0.00    -0.004 C 
BRANCH  10  14
ATOM     13  C   UNL     1       5.290  -0.465  -0.484  0.00  0.00    -0.005 C 
ATOM     14  C   UNL     1       4.393   0.372   0.062  0.00  0.00    -0.005 C 
BRANCH  13  18
ATOM     15  C   UNL     1       7.535  -1.588  -0.095  0.00  0.00    +0.018 C 
ATOM     16  C   UNL     1       9.061  -1.349  -0.253  0.00  0.00    +0.004 C 
ATOM     17  C   UNL     1       9.516  -0.071   0.429  0.00  0.00    +0.005 C 
ATOM     18  C   UNL     1       6.727  -0.293  -0.345  0.00  0.00    -0.031 C 
ATOM     19  C   UNL     1       8.802   1.127  -0.179  0.00  0.00    +0.022 C 
ATOM     20  C   UNL     1       7.317   0.927  -0.407  0.00  0.00    -0.048 C 
ATOM     21  C   UNL     1       7.171  -2.705  -1.104  0.00  0.00    +0.004 C 
ATOM     22  C   UNL     1       7.252  -2.107   1.334  0.00  0.00    +0.004 C 
ATOM     23  C   UNL     1       6.615   2.234  -0.699  0.00  0.00    +0.026 C 
ENDBRANCH  13  18
ENDBRANCH  10  14
ENDBRANCH   8  12
ENDBRANCH   6   9
ENDBRANCH   3   5
BRANCH   2  24
ATOM     24  CA  UNL     1      -5.822   0.570  -0.920  0.00  0.00    +0.167 C 
BRANCH  24  26
ATOM     25  O   UNL     1      -7.506   1.777  -2.172  0.00  0.00    -0.286 OA
ATOM     26  C   UNL     1      -6.318   1.611  -1.906  0.00  0.00    +0.229 C 
ENDBRANCH  24  26
BRANCH  24  27
ATOM     27  C   UNL     1      -6.171  -0.853  -1.378  0.00  0.00    +0.165 C 
BRANCH  27  28
ATOM     28  O   UNL     1      -5.648  -1.038  -2.701  0.00  0.00    -0.380 OA
ATOM     29  H   UNL     1      -5.858  -1.934  -3.009  0.00  0.00    +0.211 HD
ENDBRANCH  27  28
BRANCH  27  30
ATOM     30  C   UNL     1      -5.614  -1.983  -0.489  0.00  0.00    +0.168 C 
BRANCH  30  31
ATOM     31  O   UNL     1      -6.298  -3.189  -0.859  0.00  0.00    -0.379 OA
ATOM     32  H   UNL     1      -6.209  -3.330  -1.814  0.00  0.00    +0.211 HD
ENDBRANCH  30  31
BRANCH  30  33
ATOM     33  C   UNL     1      -5.761  -1.768   1.027  0.00  0.00    +0.169 C 
BRANCH  33  34
ATOM     34  O   UNL     1      -4.919  -2.678   1.736  0.00  0.00    -0.379 OA
ATOM     35  H   UNL     1      -3.999  -2.553   1.455  0.00  0.00    +0.211 HD
ENDBRANCH  33  34
BRANCH  33  36
ATOM     36  C   UNL     1      -7.194  -2.006   1.504  0.00  0.00    +0.169 C 
BRANCH  36  37
ATOM     37  O   UNL     1      -7.363  -1.390   2.777  0.00  0.00    -0.379 OA
ATOM     38  H   UNL     1      -8.271  -1.536   3.088  0.00  0.00    +0.211 HD
ENDBRANCH  36  37
ENDBRANCH  33  36
ENDBRANCH  30  33
ENDBRANCH  27  30
ENDBRANCH  24  27
ENDBRANCH   2  24
TORSDOF 15
