101288293
  -OEChem-03292013293D

 75 79  0     1  0  0  0  0  0999 V2000
   -0.3486    1.1989    1.5688 O   0  0  0  0  0  0  0  0  0  0  0  0
    2.6847    1.8485   -1.3757 O   0  0  0  0  0  0  0  0  0  0  0  0
    1.5907    0.1762    1.5443 O   0  0  0  0  0  0  0  0  0  0  0  0
    3.6074   -1.2217    0.9772 O   0  0  0  0  0  0  0  0  0  0  0  0
   -3.2931   -2.6802    0.4552 O   0  0  0  0  0  0  0  0  0  0  0  0
   -7.8329   -1.7387    0.2498 O   0  0  0  0  0  0  0  0  0  0  0  0
    4.5060   -3.2709    1.2536 O   0  0  0  0  0  0  0  0  0  0  0  0
    0.4086    1.0886   -0.7514 C   0  0  1  0  0  0  0  0  0  0  0  0
   -0.5925    1.7272    0.2518 C   0  0  1  0  0  0  0  0  0  0  0  0
    1.7746    1.6980   -0.2822 C   0  0  2  0  0  0  0  0  0  0  0  0
   -2.0577    1.4063   -0.1100 C   0  0  1  0  0  0  0  0  0  0  0  0
   -2.2815   -0.1400   -0.1373 C   0  0  2  0  0  0  0  0  0  0  0  0
    0.2582   -0.4406   -0.6585 C   0  0  0  0  0  0  0  0  0  0  0  0
   -0.1536    3.1891    0.2652 C   0  0  0  0  0  0  0  0  0  0  0  0
    1.3887    3.1161    0.2275 C   0  0  0  0  0  0  0  0  0  0  0  0
   -1.1857   -0.8809   -0.9650 C   0  0  0  0  0  0  0  0  0  0  0  0
   -3.7589   -0.5058   -0.5718 C   0  0  2  0  0  0  0  0  0  0  0  0
    2.5465    0.9160    0.7871 C   0  0  2  0  0  0  0  0  0  0  0  0
   -3.0523    2.0671    0.8592 C   0  0  0  0  0  0  0  0  0  0  0  0
    0.1550    1.5225   -2.2307 C   0  0  0  0  0  0  0  0  0  0  0  0
   -4.7902    0.4410    0.0532 C   0  0  0  0  0  0  0  0  0  0  0  0
   -4.4508    1.5707    0.6967 C   0  0  0  0  0  0  0  0  0  0  0  0
    3.5154   -0.0597    0.1345 C   0  0  1  0  0  0  0  0  0  0  0  0
   -4.1231   -1.9128   -0.0340 C   0  0  0  0  0  0  0  0  0  0  0  0
   -3.9173   -0.5066   -2.1052 C   0  0  0  0  0  0  0  0  0  0  0  0
    3.2781    1.8749    1.7219 C   0  0  0  0  0  0  0  0  0  0  0  0
   -6.2499    0.0547   -0.0498 C   0  0  0  0  0  0  0  0  0  0  0  0
   -5.5647   -2.3599   -0.1693 C   0  0  0  0  0  0  0  0  0  0  0  0
   -6.4858   -1.3508    0.4967 C   0  0  2  0  0  0  0  0  0  0  0  0
    4.8931    0.5546   -0.0382 C   0  0  0  0  0  0  0  0  0  0  0  0
    5.8453   -0.5007   -0.5296 C   0  0  0  0  0  0  0  0  0  0  0  0
    4.5489   -2.1668    0.7193 C   0  0  0  0  0  0  0  0  0  0  0  0
    5.6520   -1.7976   -0.2161 C   0  0  0  0  0  0  0  0  0  0  0  0
    6.9873    0.0292   -1.3514 C   0  0  0  0  0  0  0  0  0  0  0  0
    6.4983   -2.9460   -0.6860 C   0  0  0  0  0  0  0  0  0  0  0  0
   -2.2772    1.8103   -1.1056 H   0  0  0  0  0  0  0  0  0  0  0  0
   -2.1540   -0.4868    0.9002 H   0  0  0  0  0  0  0  0  0  0  0  0
    0.4714   -0.9202    0.2908 H   0  0  0  0  0  0  0  0  0  0  0  0
    0.9258   -0.9211   -1.3846 H   0  0  0  0  0  0  0  0  0  0  0  0
   -0.4878    3.7251    1.1604 H   0  0  0  0  0  0  0  0  0  0  0  0
   -0.5304    3.7338   -0.6072 H   0  0  0  0  0  0  0  0  0  0  0  0
    1.7566    3.8985   -0.4487 H   0  0  0  0  0  0  0  0  0  0  0  0
    1.7199    3.4323    1.2118 H   0  0  0  0  0  0  0  0  0  0  0  0
   -1.3561   -0.7432   -2.0364 H   0  0  0  0  0  0  0  0  0  0  0  0
   -1.2580   -1.9613   -0.7970 H   0  0  0  0  0  0  0  0  0  0  0  0
   -3.0430    3.1510    0.6927 H   0  0  0  0  0  0  0  0  0  0  0  0
   -2.7706    1.9048    1.9049 H   0  0  0  0  0  0  0  0  0  0  0  0
    0.2763    2.6000   -2.3801 H   0  0  0  0  0  0  0  0  0  0  0  0
   -0.8474    1.2764   -2.5882 H   0  0  0  0  0  0  0  0  0  0  0  0
    0.8547    1.0155   -2.9061 H   0  0  0  0  0  0  0  0  0  0  0  0
   -0.7064    1.8190    2.2253 H   0  0  0  0  0  0  0  0  0  0  0  0
   -5.2258    2.1876    1.1455 H   0  0  0  0  0  0  0  0  0  0  0  0
    3.1263   -0.4335   -0.8210 H   0  0  0  0  0  0  0  0  0  0  0  0
    2.4004    2.5866   -1.9387 H   0  0  0  0  0  0  0  0  0  0  0  0
   -4.9601   -0.6051   -2.4241 H   0  0  0  0  0  0  0  0  0  0  0  0
   -3.5353    0.4185   -2.5496 H   0  0  0  0  0  0  0  0  0  0  0  0
   -3.3927   -1.3536   -2.5612 H   0  0  0  0  0  0  0  0  0  0  0  0
    2.6062    2.3140    2.4695 H   0  0  0  0  0  0  0  0  0  0  0  0
    3.9673    1.3188    2.3720 H   0  0  0  0  0  0  0  0  0  0  0  0
    3.8477    2.6609    1.2151 H   0  0  0  0  0  0  0  0  0  0  0  0
   -6.8942    0.7576    0.4945 H   0  0  0  0  0  0  0  0  0  0  0  0
   -6.5858    0.1194   -1.0918 H   0  0  0  0  0  0  0  0  0  0  0  0
   -5.8076   -2.4983   -1.2285 H   0  0  0  0  0  0  0  0  0  0  0  0
   -5.6866   -3.3419    0.3027 H   0  0  0  0  0  0  0  0  0  0  0  0
   -6.3231   -1.3627    1.5818 H   0  0  0  0  0  0  0  0  0  0  0  0
    2.0713   -0.3139    2.2333 H   0  0  0  0  0  0  0  0  0  0  0  0
    5.3468    0.9074    0.8935 H   0  0  0  0  0  0  0  0  0  0  0  0
    4.8797    1.3937   -0.7394 H   0  0  0  0  0  0  0  0  0  0  0  0
   -8.4096   -1.0871    0.6838 H   0  0  0  0  0  0  0  0  0  0  0  0
    6.6227    0.3763   -2.3236 H   0  0  0  0  0  0  0  0  0  0  0  0
    7.7769   -0.7050   -1.5257 H   0  0  0  0  0  0  0  0  0  0  0  0
    7.4572    0.8755   -0.8380 H   0  0  0  0  0  0  0  0  0  0  0  0
    7.1799   -3.2657    0.1086 H   0  0  0  0  0  0  0  0  0  0  0  0
    7.0892   -2.7068   -1.5735 H   0  0  0  0  0  0  0  0  0  0  0  0
    5.8678   -3.7984   -0.9631 H   0  0  0  0  0  0  0  0  0  0  0  0
  1  9  1  0  0  0  0
  1 51  1  0  0  0  0
  2 10  1  0  0  0  0
  2 54  1  0  0  0  0
  3 18  1  0  0  0  0
  3 66  1  0  0  0  0
  4 23  1  0  0  0  0
  4 32  1  0  0  0  0
  5 24  2  0  0  0  0
  6 29  1  0  0  0  0
  6 69  1  0  0  0  0
  7 32  2  0  0  0  0
  8  9  1  0  0  0  0
  8 10  1  0  0  0  0
  8 13  1  0  0  0  0
  8 20  1  0  0  0  0
  9 11  1  0  0  0  0
  9 14  1  0  0  0  0
 10 15  1  0  0  0  0
 10 18  1  0  0  0  0
 11 12  1  0  0  0  0
 11 19  1  0  0  0  0
 11 36  1  0  0  0  0
 12 16  1  0  0  0  0
 12 17  1  0  0  0  0
 12 37  1  0  0  0  0
 13 16  1  0  0  0  0
 13 38  1  0  0  0  0
 13 39  1  0  0  0  0
 14 15  1  0  0  0  0
 14 40  1  0  0  0  0
 14 41  1  0  0  0  0
 15 42  1  0  0  0  0
 15 43  1  0  0  0  0
 16 44  1  0  0  0  0
 16 45  1  0  0  0  0
 17 21  1  0  0  0  0
 17 24  1  0  0  0  0
 17 25  1  0  0  0  0
 18 23  1  0  0  0  0
 18 26  1  0  0  0  0
 19 22  1  0  0  0  0
 19 46  1  0  0  0  0
 19 47  1  0  0  0  0
 20 48  1  0  0  0  0
 20 49  1  0  0  0  0
 20 50  1  0  0  0  0
 21 22  2  0  0  0  0
 21 27  1  0  0  0  0
 22 52  1  0  0  0  0
 23 30  1  0  0  0  0
 23 53  1  0  0  0  0
 24 28  1  0  0  0  0
 25 55  1  0  0  0  0
 25 56  1  0  0  0  0
 25 57  1  0  0  0  0
 26 58  1  0  0  0  0
 26 59  1  0  0  0  0
 26 60  1  0  0  0  0
 27 29  1  0  0  0  0
 27 61  1  0  0  0  0
 27 62  1  0  0  0  0
 28 29  1  0  0  0  0
 28 63  1  0  0  0  0
 28 64  1  0  0  0  0
 29 65  1  0  0  0  0
 30 31  1  0  0  0  0
 30 67  1  0  0  0  0
 30 68  1  0  0  0  0
 31 33  2  0  0  0  0
 31 34  1  0  0  0  0
 32 33  1  0  0  0  0
 33 35  1  0  0  0  0
 34 70  1  0  0  0  0
 34 71  1  0  0  0  0
 34 72  1  0  0  0  0
 35 73  1  0  0  0  0
 35 74  1  0  0  0  0
 35 75  1  0  0  0  0
M  END
> <PUBCHEM_COMPOUND_CID>
101288293

> <PUBCHEM_CONFORMER_RMSD>
0.8

> <PUBCHEM_CONFORMER_DIVERSEORDER>
2
6
5
3
1
4

> <PUBCHEM_MMFF94_PARTIAL_CHARGES>
30
1 -0.68
10 0.28
17 0.2
18 0.28
19 0.14
2 -0.68
21 -0.28
22 -0.29
23 0.28
24 0.45
27 0.14
28 0.06
29 0.28
3 -0.68
30 0.14
31 -0.28
32 0.71
33 -0.12
34 0.14
35 0.14
4 -0.43
5 -0.57
51 0.4
52 0.15
54 0.4
6 -0.68
66 0.4
69 0.4
7 -0.57
9 0.28

> <PUBCHEM_EFFECTIVE_ROTOR_COUNT>
4.4

> <PUBCHEM_PHARMACOPHORE_FEATURES>
15
1 1 acceptor
1 1 donor
1 2 acceptor
1 2 donor
1 3 acceptor
1 3 donor
1 5 acceptor
1 6 acceptor
1 6 donor
1 7 acceptor
5 8 9 10 14 15 rings
6 11 12 17 19 21 22 rings
6 17 21 24 27 28 29 rings
6 4 23 30 31 32 33 rings
6 8 9 11 12 13 16 rings

> <PUBCHEM_HEAVY_ATOM_COUNT>
35

> <PUBCHEM_ATOM_DEF_STEREO_COUNT>
9

> <PUBCHEM_ATOM_UDEF_STEREO_COUNT>
0

> <PUBCHEM_BOND_DEF_STEREO_COUNT>
0

> <PUBCHEM_BOND_UDEF_STEREO_COUNT>
0

> <PUBCHEM_ISOTOPIC_ATOM_COUNT>
0

> <PUBCHEM_COMPONENT_COUNT>
1

> <PUBCHEM_CACTVS_TAUTO_COUNT>
2

> <PUBCHEM_CONFORMER_ID>
0609896500000002

> <PUBCHEM_MMFF94_ENERGY>
169.2914

> <PUBCHEM_FEATURE_SELFOVERLAP>
76.383

> <PUBCHEM_SHAPE_FINGERPRINT>
10319926 262 18060132107513884769
10622 236 17536862292295414530
11135609 187 17898020264151240020
11456790 92 17703243896988725499
117089 54 17914345572118993126
11763715 3 18264788583860034316
11991303 11 17608923188657063741
12107183 9 18340775819554647937
12166972 35 18260551160329657133
12236239 1 18408327674317007021
12422481 6 17203607060344561940
12516196 113 18412824694402301776
12592606 108 18341893026695563903
12633257 1 15984820492760020923
13009979 54 18272656731416497329
13150687 139 7925637726020648976
13533116 47 18339359776888591873
13690498 29 18186799154211310325
13782708 43 17632290172714584415
13911987 19 14851615353390179720
14341114 176 18341330089072740785
14420673 8 18270684151557914798
14955137 171 18343021116296976201
15001296 14 18043239335682750907
15082195 135 17896053173582206108
15183329 4 18335139778151993074
15927050 60 17838052972606076014
16728300 4 18340480050599799847
17349148 13 18130786789487471565
17492 89 18267584800605309763
1813 80 17748820813336949436
20775530 9 18337376176281675818
20982279 24 17896335752577431355
21033648 29 15410903929297300841
21130935 74 18200313368173053843
21267235 1 18342182180213605813
21641784 216 15068613851567013558
22223350 30 17201344407465712099
22950370 63 18409730617321415632
23522609 53 18123502451887056520
23559900 14 18339918311536622169
23569943 247 18045781187243710770
2838139 119 8574424310207039778
3004659 81 18187363263547340673
335352 9 18412544298037662069
3383291 50 18409726279273513931
34797466 226 16515687770566676893
3680242 22 18342466980249274033
392239 28 15769766957701498809
4073 2 18263646319752390168
439807 62 18333732398889186675
44880168 125 17131829816614265430
46194498 28 17241043313819776788
463206 1 18334859411535340250
465052 167 18202284693304216076
474113 269 18130495449641263511
5104073 3 18060698385782267025
6697151 62 18129075919098370117
70251023 43 18259703402294192304
7970288 3 18410008810484631106
9896288 288 17630336238095537649
999808 66 18114196237251053763

> <PUBCHEM_SHAPE_MULTIPOLES>
679.2
16.99
3.38
1.41
1.34
0.36
-0.34
14.41
-0.4
-1.36
0.65
-0.6
-0.25
-0.36

> <PUBCHEM_SHAPE_SELFOVERLAP>
1479.187

> <PUBCHEM_SHAPE_VOLUME>
365.9

> <PUBCHEM_COORDINATE_TYPE>
2
5
10

$$$$
