REMARK  Name = 101278428
REMARK  14 active torsions:
REMARK  status: ('A' for Active; 'I' for Inactive)
REMARK    1  A    between atoms: C_1  and  C_11
REMARK    2  A    between atoms: C_2  and  C_20
REMARK    3  A    between atoms: C_6  and  C_14
REMARK    4  A    between atoms: C_11  and  O_12
REMARK    5  A    between atoms: C_14  and  C_15
REMARK    6  A    between atoms: C_15  and  C_17
REMARK    7  A    between atoms: C_17  and  O_18
REMARK    8  A    between atoms: C_21  and  C_23
REMARK    9  A    between atoms: C_22  and  C_25
REMARK   10  A    between atoms: C_24  and  C_27
REMARK   11  A    between atoms: C_26  and  C_29
REMARK   12  A    between atoms: C_29  and  C_31
REMARK   13  A    between atoms: C_31  and  C_32
REMARK   14  A    between atoms: C_31  and  O_35
REMARK                            x       y       z     vdW  Elec       q    Type
REMARK                         _______ _______ _______ _____ _____    ______ ____
ROOT
ATOM      1  C   UNL     1      -2.829   0.017  -0.729  0.00  0.00    +0.037 C 
ATOM      2  C   UNL     1      -1.720   0.720  -1.006  0.00  0.00    +0.003 C 
ENDROOT
BRANCH   1  11
ATOM      3  O   UNL     1      -6.919   0.852  -2.143  0.00  0.00    -0.289 OA
ATOM      4  O   UNL     1      -4.361  -2.115   0.468  0.00  0.00    -0.270 OA
ATOM      5  N   UNL     1      -6.660  -1.963  -0.092  0.00  0.00    -0.269 N 
ATOM      6  C   UNL     1      -7.582  -1.117  -0.868  0.00  0.00    +0.138 C 
ATOM      7  C   UNL     1      -6.623  -0.084  -1.419  0.00  0.00    +0.198 C 
ATOM      8  C   UNL     1      -5.263  -0.386  -0.931  0.00  0.00    +0.123 C 
ATOM      9  C   UNL     1      -5.312  -1.591  -0.085  0.00  0.00    +0.255 C 
ATOM     10  C   UNL     1      -7.145  -3.157   0.575  0.00  0.00    +0.116 C 
ATOM     11  C   UNL     1      -4.160   0.322  -1.213  0.00  0.00    +0.141 C 
BRANCH  11  12
ATOM     12  O   UNL     1      -4.212   1.483  -1.959  0.00  0.00    -0.505 OA
ATOM     13  H   UNL     1      -5.027   1.772  -2.320  0.00  0.00    +0.292 HD
ENDBRANCH  11  12
BRANCH   6  14
ATOM     14  C   UNL     1      -8.659  -0.463  -0.021  0.00  0.00    +0.039 C 
BRANCH  14  15
ATOM     15  C   UNL     1      -8.094   0.286   1.182  0.00  0.00    +0.112 C 
BRANCH  15  17
ATOM     16  O   UNL     1     -10.381   0.755   1.800  0.00  0.00    -0.250 OA
ATOM     17  C   UNL     1      -9.186   0.912   2.015  0.00  0.00    +0.314 C 
BRANCH  17  18
ATOM     18  O   UNL     1      -8.706   1.648   3.047  0.00  0.00    -0.480 OA
ATOM     19  H   UNL     1      -7.781   1.737   3.169  0.00  0.00    +0.295 HD
ENDBRANCH  17  18
ENDBRANCH  15  17
ENDBRANCH  14  15
ENDBRANCH   6  14
ENDBRANCH   1  11
BRANCH   2  20
ATOM     20  C   UNL     1      -0.416   0.373  -0.482  0.00  0.00    +0.000 C 
ATOM     21  C   UNL     1       0.693   1.076  -0.758  0.00  0.00    +0.000 C 
BRANCH  21  23
ATOM     22  C   UNL     1       3.106   1.431  -0.511  0.00  0.00    -0.000 C 
ATOM     23  C   UNL     1       1.996   0.729  -0.234  0.00  0.00    -0.000 C 
BRANCH  22  25
ATOM     24  C   UNL     1       5.519   1.783  -0.262  0.00  0.00    -0.005 C 
ATOM     25  C   UNL     1       4.408   1.082   0.013  0.00  0.00    -0.000 C 
BRANCH  24  27
ATOM     26  C   UNL     1       7.351   0.238   0.408  0.00  0.00    -0.028 C 
ATOM     27  C   UNL     1       6.838   1.476   0.264  0.00  0.00    -0.026 C 
ATOM     28  C   UNL     1       7.654   2.695   0.607  0.00  0.00    +0.031 C 
BRANCH  26  29
ATOM     29  C   UNL     1       8.718  -0.160   0.949  0.00  0.00    +0.049 C 
ATOM     30  C   UNL     1       8.489  -0.972   2.223  0.00  0.00    +0.007 C 
BRANCH  29  31
ATOM     31  C   UNL     1       9.510  -0.914  -0.151  0.00  0.00    +0.114 C 
BRANCH  31  32
ATOM     32  C   UNL     1      10.773  -1.708   0.269  0.00  0.00    +0.027 C 
ATOM     33  C   UNL     1      11.436  -2.453  -0.892  0.00  0.00    +0.002 C 
ATOM     34  C   UNL     1      11.796  -0.872   1.038  0.00  0.00    +0.002 C 
ENDBRANCH  31  32
BRANCH  31  35
ATOM     35  O   UNL     1       9.942   0.077  -1.101  0.00  0.00    -0.384 OA
ATOM     36  H   UNL     1      10.445  -0.352  -1.811  0.00  0.00    +0.210 HD
ENDBRANCH  31  35
ENDBRANCH  29  31
ENDBRANCH  26  29
ENDBRANCH  24  27
ENDBRANCH  22  25
ENDBRANCH  21  23
ENDBRANCH   2  20
TORSDOF 14
