REMARK  Name = 101270665
REMARK  6 active torsions:
REMARK  status: ('A' for Active; 'I' for Inactive)
REMARK    1  A    between atoms: N_2  and  C_12
REMARK    2  A    between atoms: C_3  and  C_8
REMARK    3  A    between atoms: C_12  and  C_13
REMARK    4  A    between atoms: C_13  and  O_14
REMARK    5  A    between atoms: O_14  and  N_16
REMARK    6  A    between atoms: N_16  and  O_17
REMARK                            x       y       z     vdW  Elec       q    Type
REMARK                         _______ _______ _______ _____ _____    ______ ____
ROOT
ATOM      1  O   UNL     1       1.211  -1.482  -1.089  0.00  0.00    -0.273 OA
ATOM      2  N   UNL     1      -0.249  -1.445   0.724  0.00  0.00    -0.301 N 
ATOM      3  C   UNL     1       0.953  -1.206   0.080  0.00  0.00    +0.241 C 
ATOM      4  H   UNL     1      -0.337  -1.177   1.667  0.00  0.00    +0.150 HD
ENDROOT
BRANCH   3   8
ATOM      5  S   UNL     1       2.137   1.972   0.119  0.00  0.00    -0.055 S 
ATOM      6  O   UNL     1       4.300   1.145  -1.144  0.00  0.00    -0.263 OA
ATOM      7  N   UNL     1       3.151  -0.384   0.190  0.00  0.00    -0.289 N 
ATOM      8  C   UNL     1       1.948  -0.526   0.970  0.00  0.00    +0.161 C 
ATOM      9  C   UNL     1       1.495   0.855   1.405  0.00  0.00    +0.095 C 
ATOM     10  C   UNL     1       3.386   0.842  -0.393  0.00  0.00    +0.273 C 
ATOM     11  H   UNL     1       3.780  -1.133   0.078  0.00  0.00    +0.151 HD
ENDBRANCH   3   8
BRANCH   2  12
ATOM     12  C   UNL     1      -1.381  -2.070   0.079  0.00  0.00    +0.124 C 
BRANCH  12  13
ATOM     13  C   UNL     1      -2.288  -1.042  -0.575  0.00  0.00    +0.193 C 
BRANCH  13  14
ATOM     14  O   UNL     1      -2.800  -0.165   0.420  0.00  0.00    -0.232 OA
BRANCH  14  16
ATOM     15  O   UNL     1      -3.926   0.896  -1.383  0.00  0.00    -0.062 OA
ATOM     16  N   UNL     1      -3.667   0.833  -0.139  0.00  0.00    +0.108 NA
BRANCH  16  17
ATOM     17  O   UNL     1      -4.269   1.776   0.735  0.00  0.00    -0.263 OA
ATOM     18  H   UNL     1      -4.089   1.744   1.654  0.00  0.00    +0.242 HD
ENDBRANCH  16  17
ENDBRANCH  14  16
ENDBRANCH  13  14
ENDBRANCH  12  13
ENDBRANCH   2  12
TORSDOF 6
