REMARK  Name = 101239150
REMARK  3 active torsions:
REMARK  status: ('A' for Active; 'I' for Inactive)
REMARK    1  A    between atoms: C_6  and  O_24
REMARK    2  A    between atoms: C_14  and  O_26
REMARK    3  A    between atoms: C_20  and  O_28
REMARK                            x       y       z     vdW  Elec       q    Type
REMARK                         _______ _______ _______ _____ _____    ______ ____
ROOT
ATOM      1 CL   UNL     1      -6.589   0.864   0.132  0.00  0.00    -0.079 Cl
ATOM      2  O   UNL     1       3.903  -2.446  -0.211  0.00  0.00    -0.291 OA
ATOM      3  O   UNL     1      -1.511   2.452  -0.251  0.00  0.00    -0.286 OA
ATOM      4  O   UNL     1      -1.029  -2.853   0.153  0.00  0.00    -0.286 OA
ATOM      5  C   UNL     1       4.853   1.044   0.151  0.00  0.00    +0.039 C 
ATOM      6  C   UNL     1       3.591   1.701  -0.430  0.00  0.00    +0.133 C 
ATOM      7  C   UNL     1       2.364   0.830  -0.281  0.00  0.00    +0.010 C 
ATOM      8  C   UNL     1       5.029  -0.352  -0.441  0.00  0.00    +0.072 C 
ATOM      9  C   UNL     1       2.473  -0.568  -0.204  0.00  0.00    +0.067 C 
ATOM     10  C   UNL     1       3.807  -1.223  -0.259  0.00  0.00    +0.176 C 
ATOM     11  C   UNL     1       4.873   1.013   1.687  0.00  0.00    +0.003 C 
ATOM     12  C   UNL     1       1.080   1.401  -0.280  0.00  0.00    +0.002 C 
ATOM     13  C   UNL     1      -0.065   0.602  -0.164  0.00  0.00    +0.045 C 
ATOM     14  C   UNL     1       1.330  -1.370  -0.085  0.00  0.00    +0.139 C 
ATOM     15  C   UNL     1       0.060  -0.782  -0.061  0.00  0.00    +0.076 C 
ATOM     16  C   UNL     1      -1.400   1.236  -0.154  0.00  0.00    +0.199 C 
ATOM     17  C   UNL     1      -1.139  -1.637   0.064  0.00  0.00    +0.199 C 
ATOM     18  C   UNL     1      -2.599   0.383  -0.027  0.00  0.00    +0.077 C 
ATOM     19  C   UNL     1      -2.473  -1.003   0.079  0.00  0.00    +0.045 C 
ATOM     20  C   UNL     1      -3.869   0.972  -0.013  0.00  0.00    +0.147 C 
ATOM     21  C   UNL     1      -3.617  -1.801   0.200  0.00  0.00    +0.004 C 
ATOM     22  C   UNL     1      -5.006   0.174   0.108  0.00  0.00    +0.091 C 
ATOM     23  C   UNL     1      -4.881  -1.210   0.214  0.00  0.00    +0.015 C 
ENDROOT
BRANCH   6  24
ATOM     24  O   UNL     1       3.394   2.975   0.180  0.00  0.00    -0.380 OA
ATOM     25  H   UNL     1       4.193   3.513   0.071  0.00  0.00    +0.211 HD
ENDBRANCH   6  24
BRANCH  14  26
ATOM     26  O   UNL     1       1.452  -2.727   0.006  0.00  0.00    -0.505 OA
ATOM     27  H   UNL     1       2.301  -3.123  -0.010  0.00  0.00    +0.292 HD
ENDBRANCH  14  26
BRANCH  20  28
ATOM     28  O   UNL     1      -4.032   2.324  -0.113  0.00  0.00    -0.505 OA
ATOM     29  H   UNL     1      -3.283   2.882  -0.195  0.00  0.00    +0.292 HD
ENDBRANCH  20  28
TORSDOF 3
