101267305
  -OEChem-03292013293D

 52 52  0     1  0  0  0  0  0999 V2000
   -1.3688    0.6612   -0.8808 O   0  0  0  0  0  0  0  0  0  0  0  0
   -0.2080    1.0717    1.1708 O   0  0  0  0  0  0  0  0  0  0  0  0
   -3.7836    0.4870    0.4931 O   0  0  0  0  0  0  0  0  0  0  0  0
   -0.2160   -3.1793    0.1532 O   0  0  0  0  0  0  0  0  0  0  0  0
    3.7294   -0.4336    0.6236 O   0  0  0  0  0  0  0  0  0  0  0  0
    2.4468    2.0705   -0.3909 O   0  0  0  0  0  0  0  0  0  0  0  0
   -0.7385    2.8844   -0.7877 O   0  0  0  0  0  0  0  0  0  0  0  0
   -4.9698    2.4467    0.7919 O   0  0  0  0  0  0  0  0  0  0  0  0
   -1.9213   -3.5774   -1.3535 O   0  0  0  0  0  0  0  0  0  0  0  0
    5.4630   -0.3263    2.0822 O   0  0  0  0  0  0  0  0  0  0  0  0
   -1.3527    0.4686    0.5616 C   0  0  2  0  0  0  0  0  0  0  0  0
   -1.2422   -1.0603    0.7988 C   0  0  0  0  0  0  0  0  0  0  0  0
   -2.6573    1.0583    1.1584 C   0  0  2  0  0  0  0  0  0  0  0  0
   -0.2636   -1.7858   -0.1488 C   0  0  1  0  0  0  0  0  0  0  0  0
    1.1312   -1.2530    0.0301 C   0  0  0  0  0  0  0  0  0  0  0  0
   -2.8143    0.8467    2.6620 C   0  0  0  0  0  0  0  0  0  0  0  0
    3.3140   -0.1920   -0.7393 C   0  0  1  0  0  0  0  0  0  0  0  0
    1.9286   -0.7227   -0.9098 C   0  0  0  0  0  0  0  0  0  0  0  0
    3.4238    1.2937   -1.0779 C   0  0  2  0  0  0  0  0  0  0  0  0
   -1.0521    1.8774   -1.4068 C   0  0  0  0  0  0  0  0  0  0  0  0
    4.7785    1.7811   -0.6824 C   0  0  0  0  0  0  0  0  0  0  0  0
   -4.8758    1.2981    0.3808 C   0  0  0  0  0  0  0  0  0  0  0  0
   -1.1054   -3.9612   -0.5264 C   0  0  0  0  0  0  0  0  0  0  0  0
    5.4894    1.1848    0.2800 C   0  0  0  0  0  0  0  0  0  0  0  0
    4.9117    0.0765    1.0638 C   0  0  0  0  0  0  0  0  0  0  0  0
   -1.1318    1.8061   -2.9017 C   0  0  0  0  0  0  0  0  0  0  0  0
   -5.9736    0.5701   -0.3341 C   0  0  0  0  0  0  0  0  0  0  0  0
   -0.9418   -5.3915   -0.1098 C   0  0  0  0  0  0  0  0  0  0  0  0
   -0.9661   -1.2684    1.8414 H   0  0  0  0  0  0  0  0  0  0  0  0
   -2.2241   -1.5280    0.6509 H   0  0  0  0  0  0  0  0  0  0  0  0
   -2.6304    2.1411    0.9783 H   0  0  0  0  0  0  0  0  0  0  0  0
   -0.5644   -1.6397   -1.1938 H   0  0  0  0  0  0  0  0  0  0  0  0
    1.5117   -1.3301    1.0474 H   0  0  0  0  0  0  0  0  0  0  0  0
   -2.9439   -0.2138    2.9022 H   0  0  0  0  0  0  0  0  0  0  0  0
   -3.7100    1.3562    3.0332 H   0  0  0  0  0  0  0  0  0  0  0  0
   -1.9522    1.2311    3.2147 H   0  0  0  0  0  0  0  0  0  0  0  0
    3.9812   -0.7797   -1.3844 H   0  0  0  0  0  0  0  0  0  0  0  0
    1.5349   -0.6624   -1.9235 H   0  0  0  0  0  0  0  0  0  0  0  0
   -0.4174    2.0018    1.3585 H   0  0  0  0  0  0  0  0  0  0  0  0
    3.2707    1.4353   -2.1541 H   0  0  0  0  0  0  0  0  0  0  0  0
    5.1912    2.6403   -1.2021 H   0  0  0  0  0  0  0  0  0  0  0  0
    6.4699    1.5508    0.5615 H   0  0  0  0  0  0  0  0  0  0  0  0
   -2.1438    1.5273   -3.2063 H   0  0  0  0  0  0  0  0  0  0  0  0
   -0.8998    2.7877   -3.3246 H   0  0  0  0  0  0  0  0  0  0  0  0
   -0.4030    1.0831   -3.2768 H   0  0  0  0  0  0  0  0  0  0  0  0
    2.5466    2.9943   -0.6788 H   0  0  0  0  0  0  0  0  0  0  0  0
   -5.6419    0.2940   -1.3383 H   0  0  0  0  0  0  0  0  0  0  0  0
   -6.8454    1.2246   -0.4226 H   0  0  0  0  0  0  0  0  0  0  0  0
   -6.2608   -0.3178    0.2347 H   0  0  0  0  0  0  0  0  0  0  0  0
    0.0696   -5.7325   -0.3445 H   0  0  0  0  0  0  0  0  0  0  0  0
   -1.6552   -6.0130   -0.6587 H   0  0  0  0  0  0  0  0  0  0  0  0
   -1.1439   -5.4912    0.9596 H   0  0  0  0  0  0  0  0  0  0  0  0
  1 11  1  0  0  0  0
  1 20  1  0  0  0  0
  2 11  1  0  0  0  0
  2 39  1  0  0  0  0
  3 13  1  0  0  0  0
  3 22  1  0  0  0  0
  4 14  1  0  0  0  0
  4 23  1  0  0  0  0
  5 17  1  0  0  0  0
  5 25  1  0  0  0  0
  6 19  1  0  0  0  0
  6 46  1  0  0  0  0
  7 20  2  0  0  0  0
  8 22  2  0  0  0  0
  9 23  2  0  0  0  0
 10 25  2  0  0  0  0
 11 12  1  0  0  0  0
 11 13  1  0  0  0  0
 12 14  1  0  0  0  0
 12 29  1  0  0  0  0
 12 30  1  0  0  0  0
 13 16  1  0  0  0  0
 13 31  1  0  0  0  0
 14 15  1  0  0  0  0
 14 32  1  0  0  0  0
 15 18  2  0  0  0  0
 15 33  1  0  0  0  0
 16 34  1  0  0  0  0
 16 35  1  0  0  0  0
 16 36  1  0  0  0  0
 17 18  1  0  0  0  0
 17 19  1  0  0  0  0
 17 37  1  0  0  0  0
 18 38  1  0  0  0  0
 19 21  1  0  0  0  0
 19 40  1  0  0  0  0
 20 26  1  0  0  0  0
 21 24  2  0  0  0  0
 21 41  1  0  0  0  0
 22 27  1  0  0  0  0
 23 28  1  0  0  0  0
 24 25  1  0  0  0  0
 24 42  1  0  0  0  0
 26 43  1  0  0  0  0
 26 44  1  0  0  0  0
 26 45  1  0  0  0  0
 27 47  1  0  0  0  0
 27 48  1  0  0  0  0
 27 49  1  0  0  0  0
 28 50  1  0  0  0  0
 28 51  1  0  0  0  0
 28 52  1  0  0  0  0
M  END
> <PUBCHEM_COMPOUND_CID>
101267305

> <PUBCHEM_CONFORMER_RMSD>
1

> <PUBCHEM_CONFORMER_DIVERSEORDER>
1
65
167
33
28
180
59
201
160
75
174
39
103
211
253
250
198
162
208
45
126
202
123
92
184
245
72
77
190
7
205
143
21
147
196
114
213
135
53
195
226
125
106
29
227
206
209
94
79
240
134
127
40
221
140
177
131
252
234
47
101
52
86
136
31
26
207
230
107
235
27
141
216
122
163
70
117
46
110
231
152
2
166
187
85
168
48
199
84
243
224
244
179
215
38
138
170
204
23
218
54
192
175
6
254
66
181
96
10
183
3
42
55
36
109
130
151
81
17
238
182
223
78
24
145
89
212
118
200
97
148
90
87
64
159
98
60
16
248
169
173
139
102
229
4
225
158
197
37
124
20
188
171
176
251
95
100
222
220
19
50
132
108
217
193
44
144
34
116
161
22
129
185
62
61
165
113
219
214
71
156
12
41
68
13
146
186
121
242
120
133
104
228
9
105
51
236
233
15
35
88
74
43
112
91
49
246
210
239
149
32
30
25
249
99
67
82
232
111
76
154
5
83
80
241
191
119
137
172
18
93
115
14
11
142
8
157
56
178
237
194
203
155
73
57
247
153
150
58
189
128
69
164
63

> <PUBCHEM_MMFF94_PARTIAL_CHARGES>
32
1 -0.43
10 -0.57
11 0.56
13 0.28
14 0.42
15 -0.29
17 0.42
18 -0.29
19 0.42
2 -0.68
20 0.66
21 -0.29
22 0.66
23 0.66
24 -0.14
25 0.71
26 0.06
27 0.06
28 0.06
3 -0.43
33 0.15
38 0.15
39 0.4
4 -0.43
41 0.15
42 0.15
46 0.4
5 -0.43
6 -0.68
7 -0.57
8 -0.57
9 -0.57

> <PUBCHEM_EFFECTIVE_ROTOR_COUNT>
11.6

> <PUBCHEM_PHARMACOPHORE_FEATURES>
9
1 10 acceptor
1 2 acceptor
1 2 donor
1 6 acceptor
1 6 donor
1 7 acceptor
1 8 acceptor
1 9 acceptor
6 5 17 19 21 24 25 rings

> <PUBCHEM_HEAVY_ATOM_COUNT>
28

> <PUBCHEM_ATOM_DEF_STEREO_COUNT>
5

> <PUBCHEM_ATOM_UDEF_STEREO_COUNT>
0

> <PUBCHEM_BOND_DEF_STEREO_COUNT>
1

> <PUBCHEM_BOND_UDEF_STEREO_COUNT>
0

> <PUBCHEM_ISOTOPIC_ATOM_COUNT>
0

> <PUBCHEM_COMPONENT_COUNT>
1

> <PUBCHEM_CACTVS_TAUTO_COUNT>
8

> <PUBCHEM_CONFORMER_ID>
0609376900000001

> <PUBCHEM_MMFF94_ENERGY>
51.509

> <PUBCHEM_FEATURE_SELFOVERLAP>
45.681

> <PUBCHEM_SHAPE_FINGERPRINT>
10074138 170 18266161997819870106
11045515 52 17609480980417572070
12107183 9 18336819811278030362
12403814 3 18113617901975756092
12422481 6 17895476899722659021
12633257 1 18410292536604375596
12788726 201 18123471849880978298
14787075 74 17918274238500830569
14790565 3 18411983537979530093
15403338 16 16805874087952761648
17138139 8 17773575266039180455
18365409 1 18270963561758000919
23419403 2 17553454265722155108
23557571 272 17916033528440688870
23558518 356 17830178265632407232
23559900 14 17761495790355861643
23569917 315 18341899567145460767
38695281 34 18410858729357903461
4340502 62 18272938198055785505
59755656 520 18341611499619790854
9981440 41 17902765515179910624

> <PUBCHEM_SHAPE_MULTIPOLES>
517.53
10.73
4.54
1.85
4.81
8.38
0.01
-7.39
-3.54
-3.38
1.6
-0.37
-0.95
-1.15

> <PUBCHEM_SHAPE_SELFOVERLAP>
1047.58

> <PUBCHEM_SHAPE_VOLUME>
299.2

> <PUBCHEM_COORDINATE_TYPE>
2
5
10

$$$$
