101247
  -OEChem-03292013323D

 35 36  0     1  0  0  0  0  0999 V2000
    1.0569   -0.8147   -0.2619 O   0  0  0  0  0  0  0  0  0  0  0  0
    3.0682    2.3222    1.5103 O   0  0  0  0  0  0  0  0  0  0  0  0
    4.5566    0.2223    0.2004 O   0  0  0  0  0  0  0  0  0  0  0  0
    2.2820   -3.0527   -1.2749 O   0  0  0  0  0  0  0  0  0  0  0  0
   -1.5039    1.9935   -1.8420 O   0  0  0  0  0  0  0  0  0  0  0  0
   -4.9467   -0.2068    0.2685 O   0  0  0  0  0  0  0  0  0  0  0  0
   -0.9582    0.3288   -0.2988 N   0  0  0  0  0  0  0  0  0  0  0  0
   -3.2112    0.8886   -0.7815 N   0  0  0  0  0  0  0  0  0  0  0  0
    2.5505    1.5428    0.4353 C   0  0  1  0  0  0  0  0  0  0  0  0
    3.1645    0.1425    0.4953 C   0  0  1  0  0  0  0  0  0  0  0  0
    1.0305    1.4681    0.5476 C   0  0  0  0  0  0  0  0  0  0  0  0
    0.4646    0.4690   -0.4544 C   0  0  1  0  0  0  0  0  0  0  0  0
    2.4690   -0.8039   -0.4918 C   0  0  1  0  0  0  0  0  0  0  0  0
    2.9712   -2.2365   -0.3455 C   0  0  0  0  0  0  0  0  0  0  0  0
   -1.4364   -0.6207    0.5954 C   0  0  0  0  0  0  0  0  0  0  0  0
   -1.8564    1.1328   -1.0329 C   0  0  0  0  0  0  0  0  0  0  0  0
   -2.7333   -0.8519    0.8334 C   0  0  0  0  0  0  0  0  0  0  0  0
   -3.7416   -0.0440    0.0969 C   0  0  0  0  0  0  0  0  0  0  0  0
   -3.2265   -1.8795    1.8006 C   0  0  0  0  0  0  0  0  0  0  0  0
    2.8329    2.0474   -0.4966 H   0  0  0  0  0  0  0  0  0  0  0  0
    3.0739   -0.2432    1.5184 H   0  0  0  0  0  0  0  0  0  0  0  0
    0.7685    1.1727    1.5730 H   0  0  0  0  0  0  0  0  0  0  0  0
    0.5934    2.4642    0.4062 H   0  0  0  0  0  0  0  0  0  0  0  0
    0.6724    0.8061   -1.4781 H   0  0  0  0  0  0  0  0  0  0  0  0
    2.6480   -0.4869   -1.5283 H   0  0  0  0  0  0  0  0  0  0  0  0
    2.7603   -2.6227    0.6573 H   0  0  0  0  0  0  0  0  0  0  0  0
    4.0451   -2.3076   -0.5424 H   0  0  0  0  0  0  0  0  0  0  0  0
    4.0367    2.3314    1.4230 H   0  0  0  0  0  0  0  0  0  0  0  0
    4.6506    0.5535   -0.7091 H   0  0  0  0  0  0  0  0  0  0  0  0
   -0.6965   -1.1897    1.1492 H   0  0  0  0  0  0  0  0  0  0  0  0
   -3.8767    1.4559   -1.2992 H   0  0  0  0  0  0  0  0  0  0  0  0
    2.6136   -3.9598   -1.1616 H   0  0  0  0  0  0  0  0  0  0  0  0
   -3.8240   -1.4081    2.5877 H   0  0  0  0  0  0  0  0  0  0  0  0
   -2.4031   -2.4155    2.2845 H   0  0  0  0  0  0  0  0  0  0  0  0
   -3.8487   -2.6200    1.2876 H   0  0  0  0  0  0  0  0  0  0  0  0
  1 12  1  0  0  0  0
  1 13  1  0  0  0  0
  2  9  1  0  0  0  0
  2 28  1  0  0  0  0
  3 10  1  0  0  0  0
  3 29  1  0  0  0  0
  4 14  1  0  0  0  0
  4 32  1  0  0  0  0
  5 16  2  0  0  0  0
  6 18  2  0  0  0  0
  7 12  1  0  0  0  0
  7 15  1  0  0  0  0
  7 16  1  0  0  0  0
  8 16  1  0  0  0  0
  8 18  1  0  0  0  0
  8 31  1  0  0  0  0
  9 10  1  0  0  0  0
  9 11  1  0  0  0  0
  9 20  1  0  0  0  0
 10 13  1  0  0  0  0
 10 21  1  0  0  0  0
 11 12  1  0  0  0  0
 11 22  1  0  0  0  0
 11 23  1  0  0  0  0
 12 24  1  0  0  0  0
 13 14  1  0  0  0  0
 13 25  1  0  0  0  0
 14 26  1  0  0  0  0
 14 27  1  0  0  0  0
 15 17  2  0  0  0  0
 15 30  1  0  0  0  0
 17 18  1  0  0  0  0
 17 19  1  0  0  0  0
 19 33  1  0  0  0  0
 19 34  1  0  0  0  0
 19 35  1  0  0  0  0
M  END
> <PUBCHEM_COMPOUND_CID>
101247

> <PUBCHEM_CONFORMER_RMSD>
0.6

> <PUBCHEM_CONFORMER_DIVERSEORDER>
1
25
9
15
14
22
23
18
26
11
7
21
12
24
2
6
16
5
19
20
17
10
8
4
13
3

> <PUBCHEM_MMFF94_PARTIAL_CHARGES>
23
1 -0.56
10 0.28
12 0.58
13 0.28
14 0.28
15 -0.04
16 0.69
17 -0.12
18 0.62
19 0.14
2 -0.68
28 0.4
29 0.4
3 -0.68
30 0.15
31 0.37
32 0.4
4 -0.68
5 -0.57
6 -0.57
7 -0.47
8 -0.49
9 0.28

> <PUBCHEM_EFFECTIVE_ROTOR_COUNT>
3.2

> <PUBCHEM_PHARMACOPHORE_FEATURES>
12
1 1 acceptor
1 2 acceptor
1 2 donor
1 3 acceptor
1 3 donor
1 4 acceptor
1 4 donor
1 5 acceptor
1 6 acceptor
1 8 donor
6 1 9 10 11 12 13 rings
6 7 8 15 16 17 18 rings

> <PUBCHEM_HEAVY_ATOM_COUNT>
19

> <PUBCHEM_ATOM_DEF_STEREO_COUNT>
4

> <PUBCHEM_ATOM_UDEF_STEREO_COUNT>
0

> <PUBCHEM_BOND_DEF_STEREO_COUNT>
0

> <PUBCHEM_BOND_UDEF_STEREO_COUNT>
0

> <PUBCHEM_ISOTOPIC_ATOM_COUNT>
0

> <PUBCHEM_COMPONENT_COUNT>
1

> <PUBCHEM_CACTVS_TAUTO_COUNT>
3

> <PUBCHEM_CONFORMER_ID>
00018B7F00000001

> <PUBCHEM_MMFF94_ENERGY>
44.3114

> <PUBCHEM_FEATURE_SELFOVERLAP>
60.91

> <PUBCHEM_SHAPE_FINGERPRINT>
10366900 7 18409448106766969728
1100329 8 14445732203802059651
11582403 64 16677171905330774548
11615757 297 17703792543434680856
12236239 1 16343985818643956489
12596602 18 16415472804849383651
13140716 1 18057591261133729306
13533116 47 18272660026220408939
13544592 145 18262242101770188215
13583140 156 17203323459870722819
14022347 108 17313115128969226769
14115302 16 14996284751292858929
14252887 29 18261965127787224859
14289901 80 18060416936981190667
14386348 63 18333172769055930195
14866123 147 16685422339853316802
15219456 202 18409724058437012189
15375358 24 18334290985334852051
15635459 17 18410295778761397546
15653759 3 18186514423427842792
16752209 62 16805878507858951117
17834074 16 18335424564521920083
19049666 15 18264482884549654060
19141452 34 18336271227905687827
200 152 17989201560318174561
20279233 1 18335143098203748323
20600515 1 17530962514505397877
20645477 70 18272650108471210902
20693207 138 18192160299751620326
22943178 12 18335134263471721357
23402539 116 17603859039772130567
23526113 38 18266732489835530730
23557571 272 18040714753552668973
23559900 14 18113617842157320590
2748010 2 18334853896422441375
31174 14 18343865498155771716
474 4 16557040476318761472
495365 180 18130211740072997105
5902787 121 17024031651932145353
6049 1 18335703793230767596
621550 34 18410848901766244709
77492 1 16343701045169331189
81228 2 17894919490540767693
8272917 22 17988932140966679727
9709674 26 18335139773951951591

> <PUBCHEM_SHAPE_MULTIPOLES>
345.83
7.95
2.42
1.32
2.27
0.89
0.05
1.19
1.49
-1.59
-0.3
0.28
-0.08
2.54

> <PUBCHEM_SHAPE_SELFOVERLAP>
720.452

> <PUBCHEM_SHAPE_VOLUME>
194.5

> <PUBCHEM_COORDINATE_TYPE>
2
5
10

$$$$
