REMARK  Name = 101232079
REMARK  8 active torsions:
REMARK  status: ('A' for Active; 'I' for Inactive)
REMARK    1  A    between atoms: N_1  and  C_36
REMARK    2  A    between atoms: C_3  and  O_22
REMARK    3  A    between atoms: C_6  and  O_24
REMARK    4  A    between atoms: C_8  and  O_26
REMARK    5  A    between atoms: C_9  and  O_28
REMARK    6  A    between atoms: C_11  and  O_30
REMARK    7  A    between atoms: C_14  and  O_32
REMARK    8  A    between atoms: C_18  and  O_34
REMARK                            x       y       z     vdW  Elec       q    Type
REMARK                         _______ _______ _______ _____ _____    ______ ____
ROOT
ATOM      1  N   UNL     1       1.790  -0.670  -1.552  0.00  0.00    +0.390 N 
ATOM      2  C   UNL     1       0.771  -0.428   0.699  0.00  0.00    +0.035 C 
ATOM      3  C   UNL     1      -0.632  -0.318   1.458  0.00  0.00    +0.093 C 
ATOM      4  C   UNL     1       1.651   0.881   0.818  0.00  0.00    +0.030 C 
ATOM      5  C   UNL     1       0.530  -0.370  -0.838  0.00  0.00    -0.023 C 
ATOM      6  C   UNL     1      -0.040   1.087  -0.953  0.00  0.00    +0.119 C 
ATOM      7  C   UNL     1      -1.562   0.858   1.068  0.00  0.00    +0.079 C 
ATOM      8  C   UNL     1      -1.510   1.168  -0.442  0.00  0.00    +0.118 C 
ATOM      9  C   UNL     1       0.948   1.928  -0.095  0.00  0.00    +0.140 C 
ATOM     10  C   UNL     1       3.072   0.604   0.222  0.00  0.00    -0.016 C 
ATOM     11  C   UNL     1       1.540  -1.695   1.241  0.00  0.00    +0.116 C 
ATOM     12  C   UNL     1      -1.571  -1.553   1.296  0.00  0.00    +0.032 C 
ATOM     13  C   UNL     1      -2.952  -1.012   0.883  0.00  0.00    +0.057 C 
ATOM     14  C   UNL     1      -2.949   0.370   1.513  0.00  0.00    +0.117 C 
ATOM     15  C   UNL     1      -2.505   0.333  -1.295  0.00  0.00    +0.059 C 
ATOM     16  C   UNL     1       2.920   0.233  -1.289  0.00  0.00    -0.077 C 
ATOM     17  C   UNL     1       3.754  -0.532   1.010  0.00  0.00    +0.001 C 
ATOM     18  C   UNL     1      -3.072  -0.943  -0.650  0.00  0.00    +0.120 C 
ATOM     19  C   UNL     1       3.016  -1.843   0.894  0.00  0.00    +0.029 C 
ATOM     20  C   UNL     1       3.992   1.838   0.363  0.00  0.00    -0.002 C 
ATOM     21  H   UNL     1       2.068  -1.549  -1.114  0.00  0.00    -0.080 HD
ENDROOT
BRANCH   3  22
ATOM     22  O   UNL     1      -0.372  -0.134   2.863  0.00  0.00    -0.387 OA
ATOM     23  H   UNL     1       0.211   0.631   2.986  0.00  0.00    +0.210 HD
ENDBRANCH   3  22
BRANCH   6  24
ATOM     24  O   UNL     1      -0.013   1.541  -2.302  0.00  0.00    -0.384 OA
ATOM     25  H   UNL     1      -0.631   1.014  -2.833  0.00  0.00    +0.210 HD
ENDBRANCH   6  24
BRANCH   8  26
ATOM     26  O   UNL     1      -1.929   2.540  -0.613  0.00  0.00    -0.384 OA
ATOM     27  H   UNL     1      -1.345   3.123  -0.103  0.00  0.00    +0.210 HD
ENDBRANCH   8  26
BRANCH   9  28
ATOM     28  O   UNL     1       0.364   2.962   0.679  0.00  0.00    -0.351 OA
ATOM     29  C   UNL     1       1.329   3.925   1.085  0.00  0.00    +0.174 C 
ENDBRANCH   9  28
BRANCH  11  30
ATOM     30  O   UNL     1       0.918  -2.917   0.853  0.00  0.00    -0.354 OA
ATOM     31  C   UNL     1       1.124  -3.933   1.823  0.00  0.00    +0.174 C 
ENDBRANCH  11  30
BRANCH  14  32
ATOM     32  O   UNL     1      -4.002   1.202   1.077  0.00  0.00    -0.384 OA
ATOM     33  H   UNL     1      -3.937   2.064   1.518  0.00  0.00    +0.210 HD
ENDBRANCH  14  32
BRANCH  18  34
ATOM     34  O   UNL     1      -4.461  -1.039  -0.987  0.00  0.00    -0.353 OA
ATOM     35  C   UNL     1      -4.634  -1.554  -2.296  0.00  0.00    +0.174 C 
ENDBRANCH  18  34
BRANCH   1  36
ATOM     36  C   UNL     1       1.620  -0.939  -2.973  0.00  0.00    -0.077 C 
ATOM     37  C   UNL     1       2.861  -1.590  -3.560  0.00  0.00    -0.025 C 
ENDBRANCH   1  36
TORSDOF 8
