101282616
  -OEChem-03292013293D

 49 49  0     1  0  0  0  0  0999 V2000
   -1.8306   -0.9182    1.5956 O   0  0  0  0  0  0  0  0  0  0  0  0
   -1.1932    3.1415   -0.7132 O   0  0  0  0  0  0  0  0  0  0  0  0
    0.4551    3.6035    0.7634 O   0  0  0  0  0  0  0  0  0  0  0  0
   -1.3566    0.6057   -0.0869 N   0  0  0  0  0  0  0  0  0  0  0  0
   -3.1333   -2.4865   -0.2356 N   0  0  0  0  0  0  0  0  0  0  0  0
    4.3292   -1.4465    2.0007 N   0  0  0  0  0  0  0  0  0  0  0  0
    1.4442    0.7770   -1.1663 C   0  0  0  0  0  0  0  0  0  0  0  0
    1.0660    0.6921    0.3152 C   0  0  0  0  0  0  0  0  0  0  0  0
    2.7892    0.1196   -1.4346 C   0  0  0  0  0  0  0  0  0  0  0  0
   -0.3051    1.3120    0.6077 C   0  0  1  0  0  0  0  0  0  0  0  0
   -3.0959   -1.0411   -0.4706 C   0  0  1  0  0  0  0  0  0  0  0  0
   -4.4941   -0.4060   -0.2833 C   0  0  0  0  0  0  0  0  0  0  0  0
   -2.0405   -0.4642    0.4721 C   0  0  0  0  0  0  0  0  0  0  0  0
    2.7123   -1.3562   -1.1338 C   0  0  0  0  0  0  0  0  0  0  0  0
    3.8732    0.8255   -0.6594 C   0  0  0  0  0  0  0  0  0  0  0  0
    4.5594   -1.2571    0.5643 C   0  0  0  0  0  0  0  0  0  0  0  0
   -5.0648   -0.6864    1.1104 C   0  0  0  0  0  0  0  0  0  0  0  0
   -4.5377    1.0997   -0.5668 C   0  0  0  0  0  0  0  0  0  0  0  0
    3.4987   -1.9690   -0.2367 C   0  0  0  0  0  0  0  0  0  0  0  0
    4.6592    0.2114    0.2375 C   0  0  0  0  0  0  0  0  0  0  0  0
   -0.3001    2.7893    0.2425 C   0  0  0  0  0  0  0  0  0  0  0  0
   -2.0346   -3.1459   -0.9222 C   0  0  0  0  0  0  0  0  0  0  0  0
    1.4838    1.8255   -1.4873 H   0  0  0  0  0  0  0  0  0  0  0  0
    0.6746    0.2946   -1.7823 H   0  0  0  0  0  0  0  0  0  0  0  0
    1.8118    1.2089    0.9306 H   0  0  0  0  0  0  0  0  0  0  0  0
    1.0443   -0.3518    0.6495 H   0  0  0  0  0  0  0  0  0  0  0  0
    3.0234    0.2259   -2.5016 H   0  0  0  0  0  0  0  0  0  0  0  0
   -0.5138    1.2530    1.6826 H   0  0  0  0  0  0  0  0  0  0  0  0
   -2.7977   -0.8467   -1.5102 H   0  0  0  0  0  0  0  0  0  0  0  0
   -5.1694   -0.8797   -1.0099 H   0  0  0  0  0  0  0  0  0  0  0  0
   -1.5925    0.9089   -1.0274 H   0  0  0  0  0  0  0  0  0  0  0  0
    4.0222    1.8854   -0.8491 H   0  0  0  0  0  0  0  0  0  0  0  0
    1.9824   -1.9467   -1.6816 H   0  0  0  0  0  0  0  0  0  0  0  0
    5.5240   -1.7162    0.3142 H   0  0  0  0  0  0  0  0  0  0  0  0
   -3.9749    1.6691    0.1797 H   0  0  0  0  0  0  0  0  0  0  0  0
   -5.5706    1.4641   -0.5513 H   0  0  0  0  0  0  0  0  0  0  0  0
   -5.1330   -1.7584    1.3194 H   0  0  0  0  0  0  0  0  0  0  0  0
   -6.0795   -0.2804    1.1930 H   0  0  0  0  0  0  0  0  0  0  0  0
   -4.4630   -0.2201    1.8971 H   0  0  0  0  0  0  0  0  0  0  0  0
   -4.1214    1.3205   -1.5550 H   0  0  0  0  0  0  0  0  0  0  0  0
   -4.0085   -2.8678   -0.5952 H   0  0  0  0  0  0  0  0  0  0  0  0
    3.3832   -3.0397   -0.0864 H   0  0  0  0  0  0  0  0  0  0  0  0
    5.4236    0.7933    0.7467 H   0  0  0  0  0  0  0  0  0  0  0  0
   -1.0587   -2.7964   -0.5698 H   0  0  0  0  0  0  0  0  0  0  0  0
   -2.0927   -3.0078   -2.0071 H   0  0  0  0  0  0  0  0  0  0  0  0
   -2.0807   -4.2217   -0.7245 H   0  0  0  0  0  0  0  0  0  0  0  0
    4.3534   -2.4426    2.2194 H   0  0  0  0  0  0  0  0  0  0  0  0
    5.1024   -1.0365    2.5249 H   0  0  0  0  0  0  0  0  0  0  0  0
   -1.1517    4.0997   -0.9188 H   0  0  0  0  0  0  0  0  0  0  0  0
  1 13  2  0  0  0  0
  2 21  1  0  0  0  0
  2 49  1  0  0  0  0
  3 21  2  0  0  0  0
  4 10  1  0  0  0  0
  4 13  1  0  0  0  0
  4 31  1  0  0  0  0
  5 11  1  0  0  0  0
  5 22  1  0  0  0  0
  5 41  1  0  0  0  0
  6 16  1  0  0  0  0
  6 47  1  0  0  0  0
  6 48  1  0  0  0  0
  7  8  1  0  0  0  0
  7  9  1  0  0  0  0
  7 23  1  0  0  0  0
  7 24  1  0  0  0  0
  8 10  1  0  0  0  0
  8 25  1  0  0  0  0
  8 26  1  0  0  0  0
  9 14  1  0  0  0  0
  9 15  1  0  0  0  0
  9 27  1  0  0  0  0
 10 21  1  0  0  0  0
 10 28  1  0  0  0  0
 11 12  1  0  0  0  0
 11 13  1  0  0  0  0
 11 29  1  0  0  0  0
 12 17  1  0  0  0  0
 12 18  1  0  0  0  0
 12 30  1  0  0  0  0
 14 19  2  0  0  0  0
 14 33  1  0  0  0  0
 15 20  2  0  0  0  0
 15 32  1  0  0  0  0
 16 19  1  0  0  0  0
 16 20  1  0  0  0  0
 16 34  1  0  0  0  0
 17 37  1  0  0  0  0
 17 38  1  0  0  0  0
 17 39  1  0  0  0  0
 18 35  1  0  0  0  0
 18 36  1  0  0  0  0
 18 40  1  0  0  0  0
 19 42  1  0  0  0  0
 20 43  1  0  0  0  0
 22 44  1  0  0  0  0
 22 45  1  0  0  0  0
 22 46  1  0  0  0  0
M  END
> <PUBCHEM_COMPOUND_CID>
101282616

> <PUBCHEM_CONFORMER_RMSD>
1

> <PUBCHEM_CONFORMER_DIVERSEORDER>
1
21
42
40
26
29
16
24
51
27
46
39
9
36
56
41
10
37
19
32
53
18
6
28
48
55
50
44
4
47
35
52
25
54
14
13
20
49
7
22
23
15
45
31
30
38
12
8
43
11
17
33
2
34
3
5

> <PUBCHEM_MMFF94_PARTIAL_CHARGES>
26
1 -0.57
10 0.36
11 0.33
13 0.57
14 -0.29
15 -0.29
16 0.55
19 -0.29
2 -0.65
20 -0.29
21 0.66
22 0.27
3 -0.57
31 0.37
32 0.15
33 0.15
4 -0.73
41 0.36
42 0.15
43 0.15
47 0.36
48 0.36
49 0.5
5 -0.9
6 -0.99
9 0.28

> <PUBCHEM_EFFECTIVE_ROTOR_COUNT>
9.4

> <PUBCHEM_PHARMACOPHORE_FEATURES>
11
1 1 acceptor
1 2 acceptor
1 3 acceptor
1 4 donor
1 5 cation
1 5 donor
1 6 cation
1 6 donor
3 12 17 18 hydrophobe
3 2 3 21 anion
6 9 14 15 16 19 20 rings

> <PUBCHEM_HEAVY_ATOM_COUNT>
22

> <PUBCHEM_ATOM_DEF_STEREO_COUNT>
2

> <PUBCHEM_ATOM_UDEF_STEREO_COUNT>
0

> <PUBCHEM_BOND_DEF_STEREO_COUNT>
0

> <PUBCHEM_BOND_UDEF_STEREO_COUNT>
0

> <PUBCHEM_ISOTOPIC_ATOM_COUNT>
0

> <PUBCHEM_COMPONENT_COUNT>
1

> <PUBCHEM_CACTVS_TAUTO_COUNT>
2

> <PUBCHEM_CONFORMER_ID>
0609733800000001

> <PUBCHEM_MMFF94_ENERGY>
25.276

> <PUBCHEM_FEATURE_SELFOVERLAP>
55.881

> <PUBCHEM_SHAPE_FINGERPRINT>
10090160 65 17898857009505493740
10366900 7 16415483752895334858
11265709 11 18410863152694527612
12422481 6 17977970998386750737
12553582 1 18270700730199969942
12633257 1 18271531982898090863
12788726 201 18335991869830817920
13004483 165 18336257964429187276
13931106 250 18266735788185791316
14178342 30 18049718517392612138
14251757 17 14274000075386656594
17492 89 18264490581632643674
20511986 3 18187914093466841734
20600515 1 18060148638858889481
20626108 58 18127681832484570598
20715895 44 18191581944072040685
21250096 35 18411139155719138974
21285901 2 18269844133749298549
21304303 282 17470694760024175556
21315764 371 15123503748310791823
23366157 5 17975412730818058325
23557571 272 17988084383590422796
23559900 14 18341614785449094284
2637199 183 9439411241712958868
3004659 81 18187650184838086022
314173 41 18269849746807219854
339767 52 18341888614988632238
34934 24 18341053011915726918
463206 1 18334857276784016098
5283173 99 18261667061041334493
7164475 11 18263650571849420156
81228 2 18194705694850190584
9709674 26 18126851486862962582

> <PUBCHEM_SHAPE_MULTIPOLES>
420.2
10.35
3.29
1.31
0.48
1.42
-0.26
-4.68
-1.32
1.03
0.19
-0.67
-0.32
-0.42

> <PUBCHEM_SHAPE_SELFOVERLAP>
836.246

> <PUBCHEM_SHAPE_VOLUME>
247.1

> <PUBCHEM_COORDINATE_TYPE>
2
5
10

$$$$
