REMARK  Name = 101285961
REMARK  5 active torsions:
REMARK  status: ('A' for Active; 'I' for Inactive)
REMARK    1  A    between atoms: C_10  and  C_25
REMARK    2  A    between atoms: C_15  and  O_35
REMARK    3  A    between atoms: C_16  and  O_37
REMARK    4  A    between atoms: C_23  and  N_29
REMARK    5  A    between atoms: C_26  and  O_33
REMARK                            x       y       z     vdW  Elec       q    Type
REMARK                         _______ _______ _______ _____ _____    ______ ____
ROOT
ATOM      1  O   UNL     1      -5.128   1.720   0.405  0.00  0.00    -0.350 OA
ATOM      2  O   UNL     1      -5.206  -1.251   0.464  0.00  0.00    -0.445 OA
ATOM      3  O   UNL     1       1.316   1.687   0.623  0.00  0.00    -0.287 OA
ATOM      4  O   UNL     1      -7.239  -1.487   1.498  0.00  0.00    -0.250 OA
ATOM      5  O   UNL     1      -0.315  -3.179  -0.866  0.00  0.00    -0.286 OA
ATOM      6  C   UNL     1      -4.691  -0.444  -0.608  0.00  0.00    +0.221 C 
ATOM      7  C   UNL     1      -5.563   0.797  -0.596  0.00  0.00    +0.171 C 
ATOM      8  C   UNL     1      -3.232  -0.174  -0.383  0.00  0.00    +0.055 A 
ATOM      9  C   UNL     1      -2.800   1.100   0.016  0.00  0.00    +0.041 A 
ATOM     10  C   UNL     1       1.895  -0.547   0.087  0.00  0.00    +0.047 C 
ATOM     11  C   UNL     1      -3.799   2.217   0.203  0.00  0.00    +0.140 C 
ATOM     12  C   UNL     1      -6.906   0.244  -0.166  0.00  0.00    +0.143 C 
ATOM     13  C   UNL     1      -0.500   0.304   0.052  0.00  0.00    +0.078 A 
ATOM     14  C   UNL     1      -0.932  -0.962  -0.338  0.00  0.00    +0.078 A 
ATOM     15  C   UNL     1      -2.294  -1.202  -0.553  0.00  0.00    +0.136 A 
ATOM     16  C   UNL     1      -1.432   1.333   0.229  0.00  0.00    +0.135 A 
ATOM     17  C   UNL     1       0.934   0.573   0.282  0.00  0.00    +0.197 C 
ATOM     18  C   UNL     1       1.463  -1.756  -0.287  0.00  0.00    +0.043 C 
ATOM     19  C   UNL     1      -6.508  -0.912   0.707  0.00  0.00    +0.320 C 
ATOM     20  C   UNL     1       0.037  -2.056  -0.525  0.00  0.00    +0.199 C 
ATOM     21  C   UNL     1      -3.761   3.233  -0.938  0.00  0.00    +0.037 C 
ENDROOT
BRANCH  10  25
ATOM     22  O   UNL     1       3.950  -1.442   0.826  0.00  0.00    -0.352 OA
ATOM     23  C   UNL     1       5.527   0.398  -0.793  0.00  0.00    -0.026 C 
ATOM     24  C   UNL     1       4.017   0.193  -0.972  0.00  0.00    +0.016 C 
ATOM     25  C   UNL     1       3.341  -0.251   0.327  0.00  0.00    +0.139 C 
ATOM     26  C   UNL     1       6.153  -0.799  -0.058  0.00  0.00    +0.119 C 
ATOM     27  C   UNL     1       5.344  -1.330   1.137  0.00  0.00    +0.140 C 
ATOM     28  C   UNL     1       5.558  -0.565   2.440  0.00  0.00    +0.035 C 
BRANCH  23  29
ATOM     29  N   UNL     1       5.792   1.665  -0.113  0.00  0.00    +0.387 N 
ATOM     30  C   UNL     1       5.260   2.782  -0.891  0.00  0.00    -0.101 C 
ATOM     31  C   UNL     1       7.227   1.833   0.110  0.00  0.00    -0.101 C 
ATOM     32  H   UNL     1       5.324   1.652   0.793  0.00  0.00    -0.080 HD
ENDBRANCH  23  29
BRANCH  26  33
ATOM     33  O   UNL     1       6.280  -1.869  -1.008  0.00  0.00    -0.384 OA
ATOM     34  H   UNL     1       6.788  -1.562  -1.775  0.00  0.00    +0.210 HD
ENDBRANCH  26  33
ENDBRANCH  10  25
BRANCH  15  35
ATOM     35  O   UNL     1      -2.747  -2.434  -0.934  0.00  0.00    -0.506 OA
ATOM     36  H   UNL     1      -3.663  -2.574  -1.073  0.00  0.00    +0.292 HD
ENDBRANCH  15  35
BRANCH  16  37
ATOM     37  O   UNL     1      -1.041   2.581   0.625  0.00  0.00    -0.506 OA
ATOM     38  H   UNL     1      -1.679   3.258   0.738  0.00  0.00    +0.292 HD
ENDBRANCH  16  37
TORSDOF 5
