REMARK  Name = 101235519
REMARK  4 active torsions:
REMARK  status: ('A' for Active; 'I' for Inactive)
REMARK    1  A    between atoms: C_13  and  C_22
REMARK    2  A    between atoms: C_22  and  O_24
REMARK    3  A    between atoms: C_22  and  C_26
REMARK    4  A    between atoms: C_26  and  S_27
REMARK                            x       y       z     vdW  Elec       q    Type
REMARK                         _______ _______ _______ _____ _____    ______ ____
ROOT
ATOM      1  O   UNL     1       0.847  -0.739  -0.848  0.00  0.00    -0.345 OA
ATOM      2  O   UNL     1      -2.197  -2.038   0.812  0.00  0.00    -0.449 OA
ATOM      3  O   UNL     1       2.361   1.837   0.250  0.00  0.00    -0.444 OA
ATOM      4  O   UNL     1      -4.447  -2.073   1.277  0.00  0.00    -0.250 OA
ATOM      5  O   UNL     1       2.039   3.845  -0.749  0.00  0.00    -0.245 OA
ATOM      6  C   UNL     1       0.571   0.234   0.172  0.00  0.00    +0.175 C 
ATOM      7  C   UNL     1       0.008  -1.179   0.232  0.00  0.00    +0.187 C 
ATOM      8  C   UNL     1      -2.150  -0.281  -0.719  0.00  0.00    +0.060 C 
ATOM      9  C   UNL     1      -1.865   1.021   0.114  0.00  0.00    +0.026 C 
ATOM     10  C   UNL     1      -1.375  -1.496  -0.235  0.00  0.00    +0.200 C 
ATOM     11  C   UNL     1      -0.373   1.354  -0.042  0.00  0.00    -0.008 C 
ATOM     12  C   UNL     1      -3.601  -0.776  -0.624  0.00  0.00    +0.111 C 
ATOM     13  C   UNL     1       1.800   0.671   0.921  0.00  0.00    +0.225 C 
ATOM     14  C   UNL     1      -2.842   2.106  -0.423  0.00  0.00    +0.030 C 
ATOM     15  C   UNL     1      -2.101   0.900   1.649  0.00  0.00    +0.005 C 
ATOM     16  C   UNL     1      -3.512  -1.685   0.594  0.00  0.00    +0.320 C 
ATOM     17  C   UNL     1      -4.605   0.333  -0.461  0.00  0.00    -0.021 C 
ATOM     18  C   UNL     1       0.112   2.584  -0.275  0.00  0.00    +0.076 C 
ATOM     19  C   UNL     1      -3.999  -1.635  -1.835  0.00  0.00    +0.016 C 
ATOM     20  C   UNL     1      -4.270   1.631  -0.421  0.00  0.00    -0.030 C 
ATOM     21  C   UNL     1       1.573   2.809  -0.286  0.00  0.00    +0.341 C 
ENDROOT
BRANCH  13  22
ATOM     22  C   UNL     1       2.919  -0.357   1.026  0.00  0.00    +0.140 C 
ATOM     23  C   UNL     1       4.131   0.269   1.726  0.00  0.00    +0.034 C 
BRANCH  22  24
ATOM     24  O   UNL     1       2.451  -1.432   1.849  0.00  0.00    -0.382 OA
ATOM     25  H   UNL     1       1.682  -1.849   1.431  0.00  0.00    +0.210 HD
ENDBRANCH  22  24
BRANCH  22  26
ATOM     26  C   UNL     1       3.258  -0.897  -0.376  0.00  0.00    +0.122 C 
BRANCH  26  27
ATOM     27  S   UNL     1       4.898  -1.686  -0.484  0.00  0.00    +0.045 S 
ATOM     28  O   UNL     1       5.864  -0.627  -0.911  0.00  0.00    -0.256 OA
ATOM     29  C   UNL     1       4.504  -2.692  -1.934  0.00  0.00    +0.106 C 
ENDBRANCH  26  27
ENDBRANCH  22  26
ENDBRANCH  13  22
TORSDOF 4
