REMARK  Name = 101232181
REMARK  8 active torsions:
REMARK  status: ('A' for Active; 'I' for Inactive)
REMARK    1  A    between atoms: C_1  and  O_2
REMARK    2  A    between atoms: C_1  and  C_4
REMARK    3  A    between atoms: C_1  and  C_15
REMARK    4  A    between atoms: C_4  and  C_7
REMARK    5  A    between atoms: C_4  and  O_13
REMARK    6  A    between atoms: C_8  and  O_11
REMARK    7  A    between atoms: C_15  and  C_16
REMARK    8  A    between atoms: C_15  and  O_22
REMARK                            x       y       z     vdW  Elec       q    Type
REMARK                         _______ _______ _______ _____ _____    ______ ____
ROOT
ATOM      1  C   UNL     1      -0.108   0.514  -0.227  0.00  0.00    +0.172 C 
ENDROOT
BRANCH   1   2
ATOM      2  O   UNL     1      -0.190   1.042  -1.556  0.00  0.00    -0.379 OA
ATOM      3  H   UNL     1       0.576   0.743  -2.071  0.00  0.00    +0.211 HD
ENDBRANCH   1   2
BRANCH   1   4
ATOM      4  C   UNL     1       1.240   0.948   0.378  0.00  0.00    +0.183 C 
BRANCH   4   7
ATOM      5  O   UNL     1       2.250  -0.843  -0.870  0.00  0.00    -0.447 OA
ATOM      6  O   UNL     1       2.998  -2.881  -0.133  0.00  0.00    -0.250 OA
ATOM      7  C   UNL     1       2.426   0.531  -0.480  0.00  0.00    +0.225 C 
ATOM      8  C   UNL     1       3.744   0.544   0.268  0.00  0.00    +0.164 C 
ATOM      9  C   UNL     1       3.828  -0.840   0.874  0.00  0.00    +0.142 C 
ATOM     10  C   UNL     1       3.010  -1.661  -0.080  0.00  0.00    +0.320 C 
BRANCH   8  11
ATOM     11  O   UNL     1       4.819   0.722  -0.655  0.00  0.00    -0.380 OA
ATOM     12  H   UNL     1       4.767   1.608  -1.045  0.00  0.00    +0.211 HD
ENDBRANCH   8  11
ENDBRANCH   4   7
BRANCH   4  13
ATOM     13  O   UNL     1       1.261   2.367   0.525  0.00  0.00    -0.378 OA
ATOM     14  H   UNL     1       2.110   2.640   0.906  0.00  0.00    +0.211 HD
ENDBRANCH   4  13
ENDBRANCH   1   4
BRANCH   1  15
ATOM     15  C   UNL     1      -1.339   1.010   0.559  0.00  0.00    +0.162 C 
BRANCH  15  16
ATOM     16  C   UNL     1      -2.621   0.288   0.220  0.00  0.00    +0.007 C 
ATOM     17  C   UNL     1      -3.441   0.765  -0.803  0.00  0.00    -0.002 C 
ATOM     18  C   UNL     1      -2.986  -0.856   0.929  0.00  0.00    -0.002 C 
ATOM     19  C   UNL     1      -4.625   0.098  -1.117  0.00  0.00    -0.000 C 
ATOM     20  C   UNL     1      -4.170  -1.524   0.616  0.00  0.00    -0.000 C 
ATOM     21  C   UNL     1      -4.990  -1.046  -0.407  0.00  0.00    -0.000 C 
ENDBRANCH  15  16
BRANCH  15  22
ATOM     22  O   UNL     1      -1.106   0.821   1.959  0.00  0.00    -0.377 OA
ATOM     23  H   UNL     1      -0.287   1.273   2.215  0.00  0.00    +0.211 HD
ENDBRANCH  15  22
ENDBRANCH   1  15
TORSDOF 8
