REMARK  Name = 101286218
REMARK  6 active torsions:
REMARK  status: ('A' for Active; 'I' for Inactive)
REMARK    1  A    between atoms: C_5  and  C_23
REMARK    2  A    between atoms: C_11  and  O_17
REMARK    3  A    between atoms: C_13  and  O_19
REMARK    4  A    between atoms: C_15  and  O_21
REMARK    5  A    between atoms: C_23  and  O_24
REMARK    6  A    between atoms: C_23  and  C_26
REMARK                            x       y       z     vdW  Elec       q    Type
REMARK                         _______ _______ _______ _____ _____    ______ ____
ROOT
ATOM      1  O   UNL     1       0.195  -2.590  -0.206  0.00  0.00    -0.287 OA
ATOM      2  O   UNL     1       1.204   2.651   0.065  0.00  0.00    -0.286 OA
ATOM      3  C   UNL     1      -0.680  -0.411  -0.163  0.00  0.00    +0.045 C 
ATOM      4  C   UNL     1      -0.417   0.959  -0.093  0.00  0.00    +0.076 C 
ATOM      5  C   UNL     1      -3.053   0.053  -0.276  0.00  0.00    +0.007 C 
ATOM      6  C   UNL     1      -2.002  -0.863  -0.255  0.00  0.00    +0.002 C 
ATOM      7  C   UNL     1       2.080   0.472   0.027  0.00  0.00    +0.076 C 
ATOM      8  C   UNL     1       1.816  -0.897  -0.044  0.00  0.00    +0.048 C 
ATOM      9  C   UNL     1       0.426  -1.389  -0.142  0.00  0.00    +0.196 C 
ATOM     10  C   UNL     1       0.973   1.450   0.004  0.00  0.00    +0.202 C 
ATOM     11  C   UNL     1      -1.475   1.876  -0.114  0.00  0.00    +0.137 C 
ATOM     12  C   UNL     1      -2.790   1.420  -0.206  0.00  0.00    +0.035 C 
ATOM     13  C   UNL     1       3.401   0.925   0.119  0.00  0.00    +0.140 C 
ATOM     14  C   UNL     1       2.874  -1.814  -0.022  0.00  0.00    +0.040 C 
ATOM     15  C   UNL     1       4.189  -1.359   0.070  0.00  0.00    +0.137 C 
ATOM     16  C   UNL     1       4.452   0.008   0.141  0.00  0.00    +0.073 C 
ENDROOT
BRANCH  11  17
ATOM     17  O   UNL     1      -1.289   3.225  -0.049  0.00  0.00    -0.505 OA
ATOM     18  H   UNL     1      -0.423   3.576   0.013  0.00  0.00    +0.292 HD
ENDBRANCH  11  17
BRANCH  13  19
ATOM     19  O   UNL     1       3.730   2.246   0.192  0.00  0.00    -0.505 OA
ATOM     20  H   UNL     1       3.057   2.898   0.181  0.00  0.00    +0.292 HD
ENDBRANCH  13  19
BRANCH  15  21
ATOM     21  O   UNL     1       5.218  -2.251   0.092  0.00  0.00    -0.505 OA
ATOM     22  H   UNL     1       5.042  -3.170   0.045  0.00  0.00    +0.292 HD
ENDBRANCH  15  21
BRANCH   5  23
ATOM     23  C   UNL     1      -4.461  -0.430  -0.373  0.00  0.00    +0.133 C 
BRANCH  23  24
ATOM     24  O   UNL     1      -4.637  -1.091  -1.634  0.00  0.00    -0.380 OA
ATOM     25  H   UNL     1      -4.379  -0.492  -2.352  0.00  0.00    +0.211 HD
ENDBRANCH  23  24
BRANCH  23  26
ATOM     26  C   UNL     1      -4.881  -1.412   0.741  0.00  0.00    +0.034 C 
ATOM     27  C   UNL     1      -4.874  -0.780   2.125  0.00  0.00    +0.003 C 
ENDBRANCH  23  26
ENDBRANCH   5  23
TORSDOF 6
