REMARK  Name = 10124
REMARK  3 active torsions:
REMARK  status: ('A' for Active; 'I' for Inactive)
REMARK    1  A    between atoms: S_1  and  C_7
REMARK    2  A    between atoms: S_1  and  C_12
REMARK    3  A    between atoms: C_17  and  N_18
REMARK                            x       y       z     vdW  Elec       q    Type
REMARK                         _______ _______ _______ _____ _____    ______ ____
ROOT
ATOM      1  S   UNL     1       0.323   1.572  -0.374  0.00  0.00    +0.035 S 
ATOM      2  O   UNL     1       0.465   1.844  -1.794  0.00  0.00    -0.164 OA
ATOM      3  O   UNL     1       0.362   2.644   0.608  0.00  0.00    -0.164 OA
ENDROOT
BRANCH   1   7
ATOM      4  S   UNL     1       2.017  -0.745  -0.990  0.00  0.00    -0.033 S 
ATOM      5  N   UNL     1       3.514  -0.469   1.099  0.00  0.00    -0.222 NA
ATOM      6  N   UNL     1       4.069  -2.291  -0.303  0.00  0.00    -0.337 N 
ATOM      7  C   UNL     1       1.708   0.529   0.088  0.00  0.00    +0.161 C 
ATOM      8  C   UNL     1       2.571   0.540   1.124  0.00  0.00    +0.126 C 
ATOM      9  C   UNL     1       3.317  -1.208   0.030  0.00  0.00    +0.158 C 
ATOM     10  H   UNL     1       3.866  -2.799  -1.121  0.00  0.00    +0.144 HD
ATOM     11  H   UNL     1       4.818  -2.566   0.274  0.00  0.00    +0.144 HD
ENDBRANCH   1   7
BRANCH   1  12
ATOM     12  C   UNL     1      -1.128   0.627  -0.154  0.00  0.00    +0.111 C 
ATOM     13  C   UNL     1      -1.625  -0.144  -1.205  0.00  0.00    +0.020 C 
ATOM     14  C   UNL     1      -1.791   0.642   1.073  0.00  0.00    +0.020 C 
ATOM     15  C   UNL     1      -2.785  -0.899  -1.029  0.00  0.00    +0.015 C 
ATOM     16  C   UNL     1      -2.950  -0.113   1.250  0.00  0.00    +0.015 C 
ATOM     17  C   UNL     1      -3.447  -0.883   0.199  0.00  0.00    +0.042 C 
BRANCH  17  18
ATOM     18  N   UNL     1      -4.619  -1.647   0.377  0.00  0.00    -0.357 N 
ATOM     19  H   UNL     1      -4.970  -2.191  -0.365  0.00  0.00    +0.142 HD
ATOM     20  H   UNL     1      -5.087  -1.636   1.243  0.00  0.00    +0.142 HD
ENDBRANCH  17  18
ENDBRANCH   1  12
TORSDOF 3
