101239158
  -OEChem-03292013293D

 76 81  0     1  0  0  0  0  0999 V2000
    1.5810   -2.7148    0.3829 O   0  0  0  0  0  0  0  0  0  0  0  0
    0.2266    3.1332   -0.0318 O   0  0  0  0  0  0  0  0  0  0  0  0
   -4.4108    1.6592   -1.3761 O   0  0  0  0  0  0  0  0  0  0  0  0
   -3.9778   -1.3932   -1.7332 O   0  0  0  0  0  0  0  0  0  0  0  0
   -5.0215   -0.3662    0.5109 O   0  0  0  0  0  0  0  0  0  0  0  0
    4.6498    1.5423   -0.0867 O   0  0  0  0  0  0  0  0  0  0  0  0
    4.0539   -1.1328   -1.9465 O   0  0  0  0  0  0  0  0  0  0  0  0
    1.4213    0.4924    1.8613 N   0  0  2  0  0  0  0  0  0  0  0  0
   -2.1316   -2.6922    0.1669 N   0  0  0  0  0  0  0  0  0  0  0  0
    0.4410    0.7101   -0.4373 C   0  0  1  0  0  0  0  0  0  0  0  0
    1.4555   -0.4481   -0.7993 C   0  0  2  0  0  0  0  0  0  0  0  0
   -0.9329    0.6311   -1.2318 C   0  0  1  0  0  0  0  0  0  0  0  0
    0.2099    0.2962    1.0334 C   0  0  1  0  0  0  0  0  0  0  0  0
   -0.2487   -1.1934    0.8299 C   0  0  1  0  0  0  0  0  0  0  0  0
   -1.6903   -0.7076   -1.2033 C   0  0  1  0  0  0  0  0  0  0  0  0
   -1.7107   -1.2783    0.2480 C   0  0  1  0  0  0  0  0  0  0  0  0
    0.7632   -1.7324   -0.2226 C   0  0  2  0  0  0  0  0  0  0  0  0
    2.8433   -0.1516   -0.1359 C   0  0  2  0  0  0  0  0  0  0  0  0
    1.0225    2.1389   -0.6744 C   0  0  2  0  0  0  0  0  0  0  0  0
   -2.0534    1.6348   -0.8167 C   0  0  0  0  0  0  0  0  0  0  0  0
   -3.3839    0.8394   -0.8422 C   0  0  2  0  0  0  0  0  0  0  0  0
   -3.0573   -0.3236   -1.7642 C   0  0  2  0  0  0  0  0  0  0  0  0
   -2.7360   -0.5836    1.2089 C   0  0  0  0  0  0  0  0  0  0  0  0
    2.6510   -0.1775    1.4109 C   0  0  0  0  0  0  0  0  0  0  0  0
    3.3630    1.2323   -0.6243 C   0  0  1  0  0  0  0  0  0  0  0  0
   -3.7785    0.3399    0.5576 C   0  0  2  0  0  0  0  0  0  0  0  0
    2.4549    2.3775   -0.2375 C   0  0  0  0  0  0  0  0  0  0  0  0
    3.9231   -1.1844   -0.5450 C   0  0  0  0  0  0  0  0  0  0  0  0
    1.1754    0.2552    3.2802 C   0  0  0  0  0  0  0  0  0  0  0  0
    0.9233   -3.9751    0.4611 C   0  0  0  0  0  0  0  0  0  0  0  0
    2.3209    0.7773    4.1308 C   0  0  0  0  0  0  0  0  0  0  0  0
    0.3030    4.3757   -0.7133 C   0  0  0  0  0  0  0  0  0  0  0  0
   -5.6806   -0.3272    1.7656 C   0  0  0  0  0  0  0  0  0  0  0  0
    5.0314   -2.0535   -2.4263 C   0  0  0  0  0  0  0  0  0  0  0  0
    1.5574   -0.5267   -1.8883 H   0  0  0  0  0  0  0  0  0  0  0  0
   -0.6959    0.8359   -2.2871 H   0  0  0  0  0  0  0  0  0  0  0  0
   -0.5631    0.9301    1.4671 H   0  0  0  0  0  0  0  0  0  0  0  0
   -0.2071   -1.7346    1.7819 H   0  0  0  0  0  0  0  0  0  0  0  0
   -1.2486   -1.4165   -1.9114 H   0  0  0  0  0  0  0  0  0  0  0  0
    0.2913   -2.2297   -1.0718 H   0  0  0  0  0  0  0  0  0  0  0  0
    0.9949    2.2961   -1.7631 H   0  0  0  0  0  0  0  0  0  0  0  0
   -1.9059    2.0700    0.1748 H   0  0  0  0  0  0  0  0  0  0  0  0
   -2.0747    2.4701   -1.5274 H   0  0  0  0  0  0  0  0  0  0  0  0
   -2.9850    0.0126   -2.8065 H   0  0  0  0  0  0  0  0  0  0  0  0
   -2.2120    0.0092    1.9637 H   0  0  0  0  0  0  0  0  0  0  0  0
   -3.2221   -1.3523    1.8228 H   0  0  0  0  0  0  0  0  0  0  0  0
    2.6748   -1.2074    1.7834 H   0  0  0  0  0  0  0  0  0  0  0  0
    3.5231    0.3106    1.8618 H   0  0  0  0  0  0  0  0  0  0  0  0
    3.4651    1.2273   -1.7169 H   0  0  0  0  0  0  0  0  0  0  0  0
   -3.9227    1.2265    1.1915 H   0  0  0  0  0  0  0  0  0  0  0  0
    2.8430    3.2948   -0.6999 H   0  0  0  0  0  0  0  0  0  0  0  0
    2.5191    2.5977    0.8357 H   0  0  0  0  0  0  0  0  0  0  0  0
    3.6811   -2.2028   -0.2377 H   0  0  0  0  0  0  0  0  0  0  0  0
    4.8846   -0.9413   -0.0752 H   0  0  0  0  0  0  0  0  0  0  0  0
   -2.1099   -3.1158    1.0937 H   0  0  0  0  0  0  0  0  0  0  0  0
   -3.0983   -2.7478   -0.1511 H   0  0  0  0  0  0  0  0  0  0  0  0
    0.2688    0.7894    3.5901 H   0  0  0  0  0  0  0  0  0  0  0  0
    1.0121   -0.8071    3.4957 H   0  0  0  0  0  0  0  0  0  0  0  0
   -4.1553    1.9225   -2.2765 H   0  0  0  0  0  0  0  0  0  0  0  0
   -3.6162   -2.1058   -2.2872 H   0  0  0  0  0  0  0  0  0  0  0  0
    4.9468    2.3762   -0.4893 H   0  0  0  0  0  0  0  0  0  0  0  0
    0.5621   -4.3031   -0.5185 H   0  0  0  0  0  0  0  0  0  0  0  0
    0.1098   -3.9511    1.1892 H   0  0  0  0  0  0  0  0  0  0  0  0
    1.6553   -4.7088    0.8112 H   0  0  0  0  0  0  0  0  0  0  0  0
    2.0291    0.7663    5.1868 H   0  0  0  0  0  0  0  0  0  0  0  0
    3.2196    0.1588    4.0446 H   0  0  0  0  0  0  0  0  0  0  0  0
    2.5768    1.8105    3.8720 H   0  0  0  0  0  0  0  0  0  0  0  0
   -0.3987    5.0636   -0.2324 H   0  0  0  0  0  0  0  0  0  0  0  0
    0.0050    4.2721   -1.7615 H   0  0  0  0  0  0  0  0  0  0  0  0
    1.2999    4.8174   -0.6408 H   0  0  0  0  0  0  0  0  0  0  0  0
   -6.6021   -0.9103    1.6794 H   0  0  0  0  0  0  0  0  0  0  0  0
   -5.9584    0.7010    2.0195 H   0  0  0  0  0  0  0  0  0  0  0  0
   -5.0848   -0.7599    2.5728 H   0  0  0  0  0  0  0  0  0  0  0  0
    5.0865   -1.9583   -3.5139 H   0  0  0  0  0  0  0  0  0  0  0  0
    4.7434   -3.0795   -2.1780 H   0  0  0  0  0  0  0  0  0  0  0  0
    6.0136   -1.8223   -2.0032 H   0  0  0  0  0  0  0  0  0  0  0  0
  1 17  1  0  0  0  0
  1 30  1  0  0  0  0
  2 19  1  0  0  0  0
  2 32  1  0  0  0  0
  3 21  1  0  0  0  0
  3 59  1  0  0  0  0
  4 22  1  0  0  0  0
  4 60  1  0  0  0  0
  5 26  1  0  0  0  0
  5 33  1  0  0  0  0
  6 25  1  0  0  0  0
  6 61  1  0  0  0  0
  7 28  1  0  0  0  0
  7 34  1  0  0  0  0
  8 13  1  0  0  0  0
  8 24  1  0  0  0  0
  8 29  1  0  0  0  0
  9 16  1  0  0  0  0
  9 55  1  0  0  0  0
  9 56  1  0  0  0  0
 10 11  1  0  0  0  0
 10 12  1  0  0  0  0
 10 13  1  0  0  0  0
 10 19  1  0  0  0  0
 11 17  1  0  0  0  0
 11 18  1  0  0  0  0
 11 35  1  0  0  0  0
 12 15  1  0  0  0  0
 12 20  1  0  0  0  0
 12 36  1  0  0  0  0
 13 14  1  0  0  0  0
 13 37  1  0  0  0  0
 14 16  1  0  0  0  0
 14 17  1  0  0  0  0
 14 38  1  0  0  0  0
 15 16  1  0  0  0  0
 15 22  1  0  0  0  0
 15 39  1  0  0  0  0
 16 23  1  0  0  0  0
 17 40  1  0  0  0  0
 18 24  1  0  0  0  0
 18 25  1  0  0  0  0
 18 28  1  0  0  0  0
 19 27  1  0  0  0  0
 19 41  1  0  0  0  0
 20 21  1  0  0  0  0
 20 42  1  0  0  0  0
 20 43  1  0  0  0  0
 21 22  1  0  0  0  0
 21 26  1  0  0  0  0
 22 44  1  0  0  0  0
 23 26  1  0  0  0  0
 23 45  1  0  0  0  0
 23 46  1  0  0  0  0
 24 47  1  0  0  0  0
 24 48  1  0  0  0  0
 25 27  1  0  0  0  0
 25 49  1  0  0  0  0
 26 50  1  0  0  0  0
 27 51  1  0  0  0  0
 27 52  1  0  0  0  0
 28 53  1  0  0  0  0
 28 54  1  0  0  0  0
 29 31  1  0  0  0  0
 29 57  1  0  0  0  0
 29 58  1  0  0  0  0
 30 62  1  0  0  0  0
 30 63  1  0  0  0  0
 30 64  1  0  0  0  0
 31 65  1  0  0  0  0
 31 66  1  0  0  0  0
 31 67  1  0  0  0  0
 32 68  1  0  0  0  0
 32 69  1  0  0  0  0
 32 70  1  0  0  0  0
 33 71  1  0  0  0  0
 33 72  1  0  0  0  0
 33 73  1  0  0  0  0
 34 74  1  0  0  0  0
 34 75  1  0  0  0  0
 34 76  1  0  0  0  0
M  END
> <PUBCHEM_COMPOUND_CID>
101239158

> <PUBCHEM_CONFORMER_RMSD>
1

> <PUBCHEM_CONFORMER_DIVERSEORDER>
1

> <PUBCHEM_MMFF94_PARTIAL_CHARGES>
29
1 -0.56
13 0.27
16 0.27
17 0.28
19 0.28
2 -0.56
21 0.28
22 0.28
24 0.27
25 0.28
26 0.28
28 0.28
29 0.27
3 -0.68
30 0.28
32 0.28
33 0.28
34 0.28
4 -0.68
5 -0.56
55 0.36
56 0.36
59 0.4
6 -0.68
60 0.4
61 0.4
7 -0.56
8 -0.81
9 -0.99

> <PUBCHEM_EFFECTIVE_ROTOR_COUNT>
8

> <PUBCHEM_PHARMACOPHORE_FEATURES>
17
1 1 acceptor
1 2 acceptor
1 3 acceptor
1 3 donor
1 4 acceptor
1 4 donor
1 5 acceptor
1 6 acceptor
1 6 donor
1 7 acceptor
1 8 cation
1 9 cation
1 9 donor
6 10 11 18 19 25 27 rings
8 10 11 12 13 14 15 16 17 rings
8 12 15 16 20 21 22 23 26 rings
8 8 10 11 13 14 17 18 24 rings

> <PUBCHEM_HEAVY_ATOM_COUNT>
34

> <PUBCHEM_ATOM_DEF_STEREO_COUNT>
14

> <PUBCHEM_ATOM_UDEF_STEREO_COUNT>
0

> <PUBCHEM_BOND_DEF_STEREO_COUNT>
0

> <PUBCHEM_BOND_UDEF_STEREO_COUNT>
0

> <PUBCHEM_ISOTOPIC_ATOM_COUNT>
0

> <PUBCHEM_COMPONENT_COUNT>
1

> <PUBCHEM_CACTVS_TAUTO_COUNT>
1

> <PUBCHEM_CONFORMER_ID>
0608C97600000001

> <PUBCHEM_MMFF94_ENERGY>
184.749

> <PUBCHEM_FEATURE_SELFOVERLAP>
87.745

> <PUBCHEM_SHAPE_FINGERPRINT>
10076449 9 18118714100380450534
10165383 225 18340217382978319091
10366900 7 16733273442940546377
10675989 125 17106181358017217917
10863032 1 18270127953408770044
11578080 2 17414999341962955192
12156800 1 11978765072521167096
12553582 1 18336261262869118863
12788726 201 18121504548948133468
13140716 1 18045225092289343931
13224815 77 16805312310551583733
13583140 156 16588848188058302029
13911987 19 17827682198634496278
14223421 5 17683521011083911213
14713325 29 17254563115518063152
14790565 3 18335994111529992229
14955137 171 18263945326770038197
15238133 3 17607502667141977597
16945 1 18335127696524838935
17980427 26 16342552094648148272
1813 80 17986695704620089646
20691752 17 18198885058906366672
21033648 29 18130774630540812105
229495 10 17474419897034003872
23559900 14 17680693835998003899
25222932 49 16661781049651239459
3380486 77 17039173107936508034
350125 39 17974857473255915973
57527306 92 14753163106696943408

> <PUBCHEM_SHAPE_MULTIPOLES>
648.66
8.45
3.41
2.55
4.51
0.89
-2.64
-1.6
1.98
-1.64
0.86
-1.56
0
1.36

> <PUBCHEM_SHAPE_SELFOVERLAP>
1410.913

> <PUBCHEM_SHAPE_VOLUME>
346.7

> <PUBCHEM_COORDINATE_TYPE>
2
5
10

$$$$
