REMARK  Name = 101215395
REMARK  7 active torsions:
REMARK  status: ('A' for Active; 'I' for Inactive)
REMARK    1  A    between atoms: C_1  and  S_2
REMARK    2  A    between atoms: C_1  and  C_12
REMARK    3  A    between atoms: S_2  and  C_4
REMARK    4  A    between atoms: C_4  and  C_5
REMARK    5  A    between atoms: C_12  and  N_14
REMARK    6  A    between atoms: C_12  and  C_19
REMARK    7  A    between atoms: C_19  and  O_20
REMARK                            x       y       z     vdW  Elec       q    Type
REMARK                         _______ _______ _______ _____ _____    ______ ____
ROOT
ATOM      1  C   UNK A   1      -1.673  -0.411  -0.976  0.00  0.00    +0.096 C 
ENDROOT
BRANCH   1   2
ATOM      2  S   UNK A   1      -0.255  -0.266   0.162  0.00  0.00    -0.070 S 
BRANCH   2   4
ATOM      3  O   UNK A   1       0.879  -0.152  -2.210  0.00  0.00    -0.280 OA
ATOM      4  C   UNK A   1       1.058  -0.111  -0.999  0.00  0.00    +0.221 C 
BRANCH   4   5
ATOM      5  C   UNK A   1       2.430   0.034  -0.450  0.00  0.00    +0.045 C 
ATOM      6  C   UNK A   1       5.007   0.308   0.584  0.00  0.00    -0.022 C 
ATOM      7  C   UNK A   1       3.521  -0.478  -1.152  0.00  0.00    +0.003 C 
ATOM      8  C   UNK A   1       2.627   0.684   0.769  0.00  0.00    +0.003 C 
ATOM      9  C   UNK A   1       4.809  -0.341  -0.635  0.00  0.00    -0.004 C 
ATOM     10  C   UNK A   1       3.916   0.820   1.286  0.00  0.00    -0.004 C 
ATOM     11  C   UNK A   1       6.385   0.453   1.136  0.00  0.00    +0.031 C 
ENDBRANCH   4   5
ENDBRANCH   2   4
ENDBRANCH   1   2
BRANCH   1  12
ATOM     12  C   UNK A   1      -3.015  -0.607  -0.267  0.00  0.00    +0.183 C 
BRANCH  12  14
ATOM     13  O   UNK A   0      -4.526   1.677  -1.230  0.00  0.00    -0.275 OA
ATOM     14  N   UNK A   1      -3.407   0.562   0.480  0.00  0.00    -0.296 N 
ATOM     15  C   UNK A   0      -4.132   1.608  -0.069  0.00  0.00    +0.223 C 
ATOM     16  C   UNK A   0      -4.427   2.689   0.936  0.00  0.00    +0.095 C 
ATOM     17  H   UNK A   1      -3.146   0.620   1.428  0.00  0.00    +0.150 HD
ENDBRANCH  12  14
BRANCH  12  19
ATOM     18  O   UNK A   1      -2.844  -2.990   0.151  0.00  0.00    -0.248 OA
ATOM     19  C   UNK A   1      -3.039  -1.862   0.590  0.00  0.00    +0.333 C 
BRANCH  19  20
ATOM     20  O   UNK A   1      -3.313  -1.616   1.893  0.00  0.00    -0.479 OA
ATOM     21  H   UNK A   1      -3.455  -0.737   2.184  0.00  0.00    +0.295 HD
ENDBRANCH  19  20
ENDBRANCH  12  19
ENDBRANCH   1  12
TORSDOF 7
