REMARK  Name = 101285899
REMARK  4 active torsions:
REMARK  status: ('A' for Active; 'I' for Inactive)
REMARK    1  A    between atoms: C_8  and  O_33
REMARK    2  A    between atoms: C_17  and  O_35
REMARK    3  A    between atoms: C_23  and  O_37
REMARK    4  A    between atoms: C_30  and  O_39
REMARK                            x       y       z     vdW  Elec       q    Type
REMARK                         _______ _______ _______ _____ _____    ______ ____
ROOT
ATOM      1  O   UNL     1       0.403  -2.280  -1.036  0.00  0.00    -0.458 OA
ATOM      2  O   UNL     1      -1.700   1.330  -2.447  0.00  0.00    -0.444 OA
ATOM      3  O   UNL     1      -3.158  -2.866   2.072  0.00  0.00    -0.291 OA
ATOM      4  O   UNL     1       3.687   2.820   1.075  0.00  0.00    -0.440 OA
ATOM      5  O   UNL     1      -2.794   3.163  -1.698  0.00  0.00    -0.245 OA
ATOM      6  O   UNL     1       5.790   2.020   1.160  0.00  0.00    -0.245 OA
ATOM      7  C   UNL     1      -1.300  -0.556  -0.919  0.00  0.00    +0.143 C 
ATOM      8  C   UNL     1      -1.020  -2.082  -0.787  0.00  0.00    +0.243 C 
ATOM      9  C   UNL     1       0.051  -0.077  -0.454  0.00  0.00    +0.058 A 
ATOM     10  C   UNL     1      -2.492  -0.081  -0.134  0.00  0.00    +0.002 C 
ATOM     11  C   UNL     1      -1.530  -0.102  -2.371  0.00  0.00    +0.223 C 
ATOM     12  C   UNL     1      -1.283  -2.644   0.620  0.00  0.00    +0.139 C 
ATOM     13  C   UNL     1       0.978  -1.102  -0.610  0.00  0.00    +0.140 A 
ATOM     14  C   UNL     1      -3.086  -0.835   0.885  0.00  0.00    +0.028 C 
ATOM     15  C   UNL     1      -3.074   1.156  -0.473  0.00  0.00    +0.106 C 
ATOM     16  C   UNL     1      -2.572  -2.176   1.241  0.00  0.00    +0.179 C 
ATOM     17  C   UNL     1       0.465   1.159   0.009  0.00  0.00    +0.133 A 
ATOM     18  C   UNL     1       2.337  -0.939  -0.342  0.00  0.00    +0.030 A 
ATOM     19  C   UNL     1       1.824   1.360   0.303  0.00  0.00    +0.055 A 
ATOM     20  C   UNL     1       2.761   0.329   0.129  0.00  0.00    +0.014 A 
ATOM     21  C   UNL     1      -4.203  -0.346   1.578  0.00  0.00    -0.016 C 
ATOM     22  C   UNL     1      -2.524   1.975  -1.581  0.00  0.00    +0.344 C 
ATOM     23  C   UNL     1      -4.184   1.647   0.223  0.00  0.00    +0.139 C 
ATOM     24  C   UNL     1       3.277  -1.970  -0.509  0.00  0.00    -0.016 C 
ATOM     25  C   UNL     1      -4.743   0.895   1.251  0.00  0.00    +0.033 C 
ATOM     26  C   UNL     1       4.114   0.535   0.416  0.00  0.00    +0.109 C 
ATOM     27  C   UNL     1       2.273   2.698   0.800  0.00  0.00    +0.238 C 
ATOM     28  C   UNL     1      -4.886  -1.074   2.693  0.00  0.00    +0.031 C 
ATOM     29  C   UNL     1       4.621  -1.749  -0.219  0.00  0.00    +0.033 C 
ATOM     30  C   UNL     1       5.040  -0.503   0.241  0.00  0.00    +0.140 C 
ATOM     31  C   UNL     1       4.604   1.840   0.910  0.00  0.00    +0.344 C 
ATOM     32  C   UNL     1       2.914  -3.337  -0.998  0.00  0.00    +0.031 C 
ENDROOT
BRANCH   8  33
ATOM     33  O   UNL     1      -1.788  -2.871  -1.694  0.00  0.00    -0.354 OA
ATOM     34  H   UNL     1      -1.651  -2.549  -2.599  0.00  0.00    +0.214 HD
ENDBRANCH   8  33
BRANCH  17  35
ATOM     35  O   UNL     1      -0.399   2.182   0.235  0.00  0.00    -0.506 OA
ATOM     36  H   UNL     1      -1.311   2.075   0.047  0.00  0.00    +0.292 HD
ENDBRANCH  17  35
BRANCH  23  37
ATOM     37  O   UNL     1      -4.774   2.839  -0.075  0.00  0.00    -0.505 OA
ATOM     38  H   UNL     1      -4.428   3.375  -0.760  0.00  0.00    +0.292 HD
ENDBRANCH  23  37
BRANCH  30  39
ATOM     39  O   UNL     1       6.371  -0.360   0.505  0.00  0.00    -0.505 OA
ATOM     40  H   UNL     1       6.701   0.460   0.817  0.00  0.00    +0.292 HD
ENDBRANCH  30  39
TORSDOF 4
