101249034
  -OEChem-03292013293D

 64 67  0     1  0  0  0  0  0999 V2000
   -1.4944    1.6289   -2.1131 O   0  0  0  0  0  0  0  0  0  0  0  0
   -0.1714    1.3476    1.5667 O   0  0  0  0  0  0  0  0  0  0  0  0
    0.7345   -2.6400   -0.7275 O   0  0  0  0  0  0  0  0  0  0  0  0
    3.4094   -1.3558    0.2742 O   0  0  0  0  0  0  0  0  0  0  0  0
   -3.1392    0.2203    1.5509 O   0  0  0  0  0  0  0  0  0  0  0  0
   -3.3885    1.9018   -0.9218 O   0  0  0  0  0  0  0  0  0  0  0  0
   -1.1913    3.3899    1.9213 O   0  0  0  0  0  0  0  0  0  0  0  0
    3.5259   -1.9923    2.4921 O   0  0  0  0  0  0  0  0  0  0  0  0
    0.3205    0.5520   -0.7611 C   0  0  2  0  0  0  0  0  0  0  0  0
   -0.7100   -0.6235   -0.4174 C   0  0  1  0  0  0  0  0  0  0  0  0
   -2.1976   -0.1757   -0.6756 C   0  0  1  0  0  0  0  0  0  0  0  0
    1.8425    0.0834   -0.8027 C   0  0  1  0  0  0  0  0  0  0  0  0
    0.2232    1.7632    0.2589 C   0  0  2  0  0  0  0  0  0  0  0  0
   -0.4765   -2.0097   -1.1265 C   0  0  2  0  0  0  0  0  0  0  0  0
    2.8715    1.2206   -1.2369 C   0  0  0  0  0  0  0  0  0  0  0  0
   -2.9696   -1.1183   -1.6408 C   0  0  0  0  0  0  0  0  0  0  0  0
   -3.0130   -2.4287   -0.8654 C   0  0  1  0  0  0  0  0  0  0  0  0
   -0.1713    1.0451   -2.1525 C   0  0  0  0  0  0  0  0  0  0  0  0
   -1.6051   -3.0308   -0.8407 C   0  0  0  0  0  0  0  0  0  0  0  0
    1.4956    2.6183    0.3973 C   0  0  0  0  0  0  0  0  0  0  0  0
    2.3623    2.6331   -0.8526 C   0  0  0  0  0  0  0  0  0  0  0  0
   -2.9625   -0.5138    0.5935 C   0  0  0  0  0  0  0  0  0  0  0  0
   -2.4107    1.2169   -1.2062 C   0  0  0  0  0  0  0  0  0  0  0  0
   -3.4318   -1.9283    0.4943 C   0  0  0  0  0  0  0  0  0  0  0  0
    2.2732   -0.5708    0.5378 C   0  0  0  0  0  0  0  0  0  0  0  0
    3.1295    1.1581   -2.7641 C   0  0  0  0  0  0  0  0  0  0  0  0
    4.2795    1.0365   -0.6055 C   0  0  0  0  0  0  0  0  0  0  0  0
   -4.1394   -2.5474    1.4392 C   0  0  0  0  0  0  0  0  0  0  0  0
   -0.8760    2.2664    2.2896 C   0  0  0  0  0  0  0  0  0  0  0  0
    3.9507   -2.0260    1.3451 C   0  0  0  0  0  0  0  0  0  0  0  0
   -1.2197    1.6960    3.6322 C   0  0  0  0  0  0  0  0  0  0  0  0
    5.1496   -2.8169    0.9171 C   0  0  0  0  0  0  0  0  0  0  0  0
   -0.5820   -0.8363    0.6522 H   0  0  0  0  0  0  0  0  0  0  0  0
    1.9226   -0.6911   -1.5769 H   0  0  0  0  0  0  0  0  0  0  0  0
   -0.5367    2.4541   -0.1185 H   0  0  0  0  0  0  0  0  0  0  0  0
   -0.3993   -1.8534   -2.2079 H   0  0  0  0  0  0  0  0  0  0  0  0
   -2.4953   -1.2105   -2.6244 H   0  0  0  0  0  0  0  0  0  0  0  0
   -3.9901   -0.7501   -1.8264 H   0  0  0  0  0  0  0  0  0  0  0  0
   -3.7418   -3.1320   -1.2804 H   0  0  0  0  0  0  0  0  0  0  0  0
    0.4449    1.8466   -2.5478 H   0  0  0  0  0  0  0  0  0  0  0  0
   -0.1701    0.2508   -2.9056 H   0  0  0  0  0  0  0  0  0  0  0  0
   -1.4182   -3.5509    0.1086 H   0  0  0  0  0  0  0  0  0  0  0  0
   -1.5412   -3.8145   -1.6078 H   0  0  0  0  0  0  0  0  0  0  0  0
    2.0897    2.2978    1.2610 H   0  0  0  0  0  0  0  0  0  0  0  0
    1.2055    3.6501    0.6355 H   0  0  0  0  0  0  0  0  0  0  0  0
    1.7999    3.0939   -1.6712 H   0  0  0  0  0  0  0  0  0  0  0  0
    3.2080    3.3130   -0.6863 H   0  0  0  0  0  0  0  0  0  0  0  0
    2.4988    0.1751    1.3048 H   0  0  0  0  0  0  0  0  0  0  0  0
    1.4976   -1.2100    0.9620 H   0  0  0  0  0  0  0  0  0  0  0  0
    3.5893    0.2025   -3.0433 H   0  0  0  0  0  0  0  0  0  0  0  0
    3.8126    1.9560   -3.0789 H   0  0  0  0  0  0  0  0  0  0  0  0
    4.7590    0.1050   -0.9220 H   0  0  0  0  0  0  0  0  0  0  0  0
    4.2754    1.1058    0.4859 H   0  0  0  0  0  0  0  0  0  0  0  0
    4.9520    1.8358   -0.9458 H   0  0  0  0  0  0  0  0  0  0  0  0
    2.2239    1.2599   -3.3624 H   0  0  0  0  0  0  0  0  0  0  0  0
    0.8307   -3.4558   -1.2479 H   0  0  0  0  0  0  0  0  0  0  0  0
   -4.4765   -3.5686    1.2970 H   0  0  0  0  0  0  0  0  0  0  0  0
   -4.3969   -2.0570    2.3715 H   0  0  0  0  0  0  0  0  0  0  0  0
   -2.1632    2.1282    3.9766 H   0  0  0  0  0  0  0  0  0  0  0  0
   -0.4221    1.9299    4.3410 H   0  0  0  0  0  0  0  0  0  0  0  0
   -1.3517    0.6123    3.5703 H   0  0  0  0  0  0  0  0  0  0  0  0
    4.8574   -3.5512    0.1624 H   0  0  0  0  0  0  0  0  0  0  0  0
    5.5617   -3.3479    1.7799 H   0  0  0  0  0  0  0  0  0  0  0  0
    5.9147   -2.1433    0.5232 H   0  0  0  0  0  0  0  0  0  0  0  0
  1 18  1  0  0  0  0
  1 23  1  0  0  0  0
  2 13  1  0  0  0  0
  2 29  1  0  0  0  0
  3 14  1  0  0  0  0
  3 56  1  0  0  0  0
  4 25  1  0  0  0  0
  4 30  1  0  0  0  0
  5 22  2  0  0  0  0
  6 23  2  0  0  0  0
  7 29  2  0  0  0  0
  8 30  2  0  0  0  0
  9 10  1  0  0  0  0
  9 12  1  0  0  0  0
  9 13  1  0  0  0  0
  9 18  1  0  0  0  0
 10 11  1  0  0  0  0
 10 14  1  0  0  0  0
 10 33  1  0  0  0  0
 11 16  1  0  0  0  0
 11 22  1  0  0  0  0
 11 23  1  0  0  0  0
 12 15  1  0  0  0  0
 12 25  1  0  0  0  0
 12 34  1  0  0  0  0
 13 20  1  0  0  0  0
 13 35  1  0  0  0  0
 14 19  1  0  0  0  0
 14 36  1  0  0  0  0
 15 21  1  0  0  0  0
 15 26  1  0  0  0  0
 15 27  1  0  0  0  0
 16 17  1  0  0  0  0
 16 37  1  0  0  0  0
 16 38  1  0  0  0  0
 17 19  1  0  0  0  0
 17 24  1  0  0  0  0
 17 39  1  0  0  0  0
 18 40  1  0  0  0  0
 18 41  1  0  0  0  0
 19 42  1  0  0  0  0
 19 43  1  0  0  0  0
 20 21  1  0  0  0  0
 20 44  1  0  0  0  0
 20 45  1  0  0  0  0
 21 46  1  0  0  0  0
 21 47  1  0  0  0  0
 22 24  1  0  0  0  0
 24 28  2  0  0  0  0
 25 48  1  0  0  0  0
 25 49  1  0  0  0  0
 26 50  1  0  0  0  0
 26 51  1  0  0  0  0
 26 55  1  0  0  0  0
 27 52  1  0  0  0  0
 27 53  1  0  0  0  0
 27 54  1  0  0  0  0
 28 57  1  0  0  0  0
 28 58  1  0  0  0  0
 29 31  1  0  0  0  0
 30 32  1  0  0  0  0
 31 59  1  0  0  0  0
 31 60  1  0  0  0  0
 31 61  1  0  0  0  0
 32 62  1  0  0  0  0
 32 63  1  0  0  0  0
 32 64  1  0  0  0  0
M  END
> <PUBCHEM_COMPOUND_CID>
101249034

> <PUBCHEM_CONFORMER_RMSD>
1

> <PUBCHEM_CONFORMER_DIVERSEORDER>
1
2
4
6
5
3
7
8

> <PUBCHEM_MMFF94_PARTIAL_CHARGES>
25
1 -0.43
11 0.12
13 0.28
14 0.28
17 0.14
18 0.28
2 -0.43
22 0.49
23 0.66
24 -0.12
25 0.28
28 -0.3
29 0.66
3 -0.68
30 0.66
31 0.06
32 0.06
4 -0.43
5 -0.57
56 0.4
57 0.15
58 0.15
6 -0.57
7 -0.57
8 -0.57

> <PUBCHEM_EFFECTIVE_ROTOR_COUNT>
7

> <PUBCHEM_PHARMACOPHORE_FEATURES>
10
1 3 acceptor
1 3 donor
1 5 acceptor
1 6 acceptor
1 7 acceptor
1 8 acceptor
3 15 26 27 hydrophobe
6 1 9 10 11 18 23 rings
6 9 12 13 15 20 21 rings
8 10 11 14 16 17 19 22 24 rings

> <PUBCHEM_HEAVY_ATOM_COUNT>
32

> <PUBCHEM_ATOM_DEF_STEREO_COUNT>
7

> <PUBCHEM_ATOM_UDEF_STEREO_COUNT>
0

> <PUBCHEM_BOND_DEF_STEREO_COUNT>
0

> <PUBCHEM_BOND_UDEF_STEREO_COUNT>
0

> <PUBCHEM_ISOTOPIC_ATOM_COUNT>
0

> <PUBCHEM_COMPONENT_COUNT>
1

> <PUBCHEM_CACTVS_TAUTO_COUNT>
4

> <PUBCHEM_CONFORMER_ID>
0608F00A00000001

> <PUBCHEM_MMFF94_ENERGY>
137.2392

> <PUBCHEM_FEATURE_SELFOVERLAP>
50.779

> <PUBCHEM_SHAPE_FINGERPRINT>
10863032 1 18186517726421185077
11578080 2 18194658549084106501
12156800 1 17631193916867406010
12160290 23 17416417462886773033
12422481 6 18335148540428465955
12553582 1 18059865011934725831
12633257 1 18335992956557666763
12788726 201 17845394252441037040
13009979 54 18413111632741209890
131258 38 17623583350910319075
13140716 1 18334008354795511862
13224815 77 18042121136119071615
133893 2 17749974201397996134
14028597 1 18198355137763252208
14787075 74 17695635434547027404
15375462 189 18267308805632231550
16945 1 18120089734838455853
19319366 153 17904772424621866950
20600515 1 18129644310875244360
20691752 17 17684357739205997207
23419403 2 16251290443419944510
23559900 14 17676471865739079670
345986 75 18272376411717040835
35225 105 17273711852932838185
392239 28 17914031335183489192
469060 322 17751940247872978805
484985 159 18050559651892953754
6086070 43 17916584392830931759
81228 2 17274547511808961993

> <PUBCHEM_SHAPE_MULTIPOLES>
611.59
7.42
3.89
2.7
3.49
0.69
-1.43
5.25
-0.9
0.81
-1.43
-0.01
-1.36
-2.2

> <PUBCHEM_SHAPE_SELFOVERLAP>
1308.26

> <PUBCHEM_SHAPE_VOLUME>
331.6

> <PUBCHEM_COORDINATE_TYPE>
2
5
10

$$$$
