REMARK  Name = 101247
REMARK  5 active torsions:
REMARK  status: ('A' for Active; 'I' for Inactive)
REMARK    1  A    between atoms: C_2  and  O_17
REMARK    2  A    between atoms: C_3  and  O_19
REMARK    3  A    between atoms: C_5  and  N_9
REMARK    4  A    between atoms: C_6  and  C_21
REMARK    5  A    between atoms: C_21  and  O_22
REMARK                            x       y       z     vdW  Elec       q    Type
REMARK                         _______ _______ _______ _____ _____    ______ ____
ROOT
ATOM      1  O   UNL     1       1.057  -0.815  -0.262  0.00  0.00    -0.335 OA
ATOM      2  C   UNL     1       2.550   1.543   0.435  0.00  0.00    +0.144 C 
ATOM      3  C   UNL     1       3.164   0.142   0.495  0.00  0.00    +0.167 C 
ATOM      4  C   UNL     1       1.030   1.468   0.548  0.00  0.00    +0.083 C 
ATOM      5  C   UNL     1       0.465   0.469  -0.454  0.00  0.00    +0.202 C 
ATOM      6  C   UNL     1       2.469  -0.804  -0.492  0.00  0.00    +0.175 C 
ENDROOT
BRANCH   5   9
ATOM      7  O   UNL     1      -1.504   1.994  -1.842  0.00  0.00    -0.252 OA
ATOM      8  O   UNL     1      -4.947  -0.207   0.269  0.00  0.00    -0.270 OA
ATOM      9  N   UNL     1      -0.958   0.329  -0.299  0.00  0.00    -0.219 N 
ATOM     10  N   UNL     1      -3.211   0.889  -0.781  0.00  0.00    -0.236 N 
ATOM     11  C   UNL     1      -1.436  -0.621   0.595  0.00  0.00    +0.071 C 
ATOM     12  C   UNL     1      -1.856   1.133  -1.033  0.00  0.00    +0.315 C 
ATOM     13  C   UNL     1      -2.733  -0.852   0.833  0.00  0.00    +0.047 C 
ATOM     14  C   UNL     1      -3.742  -0.044   0.097  0.00  0.00    +0.250 C 
ATOM     15  C   UNL     1      -3.227  -1.879   1.801  0.00  0.00    +0.037 C 
ATOM     16  H   UNL     1      -3.857   1.438  -1.282  0.00  0.00    +0.159 HD
ENDBRANCH   5   9
BRANCH   2  17
ATOM     17  O   UNL     1       3.068   2.322   1.510  0.00  0.00    -0.382 OA
ATOM     18  H   UNL     1       4.034   2.370   1.439  0.00  0.00    +0.210 HD
ENDBRANCH   2  17
BRANCH   3  19
ATOM     19  O   UNL     1       4.557   0.222   0.200  0.00  0.00    -0.379 OA
ATOM     20  H   UNL     1       4.987   0.822   0.830  0.00  0.00    +0.211 HD
ENDBRANCH   3  19
BRANCH   6  21
ATOM     21  C   UNL     1       2.971  -2.236  -0.345  0.00  0.00    +0.169 C 
BRANCH  21  22
ATOM     22  O   UNL     1       2.282  -3.053  -1.275  0.00  0.00    -0.379 OA
ATOM     23  H   UNL     1       2.592  -3.968  -1.193  0.00  0.00    +0.211 HD
ENDBRANCH  21  22
ENDBRANCH   6  21
TORSDOF 5
