REMARK  Name = 101260815
REMARK  11 active torsions:
REMARK  status: ('A' for Active; 'I' for Inactive)
REMARK    1  A    between atoms: C_2  and  O_7
REMARK    2  A    between atoms: C_3  and  O_9
REMARK    3  A    between atoms: C_4  and  O_11
REMARK    4  A    between atoms: C_5  and  C_27
REMARK    5  A    between atoms: C_6  and  O_13
REMARK    6  A    between atoms: O_13  and  C_14
REMARK    7  A    between atoms: C_16  and  C_22
REMARK    8  A    between atoms: C_17  and  O_20
REMARK    9  A    between atoms: C_22  and  C_23
REMARK   10  A    between atoms: C_23  and  C_25
REMARK   11  A    between atoms: C_27  and  O_28
REMARK                            x       y       z     vdW  Elec       q    Type
REMARK                         _______ _______ _______ _____ _____    ______ ____
ROOT
ATOM      1  O   UNL     1      -1.486  -0.731   0.790  0.00  0.00    -0.316 OA
ATOM      2  C   UNL     1      -3.935  -0.374  -0.667  0.00  0.00    +0.173 C 
ATOM      3  C   UNL     1      -3.575  -1.691   0.022  0.00  0.00    +0.169 C 
ATOM      4  C   UNL     1      -3.174   0.799  -0.049  0.00  0.00    +0.210 C 
ATOM      5  C   UNL     1      -2.056  -1.855   0.118  0.00  0.00    +0.177 C 
ATOM      6  C   UNL     1      -1.683   0.489   0.080  0.00  0.00    +0.318 C 
ENDROOT
BRANCH   2   7
ATOM      7  O   UNL     1      -5.340  -0.164  -0.512  0.00  0.00    -0.379 OA
ATOM      8  H   UNL     1      -5.823  -0.909  -0.903  0.00  0.00    +0.211 HD
ENDBRANCH   2   7
BRANCH   3   9
ATOM      9  O   UNL     1      -4.120  -2.777  -0.723  0.00  0.00    -0.379 OA
ATOM     10  H   UNL     1      -5.083  -2.675  -0.786  0.00  0.00    +0.211 HD
ENDBRANCH   3   9
BRANCH   4  11
ATOM     11  O   UNL     1      -3.321   1.950  -0.881  0.00  0.00    -0.377 OA
ATOM     12  H   UNL     1      -4.263   2.163  -0.975  0.00  0.00    +0.211 HD
ENDBRANCH   4  11
BRANCH   6  13
ATOM     13  O   UNL     1      -1.070   1.565   0.790  0.00  0.00    -0.447 OA
BRANCH  13  14
ATOM     14  C   UNL     1       0.236   1.834   0.485  0.00  0.00    +0.174 C 
ATOM     15  C   UNL     1       1.202   0.846   0.673  0.00  0.00    +0.036 C 
ATOM     16  C   UNL     1       2.538   1.109   0.368  0.00  0.00    -0.019 C 
ATOM     17  C   UNL     1       0.605   3.086  -0.008  0.00  0.00    +0.168 C 
ATOM     18  C   UNL     1       2.907   2.361  -0.125  0.00  0.00    -0.001 C 
ATOM     19  C   UNL     1       1.941   3.349  -0.313  0.00  0.00    +0.039 C 
BRANCH  17  20
ATOM     20  O   UNL     1      -0.329   4.059  -0.195  0.00  0.00    -0.503 OA
ATOM     21  H   UNL     1      -1.229   3.890   0.008  0.00  0.00    +0.292 HD
ENDBRANCH  17  20
BRANCH  16  22
ATOM     22  C   UNL     1       3.571   0.053   0.570  0.00  0.00    +0.034 C 
BRANCH  22  23
ATOM     23  C   UNL     1       3.761  -0.819  -0.677  0.00  0.00    +0.069 C 
BRANCH  23  25
ATOM     24  O   UNL     1       5.442  -2.045   0.554  0.00  0.00    -0.296 OA
ATOM     25  C   UNL     1       4.801  -1.909  -0.486  0.00  0.00    +0.151 C 
ATOM     26  C   UNL     1       5.016  -2.833  -1.657  0.00  0.00    +0.072 C 
ENDBRANCH  23  25
ENDBRANCH  22  23
ENDBRANCH  16  22
ENDBRANCH  13  14
ENDBRANCH   6  13
BRANCH   5  27
ATOM     27  C   UNL     1      -1.671  -3.105   0.903  0.00  0.00    +0.169 C 
BRANCH  27  28
ATOM     28  O   UNL     1      -0.259  -3.197   0.941  0.00  0.00    -0.379 OA
ATOM     29  H   UNL     1       0.000  -3.988   1.438  0.00  0.00    +0.211 HD
ENDBRANCH  27  28
ENDBRANCH   5  27
TORSDOF 11
