REMARK  Name = 101284892
REMARK  6 active torsions:
REMARK  status: ('A' for Active; 'I' for Inactive)
REMARK    1  A    between atoms: C_8  and  O_24
REMARK    2  A    between atoms: C_10  and  O_30
REMARK    3  A    between atoms: C_19  and  O_26
REMARK    4  A    between atoms: C_21  and  C_28
REMARK    5  A    between atoms: O_30  and  C_32
REMARK    6  A    between atoms: C_32  and  C_34
REMARK                            x       y       z     vdW  Elec       q    Type
REMARK                         _______ _______ _______ _____ _____    ______ ____
ROOT
ATOM      1  O   UNL     1       0.341   0.733   1.000  0.00  0.00    -0.353 OA
ATOM      2  O   UNL     1      -4.372   0.185  -1.019  0.00  0.00    -0.450 OA
ATOM      3  O   UNL     1      -4.851   0.614   1.204  0.00  0.00    -0.247 OA
ATOM      4  C   UNL     1       0.312  -0.751  -0.842  0.00  0.00    +0.062 C 
ATOM      5  C   UNL     1      -0.620   0.015   0.152  0.00  0.00    +0.114 C 
ATOM      6  C   UNL     1       1.335   0.357  -1.111  0.00  0.00    +0.057 C 
ATOM      7  C   UNL     1       1.630   0.742   0.338  0.00  0.00    +0.159 C 
ATOM      8  C   UNL     1       1.096  -1.977  -0.305  0.00  0.00    +0.117 C 
ATOM      9  C   UNL     1      -1.414   1.126  -0.662  0.00  0.00    +0.053 C 
ATOM     10  C   UNL     1       2.534  -0.304   1.005  0.00  0.00    +0.199 C 
ATOM     11  C   UNL     1       1.894  -1.710   0.990  0.00  0.00    +0.070 C 
ATOM     12  C   UNL     1       0.740   1.531  -1.837  0.00  0.00    -0.028 C 
ATOM     13  C   UNL     1      -1.559  -0.829   1.038  0.00  0.00    -0.024 C 
ATOM     14  C   UNL     1      -0.534   1.885  -1.634  0.00  0.00    -0.028 C 
ATOM     15  C   UNL     1      -2.193   2.123   0.230  0.00  0.00    +0.048 C 
ATOM     16  C   UNL     1       2.912  -2.825   1.262  0.00  0.00    +0.006 C 
ATOM     17  C   UNL     1      -2.576  -1.623   0.629  0.00  0.00    -0.029 C 
ATOM     18  C   UNL     1      -1.391  -0.676   2.541  0.00  0.00    +0.028 C 
ATOM     19  C   UNL     1      -3.679   2.248  -0.148  0.00  0.00    +0.214 C 
ATOM     20  C   UNL     1      -3.109  -1.911  -0.757  0.00  0.00    +0.062 C 
ATOM     21  C   UNL     1      -4.503  -1.263  -1.011  0.00  0.00    +0.173 C 
ATOM     22  C   UNL     1      -4.398   0.939   0.116  0.00  0.00    +0.344 C 
ATOM     23  C   UNL     1      -3.160  -3.426  -0.987  0.00  0.00    +0.008 C 
ENDROOT
BRANCH   8  24
ATOM     24  O   UNL     1       0.195  -3.062  -0.113  0.00  0.00    -0.384 OA
ATOM     25  H   UNL     1      -0.300  -3.220  -0.932  0.00  0.00    +0.210 HD
ENDBRANCH   8  24
BRANCH  19  26
ATOM     26  O   UNL     1      -4.263   3.231   0.697  0.00  0.00    -0.342 OA
ATOM     27  C   UNL     1      -5.484   3.721   0.160  0.00  0.00    +0.175 C 
ENDBRANCH  19  26
BRANCH  21  28
ATOM     28  C   UNL     1      -5.666  -1.773  -0.161  0.00  0.00    +0.044 C 
ATOM     29  C   UNL     1      -6.967  -1.093  -0.541  0.00  0.00    +0.004 C 
ENDBRANCH  21  28
BRANCH  10  30
ATOM     30  O   UNL     1       3.791  -0.287   0.335  0.00  0.00    -0.446 OA
BRANCH  30  32
ATOM     31  O   UNL     1       4.543   1.371   1.743  0.00  0.00    -0.243 OA
ATOM     32  C   UNL     1       4.705   0.602   0.809  0.00  0.00    +0.355 C 
BRANCH  32  34
ATOM     33  N   UNL     1       6.158  -0.336  -1.023  0.00  0.00    -0.306 N 
ATOM     34  C   UNL     1       5.966   0.521   0.029  0.00  0.00    +0.125 C 
ATOM     35  C   UNL     1       7.123   1.251   0.195  0.00  0.00    +0.023 C 
ATOM     36  C   UNL     1       7.419  -0.164  -1.531  0.00  0.00    +0.062 C 
ATOM     37  C   UNL     1       8.042   0.817  -0.792  0.00  0.00    +0.017 C 
ATOM     38  H   UNL     1       5.492  -0.977  -1.362  0.00  0.00    +0.152 HD
ENDBRANCH  32  34
ENDBRANCH  30  32
ENDBRANCH  10  30
TORSDOF 6
