REMARK  Name = 101282616
REMARK  10 active torsions:
REMARK  status: ('A' for Active; 'I' for Inactive)
REMARK    1  A    between atoms: C_1  and  N_3
REMARK    2  A    between atoms: C_1  and  C_15
REMARK    3  A    between atoms: C_1  and  C_18
REMARK    4  A    between atoms: C_4  and  C_6
REMARK    5  A    between atoms: C_6  and  N_7
REMARK    6  A    between atoms: C_6  and  C_11
REMARK    7  A    between atoms: C_15  and  O_16
REMARK    8  A    between atoms: C_18  and  C_19
REMARK    9  A    between atoms: C_19  and  C_20
REMARK   10  A    between atoms: C_23  and  N_26
REMARK                            x       y       z     vdW  Elec       q    Type
REMARK                         _______ _______ _______ _____ _____    ______ ____
ROOT
ATOM      1  C   UNK A   1      -0.305   1.312   0.608  0.00  0.00    +0.172 C 
ENDROOT
BRANCH   1   3
ATOM      2  O   UNK A   1      -1.831  -0.918   1.596  0.00  0.00    -0.277 OA
ATOM      3  N   UNK A   1      -1.357   0.606  -0.087  0.00  0.00    -0.298 N 
ATOM      4  C   UNK A   1      -2.041  -0.464   0.472  0.00  0.00    +0.203 C 
ATOM      5  H   UNK A   1      -1.598   0.896  -0.996  0.00  0.00    +0.150 HD
BRANCH   4   6
ATOM      6  C   UNK A   1      -3.096  -1.041  -0.471  0.00  0.00    +0.017 C 
BRANCH   6   7
ATOM      7  N   UNK A   1      -3.133  -2.486  -0.236  0.00  0.00    +0.389 N 
ATOM      8  C   ACE A   0      -2.035  -3.146  -0.922  0.00  0.00    -0.105 C 
ATOM      9  H   UNK A   1      -4.017  -2.860  -0.582  0.00  0.00    -0.084 HD
ATOM     10  H   UNK A   1      -3.046  -2.659   0.766  0.00  0.00    -0.084 HD
ENDBRANCH   6   7
BRANCH   6  11
ATOM     11  C   UNK A   1      -4.494  -0.406  -0.283  0.00  0.00    -0.011 C 
ATOM     12  C   UNK A   1      -5.065  -0.686   1.110  0.00  0.00    -0.002 C 
ATOM     13  C   UNK A   1      -4.538   1.100  -0.567  0.00  0.00    -0.002 C 
ENDBRANCH   6  11
ENDBRANCH   4   6
ENDBRANCH   1   3
BRANCH   1  15
ATOM     14  O   UNK A   1       0.455   3.603   0.763  0.00  0.00    -0.248 OA
ATOM     15  C   UNK A   1      -0.300   2.789   0.242  0.00  0.00    +0.332 C 
BRANCH  15  16
ATOM     16  O   UNK A   1      -1.193   3.142  -0.713  0.00  0.00    -0.479 OA
ATOM     17  H   UNK A   1      -1.756   2.494  -1.090  0.00  0.00    +0.295 HD
ENDBRANCH  15  16
ENDBRANCH   1  15
BRANCH   1  18
ATOM     18  C   UNK A   1       1.066   0.692   0.315  0.00  0.00    +0.036 C 
BRANCH  18  19
ATOM     19  C   UNK A   1       1.444   0.777  -1.166  0.00  0.00    +0.029 C 
BRANCH  19  20
ATOM     20  C   UNK A   1       2.789   0.120  -1.435  0.00  0.00    -0.022 C 
ATOM     21  C   UNK A   1       2.712  -1.356  -1.134  0.00  0.00    -0.003 C 
ATOM     22  C   UNK A   1       3.873   0.826  -0.659  0.00  0.00    -0.003 C 
ATOM     23  C   UNK A   1       4.559  -1.257   0.564  0.00  0.00    +0.026 C 
ATOM     24  C   UNK A   1       3.499  -1.969  -0.237  0.00  0.00    +0.012 C 
ATOM     25  C   UNK A   1       4.659   0.211   0.237  0.00  0.00    +0.012 C 
BRANCH  23  26
ATOM     26  N   UNK A   1       4.329  -1.446   2.001  0.00  0.00    -0.416 NA
ATOM     27  H   UNK A   1       4.264  -2.443   2.206  0.00  0.00    +0.121 HD
ATOM     28  H   UNK A   1       3.459  -0.986   2.269  0.00  0.00    +0.121 HD
ATOM     29  H   UNK A   1       5.104  -1.041   2.526  0.00  0.00    +0.121 HD
ENDBRANCH  23  26
ENDBRANCH  19  20
ENDBRANCH  18  19
ENDBRANCH   1  18
TORSDOF 10
