REMARK  Name = 101204
REMARK  4 active torsions:
REMARK  status: ('A' for Active; 'I' for Inactive)
REMARK    1  A    between atoms: C_7  and  O_20
REMARK    2  A    between atoms: C_9  and  O_22
REMARK    3  A    between atoms: C_10  and  O_24
REMARK    4  A    between atoms: C_15  and  O_26
REMARK                            x       y       z     vdW  Elec       q    Type
REMARK                         _______ _______ _______ _____ _____    ______ ____
ROOT
ATOM      1  O   UNL     1      -3.522   2.322   0.196  0.00  0.00    -0.435 OA
ATOM      2  O   UNL     1      -0.699  -3.216  -0.559  0.00  0.00    -0.270 OA
ATOM      3  O   UNL     1      -4.508   0.127   0.303  0.00  0.00    -0.431 OA
ATOM      4  N   UNL     1       1.182  -1.947  -0.204  0.00  0.00    -0.300 N 
ATOM      5  C   UNL     1       1.081   0.481  -0.489  0.00  0.00    +0.046 C 
ATOM      6  C   UNL     1       1.774  -0.690   0.235  0.00  0.00    +0.105 C 
ATOM      7  C   UNL     1       3.289  -0.689  -0.010  0.00  0.00    +0.158 C 
ATOM      8  C   UNL     1       1.738   1.822  -0.102  0.00  0.00    +0.038 C 
ATOM      9  C   UNL     1       3.931   0.645   0.389  0.00  0.00    +0.165 C 
ATOM     10  C   UNL     1       3.257   1.820  -0.319  0.00  0.00    +0.140 C 
ATOM     11  C   UNL     1      -0.418   0.382  -0.237  0.00  0.00    -0.010 C 
ATOM     12  C   UNL     1      -1.018  -0.907  -0.180  0.00  0.00    +0.086 C 
ATOM     13  C   UNL     1      -0.182  -2.127  -0.330  0.00  0.00    +0.249 C 
ATOM     14  C   UNL     1      -1.239   1.515  -0.123  0.00  0.00    +0.036 C 
ATOM     15  C   UNL     1      -2.400  -1.062   0.001  0.00  0.00    +0.175 C 
ATOM     16  C   UNL     1      -2.596   1.331   0.061  0.00  0.00    +0.179 C 
ATOM     17  C   UNL     1      -3.160   0.080   0.122  0.00  0.00    +0.210 C 
ATOM     18  C   UNL     1      -4.730   1.551   0.351  0.00  0.00    +0.429 C 
ATOM     19  H   UNL     1       1.779  -2.700  -0.420  0.00  0.00    +0.150 HD
ENDROOT
BRANCH   7  20
ATOM     20  O   UNL     1       3.903  -1.740   0.735  0.00  0.00    -0.380 OA
ATOM     21  H   UNL     1       3.502  -2.589   0.489  0.00  0.00    +0.211 HD
ENDBRANCH   7  20
BRANCH   9  22
ATOM     22  O   UNL     1       3.811   0.818   1.801  0.00  0.00    -0.380 OA
ATOM     23  H   UNL     1       4.237   0.074   2.255  0.00  0.00    +0.211 HD
ENDBRANCH   9  22
BRANCH  10  24
ATOM     24  O   UNL     1       3.520   1.759  -1.718  0.00  0.00    -0.382 OA
ATOM     25  H   UNL     1       3.090   2.507  -2.161  0.00  0.00    +0.210 HD
ENDBRANCH  10  24
BRANCH  15  26
ATOM     26  O   UNL     1      -3.014  -2.272   0.078  0.00  0.00    -0.503 OA
ATOM     27  H   UNL     1      -2.511  -3.058  -0.003  0.00  0.00    +0.292 HD
ENDBRANCH  15  26
TORSDOF 4
