REMARK  Name = 101297646
REMARK  6 active torsions:
REMARK  status: ('A' for Active; 'I' for Inactive)
REMARK    1  A    between atoms: C_7  and  O_23
REMARK    2  A    between atoms: C_8  and  O_25
REMARK    3  A    between atoms: C_11  and  O_27
REMARK    4  A    between atoms: C_12  and  O_31
REMARK    5  A    between atoms: O_27  and  C_29
REMARK    6  A    between atoms: O_31  and  C_33
REMARK                            x       y       z     vdW  Elec       q    Type
REMARK                         _______ _______ _______ _____ _____    ______ ____
ROOT
ATOM      1  O   UNL     1      -0.456  -1.816   2.064  0.00  0.00    -0.332 OA
ATOM      2  O   UNL     1      -3.084  -0.973  -1.428  0.00  0.00    -0.292 OA
ATOM      3  C   UNL     1       0.842  -0.551   0.365  0.00  0.00    +0.071 C 
ATOM      4  C   UNL     1      -0.453   0.349   0.055  0.00  0.00    +0.057 C 
ATOM      5  C   UNL     1      -1.720  -0.432   0.555  0.00  0.00    +0.108 C 
ATOM      6  C   UNL     1       0.720  -1.812  -0.576  0.00  0.00    +0.038 C 
ATOM      7  C   UNL     1      -1.332  -1.881   0.917  0.00  0.00    +0.215 C 
ATOM      8  C   UNL     1      -0.522  -2.630  -0.159  0.00  0.00    +0.162 C 
ATOM      9  C   UNL     1       2.012  -2.687  -0.793  0.00  0.00    +0.003 C 
ATOM     10  C   UNL     1      -2.391   0.328   1.741  0.00  0.00    +0.017 C 
ATOM     11  C   UNL     1       2.168   0.204   0.096  0.00  0.00    +0.171 C 
ATOM     12  C   UNL     1      -0.426   1.815   0.586  0.00  0.00    +0.170 C 
ATOM     13  C   UNL     1       0.703  -0.997   1.842  0.00  0.00    +0.148 C 
ATOM     14  C   UNL     1      -2.947   1.582   1.067  0.00  0.00    +0.029 C 
ATOM     15  C   UNL     1      -1.803   2.503   0.632  0.00  0.00    +0.048 C 
ATOM     16  C   UNL     1      -2.843  -0.262  -0.468  0.00  0.00    +0.173 C 
ATOM     17  C   UNL     1       3.208  -1.758  -1.089  0.00  0.00    +0.004 C 
ATOM     18  C   UNL     1       3.396  -0.697  -0.018  0.00  0.00    +0.044 C 
ATOM     19  C   UNL     1      -3.610   0.973  -0.136  0.00  0.00    +0.012 C 
ATOM     20  C   UNL     1       2.388  -3.625   0.375  0.00  0.00    +0.000 C 
ATOM     21  C   UNL     1       1.809  -3.594  -2.033  0.00  0.00    +0.000 C 
ATOM     22  C   UNL     1      -4.706   1.370  -0.784  0.00  0.00    -0.002 C 
ENDROOT
BRANCH   7  23
ATOM     23  O   UNL     1      -2.461  -2.696   1.230  0.00  0.00    -0.362 OA
ATOM     24  H   UNL     1      -2.999  -2.258   1.908  0.00  0.00    +0.213 HD
ENDBRANCH   7  23
BRANCH   8  25
ATOM     25  O   UNL     1      -1.300  -2.960  -1.303  0.00  0.00    -0.380 OA
ATOM     26  H   UNL     1      -0.746  -3.428  -1.947  0.00  0.00    +0.211 HD
ENDBRANCH   8  25
BRANCH  11  27
ATOM     27  O   UNL     1       2.431   1.152   1.129  0.00  0.00    -0.452 OA
BRANCH  27  29
ATOM     28  O   UNL     1       3.512   2.522  -0.385  0.00  0.00    -0.250 OA
ATOM     29  C   UNL     1       3.114   2.269   0.744  0.00  0.00    +0.317 C 
ATOM     30  C   UNL     1       3.317   3.169   1.926  0.00  0.00    +0.121 C 
ENDBRANCH  27  29
ENDBRANCH  11  27
BRANCH  12  31
ATOM     31  O   UNL     1       0.396   2.638  -0.242  0.00  0.00    -0.452 OA
BRANCH  31  33
ATOM     32  O   UNL     1      -0.944   2.163  -2.064  0.00  0.00    -0.250 OA
ATOM     33  C   UNL     1       0.017   2.721  -1.552  0.00  0.00    +0.317 C 
ATOM     34  C   UNL     1       0.965   3.613  -2.295  0.00  0.00    +0.121 C 
ENDBRANCH  31  33
ENDBRANCH  12  31
TORSDOF 6
