REMARK  Name = 101242525
REMARK  8 active torsions:
REMARK  status: ('A' for Active; 'I' for Inactive)
REMARK    1  A    between atoms: C_3  and  O_17
REMARK    2  A    between atoms: C_7  and  O_19
REMARK    3  A    between atoms: O_19  and  C_21
REMARK    4  A    between atoms: C_22  and  O_26
REMARK    5  A    between atoms: C_23  and  O_28
REMARK    6  A    between atoms: C_24  and  C_32
REMARK    7  A    between atoms: C_25  and  O_30
REMARK    8  A    between atoms: C_32  and  O_33
REMARK                            x       y       z     vdW  Elec       q    Type
REMARK                         _______ _______ _______ _____ _____    ______ ____
ROOT
ATOM      1  O   UNL     1       3.503   1.718   1.385  0.00  0.00    -0.296 OA
ATOM      2  C   UNL     1       1.355  -2.263   0.515  0.00  0.00    +0.038 C 
ATOM      3  C   UNL     1       2.481  -1.213   0.686  0.00  0.00    +0.100 C 
ATOM      4  C   UNL     1       1.822   0.188   0.534  0.00  0.00    +0.111 C 
ATOM      5  C   UNL     1       1.474  -3.638   1.156  0.00  0.00    +0.006 C 
ATOM      6  C   UNL     1       0.508  -2.643   1.724  0.00  0.00    +0.006 C 
ATOM      7  C   UNL     1       1.018   0.367  -0.780  0.00  0.00    +0.122 C 
ATOM      8  C   UNL     1       0.586  -2.105  -0.767  0.00  0.00    -0.044 C 
ATOM      9  C   UNL     1       2.000   1.013  -1.771  0.00  0.00    +0.039 C 
ATOM     10  C   UNL     1       2.882   1.965  -0.943  0.00  0.00    +0.054 C 
ATOM     11  C   UNL     1       0.422  -0.896  -1.339  0.00  0.00    -0.008 C 
ATOM     12  C   UNL     1       2.825   1.331   0.439  0.00  0.00    +0.154 C 
ATOM     13  C   UNL     1       3.266  -1.307   2.002  0.00  0.00    +0.030 C 
ATOM     14  C   UNL     1       0.016  -3.322  -1.446  0.00  0.00    +0.026 C 
ATOM     15  C   UNL     1       2.315   3.385  -0.879  0.00  0.00    +0.007 C 
ATOM     16  C   UNL     1       4.316   1.988  -1.469  0.00  0.00    +0.007 C 
ENDROOT
BRANCH   3  17
ATOM     17  O   UNL     1       3.431  -1.415  -0.368  0.00  0.00    -0.386 OA
ATOM     18  H   UNL     1       2.979  -1.365  -1.225  0.00  0.00    +0.210 HD
ENDBRANCH   3  17
BRANCH   7  19
ATOM     19  O   UNL     1      -0.057   1.276  -0.519  0.00  0.00    -0.329 OA
BRANCH  19  21
ATOM     20  O   UNL     1      -2.041   0.157  -1.025  0.00  0.00    -0.326 OA
ATOM     21  C   UNL     1      -1.187   0.597   0.028  0.00  0.00    +0.266 C 
ATOM     22  C   UNL     1      -1.925   1.574   0.943  0.00  0.00    +0.196 C 
ATOM     23  C   UNL     1      -3.235   0.975   1.455  0.00  0.00    +0.172 C 
ATOM     24  C   UNL     1      -3.183  -0.554  -0.544  0.00  0.00    +0.176 C 
ATOM     25  C   UNL     1      -4.051   0.370   0.312  0.00  0.00    +0.169 C 
BRANCH  22  26
ATOM     26  O   UNL     1      -1.077   1.877   2.051  0.00  0.00    -0.378 OA
ATOM     27  H   UNL     1      -0.246   2.257   1.728  0.00  0.00    +0.211 HD
ENDBRANCH  22  26
BRANCH  23  28
ATOM     28  O   UNL     1      -4.021   2.001   2.064  0.00  0.00    -0.379 OA
ATOM     29  H   UNL     1      -3.522   2.400   2.794  0.00  0.00    +0.211 HD
ENDBRANCH  23  28
BRANCH  25  30
ATOM     30  O   UNL     1      -5.140  -0.373   0.853  0.00  0.00    -0.379 OA
ATOM     31  H   UNL     1      -5.692   0.210   1.397  0.00  0.00    +0.211 HD
ENDBRANCH  25  30
BRANCH  24  32
ATOM     32  C   UNL     1      -3.943  -1.078  -1.758  0.00  0.00    +0.169 C 
BRANCH  32  33
ATOM     33  O   UNL     1      -4.359   0.026  -2.541  0.00  0.00    -0.379 OA
ATOM     34  H   UNL     1      -4.845  -0.292  -3.317  0.00  0.00    +0.211 HD
ENDBRANCH  32  33
ENDBRANCH  24  32
ENDBRANCH  19  21
ENDBRANCH   7  19
TORSDOF 8
