REMARK  Name = 101267305
REMARK  13 active torsions:
REMARK  status: ('A' for Active; 'I' for Inactive)
REMARK    1  A    between atoms: C_1  and  C_2
REMARK    2  A    between atoms: C_1  and  O_13
REMARK    3  A    between atoms: C_1  and  C_17
REMARK    4  A    between atoms: C_3  and  C_6
REMARK    5  A    between atoms: C_7  and  O_11
REMARK    6  A    between atoms: O_13  and  C_15
REMARK    7  A    between atoms: C_17  and  C_18
REMARK    8  A    between atoms: C_18  and  O_19
REMARK    9  A    between atoms: C_18  and  C_21
REMARK   10  A    between atoms: C_18  and  O_27
REMARK   11  A    between atoms: C_21  and  O_23
REMARK   12  A    between atoms: O_23  and  C_25
REMARK   13  A    between atoms: O_27  and  C_29
REMARK                            x       y       z     vdW  Elec       q    Type
REMARK                         _______ _______ _______ _____ _____    ______ ____
ROOT
ATOM      1  C   UNL     1      -0.264  -1.786  -0.149  0.00  0.00    +0.197 C 
ENDROOT
BRANCH   1   2
ATOM      2  C   UNL     1       1.131  -1.253   0.030  0.00  0.00    +0.016 C 
ATOM      3  C   UNL     1       1.929  -0.723  -0.910  0.00  0.00    +0.019 C 
BRANCH   3   6
ATOM      4  O   UNL     1       3.729  -0.434   0.624  0.00  0.00    -0.442 OA
ATOM      5  O   UNL     1       5.463  -0.326   2.082  0.00  0.00    -0.245 OA
ATOM      6  C   UNL     1       3.314  -0.192  -0.739  0.00  0.00    +0.222 C 
ATOM      7  C   UNL     1       3.424   1.294  -1.078  0.00  0.00    +0.177 C 
ATOM      8  C   UNL     1       4.779   1.781  -0.682  0.00  0.00    +0.013 C 
ATOM      9  C   UNL     1       5.489   1.185   0.280  0.00  0.00    +0.080 C 
ATOM     10  C   UNL     1       4.912   0.076   1.064  0.00  0.00    +0.341 C 
BRANCH   7  11
ATOM     11  O   UNL     1       2.447   2.071  -0.391  0.00  0.00    -0.376 OA
ATOM     12  H   UNL     1       1.560   1.766  -0.637  0.00  0.00    +0.211 HD
ENDBRANCH   7  11
ENDBRANCH   3   6
ENDBRANCH   1   2
BRANCH   1  13
ATOM     13  O   UNL     1      -0.216  -3.179   0.153  0.00  0.00    -0.447 OA
BRANCH  13  15
ATOM     14  O   UNL     1      -1.921  -3.577  -1.353  0.00  0.00    -0.250 OA
ATOM     15  C   UNL     1      -1.105  -3.961  -0.526  0.00  0.00    +0.318 C 
ATOM     16  C   UNL     1      -0.942  -5.391  -0.110  0.00  0.00    +0.121 C 
ENDBRANCH  13  15
ENDBRANCH   1  13
BRANCH   1  17
ATOM     17  C   UNL     1      -1.242  -1.060   0.799  0.00  0.00    +0.122 C 
BRANCH  17  18
ATOM     18  C   UNL     1      -1.353   0.469   0.562  0.00  0.00    +0.269 C 
BRANCH  18  19
ATOM     19  O   UNL     1      -0.208   1.072   1.171  0.00  0.00    -0.352 OA
ATOM     20  H   UNL     1       0.599   0.693   0.788  0.00  0.00    +0.214 HD
ENDBRANCH  18  19
BRANCH  18  21
ATOM     21  C   UNL     1      -2.657   1.058   1.158  0.00  0.00    +0.232 C 
ATOM     22  C   UNL     1      -2.814   0.847   2.662  0.00  0.00    +0.054 C 
BRANCH  21  23
ATOM     23  O   UNL     1      -3.784   0.487   0.493  0.00  0.00    -0.446 OA
BRANCH  23  25
ATOM     24  O   UNL     1      -4.970   2.447   0.792  0.00  0.00    -0.250 OA
ATOM     25  C   UNL     1      -4.876   1.298   0.381  0.00  0.00    +0.318 C 
ATOM     26  C   UNL     1      -5.974   0.570  -0.334  0.00  0.00    +0.121 C 
ENDBRANCH  23  25
ENDBRANCH  21  23
ENDBRANCH  18  21
BRANCH  18  27
ATOM     27  O   UNL     1      -1.369   0.661  -0.881  0.00  0.00    -0.427 OA
BRANCH  27  29
ATOM     28  O   UNL     1      -0.739   2.884  -0.788  0.00  0.00    -0.250 OA
ATOM     29  C   UNL     1      -1.052   1.877  -1.407  0.00  0.00    +0.319 C 
ATOM     30  C   UNL     1      -1.132   1.806  -2.902  0.00  0.00    +0.121 C 
ENDBRANCH  27  29
ENDBRANCH  18  27
ENDBRANCH  17  18
ENDBRANCH   1  17
TORSDOF 13
