REMARK  Name = 101288293
REMARK  6 active torsions:
REMARK  status: ('A' for Active; 'I' for Inactive)
REMARK    1  A    between atoms: C_3  and  O_21
REMARK    2  A    between atoms: C_4  and  O_23
REMARK    3  A    between atoms: C_4  and  C_27
REMARK    4  A    between atoms: C_20  and  O_25
REMARK    5  A    between atoms: C_27  and  C_31
REMARK    6  A    between atoms: C_27  and  O_38
REMARK                            x       y       z     vdW  Elec       q    Type
REMARK                         _______ _______ _______ _____ _____    ______ ____
ROOT
ATOM      1  O   UNL     1      -3.293  -2.680   0.455  0.00  0.00    -0.296 OA
ATOM      2  C   UNL     1       0.409   1.089  -0.751  0.00  0.00    +0.047 C 
ATOM      3  C   UNL     1      -0.593   1.727   0.252  0.00  0.00    +0.091 C 
ATOM      4  C   UNL     1       1.775   1.698  -0.282  0.00  0.00    +0.116 C 
ATOM      5  C   UNL     1      -2.058   1.406  -0.110  0.00  0.00    +0.030 C 
ATOM      6  C   UNL     1      -2.281  -0.140  -0.137  0.00  0.00    +0.013 C 
ATOM      7  C   UNL     1       0.258  -0.441  -0.658  0.00  0.00    +0.005 C 
ATOM      8  C   UNL     1      -0.154   3.189   0.265  0.00  0.00    +0.029 C 
ATOM      9  C   UNL     1       1.389   3.116   0.228  0.00  0.00    +0.032 C 
ATOM     10  C   UNL     1      -1.186  -0.881  -0.965  0.00  0.00    +0.001 C 
ATOM     11  C   UNL     1      -3.759  -0.506  -0.572  0.00  0.00    +0.067 C 
ATOM     12  C   UNL     1      -3.052   2.067   0.859  0.00  0.00    +0.028 C 
ATOM     13  C   UNL     1       0.155   1.522  -2.231  0.00  0.00    +0.005 C 
ATOM     14  C   UNL     1      -4.790   0.441   0.053  0.00  0.00    -0.040 C 
ATOM     15  C   UNL     1      -4.451   1.571   0.697  0.00  0.00    -0.034 C 
ATOM     16  C   UNL     1      -4.123  -1.913  -0.034  0.00  0.00    +0.156 C 
ATOM     17  C   UNL     1      -3.917  -0.507  -2.105  0.00  0.00    +0.011 C 
ATOM     18  C   UNL     1      -6.250   0.055  -0.050  0.00  0.00    +0.052 C 
ATOM     19  C   UNL     1      -5.565  -2.360  -0.169  0.00  0.00    +0.094 C 
ATOM     20  C   UNL     1      -6.486  -1.351   0.497  0.00  0.00    +0.122 C 
ENDROOT
BRANCH   3  21
ATOM     21  O   UNL     1      -0.349   1.199   1.569  0.00  0.00    -0.387 OA
ATOM     22  H   UNL     1      -0.617   0.267   1.598  0.00  0.00    +0.210 HD
ENDBRANCH   3  21
BRANCH   4  23
ATOM     23  O   UNL     1       2.685   1.849  -1.376  0.00  0.00    -0.384 OA
ATOM     24  H   UNL     1       2.252   2.340  -2.091  0.00  0.00    +0.210 HD
ENDBRANCH   4  23
BRANCH  20  25
ATOM     25  O   UNL     1      -7.833  -1.739   0.250  0.00  0.00    -0.384 OA
ATOM     26  H   UNL     1      -8.434  -1.104   0.669  0.00  0.00    +0.210 HD
ENDBRANCH  20  25
BRANCH   4  27
ATOM     27  C   UNL     1       2.546   0.916   0.787  0.00  0.00    +0.147 C 
ATOM     28  C   UNL     1       3.278   1.875   1.722  0.00  0.00    +0.035 C 
BRANCH  27  31
ATOM     29  O   UNL     1       3.607  -1.222   0.977  0.00  0.00    -0.447 OA
ATOM     30  O   UNL     1       4.506  -3.271   1.254  0.00  0.00    -0.245 OA
ATOM     31  C   UNL     1       3.515  -0.060   0.135  0.00  0.00    +0.200 C 
ATOM     32  C   UNL     1       4.893   0.555  -0.038  0.00  0.00    +0.068 C 
ATOM     33  C   UNL     1       5.845  -0.501  -0.530  0.00  0.00    -0.038 C 
ATOM     34  C   UNL     1       4.549  -2.167   0.719  0.00  0.00    +0.337 C 
ATOM     35  C   UNL     1       5.652  -1.798  -0.216  0.00  0.00    +0.046 C 
ATOM     36  C   UNL     1       6.987   0.029  -1.351  0.00  0.00    +0.026 C 
ATOM     37  C   UNL     1       6.498  -2.946  -0.686  0.00  0.00    +0.037 C 
ENDBRANCH  27  31
BRANCH  27  38
ATOM     38  O   UNL     1       1.591   0.176   1.544  0.00  0.00    -0.381 OA
ATOM     39  H   UNL     1       1.119  -0.437   0.959  0.00  0.00    +0.210 HD
ENDBRANCH  27  38
ENDBRANCH   4  27
TORSDOF 6
