101209643
  -OEChem-03292013293D

 52 56  0     1  0  0  0  0  0999 V2000
    0.9264   -2.8059    0.6745 O   0  0  0  0  0  0  0  0  0  0  0  0
   -0.0402    0.2344   -0.6476 O   0  0  0  0  0  0  0  0  0  0  0  0
   -5.1363   -0.6439    0.5441 O   0  0  0  0  0  0  0  0  0  0  0  0
    3.1329   -2.1455   -0.9497 O   0  0  0  0  0  0  0  0  0  0  0  0
   -3.3906    1.7305   -0.4274 O   0  0  0  0  0  0  0  0  0  0  0  0
   -1.4700    1.0792   -2.2941 O   0  0  0  0  0  0  0  0  0  0  0  0
    1.6055   -2.6117   -2.6198 O   0  0  0  0  0  0  0  0  0  0  0  0
    2.3220    2.5082   -0.8358 O   0  0  0  0  0  0  0  0  0  0  0  0
    0.8723   -1.9222   -0.4532 C   0  0  2  0  0  0  0  0  0  0  0  0
    1.6404   -1.5705    0.7786 C   0  0  2  0  0  0  0  0  0  0  0  0
   -0.3895   -1.1486   -0.7226 C   0  0  1  0  0  0  0  0  0  0  0  0
   -2.7459   -0.5764   -0.0053 C   0  0  1  0  0  0  0  0  0  0  0  0
   -1.5247   -1.4687    0.2489 C   0  0  0  0  0  0  0  0  0  0  0  0
   -3.8110   -0.8570    1.0301 C   0  0  2  0  0  0  0  0  0  0  0  0
    3.0762   -1.5425    0.3736 C   0  0  2  0  0  0  0  0  0  0  0  0
   -2.3108    0.9027    0.0059 C   0  0  1  0  0  0  0  0  0  0  0  0
   -1.0912    1.1645   -0.9147 C   0  0  1  0  0  0  0  0  0  0  0  0
    1.8744   -2.2553   -1.4841 C   0  0  0  0  0  0  0  0  0  0  0  0
   -4.7560   -2.0030    0.8087 C   0  0  0  0  0  0  0  0  0  0  0  0
    3.6319   -0.1138    0.2174 C   0  0  0  0  0  0  0  0  0  0  0  0
   -3.5621   -0.3356    2.3998 C   0  0  0  0  0  0  0  0  0  0  0  0
   -0.5136    2.5618   -0.6425 C   0  0  0  0  0  0  0  0  0  0  0  0
    3.4273    0.7985    1.4078 C   0  0  0  0  0  0  0  0  0  0  0  0
    0.3711    2.7377    0.5785 C   0  0  0  0  0  0  0  0  0  0  0  0
   -0.7746    3.6266   -1.4226 C   0  0  0  0  0  0  0  0  0  0  0  0
    2.6238    1.8795    1.4322 C   0  0  0  0  0  0  0  0  0  0  0  0
    1.8168    2.3655    0.2746 C   0  0  0  0  0  0  0  0  0  0  0  0
    4.1956    0.4115    2.6449 C   0  0  0  0  0  0  0  0  0  0  0  0
    1.2997   -0.8554    1.5064 H   0  0  0  0  0  0  0  0  0  0  0  0
   -0.7191   -1.3708   -1.7450 H   0  0  0  0  0  0  0  0  0  0  0  0
   -3.1504   -0.8099   -1.0005 H   0  0  0  0  0  0  0  0  0  0  0  0
   -1.1721   -1.3192    1.2758 H   0  0  0  0  0  0  0  0  0  0  0  0
   -1.8042   -2.5263    0.1671 H   0  0  0  0  0  0  0  0  0  0  0  0
    3.6902   -2.1431    1.0524 H   0  0  0  0  0  0  0  0  0  0  0  0
   -2.0510    1.1939    1.0290 H   0  0  0  0  0  0  0  0  0  0  0  0
   -4.6028   -2.6531   -0.0434 H   0  0  0  0  0  0  0  0  0  0  0  0
   -5.2039   -2.4886    1.6662 H   0  0  0  0  0  0  0  0  0  0  0  0
    3.2052    0.3200   -0.6925 H   0  0  0  0  0  0  0  0  0  0  0  0
    4.7062   -0.1769   -0.0027 H   0  0  0  0  0  0  0  0  0  0  0  0
   -3.7042    0.7491    2.4454 H   0  0  0  0  0  0  0  0  0  0  0  0
   -2.5589   -0.5711    2.7644 H   0  0  0  0  0  0  0  0  0  0  0  0
   -4.2664   -0.7702    3.1187 H   0  0  0  0  0  0  0  0  0  0  0  0
   -3.1588    2.6526   -0.2265 H   0  0  0  0  0  0  0  0  0  0  0  0
   -0.7395    1.4273   -2.8328 H   0  0  0  0  0  0  0  0  0  0  0  0
   -0.0021    2.1272    1.4076 H   0  0  0  0  0  0  0  0  0  0  0  0
    0.3670    3.7795    0.9216 H   0  0  0  0  0  0  0  0  0  0  0  0
   -1.4184    3.5662   -2.2928 H   0  0  0  0  0  0  0  0  0  0  0  0
   -0.3530    4.6015   -1.1986 H   0  0  0  0  0  0  0  0  0  0  0  0
    2.4885    2.4445    2.3505 H   0  0  0  0  0  0  0  0  0  0  0  0
    3.8701   -0.5673    3.0105 H   0  0  0  0  0  0  0  0  0  0  0  0
    4.0593    1.1301    3.4602 H   0  0  0  0  0  0  0  0  0  0  0  0
    5.2672    0.3635    2.4253 H   0  0  0  0  0  0  0  0  0  0  0  0
  1  9  1  0  0  0  0
  1 10  1  0  0  0  0
  2 11  1  0  0  0  0
  2 17  1  0  0  0  0
  3 14  1  0  0  0  0
  3 19  1  0  0  0  0
  4 15  1  0  0  0  0
  4 18  1  0  0  0  0
  5 16  1  0  0  0  0
  5 43  1  0  0  0  0
  6 17  1  0  0  0  0
  6 44  1  0  0  0  0
  7 18  2  0  0  0  0
  8 27  2  0  0  0  0
  9 10  1  0  0  0  0
  9 11  1  0  0  0  0
  9 18  1  0  0  0  0
 10 15  1  0  0  0  0
 10 29  1  0  0  0  0
 11 13  1  0  0  0  0
 11 30  1  0  0  0  0
 12 13  1  0  0  0  0
 12 14  1  0  0  0  0
 12 16  1  0  0  0  0
 12 31  1  0  0  0  0
 13 32  1  0  0  0  0
 13 33  1  0  0  0  0
 14 19  1  0  0  0  0
 14 21  1  0  0  0  0
 15 20  1  0  0  0  0
 15 34  1  0  0  0  0
 16 17  1  0  0  0  0
 16 35  1  0  0  0  0
 17 22  1  0  0  0  0
 19 36  1  0  0  0  0
 19 37  1  0  0  0  0
 20 23  1  0  0  0  0
 20 38  1  0  0  0  0
 20 39  1  0  0  0  0
 21 40  1  0  0  0  0
 21 41  1  0  0  0  0
 21 42  1  0  0  0  0
 22 24  1  0  0  0  0
 22 25  2  0  0  0  0
 23 26  2  0  0  0  0
 23 28  1  0  0  0  0
 24 27  1  0  0  0  0
 24 45  1  0  0  0  0
 24 46  1  0  0  0  0
 25 47  1  0  0  0  0
 25 48  1  0  0  0  0
 26 27  1  0  0  0  0
 26 49  1  0  0  0  0
 28 50  1  0  0  0  0
 28 51  1  0  0  0  0
 28 52  1  0  0  0  0
M  END
> <PUBCHEM_COMPOUND_CID>
101209643

> <PUBCHEM_CONFORMER_RMSD>
0.8

> <PUBCHEM_CONFORMER_DIVERSEORDER>
1
5
4
6
3
2

> <PUBCHEM_MMFF94_PARTIAL_CHARGES>
35
1 -0.3
10 -0.05
11 0.38
12 0.09
14 -0.04
15 0.38
16 0.28
17 0.7
18 0.72
19 -0.05
2 -0.56
20 0.14
21 0.09
22 -0.28
23 -0.28
24 0.2
25 -0.3
26 -0.14
27 0.49
28 0.14
29 0.1
3 -0.3
36 0.1
37 0.1
4 -0.43
43 0.4
44 0.4
47 0.15
48 0.15
49 0.15
5 -0.68
6 -0.68
7 -0.57
8 -0.57
9 0.05

> <PUBCHEM_EFFECTIVE_ROTOR_COUNT>
3.2

> <PUBCHEM_PHARMACOPHORE_FEATURES>
11
1 1 acceptor
1 2 acceptor
1 3 acceptor
1 5 acceptor
1 5 donor
1 6 acceptor
1 6 donor
1 7 acceptor
1 8 acceptor
6 1 4 9 10 15 18 rings
6 2 11 12 13 16 17 rings

> <PUBCHEM_HEAVY_ATOM_COUNT>
28

> <PUBCHEM_ATOM_DEF_STEREO_COUNT>
8

> <PUBCHEM_ATOM_UDEF_STEREO_COUNT>
0

> <PUBCHEM_BOND_DEF_STEREO_COUNT>
1

> <PUBCHEM_BOND_UDEF_STEREO_COUNT>
0

> <PUBCHEM_ISOTOPIC_ATOM_COUNT>
0

> <PUBCHEM_COMPONENT_COUNT>
1

> <PUBCHEM_CACTVS_TAUTO_COUNT>
13

> <PUBCHEM_CONFORMER_ID>
0608562B00000001

> <PUBCHEM_MMFF94_ENERGY>
72.2216

> <PUBCHEM_FEATURE_SELFOVERLAP>
55.879

> <PUBCHEM_SHAPE_FINGERPRINT>
10165383 225 17917149528421138096
10675989 125 16321442188992588344
11578080 2 17385712595942962055
12035758 1 17988063549305528802
12422481 6 18269536313501112728
12553582 1 18264197192231953148
12633257 1 18261386818740862946
12661589 4 14637706659909375163
13083527 12 18191302887394129559
13140716 1 18051402977384628906
13402501 40 18409727357240719746
13726171 33 18260836960576499884
13965767 371 18059564802643122810
14081887 123 18115866304712747683
14142880 1 17624111095142623090
14223421 5 18267581316985808668
14787075 74 18114760299094790310
14790565 3 17614012102053437533
17349148 13 18123754420622312939
17974551 9 17057243242136039496
1813 80 17313108566217240885
19319366 153 17389379639448300672
1979834 28 18271813487802318603
20600515 1 17458347476371678939
20626108 58 15719959171527370427
20691752 17 17458635505684735329
20739085 24 18263085589891437176
20905425 154 18337100151839509680
21421861 104 18193024649588958753
22182313 1 18198327491063671752
23419403 2 18042106782892243671
23557571 272 18261397676529014903
23559900 14 18116995468568304174
238 59 17766794508562563276
2748010 2 18124863578451126284
2818148 4 17697916616305213924
3187 122 18114730573346631220
35225 105 16687979292887508635
394222 165 15576433304330098950
465052 167 17824260621242702833
469060 322 17977068522109095770
474 4 18270966863490566243
56638632 10 17630027485502429945
6287921 2 17989215857932546055
81228 2 17679598739780678527
84936 31 17846782901087695126
9862522 239 17983257617880997272
9981440 41 17690793996986413682

> <PUBCHEM_SHAPE_MULTIPOLES>
529.27
7.53
3.82
2.01
4.9
1.54
-0.13
-2.32
-4.69
-1.23
1.63
-0.71
-0.23
1.9

> <PUBCHEM_SHAPE_SELFOVERLAP>
1143.115

> <PUBCHEM_SHAPE_VOLUME>
289.6

> <PUBCHEM_COORDINATE_TYPE>
2
5
10

$$$$
