REMARK  Name = 101297744
REMARK  7 active torsions:
REMARK  status: ('A' for Active; 'I' for Inactive)
REMARK    1  A    between atoms: C_12  and  O_19
REMARK    2  A    between atoms: C_15  and  O_21
REMARK    3  A    between atoms: C_16  and  O_23
REMARK    4  A    between atoms: C_17  and  C_27
REMARK    5  A    between atoms: C_18  and  O_25
REMARK    6  A    between atoms: C_27  and  C_29
REMARK    7  A    between atoms: C_29  and  O_30
REMARK                            x       y       z     vdW  Elec       q    Type
REMARK                         _______ _______ _______ _____ _____    ______ ____
ROOT
ATOM      1  O   UNL     1      -0.110   3.084   0.044  0.00  0.00    -0.283 OA
ATOM      2  C   UNL     1      -1.467  -0.841  -0.306  0.00  0.00    +0.040 C 
ATOM      3  C   UNL     1      -3.963   0.013  -0.060  0.00  0.00    +0.018 C 
ATOM      4  C   UNL     1      -2.435   0.357  -0.115  0.00  0.00    -0.005 C 
ATOM      5  C   UNL     1      -1.822  -2.005   0.671  0.00  0.00    +0.008 C 
ATOM      6  C   UNL     1      -4.220  -1.517   0.065  0.00  0.00    +0.004 C 
ATOM      7  C   UNL     1      -3.285  -2.170   1.058  0.00  0.00    +0.001 C 
ATOM      8  C   UNL     1       0.019  -0.500  -0.079  0.00  0.00    +0.024 A 
ATOM      9  C   UNL     1      -1.544  -1.298  -1.788  0.00  0.00    +0.009 C 
ATOM     10  C   UNL     1      -4.649   0.663   1.175  0.00  0.00    +0.004 C 
ATOM     11  C   UNL     1      -4.693   0.471  -1.343  0.00  0.00    +0.004 C 
ATOM     12  C   UNL     1      -1.959   1.622   0.002  0.00  0.00    +0.165 C 
ATOM     13  C   UNL     1       0.455   0.816   0.072  0.00  0.00    +0.075 A 
ATOM     14  C   UNL     1      -0.505   1.921   0.033  0.00  0.00    +0.231 C 
ATOM     15  C   UNL     1       1.002  -1.515  -0.059  0.00  0.00    +0.164 A 
ATOM     16  C   UNL     1       1.816   1.114   0.253  0.00  0.00    +0.136 A 
ATOM     17  C   UNL     1       2.763   0.094   0.282  0.00  0.00    +0.050 A 
ATOM     18  C   UNL     1       2.355  -1.223   0.124  0.00  0.00    +0.166 A 
ENDROOT
BRANCH  12  19
ATOM     19  O   UNL     1      -2.729   2.762   0.091  0.00  0.00    -0.503 OA
ATOM     20  H   UNL     1      -3.664   2.697   0.081  0.00  0.00    +0.292 HD
ENDBRANCH  12  19
BRANCH  15  21
ATOM     21  O   UNL     1       0.733  -2.830  -0.306  0.00  0.00    -0.503 OA
ATOM     22  H   UNL     1      -0.151  -3.110  -0.441  0.00  0.00    +0.292 HD
ENDBRANCH  15  21
BRANCH  16  23
ATOM     23  O   UNL     1       2.256   2.397   0.429  0.00  0.00    -0.506 OA
ATOM     24  H   UNL     1       1.645   3.107   0.415  0.00  0.00    +0.292 HD
ENDBRANCH  16  23
BRANCH  18  25
ATOM     25  O   UNL     1       3.280  -2.226   0.126  0.00  0.00    -0.503 OA
ATOM     26  H   UNL     1       3.007  -3.116   0.019  0.00  0.00    +0.292 HD
ENDBRANCH  18  25
BRANCH  17  27
ATOM     27  C   UNL     1       4.210   0.412   0.477  0.00  0.00    +0.058 C 
ATOM     28  C   UNL     1       4.773  -0.211   1.768  0.00  0.00    +0.007 C 
BRANCH  27  29
ATOM     29  C   UNL     1       5.090  -0.020  -0.717  0.00  0.00    +0.142 C 
BRANCH  29  30
ATOM     30  O   UNL     1       4.630   0.629  -1.897  0.00  0.00    -0.382 OA
ATOM     31  H   UNL     1       5.180   0.360  -2.649  0.00  0.00    +0.210 HD
ENDBRANCH  29  30
ENDBRANCH  27  29
ENDBRANCH  17  27
TORSDOF 7
