101285899
  -OEChem-03292013293D

 54 60  0     1  0  0  0  0  0999 V2000
    0.4025   -2.2802   -1.0359 O   0  0  0  0  0  0  0  0  0  0  0  0
   -1.7876   -2.8713   -1.6940 O   0  0  0  0  0  0  0  0  0  0  0  0
   -1.6995    1.3303   -2.4467 O   0  0  0  0  0  0  0  0  0  0  0  0
   -0.3994    2.1822    0.2346 O   0  0  0  0  0  0  0  0  0  0  0  0
   -3.1575   -2.8659    2.0722 O   0  0  0  0  0  0  0  0  0  0  0  0
    3.6868    2.8202    1.0745 O   0  0  0  0  0  0  0  0  0  0  0  0
   -4.7744    2.8392   -0.0747 O   0  0  0  0  0  0  0  0  0  0  0  0
   -2.7941    3.1626   -1.6979 O   0  0  0  0  0  0  0  0  0  0  0  0
    6.3711   -0.3599    0.5049 O   0  0  0  0  0  0  0  0  0  0  0  0
    5.7896    2.0203    1.1603 O   0  0  0  0  0  0  0  0  0  0  0  0
   -1.2997   -0.5559   -0.9193 C   0  0  2  0  0  0  0  0  0  0  0  0
   -1.0204   -2.0816   -0.7872 C   0  0  2  0  0  0  0  0  0  0  0  0
    0.0505   -0.0774   -0.4537 C   0  0  0  0  0  0  0  0  0  0  0  0
   -2.4920   -0.0807   -0.1344 C   0  0  0  0  0  0  0  0  0  0  0  0
   -1.5297   -0.1022   -2.3709 C   0  0  0  0  0  0  0  0  0  0  0  0
   -1.2833   -2.6441    0.6202 C   0  0  0  0  0  0  0  0  0  0  0  0
    0.9776   -1.1022   -0.6095 C   0  0  0  0  0  0  0  0  0  0  0  0
   -3.0860   -0.8354    0.8854 C   0  0  0  0  0  0  0  0  0  0  0  0
   -3.0736    1.1562   -0.4735 C   0  0  0  0  0  0  0  0  0  0  0  0
   -2.5718   -2.1761    1.2412 C   0  0  0  0  0  0  0  0  0  0  0  0
    0.4650    1.1590    0.0091 C   0  0  0  0  0  0  0  0  0  0  0  0
    2.3366   -0.9388   -0.3416 C   0  0  0  0  0  0  0  0  0  0  0  0
    1.8243    1.3604    0.3035 C   0  0  0  0  0  0  0  0  0  0  0  0
    2.7609    0.3292    0.1286 C   0  0  0  0  0  0  0  0  0  0  0  0
   -4.2033   -0.3458    1.5776 C   0  0  0  0  0  0  0  0  0  0  0  0
   -2.5236    1.9747   -1.5808 C   0  0  0  0  0  0  0  0  0  0  0  0
   -4.1836    1.6474    0.2234 C   0  0  0  0  0  0  0  0  0  0  0  0
    3.2773   -1.9696   -0.5091 C   0  0  0  0  0  0  0  0  0  0  0  0
   -4.7431    0.8954    1.2507 C   0  0  0  0  0  0  0  0  0  0  0  0
    4.1138    0.5347    0.4159 C   0  0  0  0  0  0  0  0  0  0  0  0
    2.2734    2.6982    0.7998 C   0  0  0  0  0  0  0  0  0  0  0  0
   -4.8859   -1.0739    2.6930 C   0  0  0  0  0  0  0  0  0  0  0  0
    4.6210   -1.7490   -0.2194 C   0  0  0  0  0  0  0  0  0  0  0  0
    5.0402   -0.5029    0.2409 C   0  0  0  0  0  0  0  0  0  0  0  0
    4.6041    1.8396    0.9103 C   0  0  0  0  0  0  0  0  0  0  0  0
    2.9138   -3.3368   -0.9975 C   0  0  0  0  0  0  0  0  0  0  0  0
   -0.6806   -0.3560   -3.0164 H   0  0  0  0  0  0  0  0  0  0  0  0
   -2.4217   -0.5630   -2.8142 H   0  0  0  0  0  0  0  0  0  0  0  0
   -0.4839   -2.3722    1.3214 H   0  0  0  0  0  0  0  0  0  0  0  0
   -1.3023   -3.7410    0.5930 H   0  0  0  0  0  0  0  0  0  0  0  0
   -1.7666   -3.7985   -1.4059 H   0  0  0  0  0  0  0  0  0  0  0  0
   -5.6088    1.2863    1.7805 H   0  0  0  0  0  0  0  0  0  0  0  0
    2.0348    3.4692    0.0591 H   0  0  0  0  0  0  0  0  0  0  0  0
    1.7556    2.9415    1.7339 H   0  0  0  0  0  0  0  0  0  0  0  0
   -4.1920   -1.2794    3.5147 H   0  0  0  0  0  0  0  0  0  0  0  0
   -5.6935   -0.4765    3.1339 H   0  0  0  0  0  0  0  0  0  0  0  0
   -5.3572   -1.9942    2.3331 H   0  0  0  0  0  0  0  0  0  0  0  0
   -1.0547    1.8624    0.8778 H   0  0  0  0  0  0  0  0  0  0  0  0
    5.3552   -2.5413   -0.3473 H   0  0  0  0  0  0  0  0  0  0  0  0
    2.2249   -3.8283   -0.3029 H   0  0  0  0  0  0  0  0  0  0  0  0
    2.4793   -3.2900   -2.0013 H   0  0  0  0  0  0  0  0  0  0  0  0
    3.7916   -3.9893   -1.0737 H   0  0  0  0  0  0  0  0  0  0  0  0
   -4.3991    3.2151   -0.8855 H   0  0  0  0  0  0  0  0  0  0  0  0
    6.5777    0.5434    0.7851 H   0  0  0  0  0  0  0  0  0  0  0  0
  1 12  1  0  0  0  0
  1 17  1  0  0  0  0
  2 12  1  0  0  0  0
  2 41  1  0  0  0  0
  3 15  1  0  0  0  0
  3 26  1  0  0  0  0
  4 21  1  0  0  0  0
  4 48  1  0  0  0  0
  5 20  2  0  0  0  0
  6 31  1  0  0  0  0
  6 35  1  0  0  0  0
  7 27  1  0  0  0  0
  7 53  1  0  0  0  0
  8 26  2  0  0  0  0
  9 34  1  0  0  0  0
  9 54  1  0  0  0  0
 10 35  2  0  0  0  0
 11 12  1  0  0  0  0
 11 13  1  0  0  0  0
 11 14  1  0  0  0  0
 11 15  1  0  0  0  0
 12 16  1  0  0  0  0
 13 17  1  0  0  0  0
 13 21  2  0  0  0  0
 14 18  2  0  0  0  0
 14 19  1  0  0  0  0
 15 37  1  0  0  0  0
 15 38  1  0  0  0  0
 16 20  1  0  0  0  0
 16 39  1  0  0  0  0
 16 40  1  0  0  0  0
 17 22  2  0  0  0  0
 18 20  1  0  0  0  0
 18 25  1  0  0  0  0
 19 26  1  0  0  0  0
 19 27  2  0  0  0  0
 21 23  1  0  0  0  0
 22 24  1  0  0  0  0
 22 28  1  0  0  0  0
 23 24  2  0  0  0  0
 23 31  1  0  0  0  0
 24 30  1  0  0  0  0
 25 29  2  0  0  0  0
 25 32  1  0  0  0  0
 27 29  1  0  0  0  0
 28 33  2  0  0  0  0
 28 36  1  0  0  0  0
 29 42  1  0  0  0  0
 30 34  2  0  0  0  0
 30 35  1  0  0  0  0
 31 43  1  0  0  0  0
 31 44  1  0  0  0  0
 32 45  1  0  0  0  0
 32 46  1  0  0  0  0
 32 47  1  0  0  0  0
 33 34  1  0  0  0  0
 33 49  1  0  0  0  0
 36 50  1  0  0  0  0
 36 51  1  0  0  0  0
 36 52  1  0  0  0  0
M  END
> <PUBCHEM_COMPOUND_CID>
101285899

> <PUBCHEM_CONFORMER_RMSD>
0.8

> <PUBCHEM_CONFORMER_DIVERSEORDER>
1
2

> <PUBCHEM_MMFF94_PARTIAL_CHARGES>
40
1 -0.36
10 -0.57
11 0.29
12 0.56
13 -0.14
14 -0.14
15 0.28
16 0.06
17 0.08
18 0.09
19 0.09
2 -0.68
20 0.42
21 0.08
23 -0.14
25 -0.14
26 0.63
27 0.08
28 -0.14
29 -0.15
3 -0.43
30 0.09
31 0.42
32 0.14
33 -0.15
34 0.08
35 0.63
36 0.14
4 -0.53
41 0.4
42 0.15
48 0.45
49 0.15
5 -0.57
53 0.45
54 0.45
6 -0.43
7 -0.53
8 -0.57
9 -0.53

> <PUBCHEM_EFFECTIVE_ROTOR_COUNT>
1.2

> <PUBCHEM_PHARMACOPHORE_FEATURES>
16
1 1 acceptor
1 10 acceptor
1 2 acceptor
1 2 donor
1 4 donor
1 5 acceptor
1 7 donor
1 8 acceptor
1 9 donor
5 1 11 12 13 17 rings
6 11 12 14 16 18 20 rings
6 13 17 21 22 23 24 rings
6 14 18 19 25 27 29 rings
6 22 24 28 30 33 34 rings
6 3 11 14 15 19 26 rings
6 6 23 24 30 31 35 rings

> <PUBCHEM_HEAVY_ATOM_COUNT>
36

> <PUBCHEM_ATOM_DEF_STEREO_COUNT>
0

> <PUBCHEM_ATOM_UDEF_STEREO_COUNT>
2

> <PUBCHEM_BOND_DEF_STEREO_COUNT>
0

> <PUBCHEM_BOND_UDEF_STEREO_COUNT>
0

> <PUBCHEM_ISOTOPIC_ATOM_COUNT>
0

> <PUBCHEM_COMPONENT_COUNT>
1

> <PUBCHEM_CACTVS_TAUTO_COUNT>
996

> <PUBCHEM_CONFORMER_ID>
0609800B00000001

> <PUBCHEM_MMFF94_ENERGY>
149.5706

> <PUBCHEM_FEATURE_SELFOVERLAP>
81.665

> <PUBCHEM_SHAPE_FINGERPRINT>
10290309 65 18264212413796997478
10319926 262 18113893828514162338
10369192 42 18193848269845533364
10675989 125 16604897406870561292
10930396 42 17678718237004519465
11135926 11 18341602747241286860
11370993 144 18411141315992678585
12422481 6 18334860549733165944
12633257 1 18339096950934083619
131258 38 14424945674781460177
13140716 1 18270679887208978978
13402501 40 18337114454128247033
13583140 156 18261104149858286426
13811026 1 18335421305675977267
14790565 3 18129100009522356664
14856354 85 17603878835693596994
15484559 13 15751764285012904868
16112460 7 17769667403228275472
17349148 13 9439134138976097254
1813 80 16516254062268450335
18393751 57 17260176122193205176
20775530 9 13481134733363939017
21033648 29 18339066108463240016
21033650 10 13614524060518469487
21792961 116 18265905653688513518
22122407 14 17774451464810522225
22182313 1 18337674109688635484
23559900 14 18044111076061592335
23569943 247 16770993086885213382
335352 9 18272082765562402132
3380486 145 18193273216410014223
3459 110 18339645658412227043
350125 39 18128811018146708095
392239 28 18341347608507955905
469060 322 17764011859043072019
5081480 168 16699801989608368284
508706 21 18260825994880479623
5104073 3 18269261513256994834
5265222 85 17896625954421070230
56638632 10 17773314745263726448

> <PUBCHEM_SHAPE_MULTIPOLES>
682.17
11.14
3.71
1.85
7.78
0.18
0.18
-2.91
-5.53
0.08
0.2
-2.34
0.18
3.03

> <PUBCHEM_SHAPE_SELFOVERLAP>
1601.441

> <PUBCHEM_SHAPE_VOLUME>
339.3

> <PUBCHEM_COORDINATE_TYPE>
2
5
10

$$$$
