101297744
  -OEChem-03292013293D

 52 54  0     1  0  0  0  0  0999 V2000
   -2.7293    2.7619    0.0906 O   0  0  0  0  0  0  0  0  0  0  0  0
    0.7331   -2.8301   -0.3064 O   0  0  0  0  0  0  0  0  0  0  0  0
   -0.1104    3.0840    0.0441 O   0  0  0  0  0  0  0  0  0  0  0  0
    2.2557    2.3968    0.4291 O   0  0  0  0  0  0  0  0  0  0  0  0
    3.2801   -2.2259    0.1261 O   0  0  0  0  0  0  0  0  0  0  0  0
    4.6300    0.6290   -1.8970 O   0  0  0  0  0  0  0  0  0  0  0  0
   -1.4671   -0.8407   -0.3058 C   0  0  2  0  0  0  0  0  0  0  0  0
   -3.9633    0.0128   -0.0602 C   0  0  0  0  0  0  0  0  0  0  0  0
   -2.4352    0.3571   -0.1150 C   0  0  0  0  0  0  0  0  0  0  0  0
   -1.8220   -2.0053    0.6706 C   0  0  0  0  0  0  0  0  0  0  0  0
   -4.2202   -1.5169    0.0654 C   0  0  0  0  0  0  0  0  0  0  0  0
   -3.2855   -2.1701    1.0583 C   0  0  0  0  0  0  0  0  0  0  0  0
    0.0194   -0.4997   -0.0788 C   0  0  0  0  0  0  0  0  0  0  0  0
   -1.5444   -1.2982   -1.7882 C   0  0  0  0  0  0  0  0  0  0  0  0
   -4.6486    0.6633    1.1753 C   0  0  0  0  0  0  0  0  0  0  0  0
   -4.6934    0.4706   -1.3434 C   0  0  0  0  0  0  0  0  0  0  0  0
   -1.9588    1.6224    0.0017 C   0  0  0  0  0  0  0  0  0  0  0  0
    0.4552    0.8160    0.0716 C   0  0  0  0  0  0  0  0  0  0  0  0
   -0.5053    1.9215    0.0334 C   0  0  0  0  0  0  0  0  0  0  0  0
    1.0021   -1.5146   -0.0588 C   0  0  0  0  0  0  0  0  0  0  0  0
    1.8164    1.1141    0.2531 C   0  0  0  0  0  0  0  0  0  0  0  0
    2.7625    0.0938    0.2820 C   0  0  0  0  0  0  0  0  0  0  0  0
    2.3554   -1.2233    0.1236 C   0  0  0  0  0  0  0  0  0  0  0  0
    4.2105    0.4124    0.4769 C   0  0  2  0  0  0  0  0  0  0  0  0
    5.0903   -0.0197   -0.7167 C   0  0  0  0  0  0  0  0  0  0  0  0
    4.7728   -0.2112    1.7685 C   0  0  0  0  0  0  0  0  0  0  0  0
   -1.2541   -1.9147    1.6075 H   0  0  0  0  0  0  0  0  0  0  0  0
   -1.5374   -2.9713    0.2418 H   0  0  0  0  0  0  0  0  0  0  0  0
   -4.1223   -2.0122   -0.9071 H   0  0  0  0  0  0  0  0  0  0  0  0
   -5.2575   -1.7079    0.3710 H   0  0  0  0  0  0  0  0  0  0  0  0
   -3.5251   -3.2367    1.1484 H   0  0  0  0  0  0  0  0  0  0  0  0
   -3.4456   -1.7469    2.0570 H   0  0  0  0  0  0  0  0  0  0  0  0
   -2.2656   -2.1068   -1.9366 H   0  0  0  0  0  0  0  0  0  0  0  0
   -0.6001   -1.6338   -2.2279 H   0  0  0  0  0  0  0  0  0  0  0  0
   -1.8591   -0.4692   -2.4359 H   0  0  0  0  0  0  0  0  0  0  0  0
   -4.2645    0.0058   -2.2377 H   0  0  0  0  0  0  0  0  0  0  0  0
   -4.6304    1.5563   -1.4742 H   0  0  0  0  0  0  0  0  0  0  0  0
   -4.0875    0.4732    2.0966 H   0  0  0  0  0  0  0  0  0  0  0  0
   -4.7439    1.7479    1.0643 H   0  0  0  0  0  0  0  0  0  0  0  0
   -5.7568    0.2068   -1.3080 H   0  0  0  0  0  0  0  0  0  0  0  0
   -5.6667    0.2818    1.3166 H   0  0  0  0  0  0  0  0  0  0  0  0
    4.3471    1.4960    0.5751 H   0  0  0  0  0  0  0  0  0  0  0  0
   -2.1383    3.5306    0.1639 H   0  0  0  0  0  0  0  0  0  0  0  0
    0.0077   -2.9255   -0.9379 H   0  0  0  0  0  0  0  0  0  0  0  0
    5.0971   -1.0977   -0.8940 H   0  0  0  0  0  0  0  0  0  0  0  0
    6.1266    0.2937   -0.5464 H   0  0  0  0  0  0  0  0  0  0  0  0
    1.5198    2.9778    0.6747 H   0  0  0  0  0  0  0  0  0  0  0  0
    4.8478   -1.3013    1.7260 H   0  0  0  0  0  0  0  0  0  0  0  0
    5.7813    0.1717    1.9624 H   0  0  0  0  0  0  0  0  0  0  0  0
    4.1489    0.0505    2.6306 H   0  0  0  0  0  0  0  0  0  0  0  0
    2.8167   -3.0719   -0.0005 H   0  0  0  0  0  0  0  0  0  0  0  0
    5.2190    0.3555   -2.6208 H   0  0  0  0  0  0  0  0  0  0  0  0
  1 17  1  0  0  0  0
  1 43  1  0  0  0  0
  2 20  1  0  0  0  0
  2 44  1  0  0  0  0
  3 19  2  0  0  0  0
  4 21  1  0  0  0  0
  4 47  1  0  0  0  0
  5 23  1  0  0  0  0
  5 51  1  0  0  0  0
  6 25  1  0  0  0  0
  6 52  1  0  0  0  0
  7  9  1  0  0  0  0
  7 10  1  0  0  0  0
  7 13  1  0  0  0  0
  7 14  1  0  0  0  0
  8  9  1  0  0  0  0
  8 11  1  0  0  0  0
  8 15  1  0  0  0  0
  8 16  1  0  0  0  0
  9 17  2  0  0  0  0
 10 12  1  0  0  0  0
 10 27  1  0  0  0  0
 10 28  1  0  0  0  0
 11 12  1  0  0  0  0
 11 29  1  0  0  0  0
 11 30  1  0  0  0  0
 12 31  1  0  0  0  0
 12 32  1  0  0  0  0
 13 18  2  0  0  0  0
 13 20  1  0  0  0  0
 14 33  1  0  0  0  0
 14 34  1  0  0  0  0
 14 35  1  0  0  0  0
 15 38  1  0  0  0  0
 15 39  1  0  0  0  0
 15 41  1  0  0  0  0
 16 36  1  0  0  0  0
 16 37  1  0  0  0  0
 16 40  1  0  0  0  0
 17 19  1  0  0  0  0
 18 19  1  0  0  0  0
 18 21  1  0  0  0  0
 20 23  2  0  0  0  0
 21 22  2  0  0  0  0
 22 23  1  0  0  0  0
 22 24  1  0  0  0  0
 24 25  1  0  0  0  0
 24 26  1  0  0  0  0
 24 42  1  0  0  0  0
 25 45  1  0  0  0  0
 25 46  1  0  0  0  0
 26 48  1  0  0  0  0
 26 49  1  0  0  0  0
 26 50  1  0  0  0  0
M  END
> <PUBCHEM_COMPOUND_CID>
101297744

> <PUBCHEM_CONFORMER_RMSD>
0.6

> <PUBCHEM_CONFORMER_DIVERSEORDER>
1
4
7
8
3
6
5
2

> <PUBCHEM_MMFF94_PARTIAL_CHARGES>
24
1 -0.53
13 -0.14
17 0.09
18 0.09
19 0.47
2 -0.53
20 0.08
21 0.08
22 -0.14
23 0.08
24 0.14
25 0.28
3 -0.57
4 -0.53
43 0.45
44 0.45
47 0.45
5 -0.53
51 0.45
52 0.4
6 -0.68
7 0.28
8 0.14
9 -0.28

> <PUBCHEM_EFFECTIVE_ROTOR_COUNT>
2.8

> <PUBCHEM_PHARMACOPHORE_FEATURES>
12
1 1 donor
1 2 donor
1 26 hydrophobe
1 3 acceptor
1 4 donor
1 5 donor
1 6 acceptor
1 6 donor
3 8 15 16 hydrophobe
6 13 18 20 21 22 23 rings
6 7 8 9 10 11 12 rings
6 7 9 13 17 18 19 rings

> <PUBCHEM_HEAVY_ATOM_COUNT>
26

> <PUBCHEM_ATOM_DEF_STEREO_COUNT>
2

> <PUBCHEM_ATOM_UDEF_STEREO_COUNT>
0

> <PUBCHEM_BOND_DEF_STEREO_COUNT>
0

> <PUBCHEM_BOND_UDEF_STEREO_COUNT>
0

> <PUBCHEM_ISOTOPIC_ATOM_COUNT>
0

> <PUBCHEM_COMPONENT_COUNT>
1

> <PUBCHEM_CACTVS_TAUTO_COUNT>
69

> <PUBCHEM_CONFORMER_ID>
0609AE5000000001

> <PUBCHEM_MMFF94_ENERGY>
104.321

> <PUBCHEM_FEATURE_SELFOVERLAP>
60.946

> <PUBCHEM_SHAPE_FINGERPRINT>
10366900 7 18412822499673981219
10498660 4 18408608067341293116
10616163 171 18410578400541550163
10670039 82 18336276639548449180
10675989 125 16820785441596138645
10759866 29 17894915139828392226
10906281 52 18340499859305057549
10967382 1 18411416206773916322
11488393 25 17416144788741294006
11578080 2 17024861555303693023
12011746 2 18412261731669389469
12236239 1 17821445777408282388
12553582 1 18410857654893789153
12633257 1 18334296483082811019
12788726 201 18335698291309291432
13140716 1 18339358694498908761
13221675 6 18412259536482268927
13224815 77 18410572907357382994
14223421 5 18410573972551418411
14787075 74 18041847323406552595
14790565 3 18266750254015958796
15196674 1 18339921494017490168
15209289 33 18335982047013680723
15788980 27 16877655756006067202
1601671 61 18410015442288123734
16752209 62 18413389830620612372
16945 1 18410017628595399357
17349148 13 18334005112095222436
17804303 29 18340209686333783209
1813 80 17458349632329119980
19591789 44 18122349235438617166
19784866 170 18411989043895378155
200 152 17988914583725825671
20028762 73 17914896667567064407
20261772 1 18202561817120638942
20715895 44 17607227776270861557
21033648 29 17489579069609118587
21267235 1 18339651139149212075
21421861 104 17969499299532899522
22182313 1 18130233644432502630
2334 1 17906450283724143149
23402539 116 18338784685141739543
23557571 272 18271815570903797956
23558518 356 18048317743224842504
23559900 14 18336544902879098786
2748010 2 18267294516133651877
3004659 81 17967809432303248026
335352 9 18410291411254216589
34934 24 18338507561183235955
350125 39 18410857693939073344
5104073 3 18338233885418775377
59755656 215 18338798914115073407
9709674 26 18341049601537828335

> <PUBCHEM_SHAPE_MULTIPOLES>
499.85
9.74
2.76
1.21
3.94
0.52
-0.22
-0.29
0.31
-0.89
0.23
0.29
-0.18
0.09

> <PUBCHEM_SHAPE_SELFOVERLAP>
1085.821

> <PUBCHEM_SHAPE_VOLUME>
270.3

> <PUBCHEM_COORDINATE_TYPE>
2
5
10

$$$$
