101260815
  -OEChem-03292013293D

 46 47  0     1  0  0  0  0  0999 V2000
   -1.4859   -0.7312    0.7902 O   0  0  0  0  0  0  0  0  0  0  0  0
   -1.0700    1.5646    0.7903 O   0  0  0  0  0  0  0  0  0  0  0  0
   -5.3396   -0.1643   -0.5117 O   0  0  0  0  0  0  0  0  0  0  0  0
   -4.1199   -2.7766   -0.7233 O   0  0  0  0  0  0  0  0  0  0  0  0
   -3.3212    1.9498   -0.8814 O   0  0  0  0  0  0  0  0  0  0  0  0
   -0.2591   -3.1967    0.9405 O   0  0  0  0  0  0  0  0  0  0  0  0
   -0.3294    4.0590   -0.1950 O   0  0  0  0  0  0  0  0  0  0  0  0
    5.4425   -2.0453    0.5544 O   0  0  0  0  0  0  0  0  0  0  0  0
   -3.9351   -0.3740   -0.6667 C   0  0  2  0  0  0  0  0  0  0  0  0
   -3.5747   -1.6907    0.0216 C   0  0  2  0  0  0  0  0  0  0  0  0
   -3.1742    0.7994   -0.0492 C   0  0  1  0  0  0  0  0  0  0  0  0
   -2.0561   -1.8552    0.1176 C   0  0  2  0  0  0  0  0  0  0  0  0
   -1.6829    0.4891    0.0798 C   0  0  2  0  0  0  0  0  0  0  0  0
   -1.6715   -3.1049    0.9028 C   0  0  0  0  0  0  0  0  0  0  0  0
    0.2360    1.8344    0.4852 C   0  0  0  0  0  0  0  0  0  0  0  0
    1.2023    0.8459    0.6730 C   0  0  0  0  0  0  0  0  0  0  0  0
    2.5377    1.1092    0.3681 C   0  0  0  0  0  0  0  0  0  0  0  0
    0.6052    3.0858   -0.0078 C   0  0  0  0  0  0  0  0  0  0  0  0
    3.5709    0.0529    0.5699 C   0  0  0  0  0  0  0  0  0  0  0  0
    2.9069    2.3607   -0.1250 C   0  0  0  0  0  0  0  0  0  0  0  0
    1.9406    3.3490   -0.3130 C   0  0  0  0  0  0  0  0  0  0  0  0
    3.7611   -0.8189   -0.6770 C   0  0  0  0  0  0  0  0  0  0  0  0
    4.8011   -1.9090   -0.4863 C   0  0  0  0  0  0  0  0  0  0  0  0
    5.0155   -2.8332   -1.6570 C   0  0  0  0  0  0  0  0  0  0  0  0
   -3.7530   -0.4346   -1.7460 H   0  0  0  0  0  0  0  0  0  0  0  0
   -4.0263   -1.7202    1.0208 H   0  0  0  0  0  0  0  0  0  0  0  0
   -3.5975    1.0601    0.9280 H   0  0  0  0  0  0  0  0  0  0  0  0
   -1.6040   -1.9299   -0.8809 H   0  0  0  0  0  0  0  0  0  0  0  0
   -1.2323    0.4101   -0.9208 H   0  0  0  0  0  0  0  0  0  0  0  0
   -2.0688   -4.0111    0.4359 H   0  0  0  0  0  0  0  0  0  0  0  0
   -2.0297   -3.0425    1.9358 H   0  0  0  0  0  0  0  0  0  0  0  0
   -5.5311   -0.0887    0.4387 H   0  0  0  0  0  0  0  0  0  0  0  0
   -3.7151   -2.7675   -1.6075 H   0  0  0  0  0  0  0  0  0  0  0  0
   -2.9475    1.7403   -1.7544 H   0  0  0  0  0  0  0  0  0  0  0  0
   -0.0366   -3.9954    1.4484 H   0  0  0  0  0  0  0  0  0  0  0  0
    0.9307   -0.1269    1.0722 H   0  0  0  0  0  0  0  0  0  0  0  0
    4.5263    0.5161    0.8502 H   0  0  0  0  0  0  0  0  0  0  0  0
    3.2971   -0.5767    1.4270 H   0  0  0  0  0  0  0  0  0  0  0  0
    3.9438    2.5775   -0.3680 H   0  0  0  0  0  0  0  0  0  0  0  0
    2.2419    4.3195   -0.6981 H   0  0  0  0  0  0  0  0  0  0  0  0
    4.0764   -0.1996   -1.5250 H   0  0  0  0  0  0  0  0  0  0  0  0
    2.8139   -1.3032   -0.9425 H   0  0  0  0  0  0  0  0  0  0  0  0
    0.1080    4.8556   -0.5417 H   0  0  0  0  0  0  0  0  0  0  0  0
    5.3462   -2.2556   -2.5237 H   0  0  0  0  0  0  0  0  0  0  0  0
    4.0841   -3.3572   -1.8852 H   0  0  0  0  0  0  0  0  0  0  0  0
    5.7842   -3.5704   -1.4094 H   0  0  0  0  0  0  0  0  0  0  0  0
  1 12  1  0  0  0  0
  1 13  1  0  0  0  0
  2 13  1  0  0  0  0
  2 15  1  0  0  0  0
  3  9  1  0  0  0  0
  3 32  1  0  0  0  0
  4 10  1  0  0  0  0
  4 33  1  0  0  0  0
  5 11  1  0  0  0  0
  5 34  1  0  0  0  0
  6 14  1  0  0  0  0
  6 35  1  0  0  0  0
  7 18  1  0  0  0  0
  7 43  1  0  0  0  0
  8 23  2  0  0  0  0
  9 10  1  0  0  0  0
  9 11  1  0  0  0  0
  9 25  1  0  0  0  0
 10 12  1  0  0  0  0
 10 26  1  0  0  0  0
 11 13  1  0  0  0  0
 11 27  1  0  0  0  0
 12 14  1  0  0  0  0
 12 28  1  0  0  0  0
 13 29  1  0  0  0  0
 14 30  1  0  0  0  0
 14 31  1  0  0  0  0
 15 16  1  0  0  0  0
 15 18  2  0  0  0  0
 16 17  2  0  0  0  0
 16 36  1  0  0  0  0
 17 19  1  0  0  0  0
 17 20  1  0  0  0  0
 18 21  1  0  0  0  0
 19 22  1  0  0  0  0
 19 37  1  0  0  0  0
 19 38  1  0  0  0  0
 20 21  2  0  0  0  0
 20 39  1  0  0  0  0
 21 40  1  0  0  0  0
 22 23  1  0  0  0  0
 22 41  1  0  0  0  0
 22 42  1  0  0  0  0
 23 24  1  0  0  0  0
 24 44  1  0  0  0  0
 24 45  1  0  0  0  0
 24 46  1  0  0  0  0
M  END
> <PUBCHEM_COMPOUND_CID>
101260815

> <PUBCHEM_CONFORMER_RMSD>
1

> <PUBCHEM_CONFORMER_DIVERSEORDER>
1
151
120
173
185
133
36
72
22
125
84
172
92
135
190
48
90
31
89
42
14
138
139
61
35
97
62
59
153
178
21
126
27
99
95
155
176
100
110
65
51
195
121
80
188
30
187
134
29
73
163
164
193
74
162
5
68
98
140
12
129
114
161
122
128
196
157
148
166
38
143
64
93
56
194
132
165
77
28
174
16
109
23
142
79
55
49
53
43
112
119
124
13
20
149
160
18
102
57
46
76
52
115
26
184
147
159
183
156
34
50
167
40
186
82
11
91
170
181
19
87
44
17
104
67
96
150
37
15
169
191
69
192
75
24
9
81
103
189
175
63
118
141
152
105
101
130
131
83
111
146
7
136
60
179
66
4
85
45
47
144
94
171
180
32
58
3
116
39
127
41
71
25
154
8
123
168
6
137
78
117
70
158
145
106
107
88
86
54
113
108
182
33
2
177
10

> <PUBCHEM_MMFF94_PARTIAL_CHARGES>
32
1 -0.56
10 0.28
11 0.28
12 0.28
13 0.56
14 0.28
15 0.08
16 -0.15
17 -0.14
18 0.08
19 0.14
2 -0.36
20 -0.15
21 -0.15
22 0.06
23 0.45
24 0.06
3 -0.68
32 0.4
33 0.4
34 0.4
35 0.4
36 0.15
39 0.15
4 -0.68
40 0.15
43 0.45
5 -0.68
6 -0.68
7 -0.53
8 -0.57
9 0.28

> <PUBCHEM_EFFECTIVE_ROTOR_COUNT>
7.2

> <PUBCHEM_PHARMACOPHORE_FEATURES>
14
1 1 acceptor
1 2 acceptor
1 3 acceptor
1 3 donor
1 4 acceptor
1 4 donor
1 5 acceptor
1 5 donor
1 6 acceptor
1 6 donor
1 7 donor
1 8 acceptor
6 1 9 10 11 12 13 rings
6 15 16 17 18 20 21 rings

> <PUBCHEM_HEAVY_ATOM_COUNT>
24

> <PUBCHEM_ATOM_DEF_STEREO_COUNT>
5

> <PUBCHEM_ATOM_UDEF_STEREO_COUNT>
0

> <PUBCHEM_BOND_DEF_STEREO_COUNT>
0

> <PUBCHEM_BOND_UDEF_STEREO_COUNT>
0

> <PUBCHEM_ISOTOPIC_ATOM_COUNT>
0

> <PUBCHEM_COMPONENT_COUNT>
1

> <PUBCHEM_CACTVS_TAUTO_COUNT>
25

> <PUBCHEM_CONFORMER_ID>
06091E0F00000001

> <PUBCHEM_MMFF94_ENERGY>
66.8442

> <PUBCHEM_FEATURE_SELFOVERLAP>
71.111

> <PUBCHEM_SHAPE_FINGERPRINT>
10483366 6 18048586028779389813
10616163 171 17615970349304186059
10693767 8 17913184728505754455
116883 192 18411136918347542120
12107183 9 18271258127420288361
12553582 1 18336274427329022666
12788726 201 18119813513134268778
13402501 40 18342740668123709950
13533116 47 18201438138044067961
1361 2 16034081126288935066
14251757 5 18261969453093884294
14790565 3 17188133392826630784
14866123 147 18053951653864808513
15352361 1 18413108338537983014
15420108 30 17265270769482059881
15927050 60 17404584377088397669
17492 89 18267583696551087287
19141452 34 18055643819540292064
20403669 9 18342740672349917022
20465049 17 18259703389588268723
20645477 70 18265046023428823960
21279426 13 18409161109127071959
21307412 95 18127413345572970222
221490 88 18191592058472076568
22440779 20 16664065804173558171
23379529 103 18341615888996947252
23559900 14 18340200907615750656
3004659 81 18259987046724830998
3027735 51 18053664664107729098
394222 165 13900196006388215370
4280585 95 18335699408897060402
474144 1 17461149955729133698
5207 123 18413669093235576060
6138700 20 18267302040906058335
6433294 58 18049725410372075546
9709674 26 18265050425928720339

> <PUBCHEM_SHAPE_MULTIPOLES>
446.95
10.14
4.88
0.99
3.11
0.99
-0.11
-8.69
-3.09
2.01
-0.31
0.38
-0.52
1.17

> <PUBCHEM_SHAPE_SELFOVERLAP>
926.933

> <PUBCHEM_SHAPE_VOLUME>
253.2

> <PUBCHEM_COORDINATE_TYPE>
2
5
10

$$$$
