101215395
  -OEChem-03292013293D

 34 34  0     1  0  0  0  0  0999 V2000
   -0.2554   -0.2657    0.1620 S   0  0  0  0  0  0  0  0  0  0  0  0
   -3.3131   -1.6163    1.8930 O   0  0  0  0  0  0  0  0  0  0  0  0
   -2.8442   -2.9896    0.1510 O   0  0  0  0  0  0  0  0  0  0  0  0
    0.8794   -0.1519   -2.2102 O   0  0  0  0  0  0  0  0  0  0  0  0
   -4.5264    1.6772   -1.2296 O   0  0  0  0  0  0  0  0  0  0  0  0
   -3.4066    0.5617    0.4802 N   0  0  0  0  0  0  0  0  0  0  0  0
   -3.0155   -0.6074   -0.2669 C   0  0  1  0  0  0  0  0  0  0  0  0
   -1.6730   -0.4115   -0.9757 C   0  0  0  0  0  0  0  0  0  0  0  0
   -3.0390   -1.8624    0.5896 C   0  0  0  0  0  0  0  0  0  0  0  0
    2.4299    0.0344   -0.4496 C   0  0  0  0  0  0  0  0  0  0  0  0
    1.0579   -0.1114   -0.9990 C   0  0  0  0  0  0  0  0  0  0  0  0
    5.0067    0.3076    0.5838 C   0  0  0  0  0  0  0  0  0  0  0  0
    3.5210   -0.4779   -1.1518 C   0  0  0  0  0  0  0  0  0  0  0  0
    2.6275    0.6836    0.7691 C   0  0  0  0  0  0  0  0  0  0  0  0
   -4.1319    1.6081   -0.0686 C   0  0  0  0  0  0  0  0  0  0  0  0
    4.8093   -0.3414   -0.6351 C   0  0  0  0  0  0  0  0  0  0  0  0
    3.9157    0.8201    1.2858 C   0  0  0  0  0  0  0  0  0  0  0  0
    6.3846    0.4534    1.1359 C   0  0  0  0  0  0  0  0  0  0  0  0
   -4.4268    2.6895    0.9362 C   0  0  0  0  0  0  0  0  0  0  0  0
   -3.7866   -0.7616   -1.0330 H   0  0  0  0  0  0  0  0  0  0  0  0
   -1.7084    0.4880   -1.6007 H   0  0  0  0  0  0  0  0  0  0  0  0
   -1.4860   -1.2689   -1.6323 H   0  0  0  0  0  0  0  0  0  0  0  0
   -3.1222    0.6199    1.4540 H   0  0  0  0  0  0  0  0  0  0  0  0
    3.3852   -0.9898   -2.1009 H   0  0  0  0  0  0  0  0  0  0  0  0
    1.8123    1.1235    1.3355 H   0  0  0  0  0  0  0  0  0  0  0  0
    5.6515   -0.7440   -1.1917 H   0  0  0  0  0  0  0  0  0  0  0  0
    4.0582    1.3348    2.2324 H   0  0  0  0  0  0  0  0  0  0  0  0
    6.8375    1.3821    0.7750 H   0  0  0  0  0  0  0  0  0  0  0  0
    6.3718    0.4717    2.2310 H   0  0  0  0  0  0  0  0  0  0  0  0
    7.0206   -0.3869    0.8373 H   0  0  0  0  0  0  0  0  0  0  0  0
   -3.5105    2.9813    1.4573 H   0  0  0  0  0  0  0  0  0  0  0  0
   -4.8337    3.5665    0.4252 H   0  0  0  0  0  0  0  0  0  0  0  0
   -5.1585    2.3238    1.6618 H   0  0  0  0  0  0  0  0  0  0  0  0
   -3.3299   -2.4395    2.4262 H   0  0  0  0  0  0  0  0  0  0  0  0
  1  8  1  0  0  0  0
  1 11  1  0  0  0  0
  2  9  1  0  0  0  0
  2 34  1  0  0  0  0
  3  9  2  0  0  0  0
  4 11  2  0  0  0  0
  5 15  2  0  0  0  0
  6  7  1  0  0  0  0
  6 15  1  0  0  0  0
  6 23  1  0  0  0  0
  7  8  1  0  0  0  0
  7  9  1  0  0  0  0
  7 20  1  0  0  0  0
  8 21  1  0  0  0  0
  8 22  1  0  0  0  0
 10 11  1  0  0  0  0
 10 13  2  0  0  0  0
 10 14  1  0  0  0  0
 12 16  2  0  0  0  0
 12 17  1  0  0  0  0
 12 18  1  0  0  0  0
 13 16  1  0  0  0  0
 13 24  1  0  0  0  0
 14 17  2  0  0  0  0
 14 25  1  0  0  0  0
 15 19  1  0  0  0  0
 16 26  1  0  0  0  0
 17 27  1  0  0  0  0
 18 28  1  0  0  0  0
 18 29  1  0  0  0  0
 18 30  1  0  0  0  0
 19 31  1  0  0  0  0
 19 32  1  0  0  0  0
 19 33  1  0  0  0  0
M  END
> <PUBCHEM_COMPOUND_CID>
101215395

> <PUBCHEM_CONFORMER_RMSD>
0.8

> <PUBCHEM_CONFORMER_DIVERSEORDER>
1
118
78
184
170
136
83
28
174
223
35
132
225
230
148
153
82
101
228
39
233
88
19
56
7
182
162
149
5
210
99
4
164
218
14
221
110
130
203
46
217
195
76
200
51
179
214
42
168
161
123
199
201
152
32
126
68
25
49
157
38
175
213
92
117
202
45
29
37
156
122
43
226
238
234
53
96
197
11
98
134
10
6
159
172
2
109
33
30
120
95
15
194
17
139
138
125
113
171
58
173
145
207
224
158
165
100
215
54
236
116
196
61
160
71
193
119
129
103
55
209
57
18
212
12
105
77
131
186
167
31
97
67
222
232
154
133
143
115
73
22
27
192
146
219
137
74
169
181
142
178
183
48
47
185
60
147
235
239
108
140
112
79
13
121
206
75
124
205
102
191
69
188
150
91
231
111
128
36
84
62
72
189
41
21
63
104
187
70
141
151
127
86
44
80
166
23
65
34
208
64
50
216
24
177
176
52
59
106
3
229
20
180
40
211
198
114
8
220
16
155
227
107
237
94
190
66
90
89
93
26
163
81
144
87
85
9
135
204

> <PUBCHEM_MMFF94_PARTIAL_CHARGES>
25
1 -0.37
10 0.09
11 0.62
12 -0.14
13 -0.15
14 -0.15
15 0.57
16 -0.15
17 -0.15
18 0.14
19 0.06
2 -0.65
23 0.37
24 0.15
25 0.15
26 0.15
27 0.15
3 -0.57
34 0.5
4 -0.57
5 -0.57
6 -0.73
7 0.36
8 0.23
9 0.66

> <PUBCHEM_EFFECTIVE_ROTOR_COUNT>
7

> <PUBCHEM_PHARMACOPHORE_FEATURES>
6
1 2 acceptor
1 3 acceptor
1 5 acceptor
1 6 donor
3 2 3 9 anion
6 10 12 13 14 16 17 rings

> <PUBCHEM_HEAVY_ATOM_COUNT>
19

> <PUBCHEM_ATOM_DEF_STEREO_COUNT>
1

> <PUBCHEM_ATOM_UDEF_STEREO_COUNT>
0

> <PUBCHEM_BOND_DEF_STEREO_COUNT>
0

> <PUBCHEM_BOND_UDEF_STEREO_COUNT>
0

> <PUBCHEM_ISOTOPIC_ATOM_COUNT>
0

> <PUBCHEM_COMPONENT_COUNT>
1

> <PUBCHEM_CACTVS_TAUTO_COUNT>
12

> <PUBCHEM_CONFORMER_ID>
06086CA300000001

> <PUBCHEM_MMFF94_ENERGY>
42.4264

> <PUBCHEM_FEATURE_SELFOVERLAP>
30.506

> <PUBCHEM_SHAPE_FINGERPRINT>
10291535 26 18059858342325470705
10912923 1 17531251699000723398
11036077 4 17603586322713752419
11089746 13 17917418796937444724
11315181 36 18114176483957746598
11370993 144 18340767048782523070
11405975 8 18408323302282704488
11545043 162 18411420639560156138
12500047 106 18410294692271672423
12507557 5 17561082548546620264
12553582 1 15574709210046707836
12616971 3 16225768515086009270
12633257 1 18040432191896471996
13402501 40 17917709054938361265
13583140 156 18060416949639622310
13675066 3 18202568405900963150
14178342 30 18259991482872445567
14251764 38 18201435908571679649
15188451 53 18189046671769001891
15375358 24 18060139808179061197
15537594 2 16153705397693895170
16988056 13 11011823799511351123
17093844 174 18408595981509122176
17844677 252 18338801229524705336
19489759 90 18410848872101991103
200 152 15123504792177780353
20600515 1 18337403659693332301
20645477 56 18411424986351759593
20645477 70 16988849328563722214
21033648 29 17775275075985778280
21401589 2 18129954364928229753
23402539 116 16443335490781339478
23402655 69 16343698829414716484
235170 7 8286207140963744978
23557571 272 18271257079083965501
23559900 14 18340500958769278102
312423 11 17314527000319490399
312425 54 18040423387914778296
314194 84 15285347428235868568
351380 3 15719108050732115456
5104073 3 18336548222503632410
57265010 4 18333450950029958675
573450 72 17967250926934089670
5924683 9 18338232782008175591
602551 16 18188209909545530362
90127 26 18131355223918736644
9981440 41 18272652303758609635

> <PUBCHEM_SHAPE_MULTIPOLES>
366.4
13.26
2.08
1.51
8.19
0.01
0.13
-4.96
-3.04
-4.37
-0.65
-0.08
0.25
1.69

> <PUBCHEM_SHAPE_SELFOVERLAP>
736.15

> <PUBCHEM_SHAPE_VOLUME>
215.3

> <PUBCHEM_COORDINATE_TYPE>
2
5
10

$$$$
