REMARK  Name = 101207200
REMARK  10 active torsions:
REMARK  status: ('A' for Active; 'I' for Inactive)
REMARK    1  A    between atoms: C_6  and  O_16
REMARK    2  A    between atoms: C_7  and  O_14
REMARK    3  A    between atoms: C_7  and  C_19
REMARK    4  A    between atoms: C_10  and  C_26
REMARK    5  A    between atoms: C_19  and  C_20
REMARK    6  A    between atoms: C_26  and  O_27
REMARK    7  A    between atoms: C_26  and  C_29
REMARK    8  A    between atoms: C_29  and  O_30
REMARK    9  A    between atoms: C_29  and  C_32
REMARK   10  A    between atoms: C_33  and  C_35
REMARK                            x       y       z     vdW  Elec       q    Type
REMARK                         _______ _______ _______ _____ _____    ______ ____
ROOT
ATOM      1  O   UNL     1      -0.810   0.449  -0.371  0.00  0.00    -0.466 OA
ATOM      2  O   UNL     1       1.341   1.351  -2.351  0.00  0.00    -0.271 OA
ATOM      3  O   UNL     1       1.153   3.190   0.527  0.00  0.00    -0.287 OA
ATOM      4  N   UNL     1       2.114  -0.449  -1.068  0.00  0.00    -0.275 N 
ATOM      5  C   UNL     1       0.502   0.941  -0.095  0.00  0.00    +0.282 C 
ATOM      6  C   UNL     1       1.216   0.128   0.995  0.00  0.00    +0.213 C 
ATOM      7  C   UNL     1       1.830  -1.031   0.216  0.00  0.00    +0.238 C 
ATOM      8  C   UNL     1       1.351   0.688  -1.325  0.00  0.00    +0.270 C 
ATOM      9  C   UNL     1       0.282   2.377   0.261  0.00  0.00    +0.219 C 
ATOM     10  C   UNL     1      -1.678   1.517  -0.144  0.00  0.00    +0.145 C 
ATOM     11  C   UNL     1      -1.147   2.684   0.228  0.00  0.00    +0.049 C 
ATOM     12  C   UNL     1      -1.717   4.009   0.546  0.00  0.00    +0.037 C 
ATOM     13  H   UNL     1       2.777  -0.815  -1.698  0.00  0.00    +0.152 HD
ENDROOT
BRANCH   7  14
ATOM     14  O   UNL     1       0.926  -2.101   0.046  0.00  0.00    -0.331 OA
ATOM     15  C   UNL     1       1.437  -3.096  -0.837  0.00  0.00    +0.176 C 
ENDBRANCH   7  14
BRANCH   6  16
ATOM     16  O   UNL     1       0.331  -0.334   1.999  0.00  0.00    -0.377 OA
ATOM     17  H   UNL     1      -0.042   0.425   2.475  0.00  0.00    +0.211 HD
ENDBRANCH   6  16
BRANCH   7  19
ATOM     18  O   UNL     1       3.128  -2.431   1.627  0.00  0.00    -0.287 OA
ATOM     19  C   UNL     1       3.119  -1.534   0.788  0.00  0.00    +0.218 C 
BRANCH  19  20
ATOM     20  C   UNL     1       4.401  -0.932   0.324  0.00  0.00    +0.039 C 
ATOM     21  C   UNL     1       4.635   0.432   0.501  0.00  0.00    +0.003 C 
ATOM     22  C   UNL     1       5.366  -1.732  -0.285  0.00  0.00    +0.003 C 
ATOM     23  C   UNL     1       5.836   0.995   0.069  0.00  0.00    +0.000 C 
ATOM     24  C   UNL     1       6.567  -1.169  -0.718  0.00  0.00    +0.000 C 
ATOM     25  C   UNL     1       6.802   0.194  -0.541  0.00  0.00    +0.000 C 
ENDBRANCH  19  20
ENDBRANCH   7  19
BRANCH  10  26
ATOM     26  C   UNL     1      -3.120   1.209  -0.354  0.00  0.00    +0.198 C 
BRANCH  26  27
ATOM     27  O   UNL     1      -3.320   0.891  -1.732  0.00  0.00    -0.375 OA
ATOM     28  H   UNL     1      -2.969   1.608  -2.283  0.00  0.00    +0.211 HD
ENDBRANCH  26  27
BRANCH  26  29
ATOM     29  C   UNL     1      -3.681   0.064   0.514  0.00  0.00    +0.167 C 
BRANCH  29  30
ATOM     30  O   UNL     1      -3.437   0.370   1.887  0.00  0.00    -0.377 OA
ATOM     31  H   UNL     1      -2.489   0.531   2.019  0.00  0.00    +0.211 HD
ENDBRANCH  29  30
BRANCH  29  32
ATOM     32  C   UNL     1      -5.155  -0.185   0.318  0.00  0.00    +0.008 C 
ATOM     33  C   UNL     1      -5.652  -1.366  -0.074  0.00  0.00    +0.035 C 
BRANCH  33  35
ATOM     34  O   UNL     1      -7.926  -0.657  -0.016  0.00  0.00    -0.291 OA
ATOM     35  C   UNL     1      -7.118  -1.555  -0.245  0.00  0.00    +0.173 C 
ATOM     36  C   UNL     1      -7.576  -2.919  -0.689  0.00  0.00    +0.077 C 
ENDBRANCH  33  35
ENDBRANCH  29  32
ENDBRANCH  26  29
ENDBRANCH  10  26
TORSDOF 10
