REMARK  Name = 101285674
REMARK  9 active torsions:
REMARK  status: ('A' for Active; 'I' for Inactive)
REMARK    1  A    between atoms: C_8  and  O_17
REMARK    2  A    between atoms: C_14  and  C_33
REMARK    3  A    between atoms: O_17  and  C_19
REMARK    4  A    between atoms: C_20  and  O_24
REMARK    5  A    between atoms: C_21  and  O_26
REMARK    6  A    between atoms: C_22  and  O_28
REMARK    7  A    between atoms: C_23  and  C_30
REMARK    8  A    between atoms: C_30  and  O_31
REMARK    9  A    between atoms: C_33  and  O_34
REMARK                            x       y       z     vdW  Elec       q    Type
REMARK                         _______ _______ _______ _____ _____    ______ ____
ROOT
ATOM      1  O   UNL     1       1.684   2.677   1.220  0.00  0.00    -0.448 OA
ATOM      2  O   UNL     1       1.562   2.479   3.500  0.00  0.00    -0.250 OA
ATOM      3  C   UNL     1       2.620   0.593   0.705  0.00  0.00    +0.055 C 
ATOM      4  C   UNL     1       2.407   2.009   0.168  0.00  0.00    +0.191 C 
ATOM      5  C   UNL     1       2.875   0.896   2.188  0.00  0.00    +0.103 C 
ATOM      6  C   UNL     1       3.787  -0.169   0.058  0.00  0.00    +0.009 C 
ATOM      7  C   UNL     1       3.448  -0.859  -1.269  0.00  0.00    +0.024 C 
ATOM      8  C   UNL     1       0.098   0.448  -1.608  0.00  0.00    +0.140 C 
ATOM      9  C   UNL     1       1.741   2.346  -1.137  0.00  0.00    +0.011 C 
ATOM     10  C   UNL     1       1.969   2.081   2.419  0.00  0.00    +0.317 C 
ATOM     11  C   UNL     1       0.815   1.745  -1.911  0.00  0.00    -0.018 C 
ATOM     12  C   UNL     1       2.531  -0.266   3.106  0.00  0.00    +0.012 C 
ATOM     13  C   UNL     1       0.608  -0.709  -2.487  0.00  0.00    +0.059 C 
ATOM     14  C   UNL     1       2.390  -1.937  -1.146  0.00  0.00    -0.019 C 
ATOM     15  C   UNL     1       1.154  -1.849  -1.674  0.00  0.00    -0.029 C 
ATOM     16  C   UNL     1       0.416   2.413  -3.212  0.00  0.00    +0.029 C 
ENDROOT
BRANCH   8  17
ATOM     17  O   UNL     1      -1.305   0.627  -1.839  0.00  0.00    -0.327 OA
BRANCH  17  19
ATOM     18  O   UNL     1      -1.836  -0.880  -0.140  0.00  0.00    -0.326 OA
ATOM     19  C   UNL     1      -2.052   0.438  -0.638  0.00  0.00    +0.266 C 
ATOM     20  C   UNL     1      -3.530   0.652  -0.964  0.00  0.00    +0.196 C 
ATOM     21  C   UNL     1      -4.418   0.321   0.235  0.00  0.00    +0.172 C 
ATOM     22  C   UNL     1      -4.048  -1.033   0.841  0.00  0.00    +0.169 C 
ATOM     23  C   UNL     1      -2.539  -1.127   1.079  0.00  0.00    +0.176 C 
BRANCH  20  24
ATOM     24  O   UNL     1      -3.714   2.021  -1.327  0.00  0.00    -0.378 OA
ATOM     25  H   UNL     1      -3.151   2.232  -2.088  0.00  0.00    +0.211 HD
ENDBRANCH  20  24
BRANCH  21  26
ATOM     26  O   UNL     1      -5.782   0.259  -0.185  0.00  0.00    -0.379 OA
ATOM     27  H   UNL     1      -6.039   1.110  -0.574  0.00  0.00    +0.211 HD
ENDBRANCH  21  26
BRANCH  22  28
ATOM     28  O   UNL     1      -4.732  -1.198   2.080  0.00  0.00    -0.379 OA
ATOM     29  H   UNL     1      -5.689  -1.139   1.931  0.00  0.00    +0.211 HD
ENDBRANCH  22  28
BRANCH  23  30
ATOM     30  C   UNL     1      -2.131  -2.511   1.574  0.00  0.00    +0.169 C 
BRANCH  30  31
ATOM     31  O   UNL     1      -0.727  -2.527   1.762  0.00  0.00    -0.379 OA
ATOM     32  H   UNL     1      -0.453  -3.403   2.076  0.00  0.00    +0.211 HD
ENDBRANCH  30  31
ENDBRANCH  23  30
ENDBRANCH  17  19
ENDBRANCH   8  17
BRANCH  14  33
ATOM     33  C   UNL     1       2.796  -3.171  -0.383  0.00  0.00    +0.159 C 
BRANCH  33  34
ATOM     34  O   UNL     1       3.913  -3.768  -1.011  0.00  0.00    -0.378 OA
ATOM     35  H   UNL     1       4.174  -4.562  -0.519  0.00  0.00    +0.211 HD
ENDBRANCH  33  34
ENDBRANCH  14  33
TORSDOF 9
