REMARK  Name = 101239053
REMARK  4 active torsions:
REMARK  status: ('A' for Active; 'I' for Inactive)
REMARK    1  A    between atoms: C_17  and  C_18
REMARK    2  A    between atoms: C_21  and  O_24
REMARK    3  A    between atoms: C_22  and  O_26
REMARK    4  A    between atoms: C_23  and  O_28
REMARK                            x       y       z     vdW  Elec       q    Type
REMARK                         _______ _______ _______ _____ _____    ______ ____
ROOT
ATOM      1  O   UNL     1      -2.425  -1.679   0.365  0.00  0.00    -0.346 OA
ATOM      2  O   UNL     1      -2.184   1.114  -1.975  0.00  0.00    -0.349 OA
ATOM      3  O   UNL     1      -5.256  -1.046  -0.174  0.00  0.00    -0.446 OA
ATOM      4  O   UNL     1      -5.603   0.200   1.716  0.00  0.00    -0.250 OA
ATOM      5  O   UNL     1       0.644  -0.379   1.313  0.00  0.00    -0.289 OA
ATOM      6  C   UNL     1      -3.498   0.389   0.491  0.00  0.00    +0.123 C 
ATOM      7  C   UNL     1      -2.977  -0.656  -0.481  0.00  0.00    +0.172 C 
ATOM      8  C   UNL     1      -2.561   0.260   1.692  0.00  0.00    +0.051 C 
ATOM      9  C   UNL     1      -1.866  -0.171  -1.425  0.00  0.00    +0.169 C 
ATOM     10  C   UNL     1      -1.688  -0.943   1.345  0.00  0.00    +0.177 C 
ATOM     11  C   UNL     1      -3.608   1.784  -0.118  0.00  0.00    +0.045 C 
ATOM     12  C   UNL     1      -4.223  -1.162  -1.166  0.00  0.00    +0.239 C 
ATOM     13  C   UNL     1      -4.889  -0.140   0.785  0.00  0.00    +0.319 C 
ATOM     14  C   UNL     1      -0.490  -0.166  -0.786  0.00  0.00    +0.044 C 
ATOM     15  C   UNL     1      -2.413   2.126  -0.994  0.00  0.00    +0.143 C 
ATOM     16  C   UNL     1      -0.399  -0.497   0.675  0.00  0.00    +0.198 C 
ATOM     17  C   UNL     1       0.638   0.088  -1.462  0.00  0.00    +0.001 C 
ENDROOT
BRANCH  17  18
ATOM     18  C   UNL     1       1.998   0.074  -0.900  0.00  0.00    +0.006 C 
ATOM     19  C   UNL     1       2.533   1.235  -0.342  0.00  0.00    +0.040 C 
ATOM     20  C   UNL     1       2.751  -1.099  -0.925  0.00  0.00    +0.040 C 
ATOM     21  C   UNL     1       4.041  -1.112  -0.394  0.00  0.00    +0.175 C 
ATOM     22  C   UNL     1       3.823   1.222   0.191  0.00  0.00    +0.175 C 
ATOM     23  C   UNL     1       4.576   0.048   0.164  0.00  0.00    +0.202 C 
BRANCH  21  24
ATOM     24  O   UNL     1       4.766  -2.265  -0.425  0.00  0.00    -0.468 OA
ATOM     25  C   UNL     1       4.639  -3.141   0.694  0.00  0.00    +0.253 C 
ENDBRANCH  21  24
BRANCH  22  26
ATOM     26  O   UNL     1       4.334   2.362   0.732  0.00  0.00    -0.468 OA
ATOM     27  C   UNL     1       3.498   3.518   0.719  0.00  0.00    +0.253 C 
ENDBRANCH  22  26
BRANCH  23  28
ATOM     28  O   UNL     1       5.837   0.036   0.684  0.00  0.00    -0.501 OA
ATOM     29  H   UNL     1       6.343  -0.753   0.666  0.00  0.00    +0.292 HD
ENDBRANCH  23  28
ENDBRANCH  17  18
TORSDOF 4
