REMARK  Name = 101207520
REMARK  15 active torsions:
REMARK  status: ('A' for Active; 'I' for Inactive)
REMARK    1  A    between atoms: C_1  and  C_3
REMARK    2  A    between atoms: C_1  and  C_14
REMARK    3  A    between atoms: C_1  and  C_26
REMARK    4  A    between atoms: C_3  and  C_4
REMARK    5  A    between atoms: C_4  and  C_6
REMARK    6  A    between atoms: C_6  and  O_7
REMARK    7  A    between atoms: C_6  and  C_9
REMARK    8  A    between atoms: C_9  and  C_11
REMARK    9  A    between atoms: C_11  and  C_12
REMARK   10  A    between atoms: C_14  and  C_16
REMARK   11  A    between atoms: C_14  and  O_24
REMARK   12  A    between atoms: C_17  and  C_19
REMARK   13  A    between atoms: C_19  and  C_21
REMARK   14  A    between atoms: C_26  and  O_27
REMARK   15  A    between atoms: O_27  and  C_29
REMARK                            x       y       z     vdW  Elec       q    Type
REMARK                         _______ _______ _______ _____ _____    ______ ____
ROOT
ATOM      1  C   UNL     1       0.341  -1.176  -0.029  0.00  0.00    +0.134 C 
ENDROOT
BRANCH   1   3
ATOM      2  O   UNL     1       1.422  -3.153   0.861  0.00  0.00    -0.291 OA
ATOM      3  C   UNL     1       1.551  -2.056   0.316  0.00  0.00    +0.177 C 
BRANCH   3   4
ATOM      4  C   UNL     1       2.914  -1.561  -0.056  0.00  0.00    +0.040 C 
ATOM      5  C   UNL     1       3.825  -2.506  -0.332  0.00  0.00    +0.001 C 
BRANCH   4   6
ATOM      6  C   UNL     1       3.194  -0.082  -0.039  0.00  0.00    +0.143 C 
BRANCH   6   7
ATOM      7  O   UNL     1       4.525   0.128   0.443  0.00  0.00    -0.380 OA
ATOM      8  H   UNL     1       4.615  -0.264   1.325  0.00  0.00    +0.211 HD
ENDBRANCH   6   7
BRANCH   6   9
ATOM      9  C   UNL     1       3.063   0.540  -1.431  0.00  0.00    +0.098 C 
BRANCH   9  11
ATOM     10  O   UNL     1       3.840   2.798  -1.251  0.00  0.00    -0.296 OA
ATOM     11  C   UNL     1       2.871   2.044  -1.336  0.00  0.00    +0.153 C 
BRANCH  11  12
ATOM     12  C   UNL     1       1.437   2.546  -1.317  0.00  0.00    +0.065 C 
ATOM     13  C   UNL     1       1.351   4.060  -1.253  0.00  0.00    +0.008 C 
ENDBRANCH  11  12
ENDBRANCH   9  11
ENDBRANCH   6   9
ENDBRANCH   4   6
ENDBRANCH   3   4
ENDBRANCH   1   3
BRANCH   1  14
ATOM     14  C   UNL     1      -0.630  -1.907  -0.979  0.00  0.00    +0.148 C 
BRANCH  14  16
ATOM     15  O   UNL     1      -3.008  -1.876  -1.609  0.00  0.00    -0.353 OA
ATOM     16  C   UNL     1      -1.836  -1.089  -1.342  0.00  0.00    +0.143 C 
ATOM     17  C   UNL     1      -3.028  -1.100  -0.403  0.00  0.00    +0.146 C 
ATOM     18  C   UNL     1      -1.617   0.028  -2.312  0.00  0.00    +0.035 C 
BRANCH  17  19
ATOM     19  C   UNL     1      -4.055  -0.025  -0.371  0.00  0.00    +0.051 C 
ATOM     20  C   UNL     1      -5.469  -0.590  -0.271  0.00  0.00    +0.007 C 
BRANCH  19  21
ATOM     21  C   UNL     1      -3.776   0.969   0.752  0.00  0.00    -0.029 C 
ATOM     22  C   UNL     1      -3.552   2.279   0.571  0.00  0.00    -0.030 C 
ATOM     23  C   UNL     1      -3.546   2.944  -0.766  0.00  0.00    +0.030 C 
ENDBRANCH  19  21
ENDBRANCH  17  19
ENDBRANCH  14  16
BRANCH  14  24
ATOM     24  O   UNL     1       0.050  -2.314  -2.165  0.00  0.00    -0.381 OA
ATOM     25  H   UNL     1      -0.571  -2.772  -2.753  0.00  0.00    +0.210 HD
ENDBRANCH  14  24
ENDBRANCH   1  14
BRANCH   1  26
ATOM     26  C   UNL     1      -0.368  -0.765   1.269  0.00  0.00    +0.219 C 
BRANCH  26  27
ATOM     27  O   UNL     1       0.524  -0.004   2.076  0.00  0.00    -0.448 OA
BRANCH  27  29
ATOM     28  O   UNL     1      -1.109   0.224   3.695  0.00  0.00    -0.250 OA
ATOM     29  C   UNL     1       0.020   0.430   3.271  0.00  0.00    +0.318 C 
ATOM     30  C   UNL     1       1.064   1.213   4.008  0.00  0.00    +0.121 C 
ENDBRANCH  27  29
ENDBRANCH  26  27
ENDBRANCH   1  26
TORSDOF 15
