10126389
  -OEChem-03292013303D

 51 52  0     1  0  0  0  0  0999 V2000
    0.1408   -1.9010    0.6486 O   0  0  0  0  0  0  0  0  0  0  0  0
   -3.8272    3.3095    0.6836 O   0  0  0  0  0  0  0  0  0  0  0  0
   -3.7421    2.3392   -1.9143 O   0  0  0  0  0  0  0  0  0  0  0  0
   -3.7669    0.3956    0.6031 O   0  0  0  0  0  0  0  0  0  0  0  0
    0.5679   -2.0344   -1.6188 O   0  0  0  0  0  0  0  0  0  0  0  0
    3.3514   -2.1378   -1.3276 O   0  0  0  0  0  0  0  0  0  0  0  0
    5.0813    1.9169    0.4294 O   0  0  0  0  0  0  0  0  0  0  0  0
   -2.2715   -2.3099    0.4990 C   0  0  1  0  0  0  0  0  0  0  0  0
   -0.8637   -2.9503    0.6309 C   0  0  2  0  0  0  0  0  0  0  0  0
   -2.5710    3.0007    0.0744 C   0  0  2  0  0  0  0  0  0  0  0  0
   -2.7494    1.9094   -0.9909 C   0  0  1  0  0  0  0  0  0  0  0  0
   -2.4960   -1.8252   -0.9182 C   0  0  0  0  0  0  0  0  0  0  0  0
   -3.4050   -3.2792    0.8457 C   0  0  0  0  0  0  0  0  0  0  0  0
   -1.5598    2.6693    1.1814 C   0  0  0  0  0  0  0  0  0  0  0  0
   -0.6650   -3.7086    1.9419 C   0  0  0  0  0  0  0  0  0  0  0  0
   -3.1754    0.5458   -0.4615 C   0  0  0  0  0  0  0  0  0  0  0  0
   -2.8644   -0.6106   -1.3466 C   0  0  0  0  0  0  0  0  0  0  0  0
    1.8456   -0.6100   -0.2095 C   0  0  0  0  0  0  0  0  0  0  0  0
   -0.2159    2.2422    0.6689 C   0  0  0  0  0  0  0  0  0  0  0  0
    1.6403    0.6139    0.4576 C   0  0  0  0  0  0  0  0  0  0  0  0
    0.7710   -1.5798   -0.5053 C   0  0  0  0  0  0  0  0  0  0  0  0
    0.3246    1.0467    0.9515 C   0  0  0  0  0  0  0  0  0  0  0  0
    3.1211   -0.9593   -0.6786 C   0  0  0  0  0  0  0  0  0  0  0  0
    2.7524    1.4483    0.6708 C   0  0  0  0  0  0  0  0  0  0  0  0
    4.0221    1.0895    0.2131 C   0  0  0  0  0  0  0  0  0  0  0  0
    4.2051   -0.1112   -0.4644 C   0  0  0  0  0  0  0  0  0  0  0  0
    6.3499    1.4900   -0.0641 C   0  0  0  0  0  0  0  0  0  0  0  0
   -2.3158   -1.4652    1.1949 H   0  0  0  0  0  0  0  0  0  0  0  0
   -0.6657   -3.6457   -0.1951 H   0  0  0  0  0  0  0  0  0  0  0  0
   -2.2514    3.9219   -0.4301 H   0  0  0  0  0  0  0  0  0  0  0  0
   -1.8077    1.7940   -1.5408 H   0  0  0  0  0  0  0  0  0  0  0  0
   -2.3126   -2.5699   -1.6932 H   0  0  0  0  0  0  0  0  0  0  0  0
   -3.3879   -3.5442    1.9077 H   0  0  0  0  0  0  0  0  0  0  0  0
   -4.3846   -2.8289    0.6469 H   0  0  0  0  0  0  0  0  0  0  0  0
   -3.3350   -4.2039    0.2618 H   0  0  0  0  0  0  0  0  0  0  0  0
   -1.9825    1.9149    1.8571 H   0  0  0  0  0  0  0  0  0  0  0  0
   -1.4260    3.5594    1.8100 H   0  0  0  0  0  0  0  0  0  0  0  0
   -0.8873   -3.0681    2.8025 H   0  0  0  0  0  0  0  0  0  0  0  0
   -1.2910   -4.6037    1.9942 H   0  0  0  0  0  0  0  0  0  0  0  0
    0.3802   -4.0214    2.0456 H   0  0  0  0  0  0  0  0  0  0  0  0
   -2.9162   -0.4226   -2.4149 H   0  0  0  0  0  0  0  0  0  0  0  0
    0.3160    2.9535    0.0418 H   0  0  0  0  0  0  0  0  0  0  0  0
   -0.2171    0.3466    1.5788 H   0  0  0  0  0  0  0  0  0  0  0  0
    2.6379    2.3929    1.2005 H   0  0  0  0  0  0  0  0  0  0  0  0
   -4.4535    3.5171   -0.0308 H   0  0  0  0  0  0  0  0  0  0  0  0
   -3.7006    1.7562   -2.6912 H   0  0  0  0  0  0  0  0  0  0  0  0
    5.1654   -0.4438   -0.8445 H   0  0  0  0  0  0  0  0  0  0  0  0
    2.5475   -2.6792   -1.3663 H   0  0  0  0  0  0  0  0  0  0  0  0
    6.3500    1.4069   -1.1563 H   0  0  0  0  0  0  0  0  0  0  0  0
    6.6818    0.5669    0.4232 H   0  0  0  0  0  0  0  0  0  0  0  0
    7.0759    2.2670    0.1965 H   0  0  0  0  0  0  0  0  0  0  0  0
  1  9  1  0  0  0  0
  1 21  1  0  0  0  0
  2 10  1  0  0  0  0
  2 45  1  0  0  0  0
  3 11  1  0  0  0  0
  3 46  1  0  0  0  0
  4 16  2  0  0  0  0
  5 21  2  0  0  0  0
  6 23  1  0  0  0  0
  6 48  1  0  0  0  0
  7 25  1  0  0  0  0
  7 27  1  0  0  0  0
  8  9  1  0  0  0  0
  8 12  1  0  0  0  0
  8 13  1  0  0  0  0
  8 28  1  0  0  0  0
  9 15  1  0  0  0  0
  9 29  1  0  0  0  0
 10 11  1  0  0  0  0
 10 14  1  0  0  0  0
 10 30  1  0  0  0  0
 11 16  1  0  0  0  0
 11 31  1  0  0  0  0
 12 17  2  0  0  0  0
 12 32  1  0  0  0  0
 13 33  1  0  0  0  0
 13 34  1  0  0  0  0
 13 35  1  0  0  0  0
 14 19  1  0  0  0  0
 14 36  1  0  0  0  0
 14 37  1  0  0  0  0
 15 38  1  0  0  0  0
 15 39  1  0  0  0  0
 15 40  1  0  0  0  0
 16 17  1  0  0  0  0
 17 41  1  0  0  0  0
 18 20  2  0  0  0  0
 18 21  1  0  0  0  0
 18 23  1  0  0  0  0
 19 22  2  0  0  0  0
 19 42  1  0  0  0  0
 20 22  1  0  0  0  0
 20 24  1  0  0  0  0
 22 43  1  0  0  0  0
 23 26  2  0  0  0  0
 24 25  2  0  0  0  0
 24 44  1  0  0  0  0
 25 26  1  0  0  0  0
 26 47  1  0  0  0  0
 27 49  1  0  0  0  0
 27 50  1  0  0  0  0
 27 51  1  0  0  0  0
M  END
> <PUBCHEM_COMPOUND_CID>
10126389

> <PUBCHEM_CONFORMER_RMSD>
0.6

> <PUBCHEM_CONFORMER_DIVERSEORDER>
1

> <PUBCHEM_MMFF94_PARTIAL_CHARGES>
34
1 -0.43
10 0.28
11 0.34
12 -0.29
14 0.14
16 0.49
17 -0.14
18 0.09
19 -0.29
2 -0.68
20 0.03
21 0.63
22 -0.18
23 0.08
24 -0.15
25 0.08
26 -0.15
27 0.28
3 -0.68
32 0.15
4 -0.57
41 0.15
42 0.15
43 0.15
44 0.15
45 0.4
46 0.4
47 0.15
48 0.45
5 -0.57
6 -0.53
7 -0.36
8 0.14
9 0.28

> <PUBCHEM_EFFECTIVE_ROTOR_COUNT>
2.2

> <PUBCHEM_PHARMACOPHORE_FEATURES>
9
1 2 acceptor
1 2 donor
1 3 acceptor
1 3 donor
1 4 acceptor
1 5 acceptor
1 6 donor
1 7 acceptor
6 18 20 23 24 25 26 rings

> <PUBCHEM_HEAVY_ATOM_COUNT>
27

> <PUBCHEM_ATOM_DEF_STEREO_COUNT>
4

> <PUBCHEM_ATOM_UDEF_STEREO_COUNT>
0

> <PUBCHEM_BOND_DEF_STEREO_COUNT>
2

> <PUBCHEM_BOND_UDEF_STEREO_COUNT>
0

> <PUBCHEM_ISOTOPIC_ATOM_COUNT>
0

> <PUBCHEM_COMPONENT_COUNT>
1

> <PUBCHEM_CACTVS_TAUTO_COUNT>
684

> <PUBCHEM_CONFORMER_ID>
009A843500000001

> <PUBCHEM_MMFF94_ENERGY>
82.9925

> <PUBCHEM_FEATURE_SELFOVERLAP>
45.684

> <PUBCHEM_SHAPE_FINGERPRINT>
10006869 2 18335979767357166267
10675989 125 17618494385694937457
10688039 33 18044942517526978371
108634 29 18411985766909164990
1100329 8 17977101262977421042
11135609 187 18267570335446373973
121448 382 18410853252721044648
12293681 4 18118126002913703578
12788726 201 18263635333105026706
13034934 17 17627493162955849704
13140716 1 18265333902291353002
13402501 40 18269837678065214507
13583140 156 17240203248645973064
138480 1 16825309910378759995
13941206 138 18187641384397446642
14251757 5 18190460656759438296
14363568 33 16967465261500874097
14713325 29 18338239387319301650
14790565 3 17768820762606773177
14931854 50 18269538503845113661
15420108 30 16184960909930973872
15463212 79 18187074023285804217
17357779 13 18196924698572866719
20465049 17 17766292976741311373
20510252 161 18262236732882135915
21279426 13 18341335518460113790
21641784 216 18044673128794233956
22182313 1 18058747891716236678
22956985 138 15952180682858029778
23557571 272 18264496259542043966
23558518 356 18336558165727039746
23559900 14 18199748047413314214
23845131 108 18045509617262482361
3380486 145 18051991494957525739
3493558 16 16594219495808018844
4409770 3 18338510966796935066
460360 51 18335712607200114706
469060 322 17676501570281193515
5283173 99 18410292519529624576
7288768 16 18261679186049794497
9709674 26 18272092677977551982
9981440 41 18413100680653895346

> <PUBCHEM_SHAPE_MULTIPOLES>
514.56
9.19
4.63
1.4
12.1
0.64
0.15
-4.31
1.2
-5.05
-1.4
-0.8
0.41
1.49

> <PUBCHEM_SHAPE_SELFOVERLAP>
1075.299

> <PUBCHEM_SHAPE_VOLUME>
288.7

> <PUBCHEM_COORDINATE_TYPE>
2
5
10

$$$$
