REMARK  Name = 101260436
REMARK  7 active torsions:
REMARK  status: ('A' for Active; 'I' for Inactive)
REMARK    1  A    between atoms: N_2  and  C_20
REMARK    2  A    between atoms: C_7  and  O_12
REMARK    3  A    between atoms: C_10  and  O_14
REMARK    4  A    between atoms: O_14  and  C_15
REMARK    5  A    between atoms: C_15  and  C_16
REMARK    6  A    between atoms: C_20  and  C_21
REMARK    7  A    between atoms: C_21  and  S_22
REMARK                            x       y       z     vdW  Elec       q    Type
REMARK                         _______ _______ _______ _____ _____    ______ ____
ROOT
ATOM      1  O   UNL     1       1.926   1.504   2.162  0.00  0.00    -0.270 OA
ATOM      2  N   UNL     1       2.802  -0.345   0.980  0.00  0.00    -0.270 N 
ATOM      3  C   UNL     1       2.262  -1.490   0.257  0.00  0.00    +0.124 C 
ATOM      4  C   UNL     1       0.793  -1.283   0.403  0.00  0.00    +0.036 C 
ATOM      5  C   UNL     1       0.535  -0.126   1.140  0.00  0.00    +0.057 C 
ATOM      6  C   UNL     1       1.818   0.479   1.513  0.00  0.00    +0.249 C 
ATOM      7  C   UNL     1      -0.250  -2.052  -0.077  0.00  0.00    +0.135 C 
ATOM      8  C   UNL     1      -1.557  -1.637   0.199  0.00  0.00    +0.046 C 
ATOM      9  C   UNL     1      -0.745   0.306   1.426  0.00  0.00    +0.041 C 
ATOM     10  C   UNL     1      -1.802  -0.468   0.944  0.00  0.00    +0.138 C 
ATOM     11  C   UNL     1      -2.711  -2.446  -0.305  0.00  0.00    +0.037 C 
ENDROOT
BRANCH   7  12
ATOM     12  O   UNL     1      -0.004  -3.178  -0.795  0.00  0.00    -0.472 OA
ATOM     13  C   UNL     1       0.105  -3.037  -2.212  0.00  0.00    +0.252 C 
ENDBRANCH   7  12
BRANCH  10  14
ATOM     14  O   UNL     1      -3.081  -0.073   1.207  0.00  0.00    -0.471 OA
BRANCH  14  15
ATOM     15  C   UNL     1      -3.475   1.208   0.721  0.00  0.00    +0.231 C 
BRANCH  15  16
ATOM     16  C   UNL     1      -4.947   1.208   0.450  0.00  0.00    +0.012 C 
ATOM     17  C   UNL     1      -5.579   1.474  -0.708  0.00  0.00    -0.044 C 
ATOM     18  C   UNL     1      -7.083   1.427  -0.781  0.00  0.00    +0.026 C 
ATOM     19  C   UNL     1      -4.910   1.830  -2.005  0.00  0.00    +0.026 C 
ENDBRANCH  15  16
ENDBRANCH  14  15
ENDBRANCH  10  14
BRANCH   2  20
ATOM     20  C   UNL     1       4.228  -0.134   1.101  0.00  0.00    +0.120 C 
BRANCH  20  21
ATOM     21  C   UNL     1       4.889   0.090  -0.246  0.00  0.00    +0.179 C 
BRANCH  21  22
ATOM     22  S   UNL     1       4.209   1.474  -1.106  0.00  0.00    +0.024 S 
ATOM     23  O   UNL     1       5.274   1.500  -2.341  0.00  0.00    -0.069 OA
ATOM     24  O   UNL     1       4.398   2.666  -0.301  0.00  0.00    -0.069 OA
ATOM     25  O   UNL     1       2.904   1.105  -1.624  0.00  0.00    -0.069 OA
ENDBRANCH  21  22
ENDBRANCH  20  21
ENDBRANCH   2  20
TORSDOF 7
