REMARK  Name = 101247525
REMARK  4 active torsions:
REMARK  status: ('A' for Active; 'I' for Inactive)
REMARK    1  A    between atoms: C_11  and  O_34
REMARK    2  A    between atoms: C_15  and  O_32
REMARK    3  A    between atoms: C_16  and  C_28
REMARK    4  A    between atoms: O_34  and  C_36
REMARK                            x       y       z     vdW  Elec       q    Type
REMARK                         _______ _______ _______ _____ _____    ______ ____
ROOT
ATOM      1  O   UNL     1       1.863   1.377  -1.790  0.00  0.00    -0.345 OA
ATOM      2  O   UNL     1       3.980   1.297   0.112  0.00  0.00    -0.446 OA
ATOM      3  O   UNL     1       3.412   3.477   0.406  0.00  0.00    -0.247 OA
ATOM      4  O   UNL     1      -5.775  -1.841   1.867  0.00  0.00    -0.291 OA
ATOM      5  C   UNL     1       1.247   0.660  -0.681  0.00  0.00    +0.135 C 
ATOM      6  C   UNL     1      -0.248   0.284  -1.056  0.00  0.00    +0.065 C 
ATOM      7  C   UNL     1      -0.684  -1.017  -0.284  0.00  0.00    +0.010 C 
ATOM      8  C   UNL     1       2.159  -0.408  -0.048  0.00  0.00    +0.067 C 
ATOM      9  C   UNL     1       1.784   2.088  -0.569  0.00  0.00    +0.239 C 
ATOM     10  C   UNL     1      -2.221  -1.427  -0.407  0.00  0.00    +0.022 C 
ATOM     11  C   UNL     1      -1.207   1.445  -0.647  0.00  0.00    +0.197 C 
ATOM     12  C   UNL     1       0.321  -2.182  -0.469  0.00  0.00    +0.001 C 
ATOM     13  C   UNL     1       1.786  -1.772  -0.655  0.00  0.00    +0.006 C 
ATOM     14  C   UNL     1      -3.072  -0.176   0.034  0.00  0.00    +0.041 C 
ATOM     15  C   UNL     1      -2.712   1.119  -0.742  0.00  0.00    +0.151 C 
ATOM     16  C   UNL     1       3.648  -0.030  -0.400  0.00  0.00    +0.196 C 
ATOM     17  C   UNL     1      -0.310   0.080  -2.596  0.00  0.00    +0.006 C 
ATOM     18  C   UNL     1       2.018  -0.419   1.497  0.00  0.00    +0.006 C 
ATOM     19  C   UNL     1      -4.603  -0.454   0.249  0.00  0.00    +0.058 C 
ATOM     20  C   UNL     1       3.117   2.353   0.019  0.00  0.00    +0.347 C 
ATOM     21  C   UNL     1      -2.587  -2.008  -1.792  0.00  0.00    +0.004 C 
ATOM     22  C   UNL     1      -2.542  -2.548   0.580  0.00  0.00    -0.024 C 
ATOM     23  C   UNL     1      -4.753  -1.649   1.208  0.00  0.00    +0.172 C 
ATOM     24  C   UNL     1      -3.659  -2.645   1.310  0.00  0.00    +0.033 C 
ATOM     25  C   UNL     1      -5.425  -0.771  -1.008  0.00  0.00    +0.008 C 
ATOM     26  C   UNL     1      -5.266   0.765   0.936  0.00  0.00    +0.008 C 
ENDROOT
BRANCH  16  28
ATOM     27  O   UNL     1       6.053  -2.754   0.218  0.00  0.00    -0.448 OA
ATOM     28  C   UNL     1       4.649  -1.002   0.110  0.00  0.00    +0.058 C 
ATOM     29  C   UNL     1       5.275  -0.994   1.379  0.00  0.00    +0.043 C 
ATOM     30  C   UNL     1       5.155  -2.092  -0.559  0.00  0.00    +0.179 C 
ATOM     31  C   UNL     1       6.120  -2.079   1.395  0.00  0.00    +0.180 C 
ENDBRANCH  16  28
BRANCH  15  32
ATOM     32  O   UNL     1      -3.138   1.076  -2.092  0.00  0.00    -0.381 OA
ATOM     33  H   UNL     1      -2.892   1.903  -2.535  0.00  0.00    +0.210 HD
ENDBRANCH  15  32
BRANCH  11  34
ATOM     34  O   UNL     1      -0.939   1.801   0.717  0.00  0.00    -0.450 OA
BRANCH  34  36
ATOM     35  O   UNL     1      -1.502   3.994   0.261  0.00  0.00    -0.250 OA
ATOM     36  C   UNL     1      -1.131   3.114   1.025  0.00  0.00    +0.318 C 
ATOM     37  C   UNL     1      -0.813   3.337   2.473  0.00  0.00    +0.121 C 
ENDBRANCH  34  36
ENDBRANCH  11  34
TORSDOF 4
