101298732
  -OEChem-03292013293D

 54 56  0     1  0  0  0  0  0999 V2000
   -2.2227    2.6227   -1.5027 O   0  0  0  0  0  0  0  0  0  0  0  0
    0.2313    1.3574   -0.5516 O   0  0  0  0  0  0  0  0  0  0  0  0
   -3.7764   -2.2808   -0.4588 O   0  0  0  0  0  0  0  0  0  0  0  0
   -0.5570    2.3012    1.4070 O   0  0  0  0  0  0  0  0  0  0  0  0
   -0.2567   -2.1844    0.2581 O   0  0  0  0  0  0  0  0  0  0  0  0
   -1.4624   -3.0310   -1.5165 O   0  0  0  0  0  0  0  0  0  0  0  0
    1.8729   -0.2286   -2.0239 O   0  0  0  0  0  0  0  0  0  0  0  0
    4.4688    0.3963    0.1428 N   0  0  2  0  0  0  0  0  0  0  0  0
   -2.0582    1.7669   -0.3518 C   0  0  1  0  0  0  0  0  0  0  0  0
   -3.0241    2.9407   -0.3652 C   0  0  1  0  0  0  0  0  0  0  0  0
   -2.6029    0.3684   -0.5967 C   0  0  0  0  0  0  0  0  0  0  0  0
   -2.5991   -0.5010    0.6896 C   0  0  2  0  0  0  0  0  0  0  0  0
   -0.7151    1.8930    0.2654 C   0  0  0  0  0  0  0  0  0  0  0  0
   -2.6384   -2.0211    0.3622 C   0  0  1  0  0  0  0  0  0  0  0  0
   -2.7181    4.2592    0.2507 C   0  0  0  0  0  0  0  0  0  0  0  0
   -3.7664   -0.0624    1.5891 C   0  0  0  0  0  0  0  0  0  0  0  0
   -2.7456   -2.9057    1.6100 C   0  0  0  0  0  0  0  0  0  0  0  0
    1.4177    0.8604    0.0871 C   0  0  2  0  0  0  0  0  0  0  0  0
   -1.4037   -2.4684   -0.4294 C   0  0  0  0  0  0  0  0  0  0  0  0
    2.5077    1.9198    0.1260 C   0  0  0  0  0  0  0  0  0  0  0  0
    1.8100   -0.3023   -0.7994 C   0  0  0  0  0  0  0  0  0  0  0  0
    3.7544    1.4524    0.8839 C   0  0  0  0  0  0  0  0  0  0  0  0
    2.0509   -1.5942   -0.1133 C   0  0  0  0  0  0  0  0  0  0  0  0
    0.9897   -2.6410   -0.3067 C   0  0  0  0  0  0  0  0  0  0  0  0
    4.3954   -0.9141    0.8085 C   0  0  0  0  0  0  0  0  0  0  0  0
    3.1781   -1.7854    0.5915 C   0  0  0  0  0  0  0  0  0  0  0  0
    5.8698    0.7820   -0.0559 C   0  0  0  0  0  0  0  0  0  0  0  0
   -4.0864    2.7395   -0.4110 H   0  0  0  0  0  0  0  0  0  0  0  0
   -1.9714   -0.0907   -1.3664 H   0  0  0  0  0  0  0  0  0  0  0  0
   -3.6146    0.4146   -1.0193 H   0  0  0  0  0  0  0  0  0  0  0  0
   -1.6782   -0.3090    1.2536 H   0  0  0  0  0  0  0  0  0  0  0  0
   -1.6734    4.5551    0.1121 H   0  0  0  0  0  0  0  0  0  0  0  0
   -2.9292    4.2308    1.3240 H   0  0  0  0  0  0  0  0  0  0  0  0
   -3.3458    5.0357   -0.1977 H   0  0  0  0  0  0  0  0  0  0  0  0
   -4.7340   -0.2790    1.1245 H   0  0  0  0  0  0  0  0  0  0  0  0
   -3.7242    1.0123    1.7939 H   0  0  0  0  0  0  0  0  0  0  0  0
   -3.7321   -0.5669    2.5595 H   0  0  0  0  0  0  0  0  0  0  0  0
   -3.7342   -2.8276    2.0746 H   0  0  0  0  0  0  0  0  0  0  0  0
   -1.9818   -2.6524    2.3526 H   0  0  0  0  0  0  0  0  0  0  0  0
   -2.6167   -3.9635    1.3496 H   0  0  0  0  0  0  0  0  0  0  0  0
    1.1755    0.4957    1.0933 H   0  0  0  0  0  0  0  0  0  0  0  0
    2.1150    2.8204    0.6145 H   0  0  0  0  0  0  0  0  0  0  0  0
    2.7768    2.2352   -0.8908 H   0  0  0  0  0  0  0  0  0  0  0  0
   -3.8477   -3.2427   -0.5835 H   0  0  0  0  0  0  0  0  0  0  0  0
    4.3936    2.3347    1.0231 H   0  0  0  0  0  0  0  0  0  0  0  0
    3.4781    1.1342    1.8974 H   0  0  0  0  0  0  0  0  0  0  0  0
    0.8948   -2.8625   -1.3760 H   0  0  0  0  0  0  0  0  0  0  0  0
    1.2533   -3.5728    0.2056 H   0  0  0  0  0  0  0  0  0  0  0  0
    4.5684   -0.8102    1.8880 H   0  0  0  0  0  0  0  0  0  0  0  0
    5.2269   -1.5339    0.4429 H   0  0  0  0  0  0  0  0  0  0  0  0
    3.2830   -2.7598    1.0717 H   0  0  0  0  0  0  0  0  0  0  0  0
    6.3914    0.0443   -0.6762 H   0  0  0  0  0  0  0  0  0  0  0  0
    6.4078    0.8809    0.8939 H   0  0  0  0  0  0  0  0  0  0  0  0
    5.9344    1.7340   -0.5954 H   0  0  0  0  0  0  0  0  0  0  0  0
  1  9  1  0  0  0  0
  1 10  1  0  0  0  0
  2 13  1  0  0  0  0
  2 18  1  0  0  0  0
  3 14  1  0  0  0  0
  3 44  1  0  0  0  0
  4 13  2  0  0  0  0
  5 19  1  0  0  0  0
  5 24  1  0  0  0  0
  6 19  2  0  0  0  0
  7 21  2  0  0  0  0
  8 22  1  0  0  0  0
  8 25  1  0  0  0  0
  8 27  1  0  0  0  0
  9 10  1  0  0  0  0
  9 11  1  0  0  0  0
  9 13  1  0  0  0  0
 10 15  1  0  0  0  0
 10 28  1  0  0  0  0
 11 12  1  0  0  0  0
 11 29  1  0  0  0  0
 11 30  1  0  0  0  0
 12 14  1  0  0  0  0
 12 16  1  0  0  0  0
 12 31  1  0  0  0  0
 14 17  1  0  0  0  0
 14 19  1  0  0  0  0
 15 32  1  0  0  0  0
 15 33  1  0  0  0  0
 15 34  1  0  0  0  0
 16 35  1  0  0  0  0
 16 36  1  0  0  0  0
 16 37  1  0  0  0  0
 17 38  1  0  0  0  0
 17 39  1  0  0  0  0
 17 40  1  0  0  0  0
 18 20  1  0  0  0  0
 18 21  1  0  0  0  0
 18 41  1  0  0  0  0
 20 22  1  0  0  0  0
 20 42  1  0  0  0  0
 20 43  1  0  0  0  0
 21 23  1  0  0  0  0
 22 45  1  0  0  0  0
 22 46  1  0  0  0  0
 23 24  1  0  0  0  0
 23 26  2  0  0  0  0
 24 47  1  0  0  0  0
 24 48  1  0  0  0  0
 25 26  1  0  0  0  0
 25 49  1  0  0  0  0
 25 50  1  0  0  0  0
 26 51  1  0  0  0  0
 27 52  1  0  0  0  0
 27 53  1  0  0  0  0
 27 54  1  0  0  0  0
M  END
> <PUBCHEM_COMPOUND_CID>
101298732

> <PUBCHEM_CONFORMER_RMSD>
0.6

> <PUBCHEM_CONFORMER_DIVERSEORDER>
1
6
8
7
4
3
5
2

> <PUBCHEM_MMFF94_PARTIAL_CHARGES>
26
1 -0.3
10 -0.05
11 0.09
13 0.72
14 0.34
15 0.09
18 0.34
19 0.66
2 -0.43
21 0.49
22 0.27
23 -0.12
24 0.42
25 0.41
26 -0.29
27 0.27
28 0.1
3 -0.68
4 -0.57
44 0.4
5 -0.43
51 0.15
6 -0.57
7 -0.57
8 -0.81
9 0.05

> <PUBCHEM_EFFECTIVE_ROTOR_COUNT>
2.4

> <PUBCHEM_PHARMACOPHORE_FEATURES>
7
1 1 acceptor
1 3 acceptor
1 3 donor
1 4 acceptor
1 6 acceptor
1 7 acceptor
1 8 cation

> <PUBCHEM_HEAVY_ATOM_COUNT>
27

> <PUBCHEM_ATOM_DEF_STEREO_COUNT>
5

> <PUBCHEM_ATOM_UDEF_STEREO_COUNT>
0

> <PUBCHEM_BOND_DEF_STEREO_COUNT>
1

> <PUBCHEM_BOND_UDEF_STEREO_COUNT>
0

> <PUBCHEM_ISOTOPIC_ATOM_COUNT>
0

> <PUBCHEM_COMPONENT_COUNT>
1

> <PUBCHEM_CACTVS_TAUTO_COUNT>
1

> <PUBCHEM_CONFORMER_ID>
0609B22C00000001

> <PUBCHEM_MMFF94_ENERGY>
68.4644

> <PUBCHEM_FEATURE_SELFOVERLAP>
35.533

> <PUBCHEM_SHAPE_FINGERPRINT>
104564 63 18409444829965600150
10616163 171 18409448102741066808
10670039 82 18336840783539546006
10688039 33 18041840744007161447
1100329 8 17904475208532338458
11135609 187 18193540187240780453
11370993 70 18120928404491409157
12156800 1 16828607654914570603
12422481 6 18337973207095679067
12553582 1 18191043363710113911
12633257 1 18130519616171595377
12788726 201 18262504979227433787
13140716 1 18192722360730849617
13402501 40 18341047505830755523
138480 1 16537635861198552063
13965767 371 17983894183263038723
14081887 123 18341607144380339384
14178342 30 18261962851170110876
14223421 5 18412546513612662238
14251751 93 18335696144205035448
14363568 33 17325224312017892665
14790565 3 16680063947203109284
20905425 154 18340768242583133542
21197605 99 18267591213503003825
21236236 1 18410290329244003162
22182313 1 18130519556780550998
23558518 356 18261676986678320587
23559900 14 18337378452709593680
238 59 16960941348349956525
350125 39 18338238271129198168
4340502 62 18122624959897834413
5104073 3 18262792970281429992
9709674 26 18269552745571174430

> <PUBCHEM_SHAPE_MULTIPOLES>
509.58
8.4
4.51
1.28
9.08
1.02
-0.07
1.39
1.65
-4.8
-0.04
-0.52
-0.26
0.59

> <PUBCHEM_SHAPE_SELFOVERLAP>
1057.485

> <PUBCHEM_SHAPE_VOLUME>
287

> <PUBCHEM_COORDINATE_TYPE>
2
5
10

$$$$
