REMARK  Name = 101209643
REMARK  3 active torsions:
REMARK  status: ('A' for Active; 'I' for Inactive)
REMARK    1  A    between atoms: C_9  and  C_24
REMARK    2  A    between atoms: C_12  and  O_27
REMARK    3  A    between atoms: C_13  and  O_29
REMARK                            x       y       z     vdW  Elec       q    Type
REMARK                         _______ _______ _______ _____ _____    ______ ____
ROOT
ATOM      1  O   UNL     1       0.926  -2.806   0.674  0.00  0.00    -0.339 OA
ATOM      2  O   UNL     1      -0.040   0.234  -0.648  0.00  0.00    -0.329 OA
ATOM      3  O   UNL     1       3.133  -2.146  -0.950  0.00  0.00    -0.448 OA
ATOM      4  O   UNL     1       1.605  -2.612  -2.620  0.00  0.00    -0.247 OA
ATOM      5  O   UNL     1       2.322   2.508  -0.836  0.00  0.00    -0.291 OA
ATOM      6  C   UNL     1       0.872  -1.922  -0.453  0.00  0.00    +0.235 C 
ATOM      7  C   UNL     1       1.640  -1.571   0.779  0.00  0.00    +0.193 C 
ATOM      8  C   UNL     1      -0.390  -1.149  -0.723  0.00  0.00    +0.156 C 
ATOM      9  C   UNL     1      -2.746  -0.576  -0.005  0.00  0.00    +0.062 C 
ATOM     10  C   UNL     1      -1.525  -1.469   0.249  0.00  0.00    +0.038 C 
ATOM     11  C   UNL     1       3.076  -1.542   0.374  0.00  0.00    +0.203 C 
ATOM     12  C   UNL     1      -2.311   0.903   0.006  0.00  0.00    +0.168 C 
ATOM     13  C   UNL     1      -1.091   1.165  -0.915  0.00  0.00    +0.226 C 
ATOM     14  C   UNL     1       1.874  -2.255  -1.484  0.00  0.00    +0.346 C 
ATOM     15  C   UNL     1       3.632  -0.114   0.217  0.00  0.00    +0.068 C 
ATOM     16  C   UNL     1      -0.514   2.562  -0.642  0.00  0.00    +0.016 C 
ATOM     17  C   UNL     1       3.427   0.798   1.408  0.00  0.00    -0.037 C 
ATOM     18  C   UNL     1       0.371   2.738   0.579  0.00  0.00    +0.096 C 
ATOM     19  C   UNL     1      -0.775   3.627  -1.423  0.00  0.00    -0.004 C 
ATOM     20  C   UNL     1       2.624   1.879   1.432  0.00  0.00    +0.029 C 
ATOM     21  C   UNL     1       1.817   2.365   0.275  0.00  0.00    +0.177 C 
ATOM     22  C   UNL     1       4.196   0.411   2.645  0.00  0.00    +0.027 C 
ENDROOT
BRANCH   9  24
ATOM     23  O   UNL     1      -5.136  -0.644   0.544  0.00  0.00    -0.353 OA
ATOM     24  C   UNL     1      -3.811  -0.857   1.030  0.00  0.00    +0.123 C 
ATOM     25  C   UNL     1      -4.756  -2.003   0.809  0.00  0.00    +0.169 C 
ATOM     26  C   UNL     1      -3.562  -0.336   2.400  0.00  0.00    +0.032 C 
ENDBRANCH   9  24
BRANCH  12  27
ATOM     27  O   UNL     1      -3.391   1.730  -0.427  0.00  0.00    -0.379 OA
ATOM     28  H   UNL     1      -4.163   1.578   0.140  0.00  0.00    +0.211 HD
ENDBRANCH  12  27
BRANCH  13  29
ATOM     29  O   UNL     1      -1.470   1.079  -2.294  0.00  0.00    -0.359 OA
ATOM     30  H   UNL     1      -1.836   0.199  -2.475  0.00  0.00    +0.213 HD
ENDBRANCH  13  29
TORSDOF 3
