REMARK  Name = 101291617
REMARK  8 active torsions:
REMARK  status: ('A' for Active; 'I' for Inactive)
REMARK    1  A    between atoms: C_7  and  O_20
REMARK    2  A    between atoms: C_9  and  C_28
REMARK    3  A    between atoms: C_13  and  O_24
REMARK    4  A    between atoms: C_17  and  C_19
REMARK    5  A    between atoms: O_20  and  C_22
REMARK    6  A    between atoms: O_24  and  C_26
REMARK    7  A    between atoms: C_28  and  O_29
REMARK    8  A    between atoms: O_29  and  C_32
REMARK                            x       y       z     vdW  Elec       q    Type
REMARK                         _______ _______ _______ _____ _____    ______ ____
ROOT
ATOM      1  O   UNL     1       1.758  -0.931  -1.506  0.00  0.00    -0.220 OA
ATOM      2  O   UNL     1       1.228  -2.872   3.460  0.00  0.00    -0.275 OA
ATOM      3  N   UNL     1       0.599  -1.953   1.409  0.00  0.00    -0.272 N 
ATOM      4  N   UNL     1       0.599  -1.728  -1.540  0.00  0.00    -0.234 N 
ATOM      5  C   UNL     1       1.827  -1.416   0.888  0.00  0.00    +0.162 C 
ATOM      6  C   UNL     1       1.355  -2.779   0.518  0.00  0.00    +0.124 C 
ATOM      7  C   UNL     1       1.822  -0.337  -0.190  0.00  0.00    +0.279 C 
ATOM      8  C   UNL     1       0.834  -3.013  -0.874  0.00  0.00    +0.154 C 
ATOM      9  C   UNL     1       0.655   0.696  -0.075  0.00  0.00    +0.138 C 
ATOM     10  C   UNL     1      -0.662   0.098  -0.558  0.00  0.00    +0.039 C 
ATOM     11  C   UNL     1      -0.645  -1.112  -1.284  0.00  0.00    +0.082 C 
ATOM     12  C   UNL     1       0.435  -2.260   2.749  0.00  0.00    +0.226 C 
ATOM     13  C   UNL     1      -1.886   0.708  -0.255  0.00  0.00    +0.146 C 
ATOM     14  C   UNL     1      -1.854  -1.690  -1.690  0.00  0.00    +0.022 C 
ATOM     15  C   UNL     1      -0.887  -1.770   3.275  0.00  0.00    +0.095 C 
ATOM     16  C   UNL     1      -3.083   0.127  -0.673  0.00  0.00    +0.041 C 
ATOM     17  C   UNL     1      -3.067  -1.069  -1.389  0.00  0.00    +0.047 C 
ENDROOT
BRANCH  17  19
ATOM     18  O   UNL     1      -4.372  -2.735  -2.448  0.00  0.00    -0.283 OA
ATOM     19  C   UNL     1      -4.318  -1.675  -1.817  0.00  0.00    +0.234 C 
ENDBRANCH  17  19
BRANCH   7  20
ATOM     20  O   UNL     1       3.059   0.382  -0.085  0.00  0.00    -0.426 OA
BRANCH  20  22
ATOM     21  O   UNL     1       4.172  -1.377  -1.087  0.00  0.00    -0.250 OA
ATOM     22  C   UNL     1       4.152  -0.265  -0.577  0.00  0.00    +0.319 C 
ATOM     23  C   UNL     1       5.363   0.600  -0.401  0.00  0.00    +0.121 C 
ENDBRANCH  20  22
ENDBRANCH   7  20
BRANCH  13  24
ATOM     24  O   UNL     1      -1.943   1.856   0.477  0.00  0.00    -0.424 OA
BRANCH  24  26
ATOM     25  O   UNL     1      -3.179   0.709   2.101  0.00  0.00    -0.250 OA
ATOM     26  C   UNL     1      -2.643   1.729   1.688  0.00  0.00    +0.322 C 
ATOM     27  C   UNL     1      -2.648   3.040   2.416  0.00  0.00    +0.122 C 
ENDBRANCH  24  26
ENDBRANCH  13  24
BRANCH   9  28
ATOM     28  C   UNL     1       0.937   1.973  -0.887  0.00  0.00    +0.221 C 
BRANCH  28  29
ATOM     29  O   UNL     1       0.155   3.014  -0.343  0.00  0.00    -0.434 OA
BRANCH  29  32
ATOM     30  O   UNL     1       1.743   4.559  -0.970  0.00  0.00    -0.227 OA
ATOM     31  N   UNL     1      -0.176   5.209   0.116  0.00  0.00    -0.295 N 
ATOM     32  C   UNL     1       0.669   4.284  -0.446  0.00  0.00    +0.398 C 
ATOM     33  H   UNL     1      -1.025   4.917   0.521  0.00  0.00    +0.148 HD
ATOM     34  H   UNL     1       0.066   6.163   0.114  0.00  0.00    +0.148 HD
ENDBRANCH  29  32
ENDBRANCH  28  29
ENDBRANCH   9  28
TORSDOF 8
