REMARK  Name = 101239158
REMARK  10 active torsions:
REMARK  status: ('A' for Active; 'I' for Inactive)
REMARK    1  A    between atoms: N_1  and  C_37
REMARK    2  A    between atoms: C_8  and  N_21
REMARK    3  A    between atoms: C_9  and  O_25
REMARK    4  A    between atoms: C_10  and  C_39
REMARK    5  A    between atoms: C_11  and  O_27
REMARK    6  A    between atoms: C_13  and  O_29
REMARK    7  A    between atoms: C_14  and  O_31
REMARK    8  A    between atoms: C_17  and  O_35
REMARK    9  A    between atoms: C_18  and  O_33
REMARK   10  A    between atoms: C_39  and  O_40
REMARK                            x       y       z     vdW  Elec       q    Type
REMARK                         _______ _______ _______ _____ _____    ______ ____
ROOT
ATOM      1  N   UNL     1       1.421   0.492   1.861  0.00  0.00    +0.388 N 
ATOM      2  C   UNL     1       0.441   0.710  -0.437  0.00  0.00    +0.011 C 
ATOM      3  C   UNL     1       1.456  -0.448  -0.799  0.00  0.00    +0.030 C 
ATOM      4  C   UNL     1      -0.933   0.631  -1.232  0.00  0.00    +0.003 C 
ATOM      5  C   UNL     1       0.210   0.296   1.033  0.00  0.00    -0.055 C 
ATOM      6  C   UNL     1      -0.249  -1.193   0.830  0.00  0.00    -0.009 C 
ATOM      7  C   UNL     1      -1.690  -0.708  -1.203  0.00  0.00    +0.011 C 
ATOM      8  C   UNL     1      -1.711  -1.278   0.248  0.00  0.00    -0.044 C 
ATOM      9  C   UNL     1       0.763  -1.732  -0.223  0.00  0.00    +0.111 C 
ATOM     10  C   UNL     1       2.843  -0.152  -0.136  0.00  0.00    +0.036 C 
ATOM     11  C   UNL     1       1.022   2.139  -0.674  0.00  0.00    +0.116 C 
ATOM     12  C   UNL     1      -2.053   1.635  -0.817  0.00  0.00    +0.032 C 
ATOM     13  C   UNL     1      -3.384   0.839  -0.842  0.00  0.00    +0.137 C 
ATOM     14  C   UNL     1      -3.057  -0.324  -1.764  0.00  0.00    +0.135 C 
ATOM     15  C   UNL     1      -2.736  -0.584   1.209  0.00  0.00    +0.012 C 
ATOM     16  C   UNL     1       2.651  -0.177   1.411  0.00  0.00    -0.072 C 
ATOM     17  C   UNL     1       3.363   1.232  -0.624  0.00  0.00    +0.113 C 
ATOM     18  C   UNL     1      -3.779   0.340   0.558  0.00  0.00    +0.140 C 
ATOM     19  C   UNL     1       2.455   2.377  -0.237  0.00  0.00    +0.059 C 
ATOM     20  H   UNL     1       1.620   1.483   1.720  0.00  0.00    -0.080 HD
ENDROOT
BRANCH   8  21
ATOM     21  N   UNL     1      -2.132  -2.692   0.167  0.00  0.00    +0.383 N 
ATOM     22  H   UNL     1      -1.498  -3.201  -0.449  0.00  0.00    -0.089 HD
ATOM     23  H   UNL     1      -3.080  -2.744  -0.204  0.00  0.00    -0.089 HD
ATOM     24  H   UNL     1      -2.107  -3.108   1.098  0.00  0.00    -0.089 HD
ENDBRANCH   8  21
BRANCH   9  25
ATOM     25  O   UNL     1       1.581  -2.715   0.383  0.00  0.00    -0.354 OA
ATOM     26  C   UNL     1       0.923  -3.975   0.461  0.00  0.00    +0.174 C 
ENDBRANCH   9  25
BRANCH  11  27
ATOM     27  O   UNL     1       0.227   3.133  -0.032  0.00  0.00    -0.354 OA
ATOM     28  C   UNL     1       0.303   4.376  -0.713  0.00  0.00    +0.174 C 
ENDBRANCH  11  27
BRANCH  13  29
ATOM     29  O   UNL     1      -4.411   1.659  -1.376  0.00  0.00    -0.382 OA
ATOM     30  H   UNL     1      -4.152   1.968  -2.258  0.00  0.00    +0.210 HD
ENDBRANCH  13  29
BRANCH  14  31
ATOM     31  O   UNL     1      -3.978  -1.393  -1.733  0.00  0.00    -0.382 OA
ATOM     32  H   UNL     1      -3.690  -2.085  -2.349  0.00  0.00    +0.210 HD
ENDBRANCH  14  31
BRANCH  18  33
ATOM     33  O   UNL     1      -5.021  -0.366   0.511  0.00  0.00    -0.351 OA
ATOM     34  C   UNL     1      -5.681  -0.327   1.766  0.00  0.00    +0.174 C 
ENDBRANCH  18  33
BRANCH  17  35
ATOM     35  O   UNL     1       4.650   1.542  -0.087  0.00  0.00    -0.384 OA
ATOM     36  H   UNL     1       5.273   0.833  -0.309  0.00  0.00    +0.210 HD
ENDBRANCH  17  35
BRANCH   1  37
ATOM     37  C   UNL     1       1.175   0.255   3.280  0.00  0.00    -0.077 C 
ATOM     38  C   UNL     1       2.321   0.777   4.131  0.00  0.00    -0.025 C 
ENDBRANCH   1  37
BRANCH  10  39
ATOM     39  C   UNL     1       3.923  -1.184  -0.545  0.00  0.00    +0.142 C 
BRANCH  39  40
ATOM     40  O   UNL     1       4.054  -1.133  -1.946  0.00  0.00    -0.351 OA
ATOM     41  C   UNL     1       5.031  -2.054  -2.426  0.00  0.00    +0.174 C 
ENDBRANCH  39  40
ENDBRANCH  10  39
TORSDOF 10
