101242525
  -OEChem-03292013293D

 61 64  0     1  0  0  0  0  0999 V2000
    3.4306   -1.4155   -0.3685 O   0  0  0  0  0  0  0  0  0  0  0  0
   -0.0568    1.2758   -0.5190 O   0  0  0  0  0  0  0  0  0  0  0  0
    3.5035    1.7183    1.3847 O   0  0  0  0  0  0  0  0  0  0  0  0
   -2.0407    0.1570   -1.0254 O   0  0  0  0  0  0  0  0  0  0  0  0
   -1.0773    1.8765    2.0512 O   0  0  0  0  0  0  0  0  0  0  0  0
   -4.0210    2.0008    2.0643 O   0  0  0  0  0  0  0  0  0  0  0  0
   -5.1397   -0.3735    0.8530 O   0  0  0  0  0  0  0  0  0  0  0  0
   -4.3595    0.0263   -2.5406 O   0  0  0  0  0  0  0  0  0  0  0  0
    1.3551   -2.2634    0.5155 C   0  0  0  0  0  0  0  0  0  0  0  0
    2.4805   -1.2129    0.6860 C   0  0  2  0  0  0  0  0  0  0  0  0
    1.8216    0.1877    0.5343 C   0  0  2  0  0  0  0  0  0  0  0  0
    1.4739   -3.6383    1.1562 C   0  0  0  0  0  0  0  0  0  0  0  0
    0.5076   -2.6429    1.7240 C   0  0  0  0  0  0  0  0  0  0  0  0
    1.0178    0.3674   -0.7796 C   0  0  2  0  0  0  0  0  0  0  0  0
    0.5862   -2.1049   -0.7670 C   0  0  0  0  0  0  0  0  0  0  0  0
    2.0001    1.0132   -1.7710 C   0  0  0  0  0  0  0  0  0  0  0  0
    2.8816    1.9651   -0.9426 C   0  0  0  0  0  0  0  0  0  0  0  0
    0.4223   -0.8958   -1.3387 C   0  0  0  0  0  0  0  0  0  0  0  0
    2.8255    1.3312    0.4387 C   0  0  0  0  0  0  0  0  0  0  0  0
    3.2658   -1.3070    2.0024 C   0  0  0  0  0  0  0  0  0  0  0  0
    0.0157   -3.3224   -1.4459 C   0  0  0  0  0  0  0  0  0  0  0  0
    2.3149    3.3850   -0.8787 C   0  0  0  0  0  0  0  0  0  0  0  0
    4.3160    1.9878   -1.4694 C   0  0  0  0  0  0  0  0  0  0  0  0
   -1.1869    0.5971    0.0281 C   0  0  2  0  0  0  0  0  0  0  0  0
   -1.9250    1.5743    0.9432 C   0  0  1  0  0  0  0  0  0  0  0  0
   -3.2351    0.9752    1.4552 C   0  0  2  0  0  0  0  0  0  0  0  0
   -3.1826   -0.5542   -0.5444 C   0  0  1  0  0  0  0  0  0  0  0  0
   -4.0508    0.3702    0.3124 C   0  0  1  0  0  0  0  0  0  0  0  0
   -3.9432   -1.0782   -1.7584 C   0  0  0  0  0  0  0  0  0  0  0  0
    1.1896    0.3955    1.4063 H   0  0  0  0  0  0  0  0  0  0  0  0
    2.3432   -3.8892    1.7500 H   0  0  0  0  0  0  0  0  0  0  0  0
    1.0566   -4.5119    0.6700 H   0  0  0  0  0  0  0  0  0  0  0  0
   -0.5506   -2.8373    1.5850 H   0  0  0  0  0  0  0  0  0  0  0  0
    0.7313   -2.2161    2.6930 H   0  0  0  0  0  0  0  0  0  0  0  0
    2.6167    0.2454   -2.2559 H   0  0  0  0  0  0  0  0  0  0  0  0
    1.4740    1.5561   -2.5658 H   0  0  0  0  0  0  0  0  0  0  0  0
   -0.0989   -0.8183   -2.2910 H   0  0  0  0  0  0  0  0  0  0  0  0
    3.7087   -2.2981    2.1402 H   0  0  0  0  0  0  0  0  0  0  0  0
    2.6465   -1.0796    2.8746 H   0  0  0  0  0  0  0  0  0  0  0  0
    4.1203   -0.6222    2.0031 H   0  0  0  0  0  0  0  0  0  0  0  0
    3.8082   -2.3054   -0.2617 H   0  0  0  0  0  0  0  0  0  0  0  0
   -0.4803   -3.0758   -2.3912 H   0  0  0  0  0  0  0  0  0  0  0  0
   -0.7298   -3.8075   -0.8080 H   0  0  0  0  0  0  0  0  0  0  0  0
    0.8105   -4.0396   -1.6751 H   0  0  0  0  0  0  0  0  0  0  0  0
    2.2354    3.8227   -1.8797 H   0  0  0  0  0  0  0  0  0  0  0  0
    2.9594    4.0373   -0.2779 H   0  0  0  0  0  0  0  0  0  0  0  0
    1.3231    3.4141   -0.4167 H   0  0  0  0  0  0  0  0  0  0  0  0
    4.3498    2.3458   -2.5040 H   0  0  0  0  0  0  0  0  0  0  0  0
    4.7689    0.9902   -1.4402 H   0  0  0  0  0  0  0  0  0  0  0  0
    4.9510    2.6436   -0.8630 H   0  0  0  0  0  0  0  0  0  0  0  0
   -0.8872   -0.2510    0.6572 H   0  0  0  0  0  0  0  0  0  0  0  0
   -2.1127    2.5202    0.4215 H   0  0  0  0  0  0  0  0  0  0  0  0
   -3.0465    0.2304    2.2373 H   0  0  0  0  0  0  0  0  0  0  0  0
   -2.8488   -1.4231    0.0385 H   0  0  0  0  0  0  0  0  0  0  0  0
   -4.4776    1.1809   -0.2898 H   0  0  0  0  0  0  0  0  0  0  0  0
   -0.9154    1.0526    2.5417 H   0  0  0  0  0  0  0  0  0  0  0  0
   -4.8203   -1.6631   -1.4657 H   0  0  0  0  0  0  0  0  0  0  0  0
   -3.2879   -1.6992   -2.3781 H   0  0  0  0  0  0  0  0  0  0  0  0
   -4.1874    2.6902    1.3989 H   0  0  0  0  0  0  0  0  0  0  0  0
   -4.7727   -1.0976    1.3885 H   0  0  0  0  0  0  0  0  0  0  0  0
   -4.8340   -0.3302   -3.3107 H   0  0  0  0  0  0  0  0  0  0  0  0
  1 10  1  0  0  0  0
  1 41  1  0  0  0  0
  2 14  1  0  0  0  0
  2 24  1  0  0  0  0
  3 19  2  0  0  0  0
  4 24  1  0  0  0  0
  4 27  1  0  0  0  0
  5 25  1  0  0  0  0
  5 56  1  0  0  0  0
  6 26  1  0  0  0  0
  6 59  1  0  0  0  0
  7 28  1  0  0  0  0
  7 60  1  0  0  0  0
  8 29  1  0  0  0  0
  8 61  1  0  0  0  0
  9 10  1  0  0  0  0
  9 12  1  0  0  0  0
  9 13  1  0  0  0  0
  9 15  1  0  0  0  0
 10 11  1  0  0  0  0
 10 20  1  0  0  0  0
 11 14  1  0  0  0  0
 11 19  1  0  0  0  0
 11 30  1  0  0  0  0
 12 13  1  0  0  0  0
 12 31  1  0  0  0  0
 12 32  1  0  0  0  0
 13 33  1  0  0  0  0
 13 34  1  0  0  0  0
 14 16  1  0  0  0  0
 14 18  1  0  0  0  0
 15 18  2  0  0  0  0
 15 21  1  0  0  0  0
 16 17  1  0  0  0  0
 16 35  1  0  0  0  0
 16 36  1  0  0  0  0
 17 19  1  0  0  0  0
 17 22  1  0  0  0  0
 17 23  1  0  0  0  0
 18 37  1  0  0  0  0
 20 38  1  0  0  0  0
 20 39  1  0  0  0  0
 20 40  1  0  0  0  0
 21 42  1  0  0  0  0
 21 43  1  0  0  0  0
 21 44  1  0  0  0  0
 22 45  1  0  0  0  0
 22 46  1  0  0  0  0
 22 47  1  0  0  0  0
 23 48  1  0  0  0  0
 23 49  1  0  0  0  0
 23 50  1  0  0  0  0
 24 25  1  0  0  0  0
 24 51  1  0  0  0  0
 25 26  1  0  0  0  0
 25 52  1  0  0  0  0
 26 28  1  0  0  0  0
 26 53  1  0  0  0  0
 27 28  1  0  0  0  0
 27 29  1  0  0  0  0
 27 54  1  0  0  0  0
 28 55  1  0  0  0  0
 29 57  1  0  0  0  0
 29 58  1  0  0  0  0
M  END
> <PUBCHEM_COMPOUND_CID>
101242525

> <PUBCHEM_CONFORMER_RMSD>
0.8

> <PUBCHEM_CONFORMER_DIVERSEORDER>
1
24
15
21
20
3
22
12
13
7
17
16
9
4
10
14
18
11
25
23
8
6
5
26
2
19

> <PUBCHEM_MMFF94_PARTIAL_CHARGES>
35
1 -0.68
10 0.38
11 0.06
12 -0.2
13 -0.2
14 0.42
15 -0.18
17 0.06
18 -0.29
19 0.45
2 -0.56
21 0.14
24 0.56
25 0.28
26 0.28
27 0.28
28 0.28
29 0.28
3 -0.57
31 0.1
32 0.1
33 0.1
34 0.1
37 0.15
4 -0.56
41 0.4
5 -0.68
56 0.4
59 0.4
6 -0.68
60 0.4
61 0.4
7 -0.68
8 -0.68
9 -0.05

> <PUBCHEM_EFFECTIVE_ROTOR_COUNT>
5.2

> <PUBCHEM_PHARMACOPHORE_FEATURES>
17
1 1 acceptor
1 1 donor
1 2 acceptor
1 3 acceptor
1 4 acceptor
1 5 acceptor
1 5 donor
1 6 acceptor
1 6 donor
1 7 acceptor
1 7 donor
1 8 acceptor
1 8 donor
3 17 22 23 hydrophobe
5 11 14 16 17 19 rings
6 4 24 25 26 27 28 rings
6 9 10 11 14 15 18 rings

> <PUBCHEM_HEAVY_ATOM_COUNT>
29

> <PUBCHEM_ATOM_DEF_STEREO_COUNT>
8

> <PUBCHEM_ATOM_UDEF_STEREO_COUNT>
0

> <PUBCHEM_BOND_DEF_STEREO_COUNT>
0

> <PUBCHEM_BOND_UDEF_STEREO_COUNT>
0

> <PUBCHEM_ISOTOPIC_ATOM_COUNT>
0

> <PUBCHEM_COMPONENT_COUNT>
1

> <PUBCHEM_CACTVS_TAUTO_COUNT>
2

> <PUBCHEM_CONFORMER_ID>
0608D69D00000001

> <PUBCHEM_MMFF94_ENERGY>
98.4268

> <PUBCHEM_FEATURE_SELFOVERLAP>
86.437

> <PUBCHEM_SHAPE_FINGERPRINT>
11007060 377 18264777722045874836
11370993 70 17823681131254439479
11578080 2 17315647192188566437
12156800 1 17397519379113625067
12160290 23 17832145300577135462
12553582 1 18044941168833439786
12633257 1 18114465552426308627
12788726 201 17401772316170830262
13134695 92 17968933068371857606
13140716 1 18334853961079540170
13224815 77 17846778516363760237
133893 2 18261114002349512110
13583140 156 17532928518304468493
13911987 19 17824271611922245045
13965767 371 17769370522345531936
14747281 78 17314513621654717093
14787075 74 17835520792842865199
14955137 171 17984154668882285614
16945 1 18188484658344843178
17138139 8 17765971171964462231
1813 80 17979365157418979326
20511986 3 18200296755075801437
20600515 1 15617818603870717180
20645477 70 17894906317611930429
20691752 17 18261684718031131492
20715895 44 17907840827074332997
20739085 24 18336273353323649180
21421861 104 18194138321259588537
2255824 54 18335430032273568790
23419403 2 13772367716471622762
23559900 14 17485660260381744077
238 59 18265636366820738096
283562 15 17108478706480022770
3380486 145 17686888432757730876
35225 105 17613467813821607042
3797600 57 18272938253642570675
392239 28 17912637196798408795
394222 165 18408891762431038979
4340502 62 18116173206407456411
469060 322 16166012252449514986
474 4 18335990830169014433
5845 1 17542225653616108446
59755656 520 18192164886939962748
6287921 2 18130225934892944158
633830 44 18340786912769195757
7097593 13 17982172214788356283
81228 2 17543918261752058652
9981440 41 17341527819575942840

> <PUBCHEM_SHAPE_MULTIPOLES>
549.85
7.8
3.68
2.14
7.26
1.82
0.04
-3.46
-0.1
-3.14
0.33
1.05
-0.03
-2.26

> <PUBCHEM_SHAPE_SELFOVERLAP>
1175.754

> <PUBCHEM_SHAPE_VOLUME>
305.1

> <PUBCHEM_COORDINATE_TYPE>
2
5
10

$$$$
