REMARK  Name = 101249034
REMARK  6 active torsions:
REMARK  status: ('A' for Active; 'I' for Inactive)
REMARK    1  A    between atoms: C_7  and  C_29
REMARK    2  A    between atoms: C_8  and  O_25
REMARK    3  A    between atoms: C_9  and  O_23
REMARK    4  A    between atoms: O_25  and  C_27
REMARK    5  A    between atoms: C_29  and  O_30
REMARK    6  A    between atoms: O_30  and  C_32
REMARK                            x       y       z     vdW  Elec       q    Type
REMARK                         _______ _______ _______ _____ _____    ______ ____
ROOT
ATOM      1  O   UNL     1      -1.494   1.629  -2.113  0.00  0.00    -0.448 OA
ATOM      2  O   UNL     1      -3.139   0.220   1.551  0.00  0.00    -0.291 OA
ATOM      3  O   UNL     1      -3.389   1.902  -0.922  0.00  0.00    -0.250 OA
ATOM      4  C   UNL     1       0.321   0.552  -0.761  0.00  0.00    +0.084 C 
ATOM      5  C   UNL     1      -0.710  -0.624  -0.417  0.00  0.00    +0.051 C 
ATOM      6  C   UNL     1      -2.198  -0.176  -0.676  0.00  0.00    +0.147 C 
ATOM      7  C   UNL     1       1.843   0.083  -0.803  0.00  0.00    +0.051 C 
ATOM      8  C   UNL     1       0.223   1.763   0.259  0.00  0.00    +0.172 C 
ATOM      9  C   UNL     1      -0.476  -2.010  -1.127  0.00  0.00    +0.112 C 
ATOM     10  C   UNL     1       2.872   1.221  -1.237  0.00  0.00    +0.004 C 
ATOM     11  C   UNL     1      -2.970  -1.118  -1.641  0.00  0.00    +0.023 C 
ATOM     12  C   UNL     1      -3.013  -2.429  -0.865  0.00  0.00    +0.029 C 
ATOM     13  C   UNL     1      -0.171   1.045  -2.152  0.00  0.00    +0.212 C 
ATOM     14  C   UNL     1      -1.605  -3.031  -0.841  0.00  0.00    +0.034 C 
ATOM     15  C   UNL     1       1.496   2.618   0.397  0.00  0.00    +0.044 C 
ATOM     16  C   UNL     1       2.362   2.633  -0.853  0.00  0.00    +0.004 C 
ATOM     17  C   UNL     1      -2.962  -0.514   0.594  0.00  0.00    +0.178 C 
ATOM     18  C   UNL     1      -2.411   1.217  -1.206  0.00  0.00    +0.323 C 
ATOM     19  C   UNL     1      -3.432  -1.928   0.494  0.00  0.00    +0.013 C 
ATOM     20  C   UNL     1       3.130   1.158  -2.764  0.00  0.00    +0.000 C 
ATOM     21  C   UNL     1       4.279   1.036  -0.606  0.00  0.00    +0.000 C 
ATOM     22  C   UNL     1      -4.139  -2.547   1.439  0.00  0.00    -0.002 C 
ENDROOT
BRANCH   9  23
ATOM     23  O   UNL     1       0.735  -2.640  -0.728  0.00  0.00    -0.384 OA
ATOM     24  H   UNL     1       1.479  -2.039  -0.886  0.00  0.00    +0.210 HD
ENDBRANCH   9  23
BRANCH   8  25
ATOM     25  O   UNL     1      -0.171   1.348   1.567  0.00  0.00    -0.452 OA
BRANCH  25  27
ATOM     26  O   UNL     1      -1.191   3.390   1.921  0.00  0.00    -0.250 OA
ATOM     27  C   UNL     1      -0.876   2.266   2.290  0.00  0.00    +0.317 C 
ATOM     28  C   UNL     1      -1.220   1.696   3.632  0.00  0.00    +0.121 C 
ENDBRANCH  25  27
ENDBRANCH   8  25
BRANCH   7  29
ATOM     29  C   UNL     1       2.273  -0.571   0.538  0.00  0.00    +0.209 C 
BRANCH  29  30
ATOM     30  O   UNL     1       3.409  -1.356   0.274  0.00  0.00    -0.448 OA
BRANCH  30  32
ATOM     31  O   UNL     1       3.526  -1.992   2.492  0.00  0.00    -0.250 OA
ATOM     32  C   UNL     1       3.951  -2.026   1.345  0.00  0.00    +0.318 C 
ATOM     33  C   UNL     1       5.150  -2.817   0.917  0.00  0.00    +0.121 C 
ENDBRANCH  30  32
ENDBRANCH  29  30
ENDBRANCH   7  29
TORSDOF 6
