REMARK  Name = 101298732
REMARK  1 active torsions:
REMARK  status: ('A' for Active; 'I' for Inactive)
REMARK    1  A    between atoms: C_13  and  O_28
REMARK                            x       y       z     vdW  Elec       q    Type
REMARK                         _______ _______ _______ _____ _____    ______ ____
ROOT
ATOM      1  O   UNL     1      -2.223   2.623  -1.503  0.00  0.00    -0.345 OA
ATOM      2  O   UNL     1       0.231   1.357  -0.552  0.00  0.00    -0.443 OA
ATOM      3  O   UNL     1      -0.557   2.301   1.407  0.00  0.00    -0.247 OA
ATOM      4  O   UNL     1      -0.257  -2.184   0.258  0.00  0.00    -0.442 OA
ATOM      5  O   UNL     1      -1.462  -3.031  -1.516  0.00  0.00    -0.248 OA
ATOM      6  O   UNL     1       1.873  -0.229  -2.024  0.00  0.00    -0.288 OA
ATOM      7  N   UNL     1       4.469   0.396   0.143  0.00  0.00    +0.388 N 
ATOM      8  C   UNL     1      -2.058   1.767  -0.352  0.00  0.00    +0.206 C 
ATOM      9  C   UNL     1      -3.024   2.941  -0.365  0.00  0.00    +0.151 C 
ATOM     10  C   UNL     1      -2.603   0.368  -0.597  0.00  0.00    +0.044 C 
ATOM     11  C   UNL     1      -2.599  -0.501   0.690  0.00  0.00    +0.038 C 
ATOM     12  C   UNL     1      -0.715   1.893   0.265  0.00  0.00    +0.344 C 
ATOM     13  C   UNL     1      -2.638  -2.021   0.362  0.00  0.00    +0.177 C 
ATOM     14  C   UNL     1      -2.718   4.259   0.251  0.00  0.00    +0.035 C 
ATOM     15  C   UNL     1      -3.766  -0.062   1.589  0.00  0.00    +0.003 C 
ATOM     16  C   UNL     1      -2.746  -2.906   1.610  0.00  0.00    +0.041 C 
ATOM     17  C   UNL     1       1.418   0.860   0.087  0.00  0.00    +0.227 C 
ATOM     18  C   UNL     1      -1.404  -2.468  -0.429  0.00  0.00    +0.342 C 
ATOM     19  C   UNL     1       2.508   1.920   0.126  0.00  0.00    +0.029 C 
ATOM     20  C   UNL     1       1.810  -0.302  -0.799  0.00  0.00    +0.212 C 
ATOM     21  C   UNL     1       3.754   1.452   0.884  0.00  0.00    -0.073 C 
ATOM     22  C   UNL     1       2.051  -1.594  -0.113  0.00  0.00    +0.053 C 
ATOM     23  C   UNL     1       0.990  -2.641  -0.307  0.00  0.00    +0.238 C 
ATOM     24  C   UNL     1       4.395  -0.914   0.808  0.00  0.00    -0.051 C 
ATOM     25  C   UNL     1       3.178  -1.785   0.592  0.00  0.00    -0.047 C 
ATOM     26  C   UNL     1       5.870   0.782  -0.056  0.00  0.00    -0.100 C 
ATOM     27  H   UNL     1       4.005   0.299  -0.760  0.00  0.00    -0.079 HD
ENDROOT
BRANCH  13  28
ATOM     28  O   UNL     1      -3.776  -2.281  -0.459  0.00  0.00    -0.376 OA
ATOM     29  H   UNL     1      -4.582  -2.010   0.009  0.00  0.00    +0.211 HD
ENDBRANCH  13  28
TORSDOF 1
