101239053
  -OEChem-03292013293D

 48 52  0     1  0  0  0  0  0999 V2000
   -2.4247   -1.6790    0.3648 O   0  0  0  0  0  0  0  0  0  0  0  0
   -2.1843    1.1136   -1.9747 O   0  0  0  0  0  0  0  0  0  0  0  0
   -5.2556   -1.0455   -0.1743 O   0  0  0  0  0  0  0  0  0  0  0  0
   -5.6025    0.2003    1.7164 O   0  0  0  0  0  0  0  0  0  0  0  0
    0.6444   -0.3791    1.3126 O   0  0  0  0  0  0  0  0  0  0  0  0
    4.7659   -2.2650   -0.4246 O   0  0  0  0  0  0  0  0  0  0  0  0
    4.3343    2.3622    0.7324 O   0  0  0  0  0  0  0  0  0  0  0  0
    5.8369    0.0358    0.6839 O   0  0  0  0  0  0  0  0  0  0  0  0
   -3.4976    0.3886    0.4908 C   0  0  1  0  0  0  0  0  0  0  0  0
   -2.9768   -0.6560   -0.4811 C   0  0  1  0  0  0  0  0  0  0  0  0
   -2.5612    0.2598    1.6920 C   0  0  0  0  0  0  0  0  0  0  0  0
   -1.8663   -0.1709   -1.4251 C   0  0  2  0  0  0  0  0  0  0  0  0
   -1.6883   -0.9426    1.3448 C   0  0  2  0  0  0  0  0  0  0  0  0
   -3.6082    1.7844   -0.1182 C   0  0  0  0  0  0  0  0  0  0  0  0
   -4.2233   -1.1623   -1.1659 C   0  0  0  0  0  0  0  0  0  0  0  0
   -4.8892   -0.1395    0.7846 C   0  0  0  0  0  0  0  0  0  0  0  0
   -0.4905   -0.1660   -0.7856 C   0  0  0  0  0  0  0  0  0  0  0  0
   -2.4125    2.1262   -0.9935 C   0  0  0  0  0  0  0  0  0  0  0  0
   -0.3988   -0.4974    0.6748 C   0  0  0  0  0  0  0  0  0  0  0  0
    0.6381    0.0879   -1.4618 C   0  0  0  0  0  0  0  0  0  0  0  0
    1.9977    0.0740   -0.8997 C   0  0  0  0  0  0  0  0  0  0  0  0
    2.5334    1.2346   -0.3417 C   0  0  0  0  0  0  0  0  0  0  0  0
    2.7514   -1.0995   -0.9255 C   0  0  0  0  0  0  0  0  0  0  0  0
    4.0408   -1.1123   -0.3936 C   0  0  0  0  0  0  0  0  0  0  0  0
    3.8228    1.2219    0.1905 C   0  0  0  0  0  0  0  0  0  0  0  0
    4.5764    0.0484    0.1644 C   0  0  0  0  0  0  0  0  0  0  0  0
    4.6394   -3.1406    0.6943 C   0  0  0  0  0  0  0  0  0  0  0  0
    3.4981    3.5177    0.7190 C   0  0  0  0  0  0  0  0  0  0  0  0
   -3.1204    0.0535    2.6117 H   0  0  0  0  0  0  0  0  0  0  0  0
   -1.9639    1.1603    1.8722 H   0  0  0  0  0  0  0  0  0  0  0  0
   -1.8133   -0.8701   -2.2704 H   0  0  0  0  0  0  0  0  0  0  0  0
   -1.4609   -1.5867    2.1985 H   0  0  0  0  0  0  0  0  0  0  0  0
   -3.7335    2.5414    0.6650 H   0  0  0  0  0  0  0  0  0  0  0  0
   -4.5090    1.8388   -0.7446 H   0  0  0  0  0  0  0  0  0  0  0  0
   -4.5180   -0.5623   -2.0328 H   0  0  0  0  0  0  0  0  0  0  0  0
   -4.1433   -2.2140   -1.4561 H   0  0  0  0  0  0  0  0  0  0  0  0
   -2.6070    3.0617   -1.5285 H   0  0  0  0  0  0  0  0  0  0  0  0
   -1.5093    2.2867   -0.3949 H   0  0  0  0  0  0  0  0  0  0  0  0
    0.5905    0.3165   -2.5239 H   0  0  0  0  0  0  0  0  0  0  0  0
    1.9021    2.1176   -0.3499 H   0  0  0  0  0  0  0  0  0  0  0  0
    2.3407   -2.0085   -1.3597 H   0  0  0  0  0  0  0  0  0  0  0  0
    6.0371    0.9248    1.0250 H   0  0  0  0  0  0  0  0  0  0  0  0
    5.2812   -4.0092    0.5239 H   0  0  0  0  0  0  0  0  0  0  0  0
    3.6051   -3.4840    0.7970 H   0  0  0  0  0  0  0  0  0  0  0  0
    4.9626   -2.6413    1.6132 H   0  0  0  0  0  0  0  0  0  0  0  0
    4.0633    4.3292    1.1893 H   0  0  0  0  0  0  0  0  0  0  0  0
    2.5952    3.3699    1.3214 H   0  0  0  0  0  0  0  0  0  0  0  0
    3.2711    3.8403   -0.3028 H   0  0  0  0  0  0  0  0  0  0  0  0
  1 10  1  0  0  0  0
  1 13  1  0  0  0  0
  2 12  1  0  0  0  0
  2 18  1  0  0  0  0
  3 15  1  0  0  0  0
  3 16  1  0  0  0  0
  4 16  2  0  0  0  0
  5 19  2  0  0  0  0
  6 24  1  0  0  0  0
  6 27  1  0  0  0  0
  7 25  1  0  0  0  0
  7 28  1  0  0  0  0
  8 26  1  0  0  0  0
  8 42  1  0  0  0  0
  9 10  1  0  0  0  0
  9 11  1  0  0  0  0
  9 14  1  0  0  0  0
  9 16  1  0  0  0  0
 10 12  1  0  0  0  0
 10 15  1  0  0  0  0
 11 13  1  0  0  0  0
 11 29  1  0  0  0  0
 11 30  1  0  0  0  0
 12 17  1  0  0  0  0
 12 31  1  0  0  0  0
 13 19  1  0  0  0  0
 13 32  1  0  0  0  0
 14 18  1  0  0  0  0
 14 33  1  0  0  0  0
 14 34  1  0  0  0  0
 15 35  1  0  0  0  0
 15 36  1  0  0  0  0
 17 19  1  0  0  0  0
 17 20  2  3  0  0  0
 18 37  1  0  0  0  0
 18 38  1  0  0  0  0
 20 21  1  0  0  0  0
 20 39  1  0  0  0  0
 21 22  2  0  0  0  0
 21 23  1  0  0  0  0
 22 25  1  0  0  0  0
 22 40  1  0  0  0  0
 23 24  2  0  0  0  0
 23 41  1  0  0  0  0
 24 26  1  0  0  0  0
 25 26  2  0  0  0  0
 27 43  1  0  0  0  0
 27 44  1  0  0  0  0
 27 45  1  0  0  0  0
 28 46  1  0  0  0  0
 28 47  1  0  0  0  0
 28 48  1  0  0  0  0
M  END
> <PUBCHEM_COMPOUND_CID>
101239053

> <PUBCHEM_CONFORMER_RMSD>
0.8

> <PUBCHEM_CONFORMER_DIVERSEORDER>
1
4
2
3

> <PUBCHEM_MMFF94_PARTIAL_CHARGES>
30
1 -0.56
10 0.28
12 0.42
13 0.34
15 0.28
16 0.66
17 -0.12
18 0.28
19 0.49
2 -0.56
20 -0.18
21 0.03
22 -0.15
23 -0.15
24 0.08
25 0.08
26 0.08
27 0.28
28 0.28
3 -0.43
39 0.15
4 -0.57
40 0.15
41 0.15
42 0.45
5 -0.57
6 -0.36
7 -0.36
8 -0.53
9 0.06

> <PUBCHEM_EFFECTIVE_ROTOR_COUNT>
4.4

> <PUBCHEM_PHARMACOPHORE_FEATURES>
11
1 1 acceptor
1 2 acceptor
1 4 acceptor
1 5 acceptor
1 6 acceptor
1 7 acceptor
1 8 donor
5 3 9 10 15 16 rings
6 2 9 10 12 14 18 rings
6 21 22 23 24 25 26 rings
8 1 9 10 11 12 13 17 19 rings

> <PUBCHEM_HEAVY_ATOM_COUNT>
28

> <PUBCHEM_ATOM_DEF_STEREO_COUNT>
3

> <PUBCHEM_ATOM_UDEF_STEREO_COUNT>
1

> <PUBCHEM_BOND_DEF_STEREO_COUNT>
0

> <PUBCHEM_BOND_UDEF_STEREO_COUNT>
1

> <PUBCHEM_ISOTOPIC_ATOM_COUNT>
0

> <PUBCHEM_COMPONENT_COUNT>
1

> <PUBCHEM_CACTVS_TAUTO_COUNT>
4

> <PUBCHEM_CONFORMER_ID>
0608C90D00000001

> <PUBCHEM_MMFF94_ENERGY>
114.9172

> <PUBCHEM_FEATURE_SELFOVERLAP>
56.585

> <PUBCHEM_SHAPE_FINGERPRINT>
10366900 7 18334583477282413708
1100329 8 16532560528578477556
11315181 36 16805324400874031324
11370993 144 18335984173075272220
11405975 8 18341049631707711072
12107183 9 17910963435147608610
12166972 35 17561087990845164642
12236239 1 17346881165491741158
12403259 415 18187364320035559804
12403814 3 18131632296823098501
12553582 1 15936413308025997044
12596602 18 17561078138137849234
12616971 3 17917711292383531655
12670546 56 18408600361890473503
12788726 201 16343439344195626617
128620 24 14908186351920588740
13140716 1 17096946873592626433
13224815 77 15482677874772444934
13533116 47 18408325492515714682
13583140 156 18270124637973683386
13782708 43 18040721320521072650
14341114 176 18411986836608982372
14849402 71 18269271439085547864
14866123 147 16897643486452493554
15131766 46 17914892269383318465
15238133 3 16702312217124140459
15788980 27 18411700950484671774
16752209 62 16298378050495930341
17349148 13 17060337401327185902
17844677 252 18341615888791491436
17980427 23 13757202178654982882
1813 80 16226055465903592198
18393751 57 17762323013884769664
18681886 176 14851606605280074412
20511986 3 17632003222081839232
20715895 44 17486787281175480849
20832881 197 18118122477204248858
21033648 29 17968083244393963244
23402539 116 18333448759955477103
23559900 14 17894921779873978636
23569914 152 16961779197838821231
23569914 2 17624364871918687817
23569943 247 17751637646237594091
2838139 119 18197777705412749541
3004659 81 17632585937443198862
474 4 18127689542573287856
5104073 3 18410858720024229249
5281201 14 18410011018508881676
67856867 119 18060135492101029608

> <PUBCHEM_SHAPE_MULTIPOLES>
529.27
12.37
2.54
1.5
3.41
0.91
-0.03
-1.74
2.71
3.82
0.4
-1.16
0.06
0.53

> <PUBCHEM_SHAPE_SELFOVERLAP>
1189.367

> <PUBCHEM_SHAPE_VOLUME>
281.3

> <PUBCHEM_COORDINATE_TYPE>
2
5
10

$$$$
