101203483
  -OEChem-03292013293D

 48 54  0     1  0  0  0  0  0999 V2000
    0.1397    0.5020    1.9711 O   0  0  0  0  0  0  0  0  0  0  0  0
    1.8900   -3.0980    0.0113 O   0  0  0  0  0  0  0  0  0  0  0  0
   -4.4691   -0.7762    0.9229 O   0  0  0  0  0  0  0  0  0  0  0  0
    2.4541    2.4471   -0.3834 O   0  0  0  0  0  0  0  0  0  0  0  0
    4.4498   -0.8089    1.1703 O   0  0  0  0  0  0  0  0  0  0  0  0
    0.1725   -1.3395   -2.2039 O   0  0  0  0  0  0  0  0  0  0  0  0
   -1.6149   -2.8675   -0.1168 O   0  0  0  0  0  0  0  0  0  0  0  0
   -3.6404    1.8591   -0.9093 O   0  0  0  0  0  0  0  0  0  0  0  0
    0.9621   -0.1096   -0.2391 C   0  0  2  0  0  0  0  0  0  0  0  0
    0.3380    1.2015   -0.8614 C   0  0  1  0  0  0  0  0  0  0  0  0
   -0.8225    1.7057    0.0574 C   0  0  1  0  0  0  0  0  0  0  0  0
    0.0267   -0.5308    0.9517 C   0  0  2  0  0  0  0  0  0  0  0  0
   -1.4240   -0.5871    0.4951 C   0  0  0  0  0  0  0  0  0  0  0  0
   -1.8577    0.5874    0.0026 C   0  0  0  0  0  0  0  0  0  0  0  0
    2.3947    0.1110    0.2457 C   0  0  0  0  0  0  0  0  0  0  0  0
    0.9939   -1.2412   -1.2974 C   0  0  0  0  0  0  0  0  0  0  0  0
   -0.4757    1.7456    1.5650 C   0  0  2  0  0  0  0  0  0  0  0  0
    2.0249   -2.3030   -1.1744 C   0  0  1  0  0  0  0  0  0  0  0  0
    3.0598   -2.2735   -0.0871 C   0  0  1  0  0  0  0  0  0  0  0  0
    1.4088    2.2097   -1.3207 C   0  0  1  0  0  0  0  0  0  0  0  0
    3.0898   -1.1019    0.8446 C   0  0  1  0  0  0  0  0  0  0  0  0
   -2.2494   -1.8320    0.6326 C   0  0  1  0  0  0  0  0  0  0  0  0
   -3.6673   -1.6930    0.1638 C   0  0  2  0  0  0  0  0  0  0  0  0
   -4.1360   -0.3875   -0.4200 C   0  0  2  0  0  0  0  0  0  0  0  0
   -3.2383    0.7855   -0.4814 C   0  0  0  0  0  0  0  0  0  0  0  0
    2.9873    1.3119    0.1543 C   0  0  0  0  0  0  0  0  0  0  0  0
    0.3674    2.9191    2.0321 C   0  0  0  0  0  0  0  0  0  0  0  0
    0.8361    3.5640   -1.7258 C   0  0  0  0  0  0  0  0  0  0  0  0
   -0.1663    0.9448   -1.8064 H   0  0  0  0  0  0  0  0  0  0  0  0
   -1.2518    2.6517   -0.2826 H   0  0  0  0  0  0  0  0  0  0  0  0
    0.3223   -1.4793    1.4093 H   0  0  0  0  0  0  0  0  0  0  0  0
   -1.4135    1.8172    2.1362 H   0  0  0  0  0  0  0  0  0  0  0  0
    2.2910   -2.8165   -2.0914 H   0  0  0  0  0  0  0  0  0  0  0  0
    4.0072   -2.7699   -0.2423 H   0  0  0  0  0  0  0  0  0  0  0  0
    1.8878    1.7918   -2.2188 H   0  0  0  0  0  0  0  0  0  0  0  0
    2.6007   -1.3624    1.7900 H   0  0  0  0  0  0  0  0  0  0  0  0
   -2.2503   -2.1410    1.6844 H   0  0  0  0  0  0  0  0  0  0  0  0
   -4.1384   -2.6189   -0.1349 H   0  0  0  0  0  0  0  0  0  0  0  0
   -4.9241   -0.4319   -1.1626 H   0  0  0  0  0  0  0  0  0  0  0  0
    3.9676    1.5362    0.5525 H   0  0  0  0  0  0  0  0  0  0  0  0
    1.4190    2.8154    1.7741 H   0  0  0  0  0  0  0  0  0  0  0  0
    0.3446    2.9728    3.1270 H   0  0  0  0  0  0  0  0  0  0  0  0
   -0.0134    3.8666    1.6406 H   0  0  0  0  0  0  0  0  0  0  0  0
    0.4734    4.1222   -0.8570 H   0  0  0  0  0  0  0  0  0  0  0  0
    0.0222    3.4555   -2.4489 H   0  0  0  0  0  0  0  0  0  0  0  0
    1.6190    4.1829   -2.1787 H   0  0  0  0  0  0  0  0  0  0  0  0
    4.8074   -1.5749    1.6515 H   0  0  0  0  0  0  0  0  0  0  0  0
   -2.0674   -3.7021    0.0940 H   0  0  0  0  0  0  0  0  0  0  0  0
  1 12  1  0  0  0  0
  1 17  1  0  0  0  0
  2 18  1  0  0  0  0
  2 19  1  0  0  0  0
  3 23  1  0  0  0  0
  3 24  1  0  0  0  0
  4 20  1  0  0  0  0
  4 26  1  0  0  0  0
  5 21  1  0  0  0  0
  5 47  1  0  0  0  0
  6 16  2  0  0  0  0
  7 22  1  0  0  0  0
  7 48  1  0  0  0  0
  8 25  2  0  0  0  0
  9 10  1  0  0  0  0
  9 12  1  0  0  0  0
  9 15  1  0  0  0  0
  9 16  1  0  0  0  0
 10 11  1  0  0  0  0
 10 20  1  0  0  0  0
 10 29  1  0  0  0  0
 11 14  1  0  0  0  0
 11 17  1  0  0  0  0
 11 30  1  0  0  0  0
 12 13  1  0  0  0  0
 12 31  1  0  0  0  0
 13 14  2  0  0  0  0
 13 22  1  0  0  0  0
 14 25  1  0  0  0  0
 15 21  1  0  0  0  0
 15 26  2  0  0  0  0
 16 18  1  0  0  0  0
 17 27  1  0  0  0  0
 17 32  1  0  0  0  0
 18 19  1  0  0  0  0
 18 33  1  0  0  0  0
 19 21  1  0  0  0  0
 19 34  1  0  0  0  0
 20 28  1  0  0  0  0
 20 35  1  0  0  0  0
 21 36  1  0  0  0  0
 22 23  1  0  0  0  0
 22 37  1  0  0  0  0
 23 24  1  0  0  0  0
 23 38  1  0  0  0  0
 24 25  1  0  0  0  0
 24 39  1  0  0  0  0
 26 40  1  0  0  0  0
 27 41  1  0  0  0  0
 27 42  1  0  0  0  0
 27 43  1  0  0  0  0
 28 44  1  0  0  0  0
 28 45  1  0  0  0  0
 28 46  1  0  0  0  0
M  END
> <PUBCHEM_COMPOUND_CID>
101203483

> <PUBCHEM_CONFORMER_RMSD>
0.6

> <PUBCHEM_CONFORMER_DIVERSEORDER>
1

> <PUBCHEM_MMFF94_PARTIAL_CHARGES>
32
1 -0.56
11 0.14
12 0.42
13 -0.28
14 -0.12
15 -0.28
16 0.51
17 0.28
18 0.05
19 -0.05
2 -0.3
20 0.28
21 0.51
22 0.51
23 -0.05
24 0.05
25 0.56
26 -0.07
3 -0.3
33 0.1
34 0.1
38 0.1
39 0.1
4 -0.36
40 0.15
47 0.4
48 0.4
5 -0.68
6 -0.57
7 -0.68
8 -0.57
9 0.2

> <PUBCHEM_EFFECTIVE_ROTOR_COUNT>
1.6

> <PUBCHEM_PHARMACOPHORE_FEATURES>
14
1 1 acceptor
1 2 acceptor
1 3 acceptor
1 4 acceptor
1 5 acceptor
1 5 donor
1 6 acceptor
1 7 acceptor
1 7 donor
1 8 acceptor
6 4 9 10 15 20 26 rings
7 2 9 15 16 18 19 21 rings
7 3 13 14 22 23 24 25 rings
8 1 9 10 11 12 13 14 17 rings

> <PUBCHEM_HEAVY_ATOM_COUNT>
28

> <PUBCHEM_ATOM_DEF_STEREO_COUNT>
12

> <PUBCHEM_ATOM_UDEF_STEREO_COUNT>
0

> <PUBCHEM_BOND_DEF_STEREO_COUNT>
0

> <PUBCHEM_BOND_UDEF_STEREO_COUNT>
0

> <PUBCHEM_ISOTOPIC_ATOM_COUNT>
0

> <PUBCHEM_COMPONENT_COUNT>
1

> <PUBCHEM_CACTVS_TAUTO_COUNT>
1

> <PUBCHEM_CONFORMER_ID>
06083E1B00000001

> <PUBCHEM_MMFF94_ENERGY>
91.6484

> <PUBCHEM_FEATURE_SELFOVERLAP>
71.097

> <PUBCHEM_SHAPE_FINGERPRINT>
10863032 1 18188206606129876852
10948715 1 17612318849814011636
1100329 8 15813674481552041711
11578080 2 16444163405503628732
12011746 2 18269553841252415982
12035759 4 18195556820219045796
12422481 6 18192964180739052368
12506688 2 18341896294279024139
13004483 165 18116699734521794986
13134695 92 18130493185291040809
13140716 1 17839182162304983955
13224815 77 17846785091668676439
133893 2 17899170249706858580
13544653 18 18201151053565833343
14223421 5 18262807383621929807
16945 1 18411707551780846896
17349148 13 18342174470741885275
17492 89 18261393411627003355
19591789 44 17473552828593207662
20600515 1 18410858715729209438
20905425 154 18267593587744296839
21421861 104 18197244536107612953
23419403 2 17409326665338890176
23558518 356 17626670397060695777
23559900 14 18269267955265346130
392239 28 17845920940307020306
394222 165 17827925353680837512
460360 51 18267327390636294841
484985 159 16163523808892102066
7364860 26 18337115664918517500
81228 2 17908159684612502435
9709674 26 18334580174205130387
9981440 41 17103130646877967248

> <PUBCHEM_SHAPE_MULTIPOLES>
529.27
6.1
3.63
1.62
3.54
0.83
-0.06
-2.45
-0.53
-1.52
0.68
-0.42
0.79
0.09

> <PUBCHEM_SHAPE_SELFOVERLAP>
1198.588

> <PUBCHEM_SHAPE_VOLUME>
272.7

> <PUBCHEM_COORDINATE_TYPE>
2
5
10

$$$$
