REMARK  Name = 101203483
REMARK  2 active torsions:
REMARK  status: ('A' for Active; 'I' for Inactive)
REMARK    1  A    between atoms: C_19  and  O_27
REMARK    2  A    between atoms: C_20  and  O_29
REMARK                            x       y       z     vdW  Elec       q    Type
REMARK                         _______ _______ _______ _____ _____    ______ ____
ROOT
ATOM      1  O   UNL     1       0.140   0.502   1.971  0.00  0.00    -0.354 OA
ATOM      2  O   UNL     1       1.890  -3.098   0.011  0.00  0.00    -0.343 OA
ATOM      3  O   UNL     1      -4.469  -0.776   0.923  0.00  0.00    -0.343 OA
ATOM      4  O   UNL     1       2.454   2.447  -0.383  0.00  0.00    -0.477 OA
ATOM      5  O   UNL     1       0.172  -1.339  -2.204  0.00  0.00    -0.293 OA
ATOM      6  O   UNL     1      -3.640   1.859  -0.909  0.00  0.00    -0.289 OA
ATOM      7  C   UNL     1       0.962  -0.110  -0.239  0.00  0.00    +0.106 C 
ATOM      8  C   UNL     1       0.338   1.202  -0.861  0.00  0.00    +0.059 C 
ATOM      9  C   UNL     1      -0.823   1.706   0.057  0.00  0.00    +0.056 C 
ATOM     10  C   UNL     1       0.027  -0.531   0.952  0.00  0.00    +0.146 C 
ATOM     11  C   UNL     1      -1.424  -0.587   0.495  0.00  0.00    +0.011 C 
ATOM     12  C   UNL     1      -1.858   0.587   0.003  0.00  0.00    +0.014 C 
ATOM     13  C   UNL     1       2.395   0.111   0.246  0.00  0.00    +0.030 C 
ATOM     14  C   UNL     1       0.994  -1.241  -1.297  0.00  0.00    +0.186 C 
ATOM     15  C   UNL     1      -0.476   1.746   1.565  0.00  0.00    +0.120 C 
ATOM     16  C   UNL     1       2.025  -2.303  -1.174  0.00  0.00    +0.202 C 
ATOM     17  C   UNL     1       3.060  -2.273  -0.087  0.00  0.00    +0.181 C 
ATOM     18  C   UNL     1       1.409   2.210  -1.321  0.00  0.00    +0.167 C 
ATOM     19  C   UNL     1       3.090  -1.102   0.845  0.00  0.00    +0.162 C 
ATOM     20  C   UNL     1      -2.249  -1.832   0.633  0.00  0.00    +0.161 C 
ATOM     21  C   UNL     1      -3.667  -1.693   0.164  0.00  0.00    +0.181 C 
ATOM     22  C   UNL     1      -4.136  -0.388  -0.420  0.00  0.00    +0.206 C 
ATOM     23  C   UNL     1      -3.238   0.785  -0.481  0.00  0.00    +0.198 C 
ATOM     24  C   UNL     1       2.987   1.312   0.154  0.00  0.00    +0.166 C 
ATOM     25  C   UNL     1       0.367   2.919   2.032  0.00  0.00    +0.032 C 
ATOM     26  C   UNL     1       0.836   3.564  -1.726  0.00  0.00    +0.047 C 
ENDROOT
BRANCH  19  27
ATOM     27  O   UNL     1       4.450  -0.809   1.170  0.00  0.00    -0.378 OA
ATOM     28  H   UNL     1       4.481  -0.051   1.774  0.00  0.00    +0.211 HD
ENDBRANCH  19  27
BRANCH  20  29
ATOM     29  O   UNL     1      -1.615  -2.868  -0.117  0.00  0.00    -0.378 OA
ATOM     30  H   UNL     1      -0.696  -2.965   0.180  0.00  0.00    +0.211 HD
ENDBRANCH  20  29
TORSDOF 2
