101377925
  -OEChem-03292013293D

 54 57  0     1  0  0  0  0  0999 V2000
    0.1139   -0.7314   -0.2547 O   0  0  0  0  0  0  0  0  0  0  0  0
    4.6619    0.3141   -0.5099 O   0  0  0  0  0  0  0  0  0  0  0  0
   -0.7850   -2.2486    2.0256 O   0  0  0  0  0  0  0  0  0  0  0  0
    3.4076   -4.1611    0.7118 O   0  0  0  0  0  0  0  0  0  0  0  0
    4.3820    2.5225   -1.1060 O   0  0  0  0  0  0  0  0  0  0  0  0
   -5.6085   -1.6212   -1.6808 O   0  0  0  0  0  0  0  0  0  0  0  0
   -3.9286    1.7191    1.3122 O   0  0  0  0  0  0  0  0  0  0  0  0
   -6.0296    0.6355   -0.1306 O   0  0  0  0  0  0  0  0  0  0  0  0
    2.4040    1.1400   -0.7335 C   0  0  1  0  0  0  0  0  0  0  0  0
    2.4233   -0.2860   -0.3383 C   0  0  0  0  0  0  0  0  0  0  0  0
    1.3943   -1.1873   -0.1151 C   0  0  0  0  0  0  0  0  0  0  0  0
   -0.7177   -2.8343    0.7246 C   0  0  1  0  0  0  0  0  0  0  0  0
   -0.8911   -1.7525   -0.3495 C   0  0  1  0  0  0  0  0  0  0  0  0
    0.6399   -3.5117    0.5486 C   0  0  0  0  0  0  0  0  0  0  0  0
    1.7180   -2.4986    0.2664 C   0  0  0  0  0  0  0  0  0  0  0  0
    1.7306    2.0519    0.2791 C   0  0  0  0  0  0  0  0  0  0  0  0
    3.7437   -0.6835   -0.2340 C   0  0  0  0  0  0  0  0  0  0  0  0
    1.2652    3.3577   -0.3650 C   0  0  0  0  0  0  0  0  0  0  0  0
    3.8975    1.4375   -0.8143 C   0  0  0  0  0  0  0  0  0  0  0  0
    3.0716   -2.8839    0.3669 C   0  0  0  0  0  0  0  0  0  0  0  0
    4.0978   -1.9726    0.1141 C   0  0  0  0  0  0  0  0  0  0  0  0
   -2.2662   -1.1138   -0.2909 C   0  0  0  0  0  0  0  0  0  0  0  0
    0.6185    4.2867    0.6638 C   0  0  0  0  0  0  0  0  0  0  0  0
    0.1231    5.5779    0.0130 C   0  0  0  0  0  0  0  0  0  0  0  0
   -2.4745    0.0226    0.4906 C   0  0  0  0  0  0  0  0  0  0  0  0
   -3.3220   -1.6630   -1.0183 C   0  0  0  0  0  0  0  0  0  0  0  0
   -4.5861   -1.0760   -0.9642 C   0  0  0  0  0  0  0  0  0  0  0  0
   -3.7386    0.6098    0.5448 C   0  0  0  0  0  0  0  0  0  0  0  0
   -0.5505    6.4896    1.0262 C   0  0  0  0  0  0  0  0  0  0  0  0
   -4.7944    0.0606   -0.1827 C   0  0  0  0  0  0  0  0  0  0  0  0
    1.9769    1.2247   -1.7394 H   0  0  0  0  0  0  0  0  0  0  0  0
   -1.5171   -3.5820    0.6637 H   0  0  0  0  0  0  0  0  0  0  0  0
   -0.7831   -2.2049   -1.3463 H   0  0  0  0  0  0  0  0  0  0  0  0
    0.5955   -4.2056   -0.2995 H   0  0  0  0  0  0  0  0  0  0  0  0
    0.8890   -4.0786    1.4533 H   0  0  0  0  0  0  0  0  0  0  0  0
    2.4102    2.2749    1.1123 H   0  0  0  0  0  0  0  0  0  0  0  0
    0.8537    1.5651    0.7224 H   0  0  0  0  0  0  0  0  0  0  0  0
    0.5435    3.1351   -1.1606 H   0  0  0  0  0  0  0  0  0  0  0  0
    2.1120    3.8723   -0.8330 H   0  0  0  0  0  0  0  0  0  0  0  0
    5.1419   -2.2583    0.1873 H   0  0  0  0  0  0  0  0  0  0  0  0
    1.3429    4.5257    1.4519 H   0  0  0  0  0  0  0  0  0  0  0  0
   -0.2233    3.7724    1.1437 H   0  0  0  0  0  0  0  0  0  0  0  0
   -0.6923   -2.9661    2.6753 H   0  0  0  0  0  0  0  0  0  0  0  0
    0.9641    6.1091   -0.4476 H   0  0  0  0  0  0  0  0  0  0  0  0
   -0.5894    5.3429   -0.7863 H   0  0  0  0  0  0  0  0  0  0  0  0
   -1.6606    0.4532    1.0686 H   0  0  0  0  0  0  0  0  0  0  0  0
   -3.1587   -2.5501   -1.6256 H   0  0  0  0  0  0  0  0  0  0  0  0
    4.3766   -4.2422    0.7305 H   0  0  0  0  0  0  0  0  0  0  0  0
   -1.4173    5.9989    1.4804 H   0  0  0  0  0  0  0  0  0  0  0  0
    0.1440    6.7691    1.8249 H   0  0  0  0  0  0  0  0  0  0  0  0
   -0.8959    7.4072    0.5397 H   0  0  0  0  0  0  0  0  0  0  0  0
   -5.2794   -2.4005   -2.1607 H   0  0  0  0  0  0  0  0  0  0  0  0
   -3.0878    1.9586    1.7386 H   0  0  0  0  0  0  0  0  0  0  0  0
   -6.6318    0.1207   -0.6955 H   0  0  0  0  0  0  0  0  0  0  0  0
  1 11  1  0  0  0  0
  1 13  1  0  0  0  0
  2 17  1  0  0  0  0
  2 19  1  0  0  0  0
  3 12  1  0  0  0  0
  3 43  1  0  0  0  0
  4 20  1  0  0  0  0
  4 48  1  0  0  0  0
  5 19  2  0  0  0  0
  6 27  1  0  0  0  0
  6 52  1  0  0  0  0
  7 28  1  0  0  0  0
  7 53  1  0  0  0  0
  8 30  1  0  0  0  0
  8 54  1  0  0  0  0
  9 10  1  0  0  0  0
  9 16  1  0  0  0  0
  9 19  1  0  0  0  0
  9 31  1  0  0  0  0
 10 11  1  0  0  0  0
 10 17  2  0  0  0  0
 11 15  2  0  0  0  0
 12 13  1  0  0  0  0
 12 14  1  0  0  0  0
 12 32  1  0  0  0  0
 13 22  1  0  0  0  0
 13 33  1  0  0  0  0
 14 15  1  0  0  0  0
 14 34  1  0  0  0  0
 14 35  1  0  0  0  0
 15 20  1  0  0  0  0
 16 18  1  0  0  0  0
 16 36  1  0  0  0  0
 16 37  1  0  0  0  0
 17 21  1  0  0  0  0
 18 23  1  0  0  0  0
 18 38  1  0  0  0  0
 18 39  1  0  0  0  0
 20 21  2  0  0  0  0
 21 40  1  0  0  0  0
 22 25  2  0  0  0  0
 22 26  1  0  0  0  0
 23 24  1  0  0  0  0
 23 41  1  0  0  0  0
 23 42  1  0  0  0  0
 24 29  1  0  0  0  0
 24 44  1  0  0  0  0
 24 45  1  0  0  0  0
 25 28  1  0  0  0  0
 25 46  1  0  0  0  0
 26 27  2  0  0  0  0
 26 47  1  0  0  0  0
 27 30  1  0  0  0  0
 28 30  2  0  0  0  0
 29 49  1  0  0  0  0
 29 50  1  0  0  0  0
 29 51  1  0  0  0  0
M  END
> <PUBCHEM_COMPOUND_CID>
101377925

> <PUBCHEM_CONFORMER_RMSD>
0.8

> <PUBCHEM_CONFORMER_DIVERSEORDER>
1
19
25
33
31
4
14
26
22
11
7
23
28
6
10
18
15
17
16
27
30
12
20
13
29
2
32
9
21
5
8
24
3

> <PUBCHEM_MMFF94_PARTIAL_CHARGES>
33
1 -0.36
10 -0.14
11 0.08
12 0.28
13 0.42
14 0.14
15 -0.14
17 0.08
19 0.66
2 -0.23
20 0.08
21 -0.15
22 -0.14
25 -0.15
26 -0.15
27 0.08
28 0.08
3 -0.68
30 0.08
4 -0.53
40 0.15
43 0.4
46 0.15
47 0.15
48 0.45
5 -0.57
52 0.45
53 0.45
54 0.45
6 -0.53
7 -0.53
8 -0.53
9 0.2

> <PUBCHEM_EFFECTIVE_ROTOR_COUNT>
6.2

> <PUBCHEM_PHARMACOPHORE_FEATURES>
14
1 1 acceptor
1 29 hydrophobe
1 3 acceptor
1 3 donor
1 4 donor
1 5 acceptor
1 6 donor
1 7 donor
1 8 donor
4 16 18 23 24 hydrophobe
5 2 9 10 17 19 rings
6 1 11 12 13 14 15 rings
6 10 11 15 17 20 21 rings
6 22 25 26 27 28 30 rings

> <PUBCHEM_HEAVY_ATOM_COUNT>
30

> <PUBCHEM_ATOM_DEF_STEREO_COUNT>
3

> <PUBCHEM_ATOM_UDEF_STEREO_COUNT>
0

> <PUBCHEM_BOND_DEF_STEREO_COUNT>
0

> <PUBCHEM_BOND_UDEF_STEREO_COUNT>
0

> <PUBCHEM_ISOTOPIC_ATOM_COUNT>
0

> <PUBCHEM_COMPONENT_COUNT>
1

> <PUBCHEM_CACTVS_TAUTO_COUNT>
36

> <PUBCHEM_CONFORMER_ID>
060AE78500000001

> <PUBCHEM_MMFF94_ENERGY>
69.8991

> <PUBCHEM_FEATURE_SELFOVERLAP>
71.186

> <PUBCHEM_SHAPE_FINGERPRINT>
10256941 240 16682846781584983261
10411042 1 17830169104890126146
10439779 11 18050837012686269968
10675989 125 18407763629632351692
12107183 9 17835804097449270211
12156800 1 17542755652712284952
12769317 202 18261095379666605799
12788726 201 18266189344403624500
13140716 1 18335703884285021282
13590594 115 18121502353945830962
138480 1 18411697711921516669
14394314 77 18412547599950147576
14466204 15 18266453398956267440
14681490 219 18339362972544558046
14790565 3 18118696637012263620
14931854 50 18341054115580073093
15326921 28 16615310400434835417
15420108 30 17041473917695042704
15483637 11 17832427492993446869
18681886 176 18341881996222983338
20642791 13 18048592621976448330
20764821 26 18336256830632376101
21033648 144 18186516631173337455
21049683 118 17171771943051765947
21133410 221 14606711632939006361
21344244 78 18046039615209301778
21860390 5 18271252715275945644
23559900 14 18123745615216416179
25019877 29 13665523108356991956
335352 9 18334295384215320086
345986 75 17898269633677200610
4015057 19 18335132107936735171
474 4 18334857216638460923
653340 110 18124306117645595432
9981440 41 17546431745169631257

> <PUBCHEM_SHAPE_MULTIPOLES>
570.43
9.85
7.27
1.11
9.63
13.79
-0.1
-3
2.99
-3.45
-2.55
0.6
-0.12
-2.05

> <PUBCHEM_SHAPE_SELFOVERLAP>
1246.792

> <PUBCHEM_SHAPE_VOLUME>
309

> <PUBCHEM_COORDINATE_TYPE>
2
5
10

$$$$
