REMARK  Name = 101316812
REMARK  1 active torsions:
REMARK  status: ('A' for Active; 'I' for Inactive)
REMARK    1  A    between atoms: C_19  and  O_36
REMARK                            x       y       z     vdW  Elec       q    Type
REMARK                         _______ _______ _______ _____ _____    ______ ____
ROOT
ATOM      1  O   UNL     1      -0.706  -1.493   2.456  0.00  0.00    -0.452 OA
ATOM      2  O   UNL     1       3.025  -2.300   1.738  0.00  0.00    -0.296 OA
ATOM      3  O   UNL     1       2.966   2.891  -1.152  0.00  0.00    -0.449 OA
ATOM      4  O   UNL     1       0.060  -3.542   1.856  0.00  0.00    -0.250 OA
ATOM      5  O   UNL     1      -3.931   0.292  -2.727  0.00  0.00    -0.296 OA
ATOM      6  O   UNL     1       3.602   4.420   0.435  0.00  0.00    -0.245 OA
ATOM      7  C   UNL     1       1.547  -1.144   0.133  0.00  0.00    +0.062 C 
ATOM      8  C   UNL     1       0.049  -1.696   0.225  0.00  0.00    +0.101 C 
ATOM      9  C   UNL     1       1.954  -1.330  -1.353  0.00  0.00    +0.008 C 
ATOM     10  C   UNL     1       1.522  -2.804  -1.402  0.00  0.00    +0.008 C 
ATOM     11  C   UNL     1       0.055  -2.747  -0.926  0.00  0.00    +0.012 C 
ATOM     12  C   UNL     1      -1.091  -0.627   0.277  0.00  0.00    +0.078 C 
ATOM     13  C   UNL     1       1.912   0.212   0.744  0.00  0.00    +0.016 C 
ATOM     14  C   UNL     1       2.422  -3.433  -0.320  0.00  0.00    +0.065 C 
ATOM     15  C   UNL     1       2.427  -2.289   0.673  0.00  0.00    +0.150 C 
ATOM     16  C   UNL     1       1.352  -0.353  -2.371  0.00  0.00    +0.004 C 
ATOM     17  C   UNL     1      -1.134  -0.286   1.796  0.00  0.00    +0.172 C 
ATOM     18  C   UNL     1      -0.190  -2.382   1.567  0.00  0.00    +0.316 C 
ATOM     19  C   UNL     1      -2.514  -0.994  -0.261  0.00  0.00    +0.121 C 
ATOM     20  C   UNL     1       3.154   0.857   0.101  0.00  0.00    +0.069 C 
ATOM     21  C   UNL     1       1.607   1.125  -2.015  0.00  0.00    +0.044 C 
ATOM     22  C   UNL     1      -3.556   0.181  -0.287  0.00  0.00    +0.076 C 
ATOM     23  C   UNL     1       2.927   1.451  -1.301  0.00  0.00    +0.173 C 
ATOM     24  C   UNL     1      -2.456   0.091   2.483  0.00  0.00    +0.044 C 
ATOM     25  C   UNL     1      -3.098   1.463   0.462  0.00  0.00    +0.009 C 
ATOM     26  C   UNL     1      -3.150   1.371   1.988  0.00  0.00    +0.004 C 
ATOM     27  C   UNL     1       1.907  -0.654  -3.770  0.00  0.00    +0.000 C 
ATOM     28  C   UNL     1       3.632   2.049   0.855  0.00  0.00    +0.057 C 
ATOM     29  C   UNL     1      -3.877   0.838  -1.636  0.00  0.00    +0.152 C 
ATOM     30  C   UNL     1      -4.931  -0.371   0.179  0.00  0.00    +0.010 C 
ATOM     31  C   UNL     1      -3.877   2.563  -0.208  0.00  0.00    +0.008 C 
ATOM     32  C   UNL     1       3.418   3.272   0.070  0.00  0.00    +0.337 C 
ATOM     33  C   UNL     1      -2.507   2.602   2.642  0.00  0.00    +0.000 C 
ATOM     34  C   UNL     1      -4.252   2.256  -1.452  0.00  0.00    +0.065 C 
ATOM     35  C   UNL     1       4.214   2.080   2.058  0.00  0.00    +0.002 C 
ENDROOT
BRANCH  19  36
ATOM     36  O   UNL     1      -2.480  -1.573  -1.557  0.00  0.00    -0.384 OA
ATOM     37  H   UNL     1      -1.842  -2.303  -1.568  0.00  0.00    +0.210 HD
ENDBRANCH  19  36
TORSDOF 1
