REMARK  Name = 101366553
REMARK  2 active torsions:
REMARK  status: ('A' for Active; 'I' for Inactive)
REMARK    1  A    between atoms: C_13  and  O_34
REMARK    2  A    between atoms: C_16  and  C_30
REMARK                            x       y       z     vdW  Elec       q    Type
REMARK                         _______ _______ _______ _____ _____    ______ ____
ROOT
ATOM      1  O   UNL     1      -1.977   2.042   1.323  0.00  0.00    -0.345 OA
ATOM      2  O   UNL     1      -4.002   1.392  -0.591  0.00  0.00    -0.446 OA
ATOM      3  O   UNL     1       0.243  -2.391   1.763  0.00  0.00    -0.296 OA
ATOM      4  O   UNL     1       5.213  -0.862  -0.178  0.00  0.00    -0.453 OA
ATOM      5  O   UNL     1      -3.607   3.516  -1.290  0.00  0.00    -0.247 OA
ATOM      6  O   UNL     1       5.495  -1.803  -2.238  0.00  0.00    -0.245 OA
ATOM      7  C   UNL     1      -1.265   1.177   0.395  0.00  0.00    +0.135 C 
ATOM      8  C   UNL     1       0.255   1.040   0.816  0.00  0.00    +0.057 C 
ATOM      9  C   UNL     1      -2.056  -0.075  -0.013  0.00  0.00    +0.074 C 
ATOM     10  C   UNL     1       0.800  -0.391   0.469  0.00  0.00    +0.066 C 
ATOM     11  C   UNL     1      -1.912   2.496  -0.019  0.00  0.00    +0.239 C 
ATOM     12  C   UNL     1       2.374  -0.661   0.599  0.00  0.00    +0.029 C 
ATOM     13  C   UNL     1       1.109   2.085   0.056  0.00  0.00    +0.113 C 
ATOM     14  C   UNL     1      -1.638  -1.248   0.894  0.00  0.00    +0.071 C 
ATOM     15  C   UNL     1       3.139   0.524  -0.132  0.00  0.00    +0.043 C 
ATOM     16  C   UNL     1      -3.590   0.236   0.198  0.00  0.00    +0.197 C 
ATOM     17  C   UNL     1       2.610   1.914   0.292  0.00  0.00    +0.033 C 
ATOM     18  C   UNL     1      -0.146  -1.428   1.101  0.00  0.00    +0.151 C 
ATOM     19  C   UNL     1       0.356   1.312   2.344  0.00  0.00    +0.005 C 
ATOM     20  C   UNL     1      -1.827  -0.398  -1.514  0.00  0.00    +0.007 C 
ATOM     21  C   UNL     1      -3.236   2.521  -0.681  0.00  0.00    +0.347 C 
ATOM     22  C   UNL     1       4.715   0.495  -0.130  0.00  0.00    +0.137 C 
ATOM     23  C   UNL     1       2.855  -0.835   2.053  0.00  0.00    +0.005 C 
ATOM     24  C   UNL     1       2.636  -2.009  -0.108  0.00  0.00    -0.020 C 
ATOM     25  C   UNL     1       5.276   1.264  -1.349  0.00  0.00    +0.044 C 
ATOM     26  C   UNL     1       5.374   1.110   1.117  0.00  0.00    +0.044 C 
ATOM     27  C   UNL     1       3.633  -2.405  -0.909  0.00  0.00    +0.077 C 
ATOM     28  C   UNL     1       4.833  -1.625  -1.226  0.00  0.00    +0.341 C 
ENDROOT
BRANCH  16  30
ATOM     29  O   UNL     1      -5.877  -2.699   0.152  0.00  0.00    -0.448 OA
ATOM     30  C   UNL     1      -4.552  -0.903  -0.109  0.00  0.00    +0.058 C 
ATOM     31  C   UNL     1      -5.127  -1.219  -1.363  0.00  0.00    +0.043 C 
ATOM     32  C   UNL     1      -5.040  -1.833   0.780  0.00  0.00    +0.179 C 
ATOM     33  C   UNL     1      -5.925  -2.319  -1.151  0.00  0.00    +0.180 C 
ENDBRANCH  16  30
BRANCH  13  34
ATOM     34  O   UNL     1       0.860   1.979  -1.349  0.00  0.00    -0.384 OA
ATOM     35  H   UNL     1      -0.090   2.085  -1.517  0.00  0.00    +0.210 HD
ENDBRANCH  13  34
TORSDOF 2
