101393722
  -OEChem-03292013293D

 55 55  0     1  0  0  0  0  0999 V2000
   -1.8329   -0.9502    0.3751 S   0  0  0  0  0  0  0  0  0  0  0  0
    3.9129   -1.9175    0.6179 O   0  0  0  0  0  0  0  0  0  0  0  0
    0.6544   -1.8102    1.5949 O   0  0  0  0  0  0  0  0  0  0  0  0
   -5.1888   -2.4845   -0.3392 O   0  0  0  0  0  0  0  0  0  0  0  0
   -4.1708   -2.0866   -2.3257 O   0  0  0  0  0  0  0  0  0  0  0  0
   -5.5883    2.1639    0.2120 O   0  0  0  0  0  0  0  0  0  0  0  0
    2.1884   -0.3047    0.6571 N   0  0  0  0  0  0  0  0  0  0  0  0
   -4.9657   -0.0542    0.5507 N   0  0  0  0  0  0  0  0  0  0  0  0
    2.4113    0.7476   -0.3135 C   0  0  0  0  0  0  0  0  0  0  0  0
    2.2829    2.0840    0.0648 C   0  0  0  0  0  0  0  0  0  0  0  0
    2.7542    0.4244   -1.6263 C   0  0  0  0  0  0  0  0  0  0  0  0
    1.9164    2.4623    1.4634 C   0  0  0  0  0  0  0  0  0  0  0  0
    3.3728   -0.8293    1.3640 C   0  0  0  0  0  0  0  0  0  0  0  0
    2.4976    3.0971   -0.8696 C   0  0  0  0  0  0  0  0  0  0  0  0
    0.8987   -0.8621    0.8448 C   0  0  0  0  0  0  0  0  0  0  0  0
    2.9690    1.4375   -2.5608 C   0  0  0  0  0  0  0  0  0  0  0  0
   -0.2213   -0.1797    0.0690 C   0  0  0  0  0  0  0  0  0  0  0  0
    2.8407    2.7738   -2.1824 C   0  0  0  0  0  0  0  0  0  0  0  0
    2.8993   -0.9978   -2.0622 C   0  0  0  0  0  0  0  0  0  0  0  0
   -4.3210   -0.2767   -0.7193 C   0  0  1  0  0  0  0  0  0  0  0  0
   -2.8407    0.1112   -0.6860 C   0  0  0  0  0  0  0  0  0  0  0  0
    3.1202    2.9479    2.2647 C   0  0  0  0  0  0  0  0  0  0  0  0
    5.0702   -2.4567    1.2418 C   0  0  0  0  0  0  0  0  0  0  0  0
   -4.5359   -1.6938   -1.2242 C   0  0  0  0  0  0  0  0  0  0  0  0
   -5.5464    1.1529    0.9083 C   0  0  0  0  0  0  0  0  0  0  0  0
    5.5930   -3.6036    0.4034 C   0  0  0  0  0  0  0  0  0  0  0  0
   -6.1701    1.1051    2.2774 C   0  0  0  0  0  0  0  0  0  0  0  0
    1.1630    3.2603    1.4301 H   0  0  0  0  0  0  0  0  0  0  0  0
    1.4348    1.6456    2.0096 H   0  0  0  0  0  0  0  0  0  0  0  0
    3.0585   -1.1834    2.3518 H   0  0  0  0  0  0  0  0  0  0  0  0
    4.1174   -0.0341    1.4744 H   0  0  0  0  0  0  0  0  0  0  0  0
    2.4000    4.1427   -0.5893 H   0  0  0  0  0  0  0  0  0  0  0  0
    3.2391    1.2011   -3.5867 H   0  0  0  0  0  0  0  0  0  0  0  0
   -0.2898    0.8675    0.3723 H   0  0  0  0  0  0  0  0  0  0  0  0
   -0.0153   -0.2500   -1.0022 H   0  0  0  0  0  0  0  0  0  0  0  0
    3.0081    3.5627   -2.9098 H   0  0  0  0  0  0  0  0  0  0  0  0
    3.9237   -1.3427   -1.8934 H   0  0  0  0  0  0  0  0  0  0  0  0
    2.1973   -1.6692   -1.5603 H   0  0  0  0  0  0  0  0  0  0  0  0
    2.6894   -1.0951   -3.1339 H   0  0  0  0  0  0  0  0  0  0  0  0
   -4.8278    0.3725   -1.4454 H   0  0  0  0  0  0  0  0  0  0  0  0
   -2.7360    1.1462   -0.3420 H   0  0  0  0  0  0  0  0  0  0  0  0
   -2.4327    0.0529   -1.7014 H   0  0  0  0  0  0  0  0  0  0  0  0
    3.8903    2.1741    2.3391 H   0  0  0  0  0  0  0  0  0  0  0  0
    2.8118    3.2172    3.2800 H   0  0  0  0  0  0  0  0  0  0  0  0
    3.5763    3.8322    1.8072 H   0  0  0  0  0  0  0  0  0  0  0  0
   -4.9803   -0.8216    1.2167 H   0  0  0  0  0  0  0  0  0  0  0  0
    5.8394   -1.6811    1.3270 H   0  0  0  0  0  0  0  0  0  0  0  0
    4.8156   -2.8174    2.2445 H   0  0  0  0  0  0  0  0  0  0  0  0
    5.8398   -3.2610   -0.6070 H   0  0  0  0  0  0  0  0  0  0  0  0
    6.4865   -4.0431    0.8554 H   0  0  0  0  0  0  0  0  0  0  0  0
    4.8306   -4.3825    0.2975 H   0  0  0  0  0  0  0  0  0  0  0  0
   -5.4597    0.6978    3.0024 H   0  0  0  0  0  0  0  0  0  0  0  0
   -6.4500    2.1148    2.5905 H   0  0  0  0  0  0  0  0  0  0  0  0
   -7.0640    0.4761    2.2495 H   0  0  0  0  0  0  0  0  0  0  0  0
   -5.3227   -3.3918   -0.6872 H   0  0  0  0  0  0  0  0  0  0  0  0
  1 17  1  0  0  0  0
  1 21  1  0  0  0  0
  2 13  1  0  0  0  0
  2 23  1  0  0  0  0
  3 15  2  0  0  0  0
  4 24  1  0  0  0  0
  4 55  1  0  0  0  0
  5 24  2  0  0  0  0
  6 25  2  0  0  0  0
  7  9  1  0  0  0  0
  7 13  1  0  0  0  0
  7 15  1  0  0  0  0
  8 20  1  0  0  0  0
  8 25  1  0  0  0  0
  8 46  1  0  0  0  0
  9 10  1  0  0  0  0
  9 11  2  0  0  0  0
 10 12  1  0  0  0  0
 10 14  2  0  0  0  0
 11 16  1  0  0  0  0
 11 19  1  0  0  0  0
 12 22  1  0  0  0  0
 12 28  1  0  0  0  0
 12 29  1  0  0  0  0
 13 30  1  0  0  0  0
 13 31  1  0  0  0  0
 14 18  1  0  0  0  0
 14 32  1  0  0  0  0
 15 17  1  0  0  0  0
 16 18  2  0  0  0  0
 16 33  1  0  0  0  0
 17 34  1  0  0  0  0
 17 35  1  0  0  0  0
 18 36  1  0  0  0  0
 19 37  1  0  0  0  0
 19 38  1  0  0  0  0
 19 39  1  0  0  0  0
 20 21  1  0  0  0  0
 20 24  1  0  0  0  0
 20 40  1  0  0  0  0
 21 41  1  0  0  0  0
 21 42  1  0  0  0  0
 22 43  1  0  0  0  0
 22 44  1  0  0  0  0
 22 45  1  0  0  0  0
 23 26  1  0  0  0  0
 23 47  1  0  0  0  0
 23 48  1  0  0  0  0
 25 27  1  0  0  0  0
 26 49  1  0  0  0  0
 26 50  1  0  0  0  0
 26 51  1  0  0  0  0
 27 52  1  0  0  0  0
 27 53  1  0  0  0  0
 27 54  1  0  0  0  0
M  END
> <PUBCHEM_COMPOUND_CID>
101393722

> <PUBCHEM_CONFORMER_RMSD>
1.2

> <PUBCHEM_CONFORMER_DIVERSEORDER>
1
122
76
102
120
82
28
59
100
118
77
78
128
95
84
34
30
124
107
5
98
126
32
113
79
15
86
104
16
135
103
53
80
43
123
25
63
101
75
46
17
106
96
99
134
114
130
9
6
74
38
3
127
94
41
19
56
72
87
10
49
97
117
105
136
36
26
71
89
48
14
121
37
64
42
33
2
92
88
47
50
11
109
129
52
93
60
90
24
61
68
83
65
81
55
13
22
85
112
70
67
29
110
69
115
54
23
31
57
108
44
66
12
133
35
20
21
45
40
62
131
7
51
125
39
132
119
58
111
27
4
91
116
73
8
18

> <PUBCHEM_MMFF94_PARTIAL_CHARGES>
30
1 -0.46
10 -0.14
11 -0.14
12 0.14
13 0.58
14 -0.15
15 0.57
16 -0.15
17 0.29
18 -0.15
19 0.14
2 -0.56
20 0.36
21 0.23
23 0.28
24 0.66
25 0.57
27 0.06
3 -0.57
32 0.15
33 0.15
36 0.15
4 -0.65
46 0.37
5 -0.57
55 0.5
6 -0.57
7 -0.48
8 -0.73
9 0.12

> <PUBCHEM_EFFECTIVE_ROTOR_COUNT>
13

> <PUBCHEM_PHARMACOPHORE_FEATURES>
9
1 2 acceptor
1 22 hydrophobe
1 3 acceptor
1 4 acceptor
1 5 acceptor
1 6 acceptor
1 8 donor
3 4 5 24 anion
6 9 10 11 14 16 18 rings

> <PUBCHEM_HEAVY_ATOM_COUNT>
27

> <PUBCHEM_ATOM_DEF_STEREO_COUNT>
0

> <PUBCHEM_ATOM_UDEF_STEREO_COUNT>
1

> <PUBCHEM_BOND_DEF_STEREO_COUNT>
0

> <PUBCHEM_BOND_UDEF_STEREO_COUNT>
0

> <PUBCHEM_ISOTOPIC_ATOM_COUNT>
0

> <PUBCHEM_COMPONENT_COUNT>
1

> <PUBCHEM_CACTVS_TAUTO_COUNT>
12

> <PUBCHEM_CONFORMER_ID>
060B253A00000001

> <PUBCHEM_MMFF94_ENERGY>
81.5117

> <PUBCHEM_FEATURE_SELFOVERLAP>
45.732

> <PUBCHEM_SHAPE_FINGERPRINT>
10721379 63 18115891675654427196
10764073 3 15912471395841083974
11331351 85 18197496217170438946
11405975 8 18273214197144476611
11545043 162 14418124098362779121
12166972 35 18262239919789457336
12616971 3 18335141977691933827
13590594 115 18042686100628945300
14950920 106 17822020774813924809
15021287 119 18261111820896464059
17844677 252 17560249140809086257
22149856 69 18042408101225263731
23419403 2 18122592052380456876
23559900 14 18040704896460442667
24771293 8 18335971039919576930
312423 11 18336260228124950199
460360 51 18341621463817473083
5104073 3 18272370906159609811
5219985 9 18189047604541595034
633830 44 18262246607222465535

> <PUBCHEM_SHAPE_MULTIPOLES>
520.19
14.05
3.88
2.41
21.47
0.1
0.55
-4.71
-2.62
-5.2
-0.39
-0.89
0.93
-3.41

> <PUBCHEM_SHAPE_SELFOVERLAP>
1030.926

> <PUBCHEM_SHAPE_VOLUME>
310.7

> <PUBCHEM_COORDINATE_TYPE>
2
5
10

$$$$
