REMARK  Name = 10138260
REMARK  7 active torsions:
REMARK  status: ('A' for Active; 'I' for Inactive)
REMARK    1  A    between atoms: C_2  and  C_24
REMARK    2  A    between atoms: C_4  and  C_12
REMARK    3  A    between atoms: N_23  and  C_26
REMARK    4  A    between atoms: C_26  and  C_27
REMARK    5  A    between atoms: C_27  and  O_28
REMARK    6  A    between atoms: C_27  and  C_30
REMARK    7  A    between atoms: C_30  and  N_32
REMARK                            x       y       z     vdW  Elec       q    Type
REMARK                         _______ _______ _______ _____ _____    ______ ____
ROOT
ATOM      1  N   UNL     1       1.397   2.048   0.713  0.00  0.00    -0.357 N 
ATOM      2  C   UNL     1      -0.460   1.141  -0.100  0.00  0.00    +0.062 A 
ATOM      3  C   UNL     1       0.650   0.590  -0.786  0.00  0.00    -0.001 A 
ATOM      4  C   UNL     1       1.756   1.171  -0.258  0.00  0.00    +0.053 A 
ATOM      5  C   UNL     1       0.031   2.040   0.822  0.00  0.00    +0.038 A 
ATOM      6  C   UNL     1       0.599  -0.420  -1.865  0.00  0.00    +0.033 C 
ATOM      7  C   UNL     1      -0.658   2.900   1.804  0.00  0.00    +0.050 C 
ATOM      8  H   UNL     1       2.013   2.597   1.250  0.00  0.00    +0.166 HD
ENDROOT
BRANCH   4  12
ATOM      9  F   UNL     1       8.595   0.633  -1.645  0.00  0.00    -0.204 F 
ATOM     10  O   UNL     1       2.347  -0.969   1.505  0.00  0.00    -0.270 OA
ATOM     11  N   UNL     1       4.629  -1.572   1.421  0.00  0.00    -0.280 N 
ATOM     12  C   UNL     1       3.159   1.038  -0.522  0.00  0.00    +0.021 C 
ATOM     13  C   UNL     1       3.960   0.144   0.062  0.00  0.00    +0.056 C 
ATOM     14  C   UNL     1       5.389  -0.065  -0.142  0.00  0.00    +0.020 C 
ATOM     15  C   UNL     1       5.744  -1.118   0.707  0.00  0.00    +0.051 C 
ATOM     16  C   UNL     1       3.482  -0.847   1.083  0.00  0.00    +0.250 C 
ATOM     17  C   UNL     1       6.335   0.542  -0.946  0.00  0.00    +0.031 C 
ATOM     18  C   UNL     1       7.036  -1.600   0.787  0.00  0.00    +0.017 C 
ATOM     19  C   UNL     1       7.650   0.069  -0.881  0.00  0.00    +0.140 C 
ATOM     20  C   UNL     1       7.997  -0.991  -0.022  0.00  0.00    +0.031 C 
ATOM     21  H   UNL     1       4.650  -2.306   2.075  0.00  0.00    +0.155 HD
ENDBRANCH   4  12
BRANCH   2  24
ATOM     22  O   UNL     1      -2.751   1.696  -0.111  0.00  0.00    -0.270 OA
ATOM     23  N   UNL     1      -2.172  -0.447  -0.733  0.00  0.00    -0.299 N 
ATOM     24  C   UNL     1      -1.853   0.849  -0.293  0.00  0.00    +0.247 C 
ATOM     25  H   UNL     1      -1.438  -1.089  -0.865  0.00  0.00    +0.150 HD
BRANCH  23  26
ATOM     26  C   UNL     1      -3.523  -0.885  -1.000  0.00  0.00    +0.117 C 
BRANCH  26  27
ATOM     27  C   UNL     1      -4.210  -1.488   0.226  0.00  0.00    +0.109 C 
BRANCH  27  28
ATOM     28  O   UNL     1      -3.433  -2.604   0.665  0.00  0.00    -0.385 OA
ATOM     29  H   UNL     1      -3.851  -3.003   1.444  0.00  0.00    +0.210 HD
ENDBRANCH  27  28
BRANCH  27  30
ATOM     30  C   UNL     1      -5.656  -1.948   0.004  0.00  0.00    -0.045 C 
BRANCH  30  32
ATOM     31  O   UNL     1      -8.780   0.850   0.175  0.00  0.00    -0.358 OA
ATOM     32  N   UNL     1      -6.548  -0.841  -0.336  0.00  0.00    +0.392 N 
ATOM     33  C   UNL     1      -7.927  -1.317  -0.508  0.00  0.00    -0.045 C 
ATOM     34  C   UNL     1      -6.500   0.203   0.697  0.00  0.00    -0.045 C 
ATOM     35  C   UNL     1      -8.840  -0.143  -0.851  0.00  0.00    +0.119 C 
ATOM     36  C   UNL     1      -7.447   1.341   0.328  0.00  0.00    +0.119 C 
ATOM     37  H   UNL     1      -6.228  -0.441  -1.218  0.00  0.00    -0.079 HD
ENDBRANCH  30  32
ENDBRANCH  27  30
ENDBRANCH  26  27
ENDBRANCH  23  26
ENDBRANCH   2  24
TORSDOF 7
