101380106
  -OEChem-03292013293D

 71 76  0     1  0  0  0  0  0999 V2000
   -2.0478   -2.5951    1.0771 O   0  0  0  0  0  0  0  0  0  0  0  0
    0.4358    2.7662   -0.9909 O   0  0  0  0  0  0  0  0  0  0  0  0
   -4.2717    1.0438   -1.8113 O   0  0  0  0  0  0  0  0  0  0  0  0
   -3.9114   -1.9654   -1.0946 O   0  0  0  0  0  0  0  0  0  0  0  0
   -4.9680   -0.1334    0.6224 O   0  0  0  0  0  0  0  0  0  0  0  0
    4.7787    1.0328   -0.3856 O   0  0  0  0  0  0  0  0  0  0  0  0
    4.0192   -2.0972   -1.2690 O   0  0  0  0  0  0  0  0  0  0  0  0
    1.4859    0.8722    1.6989 N   0  0  2  0  0  0  0  0  0  0  0  0
    0.5308    0.3451   -0.5557 C   0  0  1  0  0  0  0  0  0  0  0  0
    1.4854   -0.9023   -0.5106 C   0  0  1  0  0  0  0  0  0  0  0  0
   -0.8269    0.0427   -1.3101 C   0  0  1  0  0  0  0  0  0  0  0  0
    0.2707    0.4516    0.9671 C   0  0  1  0  0  0  0  0  0  0  0  0
   -0.2166   -1.0046    1.2549 C   0  0  1  0  0  0  0  0  0  0  0  0
   -1.6091   -1.1972   -0.8508 C   0  0  1  0  0  0  0  0  0  0  0  0
   -1.6542   -1.2632    0.6959 C   0  0  1  0  0  0  0  0  0  0  0  0
    2.8769   -0.4752    0.0620 C   0  0  2  0  0  0  0  0  0  0  0  0
    0.7991   -1.8834    0.4837 C   0  0  0  0  0  0  0  0  0  0  0  0
    1.1876    1.5809   -1.2460 C   0  0  2  0  0  0  0  0  0  0  0  0
   -1.9179    1.1503   -1.2644 C   0  0  0  0  0  0  0  0  0  0  0  0
   -3.2647    0.4230   -1.0282 C   0  0  2  0  0  0  0  0  0  0  0  0
   -2.9732   -0.9919   -1.5035 C   0  0  2  0  0  0  0  0  0  0  0  0
   -2.7034   -0.3359    1.3812 C   0  0  0  0  0  0  0  0  0  0  0  0
    2.6687    0.0128    1.5313 C   0  0  0  0  0  0  0  0  0  0  0  0
    3.4848    0.6334   -0.8376 C   0  0  1  0  0  0  0  0  0  0  0  0
   -3.6635    0.4339    0.4563 C   0  0  2  0  0  0  0  0  0  0  0  0
    2.6323    1.8852   -0.8842 C   0  0  0  0  0  0  0  0  0  0  0  0
    3.8592   -1.6720    0.0645 C   0  0  0  0  0  0  0  0  0  0  0  0
    1.2217    1.1398    3.1095 C   0  0  0  0  0  0  0  0  0  0  0  0
    2.3986    1.8423    3.7648 C   0  0  0  0  0  0  0  0  0  0  0  0
    0.5753    3.7036   -2.0473 C   0  0  0  0  0  0  0  0  0  0  0  0
   -5.5947    0.3608    1.7935 C   0  0  0  0  0  0  0  0  0  0  0  0
    4.9122   -3.2038   -1.3734 C   0  0  0  0  0  0  0  0  0  0  0  0
    1.5854   -1.3537   -1.5042 H   0  0  0  0  0  0  0  0  0  0  0  0
   -0.5754   -0.1172   -2.3697 H   0  0  0  0  0  0  0  0  0  0  0  0
   -0.4979    1.2022    1.1600 H   0  0  0  0  0  0  0  0  0  0  0  0
   -0.1944   -1.2502    2.3226 H   0  0  0  0  0  0  0  0  0  0  0  0
   -1.1868   -2.1189   -1.2660 H   0  0  0  0  0  0  0  0  0  0  0  0
    1.4853   -2.3563    1.1898 H   0  0  0  0  0  0  0  0  0  0  0  0
    0.3448   -2.7278   -0.0421 H   0  0  0  0  0  0  0  0  0  0  0  0
    1.1734    1.3649   -2.3248 H   0  0  0  0  0  0  0  0  0  0  0  0
   -1.7555    1.8937   -0.4801 H   0  0  0  0  0  0  0  0  0  0  0  0
   -1.9208    1.6967   -2.2157 H   0  0  0  0  0  0  0  0  0  0  0  0
   -2.9088   -1.0351   -2.5981 H   0  0  0  0  0  0  0  0  0  0  0  0
   -2.1946    0.4110    1.9999 H   0  0  0  0  0  0  0  0  0  0  0  0
   -3.2692   -0.9315    2.1086 H   0  0  0  0  0  0  0  0  0  0  0  0
    3.5721    0.5564    1.8313 H   0  0  0  0  0  0  0  0  0  0  0  0
    2.6041   -0.8475    2.2097 H   0  0  0  0  0  0  0  0  0  0  0  0
    3.6044    0.2582   -1.8618 H   0  0  0  0  0  0  0  0  0  0  0  0
   -3.7152    1.4846    0.7754 H   0  0  0  0  0  0  0  0  0  0  0  0
    3.0698    2.5715   -1.6212 H   0  0  0  0  0  0  0  0  0  0  0  0
    2.7020    2.4529    0.0525 H   0  0  0  0  0  0  0  0  0  0  0  0
    3.4969   -2.5047    0.6752 H   0  0  0  0  0  0  0  0  0  0  0  0
    4.8304   -1.3703    0.4764 H   0  0  0  0  0  0  0  0  0  0  0  0
   -1.9253   -2.6843    2.0377 H   0  0  0  0  0  0  0  0  0  0  0  0
    0.9849    0.2243    3.6640 H   0  0  0  0  0  0  0  0  0  0  0  0
    0.3533    1.8040    3.1990 H   0  0  0  0  0  0  0  0  0  0  0  0
   -4.0154    0.9786   -2.7469 H   0  0  0  0  0  0  0  0  0  0  0  0
   -3.5570   -2.8361   -1.3428 H   0  0  0  0  0  0  0  0  0  0  0  0
    5.1288    1.6791   -1.0223 H   0  0  0  0  0  0  0  0  0  0  0  0
    3.2511    1.1733    3.9179 H   0  0  0  0  0  0  0  0  0  0  0  0
    2.7287    2.7077    3.1798 H   0  0  0  0  0  0  0  0  0  0  0  0
    2.1030    2.2090    4.7541 H   0  0  0  0  0  0  0  0  0  0  0  0
   -0.0896    4.5462   -1.8360 H   0  0  0  0  0  0  0  0  0  0  0  0
    0.2712    3.2688   -3.0047 H   0  0  0  0  0  0  0  0  0  0  0  0
    1.5940    4.0940   -2.1108 H   0  0  0  0  0  0  0  0  0  0  0  0
   -5.0141    0.1635    2.6984 H   0  0  0  0  0  0  0  0  0  0  0  0
   -5.7834    1.4353    1.7009 H   0  0  0  0  0  0  0  0  0  0  0  0
   -6.5610   -0.1412    1.8967 H   0  0  0  0  0  0  0  0  0  0  0  0
    4.9943   -3.4793   -2.4281 H   0  0  0  0  0  0  0  0  0  0  0  0
    4.5238   -4.0614   -0.8158 H   0  0  0  0  0  0  0  0  0  0  0  0
    5.9048   -2.9292   -1.0038 H   0  0  0  0  0  0  0  0  0  0  0  0
  1 15  1  0  0  0  0
  1 54  1  0  0  0  0
  2 18  1  0  0  0  0
  2 30  1  0  0  0  0
  3 20  1  0  0  0  0
  3 57  1  0  0  0  0
  4 21  1  0  0  0  0
  4 58  1  0  0  0  0
  5 25  1  0  0  0  0
  5 31  1  0  0  0  0
  6 24  1  0  0  0  0
  6 59  1  0  0  0  0
  7 27  1  0  0  0  0
  7 32  1  0  0  0  0
  8 12  1  0  0  0  0
  8 23  1  0  0  0  0
  8 28  1  0  0  0  0
  9 10  1  0  0  0  0
  9 11  1  0  0  0  0
  9 12  1  0  0  0  0
  9 18  1  0  0  0  0
 10 16  1  0  0  0  0
 10 17  1  0  0  0  0
 10 33  1  0  0  0  0
 11 14  1  0  0  0  0
 11 19  1  0  0  0  0
 11 34  1  0  0  0  0
 12 13  1  0  0  0  0
 12 35  1  0  0  0  0
 13 15  1  0  0  0  0
 13 17  1  0  0  0  0
 13 36  1  0  0  0  0
 14 15  1  0  0  0  0
 14 21  1  0  0  0  0
 14 37  1  0  0  0  0
 15 22  1  0  0  0  0
 16 23  1  0  0  0  0
 16 24  1  0  0  0  0
 16 27  1  0  0  0  0
 17 38  1  0  0  0  0
 17 39  1  0  0  0  0
 18 26  1  0  0  0  0
 18 40  1  0  0  0  0
 19 20  1  0  0  0  0
 19 41  1  0  0  0  0
 19 42  1  0  0  0  0
 20 21  1  0  0  0  0
 20 25  1  0  0  0  0
 21 43  1  0  0  0  0
 22 25  1  0  0  0  0
 22 44  1  0  0  0  0
 22 45  1  0  0  0  0
 23 46  1  0  0  0  0
 23 47  1  0  0  0  0
 24 26  1  0  0  0  0
 24 48  1  0  0  0  0
 25 49  1  0  0  0  0
 26 50  1  0  0  0  0
 26 51  1  0  0  0  0
 27 52  1  0  0  0  0
 27 53  1  0  0  0  0
 28 29  1  0  0  0  0
 28 55  1  0  0  0  0
 28 56  1  0  0  0  0
 29 60  1  0  0  0  0
 29 61  1  0  0  0  0
 29 62  1  0  0  0  0
 30 63  1  0  0  0  0
 30 64  1  0  0  0  0
 30 65  1  0  0  0  0
 31 66  1  0  0  0  0
 31 67  1  0  0  0  0
 31 68  1  0  0  0  0
 32 69  1  0  0  0  0
 32 70  1  0  0  0  0
 32 71  1  0  0  0  0
M  END
> <PUBCHEM_COMPOUND_CID>
101380106

> <PUBCHEM_CONFORMER_RMSD>
1

> <PUBCHEM_CONFORMER_DIVERSEORDER>
1

> <PUBCHEM_MMFF94_PARTIAL_CHARGES>
25
1 -0.68
12 0.27
15 0.28
18 0.28
2 -0.56
20 0.28
21 0.28
23 0.27
24 0.28
25 0.28
27 0.28
28 0.27
3 -0.68
30 0.28
31 0.28
32 0.28
4 -0.68
5 -0.56
54 0.4
57 0.4
58 0.4
59 0.4
6 -0.68
7 -0.56
8 -0.81

> <PUBCHEM_EFFECTIVE_ROTOR_COUNT>
7

> <PUBCHEM_PHARMACOPHORE_FEATURES>
16
1 1 acceptor
1 1 donor
1 2 acceptor
1 3 acceptor
1 3 donor
1 4 acceptor
1 4 donor
1 5 acceptor
1 6 acceptor
1 6 donor
1 7 acceptor
1 8 cation
6 9 10 16 18 24 26 rings
8 11 14 15 19 20 21 22 25 rings
8 8 9 10 12 13 16 17 23 rings
8 9 10 11 12 13 14 15 17 rings

> <PUBCHEM_HEAVY_ATOM_COUNT>
32

> <PUBCHEM_ATOM_DEF_STEREO_COUNT>
13

> <PUBCHEM_ATOM_UDEF_STEREO_COUNT>
0

> <PUBCHEM_BOND_DEF_STEREO_COUNT>
0

> <PUBCHEM_BOND_UDEF_STEREO_COUNT>
0

> <PUBCHEM_ISOTOPIC_ATOM_COUNT>
0

> <PUBCHEM_COMPONENT_COUNT>
1

> <PUBCHEM_CACTVS_TAUTO_COUNT>
1

> <PUBCHEM_CONFORMER_ID>
060AF00A00000001

> <PUBCHEM_MMFF94_ENERGY>
170.6005

> <PUBCHEM_FEATURE_SELFOVERLAP>
82.721

> <PUBCHEM_SHAPE_FINGERPRINT>
10076449 9 17824853095107849894
10675989 125 16596701771598190685
10863032 1 18264220268768915950
10906281 52 17823715229575160084
11578080 2 17914339231913080184
12160290 23 17464221990847816157
12422481 6 17912379640457600045
12553582 1 18113611274930700983
12788726 201 17971471793723555052
13134695 92 17775284950247330426
13140716 1 17606693679828216381
13224815 77 18269827769665281229
13583140 156 17632023064667671299
14022347 108 17895183351582187100
14223421 5 17317048270813346203
14787075 74 16371301054727101577
14955137 171 18115325405248102477
15081414 286 18334303080211074164
15163728 17 17483948651184662264
15219462 58 17701269258976054075
15238133 3 17489040249066730977
15420108 30 13572377920084040401
16945 1 17895740877081473627
17349148 13 17973415953366808007
17980427 26 17130400563098603624
1813 80 18196954187934534942
21033648 29 18341034239078263897
23419403 2 17771029784735379544
23559900 14 18409720743107414270
3027735 51 17833839274523820006
345986 75 17771344167546258346
5081480 168 18337409165993724164

> <PUBCHEM_SHAPE_MULTIPOLES>
612.48
8.7
2.88
2.62
3.81
0.23
-1.97
-3.2
0.4
-2.67
1.14
-0.5
1.93
1.12

> <PUBCHEM_SHAPE_SELFOVERLAP>
1341.478

> <PUBCHEM_SHAPE_VOLUME>
322.4

> <PUBCHEM_COORDINATE_TYPE>
2
5
10

$$$$
