REMARK  Name = 101306702
REMARK  6 active torsions:
REMARK  status: ('A' for Active; 'I' for Inactive)
REMARK    1  A    between atoms: C_3  and  O_22
REMARK    2  A    between atoms: C_9  and  O_24
REMARK    3  A    between atoms: C_10  and  O_30
REMARK    4  A    between atoms: C_12  and  O_26
REMARK    5  A    between atoms: C_15  and  O_28
REMARK    6  A    between atoms: O_30  and  C_32
REMARK                            x       y       z     vdW  Elec       q    Type
REMARK                         _______ _______ _______ _____ _____    ______ ____
ROOT
ATOM      1  O   UNL     1       3.123   2.693  -0.195  0.00  0.00    -0.354 OA
ATOM      2  C   UNL     1       1.084   1.394   0.494  0.00  0.00    +0.082 C 
ATOM      3  C   UNL     1       1.795   0.255  -0.289  0.00  0.00    +0.131 C 
ATOM      4  C   UNL     1      -1.472  -0.241  -0.400  0.00  0.00    +0.033 C 
ATOM      5  C   UNL     1       2.206   2.356   0.858  0.00  0.00    +0.147 C 
ATOM      6  C   UNL     1      -1.287   1.276  -0.792  0.00  0.00    +0.027 C 
ATOM      7  C   UNL     1       3.285   0.240   0.299  0.00  0.00    +0.053 C 
ATOM      8  C   UNL     1       3.514   1.675   0.730  0.00  0.00    +0.144 C 
ATOM      9  C   UNL     1      -0.136   2.138  -0.115  0.00  0.00    +0.093 C 
ATOM     10  C   UNL     1       1.036  -1.069  -0.121  0.00  0.00    +0.193 C 
ATOM     11  C   UNL     1      -0.306  -1.149  -0.837  0.00  0.00    +0.049 C 
ATOM     12  C   UNL     1      -1.906  -0.307   1.076  0.00  0.00    +0.113 C 
ATOM     13  C   UNL     1      -3.383   0.138   0.972  0.00  0.00    +0.052 C 
ATOM     14  C   UNL     1      -2.747  -0.831  -1.156  0.00  0.00    +0.030 C 
ATOM     15  C   UNL     1      -3.925  -0.747  -0.168  0.00  0.00    +0.091 C 
ATOM     16  C   UNL     1      -2.661   2.012  -0.644  0.00  0.00    +0.003 C 
ATOM     17  C   UNL     1      -3.431   1.640   0.637  0.00  0.00    +0.005 C 
ATOM     18  C   UNL     1       3.435  -0.640   1.560  0.00  0.00    +0.005 C 
ATOM     19  C   UNL     1       4.362  -0.161  -0.721  0.00  0.00    +0.005 C 
ATOM     20  C   UNL     1       0.279   3.241  -1.125  0.00  0.00    +0.029 C 
ATOM     21  C   UNL     1      -5.241  -0.307  -0.801  0.00  0.00    +0.029 C 
ENDROOT
BRANCH   3  22
ATOM     22  O   UNL     1       1.835   0.595  -1.676  0.00  0.00    -0.383 OA
ATOM     23  H   UNL     1       2.313   1.431  -1.791  0.00  0.00    +0.210 HD
ENDBRANCH   3  22
BRANCH   9  24
ATOM     24  O   UNL     1      -0.677   2.836   1.031  0.00  0.00    -0.387 OA
ATOM     25  H   UNL     1      -0.956   2.191   1.700  0.00  0.00    +0.210 HD
ENDBRANCH   9  24
BRANCH  12  26
ATOM     26  O   UNL     1      -1.780  -1.607   1.638  0.00  0.00    -0.384 OA
ATOM     27  H   UNL     1      -0.842  -1.848   1.686  0.00  0.00    +0.210 HD
ENDBRANCH  12  26
BRANCH  15  28
ATOM     28  O   UNL     1      -4.162  -2.056   0.375  0.00  0.00    -0.387 OA
ATOM     29  H   UNL     1      -3.351  -2.384   0.793  0.00  0.00    +0.210 HD
ENDBRANCH  15  28
BRANCH  10  30
ATOM     30  O   UNL     1       1.845  -2.117  -0.675  0.00  0.00    -0.450 OA
BRANCH  30  32
ATOM     31  O   UNL     1       0.988  -3.603   0.873  0.00  0.00    -0.250 OA
ATOM     32  C   UNL     1       1.715  -3.332  -0.074  0.00  0.00    +0.318 C 
ATOM     33  C   UNL     1       2.612  -4.321  -0.753  0.00  0.00    +0.121 C 
ENDBRANCH  30  32
ENDBRANCH  10  30
TORSDOF 6
