REMARK  Name = 101396700
REMARK  9 active torsions:
REMARK  status: ('A' for Active; 'I' for Inactive)
REMARK    1  A    between atoms: C_4  and  O_17
REMARK    2  A    between atoms: C_4  and  C_24
REMARK    3  A    between atoms: C_6  and  O_19
REMARK    4  A    between atoms: C_8  and  O_21
REMARK    5  A    between atoms: C_14  and  O_36
REMARK    6  A    between atoms: C_24  and  C_25
REMARK    7  A    between atoms: C_25  and  C_27
REMARK    8  A    between atoms: C_27  and  C_28
REMARK    9  A    between atoms: C_28  and  C_31
REMARK                            x       y       z     vdW  Elec       q    Type
REMARK                         _______ _______ _______ _____ _____    ______ ____
ROOT
ATOM      1  O   UNL     1      -2.071  -2.233  -0.913  0.00  0.00    -0.305 OA
ATOM      2  C   UNL     1      -2.946   1.103   0.311  0.00  0.00    +0.034 C 
ATOM      3  C   UNL     1      -3.935  -0.014  -0.059  0.00  0.00    +0.008 C 
ATOM      4  C   UNL     1      -1.512   0.684  -0.044  0.00  0.00    +0.169 C 
ATOM      5  C   UNL     1      -3.654  -1.317   0.704  0.00  0.00    +0.054 C 
ATOM      6  C   UNL     1      -1.144  -0.654   0.686  0.00  0.00    +0.182 C 
ATOM      7  C   UNL     1      -3.576   2.296  -0.437  0.00  0.00    +0.003 C 
ATOM      8  C   UNL     1      -2.188  -1.797   0.449  0.00  0.00    +0.215 C 
ATOM      9  C   UNL     1      -5.288   0.646   0.200  0.00  0.00    +0.000 C 
ATOM     10  C   UNL     1      -5.089   2.111  -0.200  0.00  0.00    +0.000 C 
ATOM     11  C   UNL     1      -4.679  -2.398   0.328  0.00  0.00    +0.005 C 
ATOM     12  C   UNL     1       0.226  -1.142   0.266  0.00  0.00    +0.004 C 
ATOM     13  C   UNL     1      -3.103   3.669   0.018  0.00  0.00    +0.000 C 
ATOM     14  C   UNL     1      -0.811  -2.840  -1.232  0.00  0.00    +0.254 C 
ATOM     15  C   UNL     1       0.385  -2.150  -0.608  0.00  0.00    +0.010 C 
ATOM     16  C   UNL     1       1.746  -2.660  -0.983  0.00  0.00    +0.031 C 
ENDROOT
BRANCH   4  17
ATOM     17  O   UNL     1      -1.371   0.586  -1.457  0.00  0.00    -0.377 OA
ATOM     18  H   UNL     1      -1.975  -0.093  -1.796  0.00  0.00    +0.211 HD
ENDBRANCH   4  17
BRANCH   6  19
ATOM     19  O   UNL     1      -1.065  -0.416   2.101  0.00  0.00    -0.376 OA
ATOM     20  H   UNL     1      -1.923  -0.100   2.424  0.00  0.00    +0.211 HD
ENDBRANCH   6  19
BRANCH   8  21
ATOM     21  O   UNL     1      -1.985  -2.887   1.365  0.00  0.00    -0.362 OA
ATOM     22  H   UNL     1      -2.644  -3.578   1.195  0.00  0.00    +0.213 HD
ENDBRANCH   8  21
BRANCH   4  24
ATOM     23  O   UNL     1      -0.746   2.475   1.331  0.00  0.00    -0.294 OA
ATOM     24  C   UNL     1      -0.534   1.757   0.354  0.00  0.00    +0.177 C 
BRANCH  24  25
ATOM     25  C   UNL     1       0.734   1.875  -0.486  0.00  0.00    +0.060 C 
ATOM     26  C   UNL     1       0.754   3.255  -1.140  0.00  0.00    +0.008 C 
BRANCH  25  27
ATOM     27  C   UNL     1       2.001   1.655   0.355  0.00  0.00    +0.011 C 
BRANCH  27  28
ATOM     28  C   UNL     1       3.218   1.299  -0.505  0.00  0.00    +0.048 C 
BRANCH  28  31
ATOM     29  O   UNL     1       4.250  -0.008   1.228  0.00  0.00    -0.445 OA
ATOM     30  O   UNL     1       5.293  -2.030   1.574  0.00  0.00    -0.245 OA
ATOM     31  C   UNL     1       4.463   1.107   0.347  0.00  0.00    +0.188 C 
ATOM     32  C   UNL     1       5.671   0.715  -0.419  0.00  0.00    +0.002 C 
ATOM     33  C   UNL     1       6.109  -0.486  -0.047  0.00  0.00    +0.077 C 
ATOM     34  C   UNL     1       5.202  -0.959   1.000  0.00  0.00    +0.341 C 
ATOM     35  C   UNL     1       6.288   1.602  -1.440  0.00  0.00    +0.030 C 
ENDBRANCH  28  31
ENDBRANCH  27  28
ENDBRANCH  25  27
ENDBRANCH  24  25
ENDBRANCH   4  24
BRANCH  14  36
ATOM     36  O   UNL     1      -0.644  -2.845  -2.649  0.00  0.00    -0.357 OA
ATOM     37  H   UNL     1      -1.404  -3.285  -3.062  0.00  0.00    +0.213 HD
ENDBRANCH  14  36
TORSDOF 9
