REMARK  Name = 101317
REMARK  5 active torsions:
REMARK  status: ('A' for Active; 'I' for Inactive)
REMARK    1  A    between atoms: C2*_2  and  O2*_16
REMARK    2  A    between atoms: C3*_3  and  O3*_18
REMARK    3  A    between atoms: C1*_4  and  N_9
REMARK    4  A    between atoms: C4*_5  and  C5*_20
REMARK    5  A    between atoms: C5*_20  and  O5*_21
REMARK                            x       y       z     vdW  Elec       q    Type
REMARK                         _______ _______ _______ _____ _____    ______ ____
ROOT
ATOM      1  O4* UNL     1      -1.482  -0.322   0.995  0.00  0.00    -0.333 OA
ATOM      2  C2* UNL     1      -1.520   1.072  -0.916  0.00  0.00    +0.187 C 
ATOM      3  C3* UNL     1      -2.954   0.735  -0.564  0.00  0.00    +0.171 C 
ATOM      4  C1* UNL     1      -0.809   0.795   0.400  0.00  0.00    +0.229 C 
ATOM      5  C4* UNL     1      -2.815  -0.403   0.449  0.00  0.00    +0.175 C 
ENDROOT
BRANCH   4   9
ATOM      6  F   UNL     1       2.600  -2.454  -0.384  0.00  0.00    -0.198 F 
ATOM      7  O   UNL     1       1.305   2.701   0.611  0.00  0.00    -0.252 OA
ATOM      8  O   UNL     1       4.509  -0.531  -0.156  0.00  0.00    -0.267 OA
ATOM      9  N   UNL     1       0.587   0.503   0.264  0.00  0.00    -0.214 N 
ATOM     10  N   UNL     1       2.899   1.092   0.230  0.00  0.00    -0.234 N 
ATOM     11  C   UNL     1       1.571   1.518   0.386  0.00  0.00    +0.316 C 
ATOM     12  C   UNL     1       0.973  -0.810   0.007  0.00  0.00    +0.106 C 
ATOM     13  C   UNL     1       2.244  -1.181  -0.135  0.00  0.00    +0.208 C 
ATOM     14  C   UNL     1       3.335  -0.201  -0.026  0.00  0.00    +0.282 C 
ATOM     15  H   UNL     1       3.595   1.783   0.312  0.00  0.00    +0.159 HD
ENDBRANCH   4   9
BRANCH   2  16
ATOM     16  O2* UNL     1      -1.083   0.181  -1.936  0.00  0.00    -0.378 OA
ATOM     17  H2* UNL     1      -1.552   0.381  -2.761  0.00  0.00    +0.211 HD
ENDBRANCH   2  16
BRANCH   3  18
ATOM     18  O3* UNL     1      -3.551   1.850   0.093  0.00  0.00    -0.379 OA
ATOM     19  H3* UNL     1      -3.647   2.583  -0.536  0.00  0.00    +0.211 HD
ENDBRANCH   3  18
BRANCH   5  20
ATOM     20  C5* UNL     1      -2.983  -1.785  -0.168  0.00  0.00    +0.169 C 
BRANCH  20  21
ATOM     21  O5* UNL     1      -2.825  -2.759   0.850  0.00  0.00    -0.379 OA
ATOM     22  H5* UNL     1      -2.930  -3.644   0.469  0.00  0.00    +0.211 HD
ENDBRANCH  20  21
ENDBRANCH   5  20
TORSDOF 5
