REMARK  Name = 101374768
REMARK  0 active torsions:
REMARK  status: ('A' for Active; 'I' for Inactive)
REMARK                            x       y       z     vdW  Elec       q    Type
REMARK                         _______ _______ _______ _____ _____    ______ ____
ROOT
ATOM      1  S   UNL     1      -2.461  -1.563  -0.032  0.00  0.00    -0.039 S 
ATOM      2  S   UNL     1      -1.968   1.374   0.023  0.00  0.00    -0.039 S 
ATOM      3  S   UNL     1       1.125   0.847   0.015  0.00  0.00    -0.074 S 
ATOM      4  S   UNL     1       0.636  -2.071  -0.039  0.00  0.00    -0.038 S 
ATOM      5  S   UNL     1       5.171  -0.693  -0.009  0.00  0.00    -0.079 S 
ATOM      6  S   UNL     1       4.056   2.071   0.041  0.00  0.00    -0.079 S 
ATOM      7  O   UNL     1      -4.619   1.766  -0.013  0.00  0.00    -0.462 OA
ATOM      8  O   UNL     1      -5.094  -1.069   0.024  0.00  0.00    -0.462 OA
ATOM      9  O   UNL     1       3.226  -2.447  -0.046  0.00  0.00    -0.279 OA
ATOM     10  C   UNL     1      -5.883   1.191  -0.364  0.00  0.00    +0.253 C 
ATOM     11  C   UNL     1      -6.099  -0.114   0.384  0.00  0.00    +0.253 C 
ATOM     12  C   UNL     1      -3.835  -0.505  -0.003  0.00  0.00    +0.210 C 
ATOM     13  C   UNL     1      -3.612   0.822   0.005  0.00  0.00    +0.210 C 
ATOM     14  C   UNL     1      -1.325  -0.244  -0.007  0.00  0.00    +0.077 C 
ATOM     15  C   UNL     1      -0.005  -0.465  -0.010  0.00  0.00    +0.074 A 
ATOM     16  C   UNL     1       2.534  -0.150  -0.003  0.00  0.00    +0.087 A 
ATOM     17  C   UNL     1       2.329  -1.618  -0.030  0.00  0.00    +0.233 A 
ATOM     18  C   UNL     1       3.774   0.350   0.008  0.00  0.00    +0.068 C 
ATOM     19  C   UNL     1       6.275   0.639   0.015  0.00  0.00    +0.043 C 
ATOM     20  C   UNL     1       5.776   1.878   0.038  0.00  0.00    +0.043 C 
ENDROOT
TORSDOF 0
