REMARK  Name = 101396701
REMARK  9 active torsions:
REMARK  status: ('A' for Active; 'I' for Inactive)
REMARK    1  A    between atoms: C_4  and  O_17
REMARK    2  A    between atoms: C_4  and  C_26
REMARK    3  A    between atoms: C_7  and  O_19
REMARK    4  A    between atoms: C_8  and  O_21
REMARK    5  A    between atoms: C_9  and  O_23
REMARK    6  A    between atoms: C_26  and  C_27
REMARK    7  A    between atoms: C_27  and  C_29
REMARK    8  A    between atoms: C_29  and  C_30
REMARK    9  A    between atoms: C_30  and  C_33
REMARK                            x       y       z     vdW  Elec       q    Type
REMARK                         _______ _______ _______ _____ _____    ______ ____
ROOT
ATOM      1  O   UNL     1      -2.572   2.205   1.072  0.00  0.00    -0.328 OA
ATOM      2  C   UNL     1      -2.595  -1.152  -0.414  0.00  0.00    +0.037 C 
ATOM      3  C   UNL     1      -3.833  -0.323  -0.035  0.00  0.00    +0.034 C 
ATOM      4  C   UNL     1      -1.320  -0.456   0.094  0.00  0.00    +0.169 C 
ATOM      5  C   UNL     1      -3.812   1.066  -0.698  0.00  0.00    +0.057 C 
ATOM      6  C   UNL     1      -2.981  -2.518   0.188  0.00  0.00    +0.005 C 
ATOM      7  C   UNL     1      -1.219   0.978  -0.528  0.00  0.00    +0.181 C 
ATOM      8  C   UNL     1      -2.508   1.839  -0.316  0.00  0.00    +0.213 C 
ATOM      9  C   UNL     1      -4.994  -1.247  -0.421  0.00  0.00    +0.111 C 
ATOM     10  C   UNL     1      -4.460  -2.671  -0.217  0.00  0.00    +0.029 C 
ATOM     11  C   UNL     1      -5.062   1.890  -0.357  0.00  0.00    +0.005 C 
ATOM     12  C   UNL     1      -0.021   1.724   0.022  0.00  0.00    +0.001 C 
ATOM     13  C   UNL     1      -2.150  -3.702  -0.288  0.00  0.00    +0.000 C 
ATOM     14  C   UNL     1      -0.154   2.689   0.946  0.00  0.00    -0.016 C 
ATOM     15  C   UNL     1      -1.509   3.071   1.488  0.00  0.00    +0.167 C 
ATOM     16  C   UNL     1       1.019   3.444   1.492  0.00  0.00    +0.029 C 
ENDROOT
BRANCH   4  17
ATOM     17  O   UNL     1      -1.362  -0.422   1.517  0.00  0.00    -0.377 OA
ATOM     18  H   UNL     1      -2.132   0.093   1.805  0.00  0.00    +0.211 HD
ENDBRANCH   4  17
BRANCH   7  19
ATOM     19  O   UNL     1      -0.992   0.862  -1.943  0.00  0.00    -0.376 OA
ATOM     20  H   UNL     1      -1.733   0.388  -2.351  0.00  0.00    +0.211 HD
ENDBRANCH   7  19
BRANCH   8  21
ATOM     21  O   UNL     1      -2.497   3.002  -1.163  0.00  0.00    -0.362 OA
ATOM     22  H   UNL     1      -3.305   3.519  -1.013  0.00  0.00    +0.213 HD
ENDBRANCH   8  21
BRANCH   9  23
ATOM     23  O   UNL     1      -6.114  -1.068   0.433  0.00  0.00    -0.384 OA
ATOM     24  H   UNL     1      -6.467  -0.172   0.319  0.00  0.00    +0.210 HD
ENDBRANCH   9  23
BRANCH   4  26
ATOM     25  O   UNL     1      -0.084  -1.939  -1.310  0.00  0.00    -0.294 OA
ATOM     26  C   UNL     1      -0.105  -1.268  -0.278  0.00  0.00    +0.177 C 
BRANCH  26  27
ATOM     27  C   UNL     1       1.094  -1.178   0.662  0.00  0.00    +0.060 C 
ATOM     28  C   UNL     1       0.934  -2.235   1.752  0.00  0.00    +0.008 C 
BRANCH  27  29
ATOM     29  C   UNL     1       2.423  -1.367  -0.086  0.00  0.00    +0.011 C 
BRANCH  29  30
ATOM     30  C   UNL     1       3.619  -0.824   0.703  0.00  0.00    +0.048 C 
BRANCH  30  33
ATOM     31  O   UNL     1       4.878  -0.296  -1.275  0.00  0.00    -0.445 OA
ATOM     32  O   UNL     1       6.142   1.388  -2.204  0.00  0.00    -0.245 OA
ATOM     33  C   UNL     1       4.923  -1.041  -0.047  0.00  0.00    +0.188 C 
ATOM     34  C   UNL     1       6.120  -0.497   0.641  0.00  0.00    +0.002 C 
ATOM     35  C   UNL     1       6.700   0.458  -0.083  0.00  0.00    +0.077 C 
ATOM     36  C   UNL     1       5.908   0.599  -1.305  0.00  0.00    +0.341 C 
ATOM     37  C   UNL     1       6.582  -1.011   1.957  0.00  0.00    +0.030 C 
ENDBRANCH  30  33
ENDBRANCH  29  30
ENDBRANCH  27  29
ENDBRANCH  26  27
ENDBRANCH   4  26
TORSDOF 9
