101375721
  -OEChem-03292013293D

 60 64  0     1  0  0  0  0  0999 V2000
    5.4525    1.4454   -0.4913 O   0  0  0  0  0  0  0  0  0  0  0  0
    3.5638   -1.6845   -0.7528 O   0  0  0  0  0  0  0  0  0  0  0  0
   -1.2924   -0.1340    1.7832 O   0  0  0  0  0  0  0  0  0  0  0  0
    7.6403   -0.1181    1.3603 O   0  0  0  0  0  0  0  0  0  0  0  0
    1.2585   -1.2882    0.8739 O   0  0  0  0  0  0  0  0  0  0  0  0
   -1.0358    2.4075   -1.0468 O   0  0  0  0  0  0  0  0  0  0  0  0
    1.2264    2.1869   -1.3827 N   0  0  0  0  0  0  0  0  0  0  0  0
   -3.7187   -0.1541    0.3009 C   0  0  1  0  0  0  0  0  0  0  0  0
   -4.8279   -0.4081   -0.7495 C   0  0  2  0  0  0  0  0  0  0  0  0
   -2.3402   -0.3705   -0.3532 C   0  0  2  0  0  0  0  0  0  0  0  0
    4.8614    0.2662   -1.0517 C   0  0  2  0  0  0  0  0  0  0  0  0
   -3.9149    1.2461    0.9044 C   0  0  0  0  0  0  0  0  0  0  0  0
   -6.2053   -0.3520   -0.0737 C   0  0  0  0  0  0  0  0  0  0  0  0
    3.7351   -0.3479   -0.2642 C   0  0  2  0  0  0  0  0  0  0  0  0
   -6.4330    1.0175    0.5878 C   0  0  2  0  0  0  0  0  0  0  0  0
    6.2626    0.2576   -0.5042 C   0  0  2  0  0  0  0  0  0  0  0  0
   -5.2948    1.3703    1.5555 C   0  0  0  0  0  0  0  0  0  0  0  0
   -2.1852   -1.8294   -0.8649 C   0  0  2  0  0  0  0  0  0  0  0  0
    4.0715   -0.4297    1.2400 C   0  0  0  0  0  0  0  0  0  0  0  0
   -4.6142   -1.6878   -1.5112 C   0  0  0  0  0  0  0  0  0  0  0  0
   -3.4319   -2.3164   -1.5653 C   0  0  0  0  0  0  0  0  0  0  0  0
    5.4345   -1.0757    1.4903 C   0  0  0  0  0  0  0  0  0  0  0  0
   -1.2087   -0.0068    0.5641 C   0  0  0  0  0  0  0  0  0  0  0  0
    6.5402   -0.2764    0.8446 C   0  0  0  0  0  0  0  0  0  0  0  0
    2.4352    0.3791   -0.4618 C   0  0  0  0  0  0  0  0  0  0  0  0
   -7.7812    1.0520    1.3058 C   0  0  0  0  0  0  0  0  0  0  0  0
   -1.8264   -2.8431    0.2305 C   0  0  0  0  0  0  0  0  0  0  0  0
    0.0246    0.5245   -0.0442 C   0  0  0  0  0  0  0  0  0  0  0  0
    1.1977   -0.1234    0.1283 C   0  0  0  0  0  0  0  0  0  0  0  0
    2.3963    1.5059   -1.1874 C   0  0  0  0  0  0  0  0  0  0  0  0
    0.0098    1.7872   -0.8644 C   0  0  0  0  0  0  0  0  0  0  0  0
   -3.8328   -0.8779    1.1211 H   0  0  0  0  0  0  0  0  0  0  0  0
   -4.7974    0.3966   -1.4992 H   0  0  0  0  0  0  0  0  0  0  0  0
   -2.2992    0.2888   -1.2301 H   0  0  0  0  0  0  0  0  0  0  0  0
    4.7509    0.1983   -2.1275 H   0  0  0  0  0  0  0  0  0  0  0  0
   -3.8089    2.0090    0.1229 H   0  0  0  0  0  0  0  0  0  0  0  0
   -3.1614    1.4683    1.6656 H   0  0  0  0  0  0  0  0  0  0  0  0
   -6.9945   -0.5310   -0.8154 H   0  0  0  0  0  0  0  0  0  0  0  0
   -6.2895   -1.1511    0.6750 H   0  0  0  0  0  0  0  0  0  0  0  0
   -6.4555    1.7792   -0.2032 H   0  0  0  0  0  0  0  0  0  0  0  0
    7.0770    0.2175   -1.2178 H   0  0  0  0  0  0  0  0  0  0  0  0
   -5.3355    0.7101    2.4316 H   0  0  0  0  0  0  0  0  0  0  0  0
   -5.4270    2.3939    1.9263 H   0  0  0  0  0  0  0  0  0  0  0  0
   -1.3698   -1.8415   -1.6008 H   0  0  0  0  0  0  0  0  0  0  0  0
    3.3489   -1.0257    1.8038 H   0  0  0  0  0  0  0  0  0  0  0  0
    4.0710    0.5766    1.6812 H   0  0  0  0  0  0  0  0  0  0  0  0
   -5.4495   -2.0947   -2.0746 H   0  0  0  0  0  0  0  0  0  0  0  0
   -3.3524   -3.2293   -2.1504 H   0  0  0  0  0  0  0  0  0  0  0  0
    5.4719   -2.0992    1.1031 H   0  0  0  0  0  0  0  0  0  0  0  0
    5.6241   -1.1130    2.5688 H   0  0  0  0  0  0  0  0  0  0  0  0
   -7.8236    0.3092    2.1095 H   0  0  0  0  0  0  0  0  0  0  0  0
   -8.5983    0.8425    0.6075 H   0  0  0  0  0  0  0  0  0  0  0  0
   -7.9614    2.0384    1.7460 H   0  0  0  0  0  0  0  0  0  0  0  0
   -2.5208   -2.7958    1.0758 H   0  0  0  0  0  0  0  0  0  0  0  0
   -0.8164   -2.6978    0.6091 H   0  0  0  0  0  0  0  0  0  0  0  0
   -1.8588   -3.8674   -0.1608 H   0  0  0  0  0  0  0  0  0  0  0  0
    2.9917   -2.1719   -0.1360 H   0  0  0  0  0  0  0  0  0  0  0  0
    3.2389    1.9755   -1.6744 H   0  0  0  0  0  0  0  0  0  0  0  0
    1.2630    3.0337   -1.9426 H   0  0  0  0  0  0  0  0  0  0  0  0
    0.4730   -1.3509    1.4398 H   0  0  0  0  0  0  0  0  0  0  0  0
  1 11  1  0  0  0  0
  1 16  1  0  0  0  0
  2 14  1  0  0  0  0
  2 57  1  0  0  0  0
  3 23  2  0  0  0  0
  4 24  2  0  0  0  0
  5 29  1  0  0  0  0
  5 60  1  0  0  0  0
  6 31  2  0  0  0  0
  7 30  1  0  0  0  0
  7 31  1  0  0  0  0
  7 59  1  0  0  0  0
  8  9  1  0  0  0  0
  8 10  1  0  0  0  0
  8 12  1  0  0  0  0
  8 32  1  0  0  0  0
  9 13  1  0  0  0  0
  9 20  1  0  0  0  0
  9 33  1  0  0  0  0
 10 18  1  0  0  0  0
 10 23  1  0  0  0  0
 10 34  1  0  0  0  0
 11 14  1  0  0  0  0
 11 16  1  0  0  0  0
 11 35  1  0  0  0  0
 12 17  1  0  0  0  0
 12 36  1  0  0  0  0
 12 37  1  0  0  0  0
 13 15  1  0  0  0  0
 13 38  1  0  0  0  0
 13 39  1  0  0  0  0
 14 19  1  0  0  0  0
 14 25  1  0  0  0  0
 15 17  1  0  0  0  0
 15 26  1  0  0  0  0
 15 40  1  0  0  0  0
 16 24  1  0  0  0  0
 16 41  1  0  0  0  0
 17 42  1  0  0  0  0
 17 43  1  0  0  0  0
 18 21  1  0  0  0  0
 18 27  1  0  0  0  0
 18 44  1  0  0  0  0
 19 22  1  0  0  0  0
 19 45  1  0  0  0  0
 19 46  1  0  0  0  0
 20 21  2  0  0  0  0
 20 47  1  0  0  0  0
 21 48  1  0  0  0  0
 22 24  1  0  0  0  0
 22 49  1  0  0  0  0
 22 50  1  0  0  0  0
 23 28  1  0  0  0  0
 25 29  1  0  0  0  0
 25 30  2  0  0  0  0
 26 51  1  0  0  0  0
 26 52  1  0  0  0  0
 26 53  1  0  0  0  0
 27 54  1  0  0  0  0
 27 55  1  0  0  0  0
 27 56  1  0  0  0  0
 28 29  2  0  0  0  0
 28 31  1  0  0  0  0
 30 58  1  0  0  0  0
M  END
> <PUBCHEM_COMPOUND_CID>
101375721

> <PUBCHEM_CONFORMER_RMSD>
0.8

> <PUBCHEM_CONFORMER_DIVERSEORDER>
2
22
56
32
36
52
49
46
45
34
21
26
50
17
40
28
35
57
58
8
43
25
24
16
3
18
11
29
48
39
31
38
44
53
30
54
4
47
51
42
27
20
59
15
33
13
10
41
6
55
23
1
14
37
12
5
19
7
9

> <PUBCHEM_MMFF94_PARTIAL_CHARGES>
31
1 -0.3
10 0.06
11 -0.05
14 0.51
16 0.05
18 0.14
2 -0.68
20 -0.29
21 -0.29
22 0.06
23 0.49
24 0.51
25 -0.14
28 0.03
29 0.08
3 -0.57
30 -0.04
31 0.62
35 0.1
4 -0.57
41 0.1
47 0.15
48 0.15
5 -0.53
57 0.4
58 0.15
59 0.37
6 -0.57
60 0.45
7 -0.54
9 0.14

> <PUBCHEM_EFFECTIVE_ROTOR_COUNT>
5

> <PUBCHEM_PHARMACOPHORE_FEATURES>
13
1 1 acceptor
1 2 acceptor
1 2 donor
1 28 anion
1 3 acceptor
1 4 acceptor
1 5 donor
1 6 acceptor
1 7 donor
6 7 25 28 29 30 31 rings
6 8 9 10 18 20 21 rings
6 8 9 12 13 15 17 rings
7 1 11 14 16 19 22 24 rings

> <PUBCHEM_HEAVY_ATOM_COUNT>
31

> <PUBCHEM_ATOM_DEF_STEREO_COUNT>
8

> <PUBCHEM_ATOM_UDEF_STEREO_COUNT>
0

> <PUBCHEM_BOND_DEF_STEREO_COUNT>
0

> <PUBCHEM_BOND_UDEF_STEREO_COUNT>
0

> <PUBCHEM_ISOTOPIC_ATOM_COUNT>
0

> <PUBCHEM_COMPONENT_COUNT>
1

> <PUBCHEM_CACTVS_TAUTO_COUNT>
44

> <PUBCHEM_CONFORMER_ID>
060ADEE900000002

> <PUBCHEM_MMFF94_ENERGY>
78.4103

> <PUBCHEM_FEATURE_SELFOVERLAP>
65.994

> <PUBCHEM_SHAPE_FINGERPRINT>
10906281 52 18334870436842956982
11045977 3 16845568742537738922
11135926 11 18114451301804512850
11315181 36 18272646891498131035
11578080 2 17844804983028460729
11796584 16 17560806553890566615
12236239 1 18411139151719466835
12616971 3 18186523228353165556
12788726 201 18334011653615809548
12838862 33 18200866289509597209
13533116 47 17130997459982954902
13583140 156 16056879135033804214
13590594 115 18113898256351729197
13947920 75 18272929423469358939
14251764 18 18409731772641153605
14394314 77 18411416198627606857
14840074 17 18260266343514806086
15021287 119 18259990388061785341
15131766 46 15939256799624578492
15183329 4 18408598180216048647
15276724 80 18187362134187649228
15849732 13 18409456869201938661
17980427 23 18201435921413915940
19315958 150 17917716768482840022
19319366 153 17240479208773925674
19489759 90 17632859733028797419
20511986 3 18343009017104733884
21033648 29 16558734729163526186
21267235 1 17749109942662234410
21403212 168 18336266757018377061
21424621 283 16700914695718322113
21623969 137 16877944914658353786
21792961 116 16226035670066722448
23522609 53 18190485863701972564
23559900 14 17489581294586585987
23569943 247 17895740799740967082
24771293 8 18266452286871396252
249057 3 18131069346891074817
25147074 1 18337114578228852253
3178227 256 17894642443791143793
3383291 50 18271245032197566071
34797466 226 17131840914614376940
3680242 22 18186798059063474586
397830 11 16629386120754230226
4073 2 18202002166087528046
4403749 210 15840972486278890054
46194498 28 14129066932643896270
5028188 123 18059860619306620348
5104073 3 18337111296947418321
5283173 99 17131838638207623857
59755656 520 17603305981740556059
6328613 192 18343305906830411193
6691757 9 17846502548089322659
7226269 152 17489875917033150649
9953998 17 18201426000819781162
9996256 80 7997980067541539836

> <PUBCHEM_SHAPE_MULTIPOLES>
597.77
18.61
2.17
1.53
5.17
0.68
-0.13
-2.35
-5.86
-2.18
0.68
0.24
-0.12
-2.55

> <PUBCHEM_SHAPE_SELFOVERLAP>
1298.389

> <PUBCHEM_SHAPE_VOLUME>
320.1

> <PUBCHEM_COORDINATE_TYPE>
2
5
10

$$$$
