REMARK  Name = 10130636
REMARK  5 active torsions:
REMARK  status: ('A' for Active; 'I' for Inactive)
REMARK    1  A    between atoms: C_2  and  O_14
REMARK    2  A    between atoms: C_3  and  O_16
REMARK    3  A    between atoms: C_4  and  C_19
REMARK    4  A    between atoms: C_5  and  N_10
REMARK    5  A    between atoms: C_19  and  O_20
REMARK                            x       y       z     vdW  Elec       q    Type
REMARK                         _______ _______ _______ _____ _____    ______ ____
ROOT
ATOM      1  N   UNL     1      -0.140  -1.441  -0.640  0.00  0.00    +0.398 N 
ATOM      2  C   UNL     1       1.102   1.192  -0.638  0.00  0.00    +0.145 C 
ATOM      3  C   UNL     1      -0.188   0.911   0.144  0.00  0.00    +0.136 C 
ATOM      4  C   UNL     1       1.937  -0.075  -0.872  0.00  0.00    +0.107 C 
ATOM      5  C   UNL     1      -0.963  -0.236  -0.518  0.00  0.00    +0.043 C 
ATOM      6  C   UNL     1       1.061  -1.196  -1.447  0.00  0.00    -0.065 C 
ATOM      7  H   UNL     1      -0.692  -2.176  -1.082  0.00  0.00    -0.082 HD
ATOM      8  H   UNL     1       0.156  -1.720   0.296  0.00  0.00    -0.082 HD
ENDROOT
BRANCH   5  10
ATOM      9  O   UNL     1      -3.601   0.948  -0.754  0.00  0.00    -0.275 OA
ATOM     10  N   UNL     1      -2.143  -0.575   0.234  0.00  0.00    -0.323 N 
ATOM     11  C   UNL     1      -3.365   0.049   0.050  0.00  0.00    +0.221 C 
ATOM     12  C   UNL     1      -4.435  -0.513   0.947  0.00  0.00    +0.095 C 
ATOM     13  H   UNL     1      -2.077  -1.285   0.912  0.00  0.00    +0.147 HD
ENDBRANCH   5  10
BRANCH   2  14
ATOM     14  O   UNL     1       1.877   2.204  -0.007  0.00  0.00    -0.382 OA
ATOM     15  H   UNL     1       1.330   2.992   0.130  0.00  0.00    +0.210 HD
ENDBRANCH   2  14
BRANCH   3  16
ATOM     16  O   UNL     1       0.114   0.596   1.504  0.00  0.00    -0.382 OA
ATOM     17  H   UNL     1       0.603   1.331   1.906  0.00  0.00    +0.210 HD
ENDBRANCH   3  16
BRANCH   4  19
ATOM     18  O   UNL     1       2.217  -1.361   1.164  0.00  0.00    -0.250 OA
ATOM     19  C   UNL     1       2.658  -0.550   0.362  0.00  0.00    +0.314 C 
BRANCH  19  20
ATOM     20  O   UNL     1       3.869   0.048   0.470  0.00  0.00    -0.480 OA
ATOM     21  H   UNL     1       4.148   0.662  -0.181  0.00  0.00    +0.295 HD
ENDBRANCH  19  20
ENDBRANCH   4  19
TORSDOF 5
