REMARK  Name = 101371539
REMARK  10 active torsions:
REMARK  status: ('A' for Active; 'I' for Inactive)
REMARK    1  A    between atoms: C_3  and  C_23
REMARK    2  A    between atoms: C_4  and  O_8
REMARK    3  A    between atoms: C_5  and  O_12
REMARK    4  A    between atoms: C_6  and  O_10
REMARK    5  A    between atoms: O_12  and  C_14
REMARK    6  A    between atoms: C_23  and  O_24
REMARK    7  A    between atoms: O_24  and  C_26
REMARK    8  A    between atoms: C_26  and  C_27
REMARK    9  A    between atoms: C_27  and  C_29
REMARK   10  A    between atoms: C_29  and  O_30
REMARK                            x       y       z     vdW  Elec       q    Type
REMARK                         _______ _______ _______ _____ _____    ______ ____
ROOT
ATOM      1  O   UNL     1      -1.530  -0.167  -0.210  0.00  0.00    -0.314 OA
ATOM      2  O   UNL     1      -5.273   1.206   0.242  0.00  0.00    -0.291 OA
ATOM      3  C   UNL     1      -2.593  -1.059   0.144  0.00  0.00    +0.196 C 
ATOM      4  C   UNL     1      -3.893  -0.617  -0.530  0.00  0.00    +0.202 C 
ATOM      5  C   UNL     1      -1.748   1.158   0.283  0.00  0.00    +0.323 C 
ATOM      6  C   UNL     1      -3.001   1.773  -0.338  0.00  0.00    +0.241 C 
ATOM      7  C   UNL     1      -4.170   0.825  -0.143  0.00  0.00    +0.213 C 
ENDROOT
BRANCH   4   8
ATOM      8  O   UNL     1      -4.961  -1.445  -0.118  0.00  0.00    -0.375 OA
ATOM      9  H   UNL     1      -4.774  -2.363  -0.369  0.00  0.00    +0.211 HD
ENDBRANCH   4   8
BRANCH   6  10
ATOM     10  O   UNL     1      -3.272   3.015   0.283  0.00  0.00    -0.372 OA
ATOM     11  H   UNL     1      -2.519   3.613   0.153  0.00  0.00    +0.211 HD
ENDBRANCH   6  10
BRANCH   5  12
ATOM     12  O   UNL     1      -0.612   1.972  -0.007  0.00  0.00    -0.449 OA
BRANCH  12  14
ATOM     13  N   UNL     1       2.074   0.572   1.821  0.00  0.00    -0.309 N 
ATOM     14  C   UNL     1       0.590   1.544   0.487  0.00  0.00    +0.157 C 
ATOM     15  C   UNL     1       1.885   1.750  -0.065  0.00  0.00    +0.049 C 
ATOM     16  C   UNL     1       2.798   1.131   0.791  0.00  0.00    +0.051 C 
ATOM     17  C   UNL     1       0.738   0.817   1.646  0.00  0.00    +0.099 C 
ATOM     18  C   UNL     1       2.370   2.406  -1.213  0.00  0.00    +0.004 C 
ATOM     19  C   UNL     1       4.177   1.134   0.555  0.00  0.00    +0.015 C 
ATOM     20  C   UNL     1       3.747   2.418  -1.463  0.00  0.00    +0.000 C 
ATOM     21  C   UNL     1       4.635   1.791  -0.591  0.00  0.00    +0.001 C 
ATOM     22  H   UNL     1       2.461   0.070   2.574  0.00  0.00    +0.152 HD
ENDBRANCH  12  14
ENDBRANCH   5  12
BRANCH   3  23
ATOM     23  C   UNL     1      -2.181  -2.459  -0.298  0.00  0.00    +0.241 C 
BRANCH  23  24
ATOM     24  O   UNL     1      -0.970  -2.799   0.352  0.00  0.00    -0.445 OA
BRANCH  24  26
ATOM     25  O   UNL     1       0.238  -1.899  -1.392  0.00  0.00    -0.249 OA
ATOM     26  C   UNL     1       0.186  -2.461  -0.307  0.00  0.00    +0.329 C 
BRANCH  26  27
ATOM     27  C   UNL     1       1.375  -2.892   0.517  0.00  0.00    +0.218 C 
BRANCH  27  29
ATOM     28  O   UNL     1       2.960  -2.055  -1.138  0.00  0.00    -0.250 OA
ATOM     29  C   UNL     1       2.730  -2.606  -0.073  0.00  0.00    +0.325 C 
BRANCH  29  30
ATOM     30  O   UNL     1       3.702  -3.055   0.765  0.00  0.00    -0.480 OA
ATOM     31  H   UNL     1       3.469  -3.471   1.571  0.00  0.00    +0.295 HD
ENDBRANCH  29  30
ENDBRANCH  27  29
ENDBRANCH  26  27
ENDBRANCH  24  26
ENDBRANCH  23  24
ENDBRANCH   3  23
TORSDOF 10
