REMARK  Name = 101316727
REMARK  2 active torsions:
REMARK  status: ('A' for Active; 'I' for Inactive)
REMARK    1  A    between atoms: C_14  and  O_34
REMARK    2  A    between atoms: C_19  and  C_30
REMARK                            x       y       z     vdW  Elec       q    Type
REMARK                         _______ _______ _______ _____ _____    ______ ____
ROOT
ATOM      1  O   UNL     1      -1.582  -1.680  -1.566  0.00  0.00    -0.345 OA
ATOM      2  O   UNL     1       3.815   1.297  -1.815  0.00  0.00    -0.358 OA
ATOM      3  O   UNL     1      -3.905  -1.536   0.086  0.00  0.00    -0.446 OA
ATOM      4  O   UNL     1       3.567  -2.326   0.094  0.00  0.00    -0.293 OA
ATOM      5  O   UNL     1      -3.367  -3.700   0.525  0.00  0.00    -0.247 OA
ATOM      6  O   UNL     1       4.444  -0.489   2.291  0.00  0.00    -0.296 OA
ATOM      7  C   UNL     1      -1.103  -0.913  -0.426  0.00  0.00    +0.135 C 
ATOM      8  C   UNL     1       0.420  -0.555  -0.616  0.00  0.00    +0.057 C 
ATOM      9  C   UNL     1       0.761   0.790   0.089  0.00  0.00    +0.008 C 
ATOM     10  C   UNL     1      -2.083   0.174   0.051  0.00  0.00    +0.067 C 
ATOM     11  C   UNL     1       2.266   1.212   0.025  0.00  0.00    +0.043 C 
ATOM     12  C   UNL     1      -1.643  -2.337  -0.311  0.00  0.00    +0.239 C 
ATOM     13  C   UNL     1       3.312   0.078   0.195  0.00  0.00    +0.130 C 
ATOM     14  C   UNL     1       1.305  -1.653   0.012  0.00  0.00    +0.170 C 
ATOM     15  C   UNL     1      -0.220   1.940  -0.245  0.00  0.00    +0.000 C 
ATOM     16  C   UNL     1      -1.649   1.509  -0.581  0.00  0.00    +0.006 C 
ATOM     17  C   UNL     1       4.444   0.460  -0.829  0.00  0.00    +0.105 C 
ATOM     18  C   UNL     1       2.791  -1.365   0.038  0.00  0.00    +0.185 C 
ATOM     19  C   UNL     1      -3.522  -0.232  -0.446  0.00  0.00    +0.196 C 
ATOM     20  C   UNL     1       0.743  -0.489  -2.134  0.00  0.00    +0.005 C 
ATOM     21  C   UNL     1       2.681   1.953  -1.251  0.00  0.00    +0.143 C 
ATOM     22  C   UNL     1       2.533   2.101   1.233  0.00  0.00    +0.011 C 
ATOM     23  C   UNL     1      -2.093   0.260   1.599  0.00  0.00    +0.006 C 
ATOM     24  C   UNL     1      -3.034  -2.590   0.130  0.00  0.00    +0.347 C 
ATOM     25  C   UNL     1       3.764   0.291   1.639  0.00  0.00    +0.159 C 
ATOM     26  C   UNL     1       3.321   1.582   2.173  0.00  0.00    +0.065 C 
ATOM     27  C   UNL     1       5.072  -0.697  -1.617  0.00  0.00    +0.030 C 
ATOM     28  C   UNL     1       5.607   1.295  -0.253  0.00  0.00    +0.030 C 
ENDROOT
BRANCH  19  30
ATOM     29  O   UNL     1      -6.122   2.427  -0.326  0.00  0.00    -0.448 OA
ATOM     30  C   UNL     1      -4.645   0.744  -0.129  0.00  0.00    +0.058 C 
ATOM     31  C   UNL     1      -5.426   0.791   1.050  0.00  0.00    +0.043 C 
ATOM     32  C   UNL     1      -5.107   1.759  -0.934  0.00  0.00    +0.179 C 
ATOM     33  C   UNL     1      -6.310   1.831   0.881  0.00  0.00    +0.180 C 
ENDBRANCH  19  30
BRANCH  14  34
ATOM     34  O   UNL     1       0.964  -1.931   1.367  0.00  0.00    -0.377 OA
ATOM     35  H   UNL     1       0.016  -2.127   1.429  0.00  0.00    +0.211 HD
ENDBRANCH  14  34
TORSDOF 2
