REMARK  Name = 101382
REMARK  5 active torsions:
REMARK  status: ('A' for Active; 'I' for Inactive)
REMARK    1  A    between atoms: N_1  and  C1*_12
REMARK    2  A    between atoms: C2*_11  and  O2*_15
REMARK    3  A    between atoms: C3*_13  and  O3*_17
REMARK    4  A    between atoms: C4*_14  and  C5*_19
REMARK    5  A    between atoms: C5*_19  and  O5*_20
REMARK                            x       y       z     vdW  Elec       q    Type
REMARK                         _______ _______ _______ _____ _____    ______ ____
ROOT
ATOM      1  N   UNL     1       0.058  -1.117   0.389  0.00  0.00    -0.247 N 
ATOM      2  N   UNL     1      -1.987  -2.018   0.430  0.00  0.00    -0.242 NA
ATOM      3  N   UNL     1      -0.524   1.198  -0.070  0.00  0.00    -0.228 NA
ATOM      4  N   UNL     1      -2.939   1.487  -0.269  0.00  0.00    -0.228 NA
ATOM      5  C   UNL     1      -0.819  -0.093   0.149  0.00  0.00    +0.152 C 
ATOM      6  C   UNL     1      -0.697  -2.252   0.551  0.00  0.00    +0.223 C 
ATOM      7  C   UNL     1      -2.078  -0.672   0.179  0.00  0.00    +0.140 C 
ATOM      8  C   UNL     1      -3.163   0.171  -0.041  0.00  0.00    +0.146 C 
ATOM      9  C   UNL     1      -1.653   1.913  -0.269  0.00  0.00    +0.253 C 
ATOM     10  N   UNL     1      -4.476  -0.331  -0.027  0.00  0.00    -0.316 N 
ATOM     11  C   UNL     1      -5.629   0.490  -0.245  0.00  0.00    +0.110 C 
ATOM     12  H   UNL     1      -4.609  -1.292   0.141  0.00  0.00    +0.148 HD
ENDROOT
BRANCH   1  15
ATOM     13  O4* UNL     1       1.915   0.227   1.031  0.00  0.00    -0.333 OA
ATOM     14  C2* UNL     1       2.248  -1.165  -0.868  0.00  0.00    +0.187 C 
ATOM     15  C1* UNL     1       1.512  -1.030   0.462  0.00  0.00    +0.225 C 
ATOM     16  C3* UNL     1       3.560  -0.472  -0.557  0.00  0.00    +0.171 C 
ATOM     17  C4* UNL     1       3.163   0.628   0.429  0.00  0.00    +0.175 C 
BRANCH  14  18
ATOM     18  O2* UNL     1       1.575  -0.459  -1.902  0.00  0.00    -0.378 OA
ATOM     19  H2* UNL     1       0.735  -0.901  -2.102  0.00  0.00    +0.211 HD
ENDBRANCH  14  18
BRANCH  16  20
ATOM     20  O3* UNL     1       4.414  -1.407   0.099  0.00  0.00    -0.379 OA
ATOM     21  H3* UNL     1       4.668  -2.106  -0.523  0.00  0.00    +0.211 HD
ENDBRANCH  16  20
BRANCH  17  22
ATOM     22  C5* UNL     1       2.948   1.982  -0.234  0.00  0.00    +0.169 C 
BRANCH  22  23
ATOM     23  O5* UNL     1       2.575   2.920   0.761  0.00  0.00    -0.379 OA
ATOM     24  H5* UNL     1       2.436   3.787   0.351  0.00  0.00    +0.211 HD
ENDBRANCH  22  23
ENDBRANCH  17  22
ENDBRANCH   1  15
TORSDOF 5
