REMARK  Name = 101316726
REMARK  4 active torsions:
REMARK  status: ('A' for Active; 'I' for Inactive)
REMARK    1  A    between atoms: C_10  and  O_24
REMARK    2  A    between atoms: C_14  and  O_26
REMARK    3  A    between atoms: C_18  and  O_28
REMARK    4  A    between atoms: C_19  and  C_21
REMARK                            x       y       z     vdW  Elec       q    Type
REMARK                         _______ _______ _______ _____ _____    ______ ____
ROOT
ATOM      1  O   UNL     1      -3.155   1.654  -1.080  0.00  0.00    -0.330 OA
ATOM      2  O   UNL     1       0.861   2.445   0.685  0.00  0.00    -0.284 OA
ATOM      3  O   UNL     1       3.291   2.092  -0.318  0.00  0.00    -0.283 OA
ATOM      4  C   UNL     1      -1.307   0.463   0.107  0.00  0.00    +0.074 C 
ATOM      5  C   UNL     1      -2.071  -0.860  -0.249  0.00  0.00    +0.014 C 
ATOM      6  C   UNL     1      -3.600  -0.614  -0.201  0.00  0.00    +0.028 C 
ATOM      7  C   UNL     1      -1.749   0.948   1.523  0.00  0.00    +0.009 C 
ATOM      8  C   UNL     1      -4.027  -0.146   1.209  0.00  0.00    +0.002 C 
ATOM      9  C   UNL     1      -1.561  -2.035   0.589  0.00  0.00    +0.034 C 
ATOM     10  C   UNL     1      -1.738   1.464  -1.031  0.00  0.00    +0.235 C 
ATOM     11  C   UNL     1      -3.258   1.063   1.730  0.00  0.00    +0.001 C 
ATOM     12  C   UNL     1       0.215   0.189   0.139  0.00  0.00    +0.025 C 
ATOM     13  C   UNL     1      -3.906   0.462  -1.268  0.00  0.00    +0.145 C 
ATOM     14  C   UNL     1      -0.089  -2.293   0.261  0.00  0.00    +0.135 C 
ATOM     15  C   UNL     1      -4.405  -1.875  -0.567  0.00  0.00    +0.003 C 
ATOM     16  C   UNL     1       0.774  -1.047   0.153  0.00  0.00    +0.037 C 
ATOM     17  C   UNL     1       1.164   1.333   0.278  0.00  0.00    +0.230 C 
ATOM     18  C   UNL     1       2.233  -1.254   0.129  0.00  0.00    +0.131 C 
ATOM     19  C   UNL     1       3.127  -0.259   0.022  0.00  0.00    +0.053 C 
ATOM     20  C   UNL     1       2.606   1.118  -0.045  0.00  0.00    +0.233 C 
ENDROOT
BRANCH  19  21
ATOM     21  C   UNL     1       4.614  -0.424  -0.059  0.00  0.00    +0.029 C 
ATOM     22  C   UNL     1       5.134   0.129  -1.381  0.00  0.00    +0.005 C 
ATOM     23  C   UNL     1       5.298   0.255   1.124  0.00  0.00    +0.005 C 
ENDBRANCH  19  21
BRANCH  10  24
ATOM     24  O   UNL     1      -1.144   2.752  -0.932  0.00  0.00    -0.360 OA
ATOM     25  H   UNL     1      -1.455   3.309  -1.662  0.00  0.00    +0.213 HD
ENDBRANCH  10  24
BRANCH  14  26
ATOM     26  O   UNL     1      -0.005  -2.998  -0.981  0.00  0.00    -0.380 OA
ATOM     27  H   UNL     1      -0.549  -3.799  -0.935  0.00  0.00    +0.211 HD
ENDBRANCH  14  26
BRANCH  18  28
ATOM     28  O   UNL     1       2.700  -2.562   0.163  0.00  0.00    -0.506 OA
ATOM     29  H   UNL     1       2.095  -3.273   0.237  0.00  0.00    +0.292 HD
ENDBRANCH  18  28
TORSDOF 4
