REMARK  Name = 101361613
REMARK  2 active torsions:
REMARK  status: ('A' for Active; 'I' for Inactive)
REMARK    1  A    between atoms: C_7  and  O_21
REMARK    2  A    between atoms: C_14  and  O_23
REMARK                            x       y       z     vdW  Elec       q    Type
REMARK                         _______ _______ _______ _____ _____    ______ ____
ROOT
ATOM      1  O   UNL     1      -2.308   0.988   1.134  0.00  0.00    -0.348 OA
ATOM      2  O   UNL     1       0.683   1.867  -0.806  0.00  0.00    -0.448 OA
ATOM      3  O   UNL     1       2.553   0.569   1.313  0.00  0.00    -0.447 OA
ATOM      4  O   UNL     1      -0.201   3.011   0.937  0.00  0.00    -0.247 OA
ATOM      5  O   UNL     1       3.864   0.605  -0.566  0.00  0.00    -0.247 OA
ATOM      6  C   UNL     1      -1.297  -0.154  -0.621  0.00  0.00    +0.064 C 
ATOM      7  C   UNL     1      -0.589  -1.197   0.323  0.00  0.00    +0.099 C 
ATOM      8  C   UNL     1       0.928  -0.998   0.603  0.00  0.00    +0.099 C 
ATOM      9  C   UNL     1      -2.745  -0.663  -0.524  0.00  0.00    +0.032 C 
ATOM     10  C   UNL     1      -2.744  -0.396   0.995  0.00  0.00    +0.118 C 
ATOM     11  C   UNL     1      -1.563  -1.242   1.523  0.00  0.00    +0.057 C 
ATOM     12  C   UNL     1      -0.544   0.015  -1.913  0.00  0.00    +0.052 C 
ATOM     13  C   UNL     1      -1.502   1.234  -0.012  0.00  0.00    +0.215 C 
ATOM     14  C   UNL     1       1.645  -0.404  -0.635  0.00  0.00    +0.220 C 
ATOM     15  C   UNL     1       0.822   0.593  -1.498  0.00  0.00    +0.204 C 
ATOM     16  C   UNL     1       1.299  -0.010   1.709  0.00  0.00    +0.213 C 
ATOM     17  C   UNL     1       1.581  -2.352   1.036  0.00  0.00    +0.009 C 
ATOM     18  C   UNL     1      -3.836   0.060  -1.306  0.00  0.00    +0.003 C 
ATOM     19  C   UNL     1      -0.279   2.097   0.122  0.00  0.00    +0.344 C 
ATOM     20  C   UNL     1       2.825   0.299  -0.001  0.00  0.00    +0.345 C 
ENDROOT
BRANCH   7  21
ATOM     21  O   UNL     1      -0.716  -2.489  -0.327  0.00  0.00    -0.386 OA
ATOM     22  H   UNL     1      -0.125  -2.524  -1.095  0.00  0.00    +0.210 HD
ENDBRANCH   7  21
BRANCH  14  23
ATOM     23  O   UNL     1       2.123  -1.433  -1.488  0.00  0.00    -0.374 OA
ATOM     24  H   UNL     1       1.372  -1.888  -1.899  0.00  0.00    +0.211 HD
ENDBRANCH  14  23
TORSDOF 2
