REMARK  Name = 101316771
REMARK  6 active torsions:
REMARK  status: ('A' for Active; 'I' for Inactive)
REMARK    1  A    between atoms: C_3  and  O_29
REMARK    2  A    between atoms: C_6  and  O_23
REMARK    3  A    between atoms: C_7  and  O_21
REMARK    4  A    between atoms: C_10  and  O_25
REMARK    5  A    between atoms: C_16  and  O_27
REMARK    6  A    between atoms: O_29  and  C_31
REMARK                            x       y       z     vdW  Elec       q    Type
REMARK                         _______ _______ _______ _____ _____    ______ ____
ROOT
ATOM      1  C   UNL     1      -1.134  -0.536   0.641  0.00  0.00    +0.045 C 
ATOM      2  C   UNL     1      -0.578  -1.831  -0.082  0.00  0.00    +0.022 C 
ATOM      3  C   UNL     1      -1.792   0.403  -0.401  0.00  0.00    +0.171 C 
ATOM      4  C   UNL     1      -3.011  -0.436  -0.829  0.00  0.00    +0.065 C 
ATOM      5  C   UNL     1      -2.383  -0.971   1.487  0.00  0.00    +0.031 C 
ATOM      6  C   UNL     1      -3.584  -0.937   0.524  0.00  0.00    +0.092 C 
ATOM      7  C   UNL     1       2.194   0.167   0.467  0.00  0.00    +0.118 C 
ATOM      8  C   UNL     1      -0.147   0.178   1.602  0.00  0.00    +0.036 C 
ATOM      9  C   UNL     1       1.766  -0.847  -0.623  0.00  0.00    +0.048 C 
ATOM     10  C   UNL     1       0.991   0.996   0.961  0.00  0.00    +0.135 C 
ATOM     11  C   UNL     1      -1.103  -2.013  -1.528  0.00  0.00    +0.004 C 
ATOM     12  C   UNL     1      -2.542  -1.552  -1.770  0.00  0.00    +0.006 C 
ATOM     13  C   UNL     1       3.361   0.956  -0.228  0.00  0.00    +0.050 C 
ATOM     14  C   UNL     1       0.939  -2.000  -0.085  0.00  0.00    -0.042 C 
ATOM     15  C   UNL     1       3.056  -1.196  -1.404  0.00  0.00    +0.036 C 
ATOM     16  C   UNL     1       4.121  -0.185  -0.960  0.00  0.00    +0.113 C 
ATOM     17  C   UNL     1      -4.352  -2.254   0.511  0.00  0.00    +0.029 C 
ATOM     18  C   UNL     1       2.853   1.974  -1.276  0.00  0.00    +0.005 C 
ATOM     19  C   UNL     1       4.292   1.712   0.738  0.00  0.00    +0.005 C 
ATOM     20  C   UNL     1       1.481  -3.138   0.387  0.00  0.00    -0.009 C 
ENDROOT
BRANCH   7  21
ATOM     21  O   UNL     1       2.734  -0.573   1.573  0.00  0.00    -0.384 OA
ATOM     22  H   UNL     1       2.022  -1.066   2.011  0.00  0.00    +0.210 HD
ENDBRANCH   7  21
BRANCH   6  23
ATOM     23  O   UNL     1      -4.490   0.063   1.017  0.00  0.00    -0.387 OA
ATOM     24  H   UNL     1      -4.041   0.922   1.043  0.00  0.00    +0.210 HD
ENDBRANCH   6  23
BRANCH  10  25
ATOM     25  O   UNL     1       1.440   1.946   1.933  0.00  0.00    -0.382 OA
ATOM     26  H   UNL     1       2.159   2.477   1.557  0.00  0.00    +0.210 HD
ENDBRANCH  10  25
BRANCH  16  27
ATOM     27  O   UNL     1       5.051  -0.850  -0.107  0.00  0.00    -0.384 OA
ATOM     28  H   UNL     1       5.732  -0.222   0.182  0.00  0.00    +0.210 HD
ENDBRANCH  16  27
BRANCH   3  29
ATOM     29  O   UNL     1      -2.191   1.654   0.147  0.00  0.00    -0.452 OA
BRANCH  29  31
ATOM     30  O   UNL     1      -2.017   2.640  -1.935  0.00  0.00    -0.250 OA
ATOM     31  C   UNL     1      -2.262   2.693  -0.737  0.00  0.00    +0.317 C 
ATOM     32  C   UNL     1      -2.692   3.938  -0.023  0.00  0.00    +0.121 C 
ENDBRANCH  29  31
ENDBRANCH   3  29
TORSDOF 6
