101360525
  -OEChem-03292013293D

 43 45  0     1  0  0  0  0  0999 V2000
   -1.1627    1.4119   -1.8421 O   0  0  0  0  0  0  0  0  0  0  0  0
   -0.9196   -2.2352    1.4917 O   0  0  0  0  0  0  0  0  0  0  0  0
   -0.1042    1.1369    1.4398 O   0  0  0  0  0  0  0  0  0  0  0  0
   -1.2812   -2.0476   -1.9546 O   0  0  0  0  0  0  0  0  0  0  0  0
    2.3867    1.6533    1.8546 O   0  0  0  0  0  0  0  0  0  0  0  0
   -3.8274    1.7619   -1.2309 O   0  0  0  0  0  0  0  0  0  0  0  0
   -4.9185    0.1041    0.7158 O   0  0  0  0  0  0  0  0  0  0  0  0
    0.8894   -1.5230   -1.5180 N   0  0  0  0  0  0  0  0  0  0  0  0
   -0.8987   -0.4286   -0.2033 C   0  0  2  0  0  0  0  0  0  0  0  0
    0.1812    0.3342    0.5534 C   0  0  0  0  0  0  0  0  0  0  0  0
   -0.4616   -1.3995   -1.2971 C   0  0  0  0  0  0  0  0  0  0  0  0
   -1.7684    0.6177   -0.8790 C   0  0  0  0  0  0  0  0  0  0  0  0
    1.5880    0.0800    0.1881 C   0  0  0  0  0  0  0  0  0  0  0  0
   -1.6366   -1.2514    0.8273 C   0  0  0  0  0  0  0  0  0  0  0  0
    1.8885   -0.8294   -0.8231 C   0  0  0  0  0  0  0  0  0  0  0  0
   -3.0726    0.8009   -0.5926 C   0  0  0  0  0  0  0  0  0  0  0  0
    2.6173    0.7527    0.8575 C   0  0  0  0  0  0  0  0  0  0  0  0
   -2.9304   -1.0805    1.1237 C   0  0  0  0  0  0  0  0  0  0  0  0
    3.2242   -1.0673   -1.1663 C   0  0  0  0  0  0  0  0  0  0  0  0
   -3.7323   -0.0465    0.4372 C   0  0  0  0  0  0  0  0  0  0  0  0
    4.2504   -0.3976   -0.4996 C   0  0  0  0  0  0  0  0  0  0  0  0
    3.9469    0.5115    0.5113 C   0  0  0  0  0  0  0  0  0  0  0  0
    5.6719   -0.6552   -0.8699 C   0  0  0  0  0  0  0  0  0  0  0  0
   -1.2345    2.7734   -1.4765 C   0  0  0  0  0  0  0  0  0  0  0  0
   -0.9194   -1.9933    2.8826 C   0  0  0  0  0  0  0  0  0  0  0  0
    2.2236    3.0166    1.4700 C   0  0  0  0  0  0  0  0  0  0  0  0
    1.1883   -2.1689   -2.2437 H   0  0  0  0  0  0  0  0  0  0  0  0
   -3.4509   -1.6931    1.8511 H   0  0  0  0  0  0  0  0  0  0  0  0
    3.4658   -1.7750   -1.9567 H   0  0  0  0  0  0  0  0  0  0  0  0
    4.7445    1.0359    1.0325 H   0  0  0  0  0  0  0  0  0  0  0  0
    5.9774    0.0175   -1.6774 H   0  0  0  0  0  0  0  0  0  0  0  0
    6.3386   -0.5010   -0.0146 H   0  0  0  0  0  0  0  0  0  0  0  0
    5.8117   -1.6896   -1.2018 H   0  0  0  0  0  0  0  0  0  0  0  0
   -1.2710    2.9473   -0.3940 H   0  0  0  0  0  0  0  0  0  0  0  0
   -2.0753    3.2669   -1.9733 H   0  0  0  0  0  0  0  0  0  0  0  0
   -0.3251    3.2603   -1.8448 H   0  0  0  0  0  0  0  0  0  0  0  0
   -4.7280    1.7142   -0.8662 H   0  0  0  0  0  0  0  0  0  0  0  0
   -0.1198   -2.5962    3.3250 H   0  0  0  0  0  0  0  0  0  0  0  0
   -1.8574   -2.3166    3.3458 H   0  0  0  0  0  0  0  0  0  0  0  0
   -0.7123   -0.9464    3.1318 H   0  0  0  0  0  0  0  0  0  0  0  0
    1.8121    3.5664    2.3208 H   0  0  0  0  0  0  0  0  0  0  0  0
    1.5385    3.1179    0.6218 H   0  0  0  0  0  0  0  0  0  0  0  0
    3.1958    3.4480    1.2120 H   0  0  0  0  0  0  0  0  0  0  0  0
  1 12  1  0  0  0  0
  1 24  1  0  0  0  0
  2 14  1  0  0  0  0
  2 25  1  0  0  0  0
  3 10  2  0  0  0  0
  4 11  2  0  0  0  0
  5 17  1  0  0  0  0
  5 26  1  0  0  0  0
  6 16  1  0  0  0  0
  6 37  1  0  0  0  0
  7 20  2  0  0  0  0
  8 11  1  0  0  0  0
  8 15  1  0  0  0  0
  8 27  1  0  0  0  0
  9 10  1  0  0  0  0
  9 11  1  0  0  0  0
  9 12  1  0  0  0  0
  9 14  1  0  0  0  0
 10 13  1  0  0  0  0
 12 16  2  0  0  0  0
 13 15  2  0  0  0  0
 13 17  1  0  0  0  0
 14 18  2  0  0  0  0
 15 19  1  0  0  0  0
 16 20  1  0  0  0  0
 17 22  2  0  0  0  0
 18 20  1  0  0  0  0
 18 28  1  0  0  0  0
 19 21  2  0  0  0  0
 19 29  1  0  0  0  0
 21 22  1  0  0  0  0
 21 23  1  0  0  0  0
 22 30  1  0  0  0  0
 23 31  1  0  0  0  0
 23 32  1  0  0  0  0
 23 33  1  0  0  0  0
 24 34  1  0  0  0  0
 24 35  1  0  0  0  0
 24 36  1  0  0  0  0
 25 38  1  0  0  0  0
 25 39  1  0  0  0  0
 25 40  1  0  0  0  0
 26 41  1  0  0  0  0
 26 42  1  0  0  0  0
 26 43  1  0  0  0  0
M  END
> <PUBCHEM_COMPOUND_CID>
101360525

> <PUBCHEM_CONFORMER_RMSD>
0.6

> <PUBCHEM_CONFORMER_DIVERSEORDER>
2
3
1
4

> <PUBCHEM_MMFF94_PARTIAL_CHARGES>
31
1 -0.36
10 0.42
11 0.57
12 -0.06
13 0.09
14 -0.06
15 0.12
16 0.09
17 0.08
18 -0.14
19 -0.15
2 -0.36
20 0.54
21 -0.14
22 -0.15
23 0.14
24 0.28
25 0.28
26 0.28
27 0.37
28 0.15
29 0.15
3 -0.57
30 0.15
37 0.45
4 -0.57
5 -0.36
6 -0.53
7 -0.57
8 -0.55
9 0.4

> <PUBCHEM_EFFECTIVE_ROTOR_COUNT>
3.2

> <PUBCHEM_PHARMACOPHORE_FEATURES>
11
1 1 acceptor
1 2 acceptor
1 3 acceptor
1 4 acceptor
1 5 acceptor
1 6 donor
1 7 acceptor
1 8 donor
6 13 15 17 19 21 22 rings
6 8 9 10 11 13 15 rings
6 9 12 14 16 18 20 rings

> <PUBCHEM_HEAVY_ATOM_COUNT>
26

> <PUBCHEM_ATOM_DEF_STEREO_COUNT>
0

> <PUBCHEM_ATOM_UDEF_STEREO_COUNT>
1

> <PUBCHEM_BOND_DEF_STEREO_COUNT>
0

> <PUBCHEM_BOND_UDEF_STEREO_COUNT>
0

> <PUBCHEM_ISOTOPIC_ATOM_COUNT>
0

> <PUBCHEM_COMPONENT_COUNT>
1

> <PUBCHEM_CACTVS_TAUTO_COUNT>
17

> <PUBCHEM_CONFORMER_ID>
060AA38D00000002

> <PUBCHEM_MMFF94_ENERGY>
88.36

> <PUBCHEM_FEATURE_SELFOVERLAP>
55.863

> <PUBCHEM_SHAPE_FINGERPRINT>
10366900 7 18334294283949064458
10863032 1 17823698564320946031
11370993 70 17749115452494073114
12173636 292 17603855676949894422
12403814 3 18410292518780577863
12788726 201 17821731602396014864
13140716 1 17703502315868768642
13583140 156 18261936497234562274
13911987 19 18059306422201142724
16752209 62 17241033388456394539
16945 1 18201143369737296719
17349148 13 16343706530101187182
18186145 218 17775275058547432829
18219364 16 18060140946598797062
192875 21 16056886840184164642
200 152 15841831136019418902
20600515 1 17750255684732507141
21033648 29 18343008978566585960
23175994 123 18202014200421821948
23402539 116 18040435481857147599
23419403 2 18196396889835925523
23493267 7 18260266317839707544
23557571 272 18186812352334385965
23559900 14 18114467734823816366
238 59 17625216928683093853
335352 9 17703794708667845596
350125 39 17701816820119487358
3524813 1 18413105039528463004
5265222 85 17969242156427212854
77492 1 15626225714732310611

> <PUBCHEM_SHAPE_MULTIPOLES>
489
7.75
2.48
2.09
4.39
1.1
0.55
0.33
-0.68
-0.67
0.43
-0.08
-0.34
2.2

> <PUBCHEM_SHAPE_SELFOVERLAP>
1077.645

> <PUBCHEM_SHAPE_VOLUME>
261.3

> <PUBCHEM_COORDINATE_TYPE>
2
5
10

$$$$
