REMARK  Name = 101340324
REMARK  3 active torsions:
REMARK  status: ('A' for Active; 'I' for Inactive)
REMARK    1  A    between atoms: N_2  and  C_13
REMARK    2  A    between atoms: C_15  and  C_17
REMARK    3  A    between atoms: C_17  and  O_18
REMARK                            x       y       z     vdW  Elec       q    Type
REMARK                         _______ _______ _______ _____ _____    ______ ____
ROOT
ATOM      1  O   UNL     1       1.808  -2.213  -0.824  0.00  0.00    -0.193 OA
ATOM      2  N   UNL     1       0.904  -0.185  -0.193  0.00  0.00    -0.180 N 
ATOM      3  N   UNL     1       3.282  -0.615  -0.173  0.00  0.00    -0.306 NA
ATOM      4  N   UNL     1       4.788   1.027   0.495  0.00  0.00    -0.332 N 
ATOM      5  C   UNL     1       1.159   1.101   0.265  0.00  0.00    +0.083 C 
ATOM      6  C   UNL     1       1.996  -1.065  -0.417  0.00  0.00    +0.275 C 
ATOM      7  C   UNL     1       2.389   1.552   0.506  0.00  0.00    +0.065 C 
ATOM      8  C   UNL     1       3.502   0.599   0.258  0.00  0.00    +0.193 C 
ATOM      9  H   UNL     1       5.546   0.417   0.340  0.00  0.00    +0.145 HD
ATOM     10  H   UNL     1       4.951   1.942   0.820  0.00  0.00    +0.145 HD
ENDROOT
BRANCH   2  13
ATOM     11  S   UNL     1      -3.857  -1.518   1.163  0.00  0.00    -0.057 S 
ATOM     12  O   UNL     1      -1.218   0.560  -0.836  0.00  0.00    -0.332 OA
ATOM     13  C   UNL     1      -0.453  -0.579  -0.423  0.00  0.00    +0.211 C 
ATOM     14  C   UNL     1      -1.129  -1.092   0.832  0.00  0.00    +0.083 C 
ATOM     15  C   UNL     1      -2.616   0.271  -0.618  0.00  0.00    +0.171 C 
ATOM     16  C   UNL     1      -2.538  -0.773   0.466  0.00  0.00    +0.025 C 
BRANCH  15  17
ATOM     17  C   UNL     1      -3.307   1.559  -0.215  0.00  0.00    +0.171 C 
BRANCH  17  18
ATOM     18  O   UNL     1      -4.711   1.370  -0.286  0.00  0.00    -0.379 OA
ATOM     19  H   UNL     1      -5.161   2.190  -0.029  0.00  0.00    +0.211 HD
ENDBRANCH  17  18
ENDBRANCH  15  17
ENDBRANCH   2  13
TORSDOF 3
