REMARK  Name = 1013376
REMARK  6 active torsions:
REMARK  status: ('A' for Active; 'I' for Inactive)
REMARK    1  A    between atoms: C_2  and  N_4
REMARK    2  A    between atoms: C_2  and  N_17
REMARK    3  A    between atoms: C_5  and  C_12
REMARK    4  A    between atoms: C_7  and  C_13
REMARK    5  A    between atoms: N_17  and  C_19
REMARK    6  A    between atoms: C_20  and  N_26
REMARK                            x       y       z     vdW  Elec       q    Type
REMARK                         _______ _______ _______ _____ _____    ______ ____
ROOT
ATOM      1  S   UNL     1       1.046   2.568  -0.988  0.00  0.00    -0.018 S 
ATOM      2  C   UNL     1       0.590   1.040  -0.465  0.00  0.00    +0.141 C 
ENDROOT
BRANCH   2   4
ATOM      3  O   UNL     1      -0.959  -1.447   0.318  0.00  0.00    -0.270 OA
ATOM      4  N   UNL     1      -0.793   0.788  -0.366  0.00  0.00    -0.264 N 
ATOM      5  C   UNL     1      -1.509  -0.379   0.002  0.00  0.00    +0.251 C 
ATOM      6  H   UNL     1      -1.363   1.559  -0.591  0.00  0.00    +0.157 HD
BRANCH   5  12
ATOM      7  C   UNL     1      -5.693  -0.056   0.100  0.00  0.00    -0.023 C 
ATOM      8  C   UNL     1      -5.141  -1.288  -0.142  0.00  0.00    -0.004 C 
ATOM      9  C   UNL     1      -4.947   1.077   0.311  0.00  0.00    -0.004 C 
ATOM     10  C   UNL     1      -3.751  -1.396  -0.175  0.00  0.00    +0.004 C 
ATOM     11  C   UNL     1      -3.557   0.969   0.278  0.00  0.00    +0.004 C 
ATOM     12  C   UNL     1      -2.959  -0.267   0.035  0.00  0.00    +0.054 C 
BRANCH   7  13
ATOM     13  C   UNL     1      -7.226   0.062   0.136  0.00  0.00    +0.019 C 
ATOM     14  C   UNL     1      -7.813  -0.374  -1.224  0.00  0.00    +0.004 C 
ATOM     15  C   UNL     1      -7.736   1.494   0.415  0.00  0.00    +0.004 C 
ATOM     16  C   UNL     1      -7.791  -0.848   1.248  0.00  0.00    +0.004 C 
ENDBRANCH   7  13
ENDBRANCH   5  12
ENDBRANCH   2   4
BRANCH   2  17
ATOM     17  N   UNL     1       1.391  -0.050  -0.145  0.00  0.00    -0.296 N 
ATOM     18  H   UNL     1       0.885  -0.855   0.108  0.00  0.00    +0.154 HD
BRANCH  17  19
ATOM     19  C   UNL     1       2.798  -0.224  -0.115  0.00  0.00    +0.050 C 
ATOM     20  C   UNL     1       5.543  -0.564  -0.056  0.00  0.00    +0.050 C 
ATOM     21  C   UNL     1       3.602   0.840   0.254  0.00  0.00    +0.016 C 
ATOM     22  C   UNL     1       3.333  -1.454  -0.455  0.00  0.00    +0.016 C 
ATOM     23  C   UNL     1       4.986   0.669   0.283  0.00  0.00    +0.016 C 
ATOM     24  C   UNL     1       4.717  -1.625  -0.425  0.00  0.00    +0.016 C 
BRANCH  20  26
ATOM     25  O   UNL     1       7.737   1.370   0.661  0.00  0.00    -0.275 OA
ATOM     26  N   UNL     1       6.927  -0.735  -0.025  0.00  0.00    -0.284 N 
ATOM     27  C   UNL     1       7.909   0.205   0.316  0.00  0.00    +0.227 C 
ATOM     28  C   UNL     1       9.297  -0.376   0.223  0.00  0.00    +0.095 C 
ATOM     29  H   UNL     1       7.256  -1.629  -0.276  0.00  0.00    +0.155 HD
ENDBRANCH  20  26
ENDBRANCH  17  19
ENDBRANCH   2  17
TORSDOF 6
