101306693
  -OEChem-03292013293D

 67 71  0     1  0  0  0  0  0999 V2000
    4.4466    0.5952    0.8778 O   0  0  0  0  0  0  0  0  0  0  0  0
    2.8421    0.6622   -1.5041 O   0  0  0  0  0  0  0  0  0  0  0  0
    0.8478    1.7567    2.1679 O   0  0  0  0  0  0  0  0  0  0  0  0
   -2.0559   -1.0382   -0.0853 O   0  0  0  0  0  0  0  0  0  0  0  0
    1.5134   -1.7303   -2.4371 O   0  0  0  0  0  0  0  0  0  0  0  0
   -4.0192    0.5111   -1.1884 O   0  0  0  0  0  0  0  0  0  0  0  0
   -2.0532   -1.7386    2.1119 O   0  0  0  0  0  0  0  0  0  0  0  0
   -3.0991   -4.1161    1.4336 O   0  0  0  0  0  0  0  0  0  0  0  0
    1.9568    0.2846    0.7287 C   0  0  1  0  0  0  0  0  0  0  0  0
   -0.7268    0.9106   -0.8240 C   0  0  2  0  0  0  0  0  0  0  0  0
    2.3238   -0.3518   -0.6416 C   0  0  2  0  0  0  0  0  0  0  0  0
    3.2403    0.1887    1.5417 C   0  0  1  0  0  0  0  0  0  0  0  0
    0.1426    2.0625   -0.1850 C   0  0  2  0  0  0  0  0  0  0  0  0
    3.4830   -1.4012   -0.2942 C   0  0  0  0  0  0  0  0  0  0  0  0
    4.1521   -0.8031    0.9273 C   0  0  1  0  0  0  0  0  0  0  0  0
    1.3322    1.7048    0.8055 C   0  0  1  0  0  0  0  0  0  0  0  0
   -1.5059    0.2125    0.3055 C   0  0  1  0  0  0  0  0  0  0  0  0
    1.0816   -0.9762   -1.2950 C   0  0  1  0  0  0  0  0  0  0  0  0
    0.0468    0.0146   -1.8103 C   0  0  0  0  0  0  0  0  0  0  0  0
   -2.6024    1.2609    0.6030 C   0  0  2  0  0  0  0  0  0  0  0  0
   -1.8972    1.5549   -1.6965 C   0  0  0  0  0  0  0  0  0  0  0  0
   -3.1499    1.5871   -0.8009 C   0  0  1  0  0  0  0  0  0  0  0  0
   -0.8109    3.1099    0.4831 C   0  0  0  0  0  0  0  0  0  0  0  0
   -1.9591    2.4774    1.2917 C   0  0  0  0  0  0  0  0  0  0  0  0
    2.9466   -2.7900    0.1191 C   0  0  0  0  0  0  0  0  0  0  0  0
    4.5268   -1.5794   -1.4070 C   0  0  0  0  0  0  0  0  0  0  0  0
    2.3930    2.8315    0.6905 C   0  0  0  0  0  0  0  0  0  0  0  0
   -3.9741    2.8638   -0.9279 C   0  0  0  0  0  0  0  0  0  0  0  0
   -2.2837   -1.9335    0.9255 C   0  0  0  0  0  0  0  0  0  0  0  0
   -2.8963   -3.2020    0.3672 C   0  0  2  0  0  0  0  0  0  0  0  0
   -4.2415   -2.9288   -0.2828 C   0  0  0  0  0  0  0  0  0  0  0  0
    1.2832   -0.4230    1.2316 H   0  0  0  0  0  0  0  0  0  0  0  0
    0.6120    2.5704   -1.0411 H   0  0  0  0  0  0  0  0  0  0  0  0
    3.1573    0.2697    2.6130 H   0  0  0  0  0  0  0  0  0  0  0  0
    4.7728   -1.4470    1.5287 H   0  0  0  0  0  0  0  0  0  0  0  0
   -0.8729    0.0498    1.1745 H   0  0  0  0  0  0  0  0  0  0  0  0
    0.6006   -1.6840   -0.6115 H   0  0  0  0  0  0  0  0  0  0  0  0
    0.5042    0.6478   -2.5840 H   0  0  0  0  0  0  0  0  0  0  0  0
   -0.6832   -0.5882   -2.3717 H   0  0  0  0  0  0  0  0  0  0  0  0
   -3.3878    0.8320    1.2362 H   0  0  0  0  0  0  0  0  0  0  0  0
   -1.6082    2.5474   -2.0592 H   0  0  0  0  0  0  0  0  0  0  0  0
   -2.1074    0.9585   -2.5930 H   0  0  0  0  0  0  0  0  0  0  0  0
   -1.2267    3.7573   -0.2961 H   0  0  0  0  0  0  0  0  0  0  0  0
   -0.2610    3.8015    1.1313 H   0  0  0  0  0  0  0  0  0  0  0  0
   -1.5927    2.1665    2.2761 H   0  0  0  0  0  0  0  0  0  0  0  0
   -2.7170    3.2426    1.4969 H   0  0  0  0  0  0  0  0  0  0  0  0
    2.2000   -2.7131    0.9172 H   0  0  0  0  0  0  0  0  0  0  0  0
    3.7563   -3.4221    0.5039 H   0  0  0  0  0  0  0  0  0  0  0  0
    2.4973   -3.3253   -0.7224 H   0  0  0  0  0  0  0  0  0  0  0  0
    5.3133   -2.2766   -1.0945 H   0  0  0  0  0  0  0  0  0  0  0  0
    4.0788   -1.9748   -2.3232 H   0  0  0  0  0  0  0  0  0  0  0  0
    5.0279   -0.6361   -1.6504 H   0  0  0  0  0  0  0  0  0  0  0  0
    3.1194    2.7904    1.5090 H   0  0  0  0  0  0  0  0  0  0  0  0
    1.9300    3.8200    0.7824 H   0  0  0  0  0  0  0  0  0  0  0  0
    2.9258    2.8069   -0.2631 H   0  0  0  0  0  0  0  0  0  0  0  0
    2.9452    0.2772   -2.3908 H   0  0  0  0  0  0  0  0  0  0  0  0
    0.3275    0.9647    2.3698 H   0  0  0  0  0  0  0  0  0  0  0  0
   -4.8313    2.8350   -0.2457 H   0  0  0  0  0  0  0  0  0  0  0  0
   -4.3860    2.9578   -1.9395 H   0  0  0  0  0  0  0  0  0  0  0  0
   -3.4019    3.7707   -0.7214 H   0  0  0  0  0  0  0  0  0  0  0  0
    0.7479   -2.2308   -2.7673 H   0  0  0  0  0  0  0  0  0  0  0  0
   -4.2969    0.6641   -2.1077 H   0  0  0  0  0  0  0  0  0  0  0  0
   -2.1877   -3.6504   -0.3368 H   0  0  0  0  0  0  0  0  0  0  0  0
   -4.9216   -2.4309    0.4178 H   0  0  0  0  0  0  0  0  0  0  0  0
   -4.7233   -3.8648   -0.5851 H   0  0  0  0  0  0  0  0  0  0  0  0
   -4.1388   -2.2929   -1.1669 H   0  0  0  0  0  0  0  0  0  0  0  0
   -3.3422   -4.9728    1.0430 H   0  0  0  0  0  0  0  0  0  0  0  0
  1 12  1  0  0  0  0
  1 15  1  0  0  0  0
  2 11  1  0  0  0  0
  2 56  1  0  0  0  0
  3 16  1  0  0  0  0
  3 57  1  0  0  0  0
  4 17  1  0  0  0  0
  4 29  1  0  0  0  0
  5 18  1  0  0  0  0
  5 61  1  0  0  0  0
  6 22  1  0  0  0  0
  6 62  1  0  0  0  0
  7 29  2  0  0  0  0
  8 30  1  0  0  0  0
  8 67  1  0  0  0  0
  9 11  1  0  0  0  0
  9 12  1  0  0  0  0
  9 16  1  0  0  0  0
  9 32  1  0  0  0  0
 10 13  1  0  0  0  0
 10 17  1  0  0  0  0
 10 19  1  0  0  0  0
 10 21  1  0  0  0  0
 11 14  1  0  0  0  0
 11 18  1  0  0  0  0
 12 15  1  0  0  0  0
 12 34  1  0  0  0  0
 13 16  1  0  0  0  0
 13 23  1  0  0  0  0
 13 33  1  0  0  0  0
 14 15  1  0  0  0  0
 14 25  1  0  0  0  0
 14 26  1  0  0  0  0
 15 35  1  0  0  0  0
 16 27  1  0  0  0  0
 17 20  1  0  0  0  0
 17 36  1  0  0  0  0
 18 19  1  0  0  0  0
 18 37  1  0  0  0  0
 19 38  1  0  0  0  0
 19 39  1  0  0  0  0
 20 22  1  0  0  0  0
 20 24  1  0  0  0  0
 20 40  1  0  0  0  0
 21 22  1  0  0  0  0
 21 41  1  0  0  0  0
 21 42  1  0  0  0  0
 22 28  1  0  0  0  0
 23 24  1  0  0  0  0
 23 43  1  0  0  0  0
 23 44  1  0  0  0  0
 24 45  1  0  0  0  0
 24 46  1  0  0  0  0
 25 47  1  0  0  0  0
 25 48  1  0  0  0  0
 25 49  1  0  0  0  0
 26 50  1  0  0  0  0
 26 51  1  0  0  0  0
 26 52  1  0  0  0  0
 27 53  1  0  0  0  0
 27 54  1  0  0  0  0
 27 55  1  0  0  0  0
 28 58  1  0  0  0  0
 28 59  1  0  0  0  0
 28 60  1  0  0  0  0
 29 30  1  0  0  0  0
 30 31  1  0  0  0  0
 30 63  1  0  0  0  0
 31 64  1  0  0  0  0
 31 65  1  0  0  0  0
 31 66  1  0  0  0  0
M  END
> <PUBCHEM_COMPOUND_CID>
101306693

> <PUBCHEM_CONFORMER_RMSD>
0.8

> <PUBCHEM_CONFORMER_DIVERSEORDER>
1
7
6
2
4
8
5
3

> <PUBCHEM_MMFF94_PARTIAL_CHARGES>
26
1 -0.3
11 0.28
12 -0.05
14 0.09
15 -0.05
16 0.28
17 0.28
18 0.28
2 -0.68
22 0.28
29 0.66
3 -0.68
30 0.34
34 0.1
35 0.1
4 -0.43
5 -0.68
56 0.4
57 0.4
6 -0.68
61 0.4
62 0.4
67 0.4
7 -0.57
8 -0.68
9 0.09

> <PUBCHEM_EFFECTIVE_ROTOR_COUNT>
5

> <PUBCHEM_PHARMACOPHORE_FEATURES>
16
1 1 acceptor
1 2 acceptor
1 2 donor
1 3 acceptor
1 3 donor
1 5 acceptor
1 5 donor
1 6 acceptor
1 6 donor
1 7 acceptor
1 8 acceptor
1 8 donor
3 14 25 26 hydrophobe
6 1 9 11 12 14 15 rings
7 9 10 11 13 16 18 19 rings
8 10 13 17 20 21 22 23 24 rings

> <PUBCHEM_HEAVY_ATOM_COUNT>
31

> <PUBCHEM_ATOM_DEF_STEREO_COUNT>
11

> <PUBCHEM_ATOM_UDEF_STEREO_COUNT>
1

> <PUBCHEM_BOND_DEF_STEREO_COUNT>
0

> <PUBCHEM_BOND_UDEF_STEREO_COUNT>
0

> <PUBCHEM_ISOTOPIC_ATOM_COUNT>
0

> <PUBCHEM_COMPONENT_COUNT>
1

> <PUBCHEM_CACTVS_TAUTO_COUNT>
1

> <PUBCHEM_CONFORMER_ID>
0609D14500000001

> <PUBCHEM_MMFF94_ENERGY>
143.1393

> <PUBCHEM_FEATURE_SELFOVERLAP>
81.229

> <PUBCHEM_SHAPE_FINGERPRINT>
10366900 7 18058449790488651966
10863032 1 18333729152199872460
10906281 52 18201724990014534024
11578080 2 18337122266463287977
11828532 37 17753319070911830719
12156800 1 16907714243731492879
12553582 1 18198914612761219352
12633257 1 18129401378823941043
12714826 92 18188789295811052019
12788726 201 18042135395959360483
13140716 1 18343018929900341857
13224815 77 17774434976283119212
13583140 156 18343011212176004286
14081887 123 18410854352058663914
14115302 16 18188210892702644636
14223421 5 18338796848204109708
14790565 3 16825585402350775053
14955137 171 18201439242357442104
15664445 248 17463979325422276245
16945 1 18341618057739777124
17349148 13 18270112396921459125
17357779 13 18265605662279347935
18981168 100 11023565553134981025
19930381 70 17472971810013546475
20600515 1 18194983858712915804
20691752 17 17909554960610554384
20775530 9 18335990864502866475
20905425 154 18121224439375357917
21033648 29 18046050580319148356
21421861 104 17976844273782740747
21781051 124 17894640241037104849
23419403 2 17916289718860194657
23557571 272 18411412934230630018
23558518 356 18129943364995180201
23559900 14 18336822078076315308
3380486 145 17988358303630106183
3383291 50 17761770672094816387
35225 105 18045470128399895243
57527585 103 17984730851297526071
9709674 26 18342449335669170216

> <PUBCHEM_SHAPE_MULTIPOLES>
591.01
7.86
4.18
1.85
2.37
2.26
0.18
2.91
0.42
-4.13
-1.3
0.27
0.18
2.03

> <PUBCHEM_SHAPE_SELFOVERLAP>
1274.788

> <PUBCHEM_SHAPE_VOLUME>
319.9

> <PUBCHEM_COORDINATE_TYPE>
2
5
10

$$$$
