101324862
  -OEChem-03292013293D

 59 60  0     1  0  0  0  0  0999 V2000
    1.6774   -3.0559   -0.9380 O   0  0  0  0  0  0  0  0  0  0  0  0
   -1.5967   -0.6680   -0.3518 O   0  0  0  0  0  0  0  0  0  0  0  0
   -1.1706    2.0752    0.0645 O   0  0  0  0  0  0  0  0  0  0  0  0
    1.4534   -4.7803    0.5710 O   0  0  0  0  0  0  0  0  0  0  0  0
    2.3493    1.3509    2.2477 O   0  0  0  0  0  0  0  0  0  0  0  0
    0.5013    2.7364    2.4052 O   0  0  0  0  0  0  0  0  0  0  0  0
   -2.8405   -0.6064    1.5847 O   0  0  0  0  0  0  0  0  0  0  0  0
   -0.7706    3.1568   -1.9373 O   0  0  0  0  0  0  0  0  0  0  0  0
    0.6740   -1.2891    0.2846 C   0  0  2  0  0  0  0  0  0  0  0  0
   -0.4421   -0.2210    0.3718 C   0  0  1  0  0  0  0  0  0  0  0  0
    1.0066   -1.8030   -1.1225 C   0  0  1  0  0  0  0  0  0  0  0  0
   -0.0782    1.1787   -0.2001 C   0  0  2  0  0  0  0  0  0  0  0  0
    0.4350   -2.6151    0.9381 C   0  0  0  0  0  0  0  0  0  0  0  0
    1.8190   -0.8269   -1.9184 C   0  0  0  0  0  0  0  0  0  0  0  0
    1.1844    1.8208    0.3283 C   0  0  0  0  0  0  0  0  0  0  0  0
    1.2223   -3.6402    0.2116 C   0  0  0  0  0  0  0  0  0  0  0  0
    3.0465   -0.3427   -1.6458 C   0  0  0  0  0  0  0  0  0  0  0  0
    3.4506    0.9846   -2.2590 C   0  0  0  0  0  0  0  0  0  0  0  0
    2.4912    2.1290   -1.8594 C   0  0  0  0  0  0  0  0  0  0  0  0
    2.2656    2.2246   -0.3684 C   0  0  0  0  0  0  0  0  0  0  0  0
   -0.3383   -2.9427    1.9762 C   0  0  0  0  0  0  0  0  0  0  0  0
    4.0076   -0.8953   -0.6320 C   0  0  0  0  0  0  0  0  0  0  0  0
    1.2807    2.0408    1.7825 C   0  0  0  0  0  0  0  0  0  0  0  0
   -2.7300   -0.8173    0.3853 C   0  0  0  0  0  0  0  0  0  0  0  0
   -1.3966    3.0121   -0.8960 C   0  0  0  0  0  0  0  0  0  0  0  0
   -3.8370   -1.2910   -0.5000 C   0  0  0  0  0  0  0  0  0  0  0  0
   -2.5559    3.8698   -0.4878 C   0  0  0  0  0  0  0  0  0  0  0  0
   -3.6497   -2.5780   -1.2473 C   0  0  0  0  0  0  0  0  0  0  0  0
   -4.9146   -0.4882   -0.5734 C   0  0  0  0  0  0  0  0  0  0  0  0
    2.5776    1.4655    3.6562 C   0  0  0  0  0  0  0  0  0  0  0  0
   -5.1217    0.8157    0.1297 C   0  0  0  0  0  0  0  0  0  0  0  0
    1.5726   -0.8901    0.7711 H   0  0  0  0  0  0  0  0  0  0  0  0
   -0.6722   -0.0714    1.4344 H   0  0  0  0  0  0  0  0  0  0  0  0
    0.0963   -2.0240   -1.6968 H   0  0  0  0  0  0  0  0  0  0  0  0
   -0.0185    1.0451   -1.2837 H   0  0  0  0  0  0  0  0  0  0  0  0
    1.2397   -0.3176   -2.6886 H   0  0  0  0  0  0  0  0  0  0  0  0
    4.4676    1.2484   -1.9413 H   0  0  0  0  0  0  0  0  0  0  0  0
    3.4869    0.8947   -3.3517 H   0  0  0  0  0  0  0  0  0  0  0  0
    1.5471    2.0245   -2.4016 H   0  0  0  0  0  0  0  0  0  0  0  0
    2.9160    3.0802   -2.2035 H   0  0  0  0  0  0  0  0  0  0  0  0
    3.1021    2.6766    0.1650 H   0  0  0  0  0  0  0  0  0  0  0  0
   -0.9050   -2.1947    2.5171 H   0  0  0  0  0  0  0  0  0  0  0  0
   -0.4147   -3.9661    2.3282 H   0  0  0  0  0  0  0  0  0  0  0  0
    3.6751   -1.8313   -0.1809 H   0  0  0  0  0  0  0  0  0  0  0  0
    4.1668   -0.1764    0.1781 H   0  0  0  0  0  0  0  0  0  0  0  0
    4.9734   -1.0947   -1.1084 H   0  0  0  0  0  0  0  0  0  0  0  0
   -3.4906    3.3317   -0.6559 H   0  0  0  0  0  0  0  0  0  0  0  0
   -2.5552    4.7851   -1.0868 H   0  0  0  0  0  0  0  0  0  0  0  0
   -2.4616    4.1568    0.5630 H   0  0  0  0  0  0  0  0  0  0  0  0
   -2.8173   -2.4973   -1.9533 H   0  0  0  0  0  0  0  0  0  0  0  0
   -3.4354   -3.3930   -0.5486 H   0  0  0  0  0  0  0  0  0  0  0  0
   -4.5466   -2.8485   -1.8139 H   0  0  0  0  0  0  0  0  0  0  0  0
   -5.7400   -0.8021   -1.2098 H   0  0  0  0  0  0  0  0  0  0  0  0
    3.4606    0.8715    3.9063 H   0  0  0  0  0  0  0  0  0  0  0  0
    1.7208    1.0721    4.2115 H   0  0  0  0  0  0  0  0  0  0  0  0
    2.7679    2.5088    3.9257 H   0  0  0  0  0  0  0  0  0  0  0  0
   -5.8741    0.6981    0.9154 H   0  0  0  0  0  0  0  0  0  0  0  0
   -5.4968    1.5539   -0.5870 H   0  0  0  0  0  0  0  0  0  0  0  0
   -4.2181    1.2374    0.5741 H   0  0  0  0  0  0  0  0  0  0  0  0
  1 11  1  0  0  0  0
  1 16  1  0  0  0  0
  2 10  1  0  0  0  0
  2 24  1  0  0  0  0
  3 12  1  0  0  0  0
  3 25  1  0  0  0  0
  4 16  2  0  0  0  0
  5 23  1  0  0  0  0
  5 30  1  0  0  0  0
  6 23  2  0  0  0  0
  7 24  2  0  0  0  0
  8 25  2  0  0  0  0
  9 10  1  0  0  0  0
  9 11  1  0  0  0  0
  9 13  1  0  0  0  0
  9 32  1  0  0  0  0
 10 12  1  0  0  0  0
 10 33  1  0  0  0  0
 11 14  1  0  0  0  0
 11 34  1  0  0  0  0
 12 15  1  0  0  0  0
 12 35  1  0  0  0  0
 13 16  1  0  0  0  0
 13 21  2  0  0  0  0
 14 17  2  0  0  0  0
 14 36  1  0  0  0  0
 15 20  2  0  0  0  0
 15 23  1  0  0  0  0
 17 18  1  0  0  0  0
 17 22  1  0  0  0  0
 18 19  1  0  0  0  0
 18 37  1  0  0  0  0
 18 38  1  0  0  0  0
 19 20  1  0  0  0  0
 19 39  1  0  0  0  0
 19 40  1  0  0  0  0
 20 41  1  0  0  0  0
 21 42  1  0  0  0  0
 21 43  1  0  0  0  0
 22 44  1  0  0  0  0
 22 45  1  0  0  0  0
 22 46  1  0  0  0  0
 24 26  1  0  0  0  0
 25 27  1  0  0  0  0
 26 28  1  0  0  0  0
 26 29  2  0  0  0  0
 27 47  1  0  0  0  0
 27 48  1  0  0  0  0
 27 49  1  0  0  0  0
 28 50  1  0  0  0  0
 28 51  1  0  0  0  0
 28 52  1  0  0  0  0
 29 31  1  0  0  0  0
 29 53  1  0  0  0  0
 30 54  1  0  0  0  0
 30 55  1  0  0  0  0
 30 56  1  0  0  0  0
 31 57  1  0  0  0  0
 31 58  1  0  0  0  0
 31 59  1  0  0  0  0
M  END
> <PUBCHEM_COMPOUND_CID>
101324862

> <PUBCHEM_CONFORMER_RMSD>
1

> <PUBCHEM_CONFORMER_DIVERSEORDER>
1
7
9
10
2
13
3
11
6
8
4
12
14
5

> <PUBCHEM_MMFF94_PARTIAL_CHARGES>
36
1 -0.43
10 0.28
11 0.42
12 0.42
13 -0.12
14 -0.29
15 -0.12
16 0.71
17 -0.28
18 0.14
19 0.14
2 -0.43
20 -0.29
21 -0.3
22 0.14
23 0.71
24 0.71
25 0.66
26 -0.12
27 0.06
28 0.14
29 -0.29
3 -0.43
30 0.28
31 0.14
36 0.15
4 -0.57
41 0.15
42 0.15
43 0.15
5 -0.43
53 0.15
6 -0.57
7 -0.57
8 -0.57
9 0.14

> <PUBCHEM_EFFECTIVE_ROTOR_COUNT>
8

> <PUBCHEM_PHARMACOPHORE_FEATURES>
7
1 28 hydrophobe
1 31 hydrophobe
1 4 acceptor
1 6 acceptor
1 7 acceptor
1 8 acceptor
5 1 9 11 13 16 rings

> <PUBCHEM_HEAVY_ATOM_COUNT>
31

> <PUBCHEM_ATOM_DEF_STEREO_COUNT>
4

> <PUBCHEM_ATOM_UDEF_STEREO_COUNT>
0

> <PUBCHEM_BOND_DEF_STEREO_COUNT>
3

> <PUBCHEM_BOND_UDEF_STEREO_COUNT>
0

> <PUBCHEM_ISOTOPIC_ATOM_COUNT>
0

> <PUBCHEM_COMPONENT_COUNT>
1

> <PUBCHEM_CACTVS_TAUTO_COUNT>
2

> <PUBCHEM_CONFORMER_ID>
060A183E00000001

> <PUBCHEM_MMFF94_ENERGY>
75.4182

> <PUBCHEM_FEATURE_SELFOVERLAP>
35.523

> <PUBCHEM_SHAPE_FINGERPRINT>
10764073 3 17035228837419706953
1100329 8 17396708583861802783
11578080 2 18129087927610301665
12156800 1 15435063347596189562
13140716 1 18337959003301330619
14787075 74 18202012044727930972
15210252 30 17968101966626042085
17093844 170 18336269023722431781
17909252 39 17127627710173442055
17921350 177 17608654151767465089
20600515 1 17475768310169193920
20691752 17 18337957916526593331
20764821 26 18117570728288197439
20905425 154 18268431230778552894
21421861 104 18116438042127207931
229495 10 17686096844462936337
23419403 2 17917135144534049920
238 59 17486226796232106334
3052486 1 18041549235459625524
35225 105 16320583491031076291
469060 322 17322168477288977632
70251023 43 17840054869268654615

> <PUBCHEM_SHAPE_MULTIPOLES>
591.01
6.73
5.15
2.51
7.42
1.68
1.81
-0.35
-2.08
-0.14
0.25
-2.69
-1.14
0.63

> <PUBCHEM_SHAPE_SELFOVERLAP>
1224.677

> <PUBCHEM_SHAPE_VOLUME>
335.3

> <PUBCHEM_COORDINATE_TYPE>
2
5
10

$$$$
