REMARK  Name = 101375721
REMARK  5 active torsions:
REMARK  status: ('A' for Active; 'I' for Inactive)
REMARK    1  A    between atoms: C_3  and  C_12
REMARK    2  A    between atoms: C_4  and  C_20
REMARK    3  A    between atoms: C_5  and  O_33
REMARK    4  A    between atoms: C_12  and  O_17
REMARK    5  A    between atoms: C_20  and  C_23
REMARK                            x       y       z     vdW  Elec       q    Type
REMARK                         _______ _______ _______ _____ _____    ______ ____
ROOT
ATOM      1  O   UNL     1      -1.036   2.408  -1.047  0.00  0.00    -0.270 OA
ATOM      2  N   UNL     1       1.226   2.187  -1.383  0.00  0.00    -0.279 N 
ATOM      3  C   UNL     1       2.435   0.379  -0.462  0.00  0.00    +0.053 C 
ATOM      4  C   UNL     1       0.025   0.524  -0.044  0.00  0.00    +0.122 C 
ATOM      5  C   UNL     1       1.198  -0.123   0.128  0.00  0.00    +0.140 C 
ATOM      6  C   UNL     1       2.396   1.506  -1.187  0.00  0.00    +0.065 C 
ATOM      7  C   UNL     1       0.010   1.787  -0.864  0.00  0.00    +0.255 C 
ATOM      8  H   UNL     1       1.253   3.009  -1.924  0.00  0.00    +0.155 HD
ENDROOT
BRANCH   3  12
ATOM      9  O   UNL     1       5.452   1.445  -0.491  0.00  0.00    -0.343 OA
ATOM     10  O   UNL     1       7.640  -0.118   1.360  0.00  0.00    -0.293 OA
ATOM     11  C   UNL     1       4.861   0.266  -1.052  0.00  0.00    +0.178 C 
ATOM     12  C   UNL     1       3.735  -0.348  -0.264  0.00  0.00    +0.139 C 
ATOM     13  C   UNL     1       6.263   0.258  -0.504  0.00  0.00    +0.202 C 
ATOM     14  C   UNL     1       4.072  -0.430   1.240  0.00  0.00    +0.042 C 
ATOM     15  C   UNL     1       5.434  -1.076   1.490  0.00  0.00    +0.070 C 
ATOM     16  C   UNL     1       6.540  -0.276   0.845  0.00  0.00    +0.180 C 
BRANCH  12  17
ATOM     17  O   UNL     1       3.564  -1.685  -0.753  0.00  0.00    -0.380 OA
ATOM     18  H   UNL     1       4.390  -2.179  -0.638  0.00  0.00    +0.211 HD
ENDBRANCH  12  17
ENDBRANCH   3  12
BRANCH   4  20
ATOM     19  O   UNL     1      -1.292  -0.134   1.783  0.00  0.00    -0.291 OA
ATOM     20  C   UNL     1      -1.209  -0.007   0.564  0.00  0.00    +0.180 C 
BRANCH  20  23
ATOM     21  C   UNL     1      -3.719  -0.154   0.301  0.00  0.00    +0.012 C 
ATOM     22  C   UNL     1      -4.828  -0.408  -0.750  0.00  0.00    +0.022 C 
ATOM     23  C   UNL     1      -2.340  -0.370  -0.353  0.00  0.00    +0.066 C 
ATOM     24  C   UNL     1      -3.915   1.246   0.904  0.00  0.00    +0.001 C 
ATOM     25  C   UNL     1      -6.205  -0.352  -0.074  0.00  0.00    +0.004 C 
ATOM     26  C   UNL     1      -6.433   1.018   0.588  0.00  0.00    +0.000 C 
ATOM     27  C   UNL     1      -5.295   1.370   1.556  0.00  0.00    +0.000 C 
ATOM     28  C   UNL     1      -2.185  -1.829  -0.865  0.00  0.00    +0.029 C 
ATOM     29  C   UNL     1      -4.614  -1.688  -1.511  0.00  0.00    -0.031 C 
ATOM     30  C   UNL     1      -3.432  -2.316  -1.565  0.00  0.00    -0.031 C 
ATOM     31  C   UNL     1      -7.781   1.052   1.306  0.00  0.00    +0.000 C 
ATOM     32  C   UNL     1      -1.826  -2.843   0.231  0.00  0.00    +0.005 C 
ENDBRANCH  20  23
ENDBRANCH   4  20
BRANCH   5  33
ATOM     33  O   UNL     1       1.258  -1.288   0.874  0.00  0.00    -0.505 OA
ATOM     34  H   UNL     1       2.077  -1.730   0.987  0.00  0.00    +0.292 HD
ENDBRANCH   5  33
TORSDOF 5
