REMARK  Name = 101360189
REMARK  8 active torsions:
REMARK  status: ('A' for Active; 'I' for Inactive)
REMARK    1  A    between atoms: C_1  and  C_4
REMARK    2  A    between atoms: C_1  and  O_11
REMARK    3  A    between atoms: C_1  and  C_13
REMARK    4  A    between atoms: C_5  and  C_8
REMARK    5  A    between atoms: C_8  and  O_9
REMARK    6  A    between atoms: C_13  and  C_14
REMARK    7  A    between atoms: C_14  and  N_15
REMARK    8  A    between atoms: C_14  and  C_19
REMARK                            x       y       z     vdW  Elec       q    Type
REMARK                         _______ _______ _______ _____ _____    ______ ____
ROOT
ATOM      1  C   UNK     1      -0.818  -1.482   0.265  0.00  0.00    +0.166 C 
ENDROOT
BRANCH   1   4
ATOM      2  S   UNK     1       0.725  -0.093   2.119  0.00  0.00    -0.077 S 
ATOM      3  N   UNK     1       1.413  -0.524  -0.336  0.00  0.00    -0.395 NA
ATOM      4  C   UNK     1       0.462  -0.731   0.547  0.00  0.00    +0.161 C 
ATOM      5  C   UNK     1       2.430   0.192   0.264  0.00  0.00    +0.195 C 
ATOM      6  C   UNK     1       2.238   0.517   1.590  0.00  0.00    +0.130 C 
BRANCH   5   8
ATOM      7  O   UNK     1       4.578   1.198  -0.056  0.00  0.00    -0.243 OA
ATOM      8  C   UNK     1       3.600   0.556  -0.486  0.00  0.00    +0.365 C 
BRANCH   8   9
ATOM      9  O   UNK     1       3.565   0.123  -1.783  0.00  0.00    -0.476 OA
ATOM     10  H   UNK     1       2.825  -0.359  -2.097  0.00  0.00    +0.295 HD
ENDBRANCH   8   9
ENDBRANCH   5   8
ENDBRANCH   1   4
BRANCH   1  11
ATOM     11  O   UNK     1      -0.470  -2.840  -0.025  0.00  0.00    -0.377 OA
ATOM     12  H   UNK     1      -1.276  -3.347  -0.211  0.00  0.00    +0.211 HD
ENDBRANCH   1  11
BRANCH   1  13
ATOM     13  C   UNK     1      -1.630  -0.920  -0.917  0.00  0.00    +0.015 C 
BRANCH  13  14
ATOM     14  C   UNK     1      -2.179   0.511  -0.729  0.00  0.00    -0.063 C 
BRANCH  14  15
ATOM     15  N   UNK     1      -2.793   0.913  -2.000  0.00  0.00    +0.382 N 
ATOM     16  H   UNK     1      -3.169   1.858  -1.913  0.00  0.00    -0.089 HD
ATOM     17  H   UNK     1      -3.548   0.268  -2.232  0.00  0.00    -0.089 HD
ATOM     18  H   UNK     1      -2.090   0.894  -2.739  0.00  0.00    -0.089 HD
ENDBRANCH  14  15
BRANCH  14  19
ATOM     19  C   UNK     1      -3.147   0.680   0.476  0.00  0.00    -0.020 C 
ATOM     20  C   UNK     1      -4.381  -0.224   0.348  0.00  0.00    -0.002 C 
ATOM     21  C   UNK     1      -3.593   2.124   0.723  0.00  0.00    -0.002 C 
ENDBRANCH  14  19
ENDBRANCH  13  14
ENDBRANCH   1  13
TORSDOF 8
