REMARK  Name = 101317811
REMARK  4 active torsions:
REMARK  status: ('A' for Active; 'I' for Inactive)
REMARK    1  A    between atoms: C_6  and  O_23
REMARK    2  A    between atoms: C_8  and  O_25
REMARK    3  A    between atoms: C_9  and  O_27
REMARK    4  A    between atoms: C_12  and  O_29
REMARK                            x       y       z     vdW  Elec       q    Type
REMARK                         _______ _______ _______ _____ _____    ______ ____
ROOT
ATOM      1  O   UNL     1       1.193   2.707   0.310  0.00  0.00    -0.294 OA
ATOM      2  O   UNL     1      -1.465   2.046   1.457  0.00  0.00    -0.292 OA
ATOM      3  C   UNL     1       1.040  -0.813  -0.130  0.00  0.00    +0.037 C 
ATOM      4  C   UNL     1      -1.138   0.340  -0.290  0.00  0.00    +0.113 C 
ATOM      5  C   UNL     1      -0.457  -0.898   0.401  0.00  0.00    +0.042 C 
ATOM      6  C   UNL     1       0.030   1.016  -1.018  0.00  0.00    +0.172 C 
ATOM      7  C   UNL     1       1.750   0.350   0.666  0.00  0.00    +0.062 C 
ATOM      8  C   UNL     1       0.861  -0.177  -1.527  0.00  0.00    +0.142 C 
ATOM      9  C   UNL     1      -2.372  -0.069  -1.138  0.00  0.00    +0.124 C 
ATOM     10  C   UNL     1       1.021   1.531   0.027  0.00  0.00    +0.177 C 
ATOM     11  C   UNL     1       1.798  -2.132  -0.083  0.00  0.00    +0.003 C 
ATOM     12  C   UNL     1      -1.264  -2.191   0.175  0.00  0.00    +0.112 C 
ATOM     13  C   UNL     1       3.304   0.422   0.616  0.00  0.00    +0.007 C 
ATOM     14  C   UNL     1      -3.320  -0.626  -0.068  0.00  0.00    +0.055 C 
ATOM     15  C   UNL     1      -1.871   1.097   0.811  0.00  0.00    +0.173 C 
ATOM     16  C   UNL     1      -2.778  -1.982   0.430  0.00  0.00    +0.036 C 
ATOM     17  C   UNL     1       3.296  -1.973  -0.304  0.00  0.00    +0.000 C 
ATOM     18  C   UNL     1       3.896  -1.004   0.713  0.00  0.00    +0.000 C 
ATOM     19  C   UNL     1      -3.202   0.441   1.000  0.00  0.00    +0.015 C 
ATOM     20  C   UNL     1       3.897   1.127  -0.624  0.00  0.00    +0.000 C 
ATOM     21  C   UNL     1       3.793   1.224   1.847  0.00  0.00    +0.000 C 
ATOM     22  C   UNL     1      -4.097   0.821   1.911  0.00  0.00    -0.002 C 
ENDROOT
BRANCH   6  23
ATOM     23  O   UNL     1      -0.324   1.936  -1.998  0.00  0.00    -0.377 OA
ATOM     24  H   UNL     1      -0.951   1.527  -2.614  0.00  0.00    +0.211 HD
ENDBRANCH   6  23
BRANCH   8  25
ATOM     25  O   UNL     1       0.183  -1.016  -2.439  0.00  0.00    -0.382 OA
ATOM     26  H   UNL     1       0.770  -1.738  -2.711  0.00  0.00    +0.210 HD
ENDBRANCH   8  25
BRANCH   9  27
ATOM     27  O   UNL     1      -2.977   1.038  -1.800  0.00  0.00    -0.384 OA
ATOM     28  H   UNL     1      -2.370   1.383  -2.474  0.00  0.00    +0.210 HD
ENDBRANCH   9  27
BRANCH  12  29
ATOM     29  O   UNL     1      -0.799  -3.213   1.053  0.00  0.00    -0.384 OA
ATOM     30  H   UNL     1       0.149  -3.359   0.907  0.00  0.00    +0.210 HD
ENDBRANCH  12  29
TORSDOF 4
