101306824
  -OEChem-03292013293D

 56 60  0     1  0  0  0  0  0999 V2000
    0.2784   -0.7723    1.9744 O   0  0  0  0  0  0  0  0  0  0  0  0
   -0.9316   -2.5976    1.1433 O   0  0  0  0  0  0  0  0  0  0  0  0
    1.6879   -2.6540    0.4837 O   0  0  0  0  0  0  0  0  0  0  0  0
   -3.1670   -1.0507    1.6798 O   0  0  0  0  0  0  0  0  0  0  0  0
   -1.4599   -1.0310   -2.2247 O   0  0  0  0  0  0  0  0  0  0  0  0
    1.4530    3.1375    0.8886 O   0  0  0  0  0  0  0  0  0  0  0  0
   -1.3132   -0.3509    0.1776 C   0  0  1  0  0  0  0  0  0  0  0  0
    0.9999    0.8180    0.2187 C   0  0  2  0  0  0  0  0  0  0  0  0
   -0.5123    0.9389   -0.2679 C   0  0  2  0  0  0  0  0  0  0  0  0
    1.6135   -0.4108   -0.5691 C   0  0  2  0  0  0  0  0  0  0  0  0
   -0.3078   -1.3599    0.7995 C   0  0  1  0  0  0  0  0  0  0  0  0
    0.8507   -1.6989   -0.1579 C   0  0  2  0  0  0  0  0  0  0  0  0
   -2.4621    0.0653    1.1467 C   0  0  1  0  0  0  0  0  0  0  0  0
   -2.1568   -0.9453   -0.9949 C   0  0  1  0  0  0  0  0  0  0  0  0
    3.1834   -0.4885   -0.6830 C   0  0  0  0  0  0  0  0  0  0  0  0
   -3.3726    0.8543    0.1972 C   0  0  1  0  0  0  0  0  0  0  0  0
   -1.2321    2.2534    0.1245 C   0  0  0  0  0  0  0  0  0  0  0  0
    0.9374    0.4745    1.7234 C   0  0  0  0  0  0  0  0  0  0  0  0
    1.7721    2.1331   -0.0740 C   0  0  2  0  0  0  0  0  0  0  0  0
   -2.7488    2.2220   -0.1064 C   0  0  0  0  0  0  0  0  0  0  0  0
   -3.3500   -0.0193   -1.0455 C   0  0  0  0  0  0  0  0  0  0  0  0
    3.7170    0.9081   -1.0803 C   0  0  0  0  0  0  0  0  0  0  0  0
    3.2881    1.9854   -0.0993 C   0  0  0  0  0  0  0  0  0  0  0  0
    3.9480   -0.9481    0.5786 C   0  0  0  0  0  0  0  0  0  0  0  0
    3.5627   -1.4658   -1.8229 C   0  0  0  0  0  0  0  0  0  0  0  0
   -4.2778    0.0024   -2.0101 C   0  0  0  0  0  0  0  0  0  0  0  0
   -0.4775    0.9717   -1.3654 H   0  0  0  0  0  0  0  0  0  0  0  0
    1.2977   -0.2290   -1.6100 H   0  0  0  0  0  0  0  0  0  0  0  0
    0.4760   -2.1949   -1.0607 H   0  0  0  0  0  0  0  0  0  0  0  0
   -2.1125    0.6566    1.9990 H   0  0  0  0  0  0  0  0  0  0  0  0
   -2.5052   -1.9530   -0.7373 H   0  0  0  0  0  0  0  0  0  0  0  0
   -4.3950    0.9531    0.5781 H   0  0  0  0  0  0  0  0  0  0  0  0
   -0.8179    3.0977   -0.4387 H   0  0  0  0  0  0  0  0  0  0  0  0
   -1.0572    2.4813    1.1818 H   0  0  0  0  0  0  0  0  0  0  0  0
    1.9265    0.4232    2.1797 H   0  0  0  0  0  0  0  0  0  0  0  0
    0.3961    1.2372    2.2922 H   0  0  0  0  0  0  0  0  0  0  0  0
    1.4570    2.5135   -1.0544 H   0  0  0  0  0  0  0  0  0  0  0  0
   -3.2051    2.9769    0.5464 H   0  0  0  0  0  0  0  0  0  0  0  0
   -2.9729    2.5375   -1.1331 H   0  0  0  0  0  0  0  0  0  0  0  0
    3.3577    1.1754   -2.0833 H   0  0  0  0  0  0  0  0  0  0  0  0
    4.8125    0.8970   -1.1453 H   0  0  0  0  0  0  0  0  0  0  0  0
    3.6737    1.7913    0.9079 H   0  0  0  0  0  0  0  0  0  0  0  0
    3.7377    2.9421   -0.3954 H   0  0  0  0  0  0  0  0  0  0  0  0
   -0.2386   -3.2527    1.3244 H   0  0  0  0  0  0  0  0  0  0  0  0
    3.8621   -2.0215    0.7631 H   0  0  0  0  0  0  0  0  0  0  0  0
    3.6367   -0.4273    1.4824 H   0  0  0  0  0  0  0  0  0  0  0  0
    3.2433   -2.4897   -1.6050 H   0  0  0  0  0  0  0  0  0  0  0  0
    4.6476   -1.4869   -1.9790 H   0  0  0  0  0  0  0  0  0  0  0  0
    3.1011   -1.1697   -2.7717 H   0  0  0  0  0  0  0  0  0  0  0  0
    5.0235   -0.7615    0.4643 H   0  0  0  0  0  0  0  0  0  0  0  0
    1.3642   -3.5409    0.2514 H   0  0  0  0  0  0  0  0  0  0  0  0
   -3.9114   -0.7032    2.2000 H   0  0  0  0  0  0  0  0  0  0  0  0
   -2.0321   -1.4922   -2.8609 H   0  0  0  0  0  0  0  0  0  0  0  0
    1.8990    3.9582    0.6186 H   0  0  0  0  0  0  0  0  0  0  0  0
   -4.2209   -0.6638   -2.8636 H   0  0  0  0  0  0  0  0  0  0  0  0
   -5.1167    0.6884   -1.9607 H   0  0  0  0  0  0  0  0  0  0  0  0
  1 11  1  0  0  0  0
  1 18  1  0  0  0  0
  2 11  1  0  0  0  0
  2 44  1  0  0  0  0
  3 12  1  0  0  0  0
  3 51  1  0  0  0  0
  4 13  1  0  0  0  0
  4 52  1  0  0  0  0
  5 14  1  0  0  0  0
  5 53  1  0  0  0  0
  6 19  1  0  0  0  0
  6 54  1  0  0  0  0
  7  9  1  0  0  0  0
  7 11  1  0  0  0  0
  7 13  1  0  0  0  0
  7 14  1  0  0  0  0
  8  9  1  0  0  0  0
  8 10  1  0  0  0  0
  8 18  1  0  0  0  0
  8 19  1  0  0  0  0
  9 17  1  0  0  0  0
  9 27  1  0  0  0  0
 10 12  1  0  0  0  0
 10 15  1  0  0  0  0
 10 28  1  0  0  0  0
 11 12  1  0  0  0  0
 12 29  1  0  0  0  0
 13 16  1  0  0  0  0
 13 30  1  0  0  0  0
 14 21  1  0  0  0  0
 14 31  1  0  0  0  0
 15 22  1  0  0  0  0
 15 24  1  0  0  0  0
 15 25  1  0  0  0  0
 16 20  1  0  0  0  0
 16 21  1  0  0  0  0
 16 32  1  0  0  0  0
 17 20  1  0  0  0  0
 17 33  1  0  0  0  0
 17 34  1  0  0  0  0
 18 35  1  0  0  0  0
 18 36  1  0  0  0  0
 19 23  1  0  0  0  0
 19 37  1  0  0  0  0
 20 38  1  0  0  0  0
 20 39  1  0  0  0  0
 21 26  2  0  0  0  0
 22 23  1  0  0  0  0
 22 40  1  0  0  0  0
 22 41  1  0  0  0  0
 23 42  1  0  0  0  0
 23 43  1  0  0  0  0
 24 45  1  0  0  0  0
 24 46  1  0  0  0  0
 24 50  1  0  0  0  0
 25 47  1  0  0  0  0
 25 48  1  0  0  0  0
 25 49  1  0  0  0  0
 26 55  1  0  0  0  0
 26 56  1  0  0  0  0
M  END
> <PUBCHEM_COMPOUND_CID>
101306824

> <PUBCHEM_CONFORMER_RMSD>
0.6

> <PUBCHEM_CONFORMER_DIVERSEORDER>
1

> <PUBCHEM_MMFF94_PARTIAL_CHARGES>
22
1 -0.56
11 0.56
12 0.28
13 0.28
14 0.42
16 0.14
18 0.28
19 0.28
2 -0.68
21 -0.28
26 -0.3
3 -0.68
4 -0.68
44 0.4
5 -0.68
51 0.4
52 0.4
53 0.4
54 0.4
55 0.15
56 0.15
6 -0.68

> <PUBCHEM_EFFECTIVE_ROTOR_COUNT>
2.2

> <PUBCHEM_PHARMACOPHORE_FEATURES>
15
1 1 acceptor
1 2 acceptor
1 2 donor
1 3 acceptor
1 3 donor
1 4 acceptor
1 4 donor
1 5 acceptor
1 5 donor
1 6 acceptor
1 6 donor
3 15 24 25 hydrophobe
6 8 10 15 19 22 23 rings
8 1 7 8 9 10 11 12 18 rings
8 7 9 13 14 16 17 20 21 rings

> <PUBCHEM_HEAVY_ATOM_COUNT>
26

> <PUBCHEM_ATOM_DEF_STEREO_COUNT>
7

> <PUBCHEM_ATOM_UDEF_STEREO_COUNT>
3

> <PUBCHEM_BOND_DEF_STEREO_COUNT>
0

> <PUBCHEM_BOND_UDEF_STEREO_COUNT>
0

> <PUBCHEM_ISOTOPIC_ATOM_COUNT>
0

> <PUBCHEM_COMPONENT_COUNT>
1

> <PUBCHEM_CACTVS_TAUTO_COUNT>
1

> <PUBCHEM_CONFORMER_ID>
0609D1C800000001

> <PUBCHEM_MMFF94_ENERGY>
131.5883

> <PUBCHEM_FEATURE_SELFOVERLAP>
76.215

> <PUBCHEM_SHAPE_FINGERPRINT>
10062212 137 18264765467886273162
10165383 225 17604730862514934711
10863032 1 17967541142163875643
10948715 1 18261962825579330217
10967382 1 18409454686868065280
1100329 8 17253715975614511128
12035759 4 18270100375798250783
12173636 292 18187374211561273293
12553582 1 18271818929573413628
12788726 201 18198636428193733256
13140716 1 18265621059604917394
13224815 77 18408604781300999308
13583140 156 16588305033398495856
14251745 187 18341890848450526632
14289901 80 11527946729705108062
15664445 248 16981204643517869613
16945 1 18410579469877617714
17349148 13 18189324676638536194
18186145 218 18040444273776313692
18981168 100 18114455777048801433
19862831 5 18113891654622218365
20691752 17 18260543381684921805
22182313 1 18191311687080304434
22802520 49 18268999854441878648
22907989 373 17612041768462036900
2334 1 17977671131916790994
23402539 116 18268423552010049446
23493267 7 16732980912353953585
23559900 14 18335993021593813510
238 59 18269827765127662605
25 1 18334299746983577412
2748010 2 18120098543736998488
296302 2 15985103007440629122
3323516 105 18335436663413085970
34934 24 18195804059674037256
4340502 62 17603305913173721673
474 4 18261951946353602636
5845 1 16602600638579533354
633830 44 18337684026478120861
70251023 43 18201432567635021911
7832392 63 18126286341775460393
90525 40 17986954046760583781
9709674 26 18341621438184357910
9981440 41 17407374293486539672

> <PUBCHEM_SHAPE_MULTIPOLES>
499.85
6.65
2.65
1.7
0.12
0.82
-0.16
0.17
-2.62
1.01
0.43
-0.63
-0.66
0.2

> <PUBCHEM_SHAPE_SELFOVERLAP>
1101.05

> <PUBCHEM_SHAPE_VOLUME>
259.8

> <PUBCHEM_COORDINATE_TYPE>
2
5
10

$$$$
