REMARK  Name = 101344358
REMARK  4 active torsions:
REMARK  status: ('A' for Active; 'I' for Inactive)
REMARK    1  A    between atoms: C_7  and  O_19
REMARK    2  A    between atoms: C_8  and  O_21
REMARK    3  A    between atoms: C_17  and  C_23
REMARK    4  A    between atoms: C_23  and  O_24
REMARK                            x       y       z     vdW  Elec       q    Type
REMARK                         _______ _______ _______ _____ _____    ______ ____
ROOT
ATOM      1  O   UNL     1       0.759  -0.539  -1.788  0.00  0.00    -0.320 OA
ATOM      2  O   UNL     1       1.554   2.488   0.047  0.00  0.00    -0.447 OA
ATOM      3  O   UNL     1      -1.710   0.802  -1.550  0.00  0.00    -0.287 OA
ATOM      4  O   UNL     1       0.587   2.225  -1.958  0.00  0.00    -0.247 OA
ATOM      5  C   UNL     1       0.121  -1.944   0.127  0.00  0.00    +0.083 C 
ATOM      6  C   UNL     1       2.108  -0.337   0.284  0.00  0.00    +0.069 C 
ATOM      7  C   UNL     1       0.940  -0.992   1.046  0.00  0.00    +0.119 C 
ATOM      8  C   UNL     1      -0.339  -1.138  -1.114  0.00  0.00    +0.243 C 
ATOM      9  C   UNL     1       1.649   0.278  -1.036  0.00  0.00    +0.218 C 
ATOM     10  C   UNL     1       2.872   0.695   1.134  0.00  0.00    +0.049 C 
ATOM     11  C   UNL     1      -1.114  -2.521   0.866  0.00  0.00    +0.033 C 
ATOM     12  C   UNL     1       0.987  -3.161  -0.300  0.00  0.00    +0.008 C 
ATOM     13  C   UNL     1      -1.479  -0.155  -0.810  0.00  0.00    +0.222 C 
ATOM     14  C   UNL     1       2.021   1.946   1.295  0.00  0.00    +0.209 C 
ATOM     15  C   UNL     1       1.186   1.725  -1.007  0.00  0.00    +0.345 C 
ATOM     16  C   UNL     1      -2.196  -1.514   1.093  0.00  0.00    -0.025 C 
ATOM     17  C   UNL     1      -2.378  -0.410   0.356  0.00  0.00    +0.043 C 
ATOM     18  C   UNL     1       4.233   1.044   0.518  0.00  0.00    +0.004 C 
ENDROOT
BRANCH   7  19
ATOM     19  O   UNL     1       1.477  -1.695   2.167  0.00  0.00    -0.384 OA
ATOM     20  H   UNL     1       0.756  -2.116   2.660  0.00  0.00    +0.210 HD
ENDBRANCH   7  19
BRANCH   8  21
ATOM     21  O   UNL     1      -0.978  -2.049  -2.027  0.00  0.00    -0.358 OA
ATOM     22  H   UNL     1      -0.345  -2.732  -2.297  0.00  0.00    +0.213 HD
ENDBRANCH   8  21
BRANCH  17  23
ATOM     23  C   UNL     1      -3.471   0.578   0.621  0.00  0.00    +0.171 C 
BRANCH  23  24
ATOM     24  O   UNL     1      -2.912   1.852   0.888  0.00  0.00    -0.346 OA
ATOM     25  C   UNL     1      -3.919   2.824   1.146  0.00  0.00    +0.175 C 
ENDBRANCH  23  24
ENDBRANCH  17  23
TORSDOF 4
