101382
  -OEChem-03292013323D

 35 37  0     1  0  0  0  0  0999 V2000
    1.9146    0.2274    1.0314 O   0  0  0  0  0  0  0  0  0  0  0  0
    1.5751   -0.4589   -1.9021 O   0  0  0  0  0  0  0  0  0  0  0  0
    4.4141   -1.4065    0.0994 O   0  0  0  0  0  0  0  0  0  0  0  0
    2.5754    2.9196    0.7609 O   0  0  0  0  0  0  0  0  0  0  0  0
    0.0578   -1.1167    0.3894 N   0  0  0  0  0  0  0  0  0  0  0  0
   -1.9874   -2.0176    0.4301 N   0  0  0  0  0  0  0  0  0  0  0  0
   -0.5244    1.1977   -0.0699 N   0  0  0  0  0  0  0  0  0  0  0  0
   -2.9395    1.4874   -0.2690 N   0  0  0  0  0  0  0  0  0  0  0  0
   -4.4759   -0.3313   -0.0266 N   0  0  0  0  0  0  0  0  0  0  0  0
    2.2481   -1.1648   -0.8676 C   0  0  2  0  0  0  0  0  0  0  0  0
    1.5117   -1.0302    0.4619 C   0  0  1  0  0  0  0  0  0  0  0  0
    3.5597   -0.4724   -0.5570 C   0  0  1  0  0  0  0  0  0  0  0  0
    3.1625    0.6279    0.4292 C   0  0  1  0  0  0  0  0  0  0  0  0
    2.9479    1.9815   -0.2335 C   0  0  0  0  0  0  0  0  0  0  0  0
   -0.8192   -0.0926    0.1487 C   0  0  0  0  0  0  0  0  0  0  0  0
   -0.6974   -2.2525    0.5507 C   0  0  0  0  0  0  0  0  0  0  0  0
   -2.0779   -0.6716    0.1788 C   0  0  0  0  0  0  0  0  0  0  0  0
   -3.1631    0.1708   -0.0409 C   0  0  0  0  0  0  0  0  0  0  0  0
   -1.6530    1.9128   -0.2692 C   0  0  0  0  0  0  0  0  0  0  0  0
   -5.6293    0.4903   -0.2448 C   0  0  0  0  0  0  0  0  0  0  0  0
    2.3488   -2.2132   -1.1661 H   0  0  0  0  0  0  0  0  0  0  0  0
    1.8421   -1.8067    1.1636 H   0  0  0  0  0  0  0  0  0  0  0  0
    4.0817   -0.0906   -1.4399 H   0  0  0  0  0  0  0  0  0  0  0  0
    3.8865    0.7286    1.2461 H   0  0  0  0  0  0  0  0  0  0  0  0
    3.8665    2.3284   -0.7167 H   0  0  0  0  0  0  0  0  0  0  0  0
    2.1435    1.9477   -0.9736 H   0  0  0  0  0  0  0  0  0  0  0  0
    2.1198   -0.5290   -2.7046 H   0  0  0  0  0  0  0  0  0  0  0  0
    5.2337   -0.9370    0.3310 H   0  0  0  0  0  0  0  0  0  0  0  0
   -0.2503   -3.2165    0.7520 H   0  0  0  0  0  0  0  0  0  0  0  0
    2.4478    3.7744    0.3154 H   0  0  0  0  0  0  0  0  0  0  0  0
   -1.5109    2.9721   -0.4550 H   0  0  0  0  0  0  0  0  0  0  0  0
   -4.5999   -1.3221    0.1485 H   0  0  0  0  0  0  0  0  0  0  0  0
   -5.6006    0.9551   -1.2355 H   0  0  0  0  0  0  0  0  0  0  0  0
   -5.7037    1.2751    0.5149 H   0  0  0  0  0  0  0  0  0  0  0  0
   -6.5365   -0.1190   -0.1868 H   0  0  0  0  0  0  0  0  0  0  0  0
  1 11  1  0  0  0  0
  1 13  1  0  0  0  0
  2 10  1  0  0  0  0
  2 27  1  0  0  0  0
  3 12  1  0  0  0  0
  3 28  1  0  0  0  0
  4 14  1  0  0  0  0
  4 30  1  0  0  0  0
  5 11  1  0  0  0  0
  5 15  1  0  0  0  0
  5 16  1  0  0  0  0
  6 16  2  0  0  0  0
  6 17  1  0  0  0  0
  7 15  2  0  0  0  0
  7 19  1  0  0  0  0
  8 18  1  0  0  0  0
  8 19  2  0  0  0  0
  9 18  1  0  0  0  0
  9 20  1  0  0  0  0
  9 32  1  0  0  0  0
 10 11  1  0  0  0  0
 10 12  1  0  0  0  0
 10 21  1  0  0  0  0
 11 22  1  0  0  0  0
 12 13  1  0  0  0  0
 12 23  1  0  0  0  0
 13 14  1  0  0  0  0
 13 24  1  0  0  0  0
 14 25  1  0  0  0  0
 14 26  1  0  0  0  0
 15 17  1  0  0  0  0
 16 29  1  0  0  0  0
 17 18  2  0  0  0  0
 19 31  1  0  0  0  0
 20 33  1  0  0  0  0
 20 34  1  0  0  0  0
 20 35  1  0  0  0  0
M  END
> <PUBCHEM_COMPOUND_CID>
101382

> <PUBCHEM_CONFORMER_RMSD>
0.6

> <PUBCHEM_CONFORMER_DIVERSEORDER>
3
7
32
17
21
29
20
4
23
27
10
19
33
30
2
13
9
31
8
15
22
28
1
26
5
24
18
16
25
14
12
11
6

> <PUBCHEM_MMFF94_PARTIAL_CHARGES>
26
1 -0.56
10 0.28
11 0.54
12 0.28
13 0.28
14 0.28
15 0.11
16 0.04
17 0.23
18 0.41
19 0.47
2 -0.68
20 0.37
27 0.4
28 0.4
29 0.15
3 -0.68
30 0.4
31 0.15
32 0.4
4 -0.68
5 0.05
6 -0.57
7 -0.57
8 -0.62
9 -0.87

> <PUBCHEM_EFFECTIVE_ROTOR_COUNT>
4

> <PUBCHEM_PHARMACOPHORE_FEATURES>
15
1 1 acceptor
1 2 acceptor
1 2 donor
1 3 acceptor
1 3 donor
1 4 acceptor
1 4 donor
1 9 cation
1 9 donor
3 5 6 16 cation
3 5 7 15 cation
3 7 8 19 cation
5 1 10 11 12 13 rings
5 5 6 15 16 17 rings
6 7 8 15 17 18 19 rings

> <PUBCHEM_HEAVY_ATOM_COUNT>
20

> <PUBCHEM_ATOM_DEF_STEREO_COUNT>
4

> <PUBCHEM_ATOM_UDEF_STEREO_COUNT>
0

> <PUBCHEM_BOND_DEF_STEREO_COUNT>
0

> <PUBCHEM_BOND_UDEF_STEREO_COUNT>
0

> <PUBCHEM_ISOTOPIC_ATOM_COUNT>
0

> <PUBCHEM_COMPONENT_COUNT>
1

> <PUBCHEM_CACTVS_TAUTO_COUNT>
3

> <PUBCHEM_CONFORMER_ID>
00018C0600000003

> <PUBCHEM_MMFF94_ENERGY>
49.1354

> <PUBCHEM_FEATURE_SELFOVERLAP>
76.732

> <PUBCHEM_SHAPE_FINGERPRINT>
10498660 4 18334577987897477949
10608611 8 18411136986971612216
10967382 1 18408885152502821977
12011746 2 18411143528423101724
12236239 1 17167866352657620554
12403259 226 18263076613493684572
12403259 415 18113611262220152037
12403260 363 18338510850626823403
12633257 1 18335126627320731568
12969540 114 18187628216502276023
13134695 92 17418087681826980258
13140716 1 18335418027476226931
14115302 16 18040445394530896742
14790565 3 18410862028041174881
15196674 1 18336827588993797755
15219456 202 18341898553653328826
15536298 74 18412262865166488237
16945 1 18408599236530044250
17802600 8 18335700507612324036
1813 80 13542464284863885611
18186145 218 18340768135398764145
19784866 240 15625674803646184126
200 152 17131830936941027187
20510252 161 18340769252233004537
21267235 1 18336554832426482915
21452121 103 18340479058330160832
21524375 3 18187930521448236875
23227448 37 18339919445592318893
23402539 116 18411692180082559687
23419403 2 16529161435177741735
23557571 272 18194413413725031678
23559900 14 18411699902723687002
2748010 2 18192722351935394443
3286 77 18335417924787141964
335352 9 18409166588904078334
351380 180 18411697673160848366
44154327 71 18188493608840800204
495365 180 17560228245223654928
4990 188 18131634444085271679
5104073 3 18336548312966594491
6333272 397 18335417971863087377
633830 44 18341889667740455501
69090 78 18343862216980495463
7364860 26 18410572864713866538
9709674 26 18339644550205045951
9981440 41 17246976421067803204

> <PUBCHEM_SHAPE_MULTIPOLES>
363.21
8.31
2.33
0.92
5.99
0.76
0.24
1.22
0.67
-0.97
-0.37
-0.55
-0.07
0.68

> <PUBCHEM_SHAPE_SELFOVERLAP>
784.717

> <PUBCHEM_SHAPE_VOLUME>
195.9

> <PUBCHEM_COORDINATE_TYPE>
2
5
10

$$$$
