101360189
  -OEChem-03292013293D

 32 32  0     1  0  0  0  0  0999 V2000
    0.7253   -0.0934    2.1185 S   0  0  0  0  0  0  0  0  0  0  0  0
   -0.4705   -2.8397   -0.0248 O   0  0  0  0  0  0  0  0  0  0  0  0
    3.5653    0.1227   -1.7833 O   0  0  0  0  0  0  0  0  0  0  0  0
    4.5778    1.1982   -0.0556 O   0  0  0  0  0  0  0  0  0  0  0  0
   -2.7935    0.9131   -2.0001 N   0  0  0  0  0  0  0  0  0  0  0  0
    1.4129   -0.5236   -0.3359 N   0  0  0  0  0  0  0  0  0  0  0  0
   -2.1789    0.5108   -0.7285 C   0  0  1  0  0  0  0  0  0  0  0  0
   -3.1471    0.6796    0.4762 C   0  0  0  0  0  0  0  0  0  0  0  0
   -1.6297   -0.9204   -0.9169 C   0  0  0  0  0  0  0  0  0  0  0  0
   -0.8183   -1.4825    0.2645 C   0  0  2  0  0  0  0  0  0  0  0  0
   -4.3807   -0.2239    0.3478 C   0  0  0  0  0  0  0  0  0  0  0  0
   -3.5932    2.1243    0.7225 C   0  0  0  0  0  0  0  0  0  0  0  0
    0.4619   -0.7314    0.5474 C   0  0  0  0  0  0  0  0  0  0  0  0
    2.4305    0.1924    0.2638 C   0  0  0  0  0  0  0  0  0  0  0  0
    2.2382    0.5174    1.5901 C   0  0  0  0  0  0  0  0  0  0  0  0
    3.6001    0.5562   -0.4856 C   0  0  0  0  0  0  0  0  0  0  0  0
   -1.3270    1.1826   -0.5639 H   0  0  0  0  0  0  0  0  0  0  0  0
   -2.6127    0.3740    1.3836 H   0  0  0  0  0  0  0  0  0  0  0  0
   -0.9863   -0.9448   -1.8093 H   0  0  0  0  0  0  0  0  0  0  0  0
   -2.4440   -1.6186   -1.1515 H   0  0  0  0  0  0  0  0  0  0  0  0
   -1.4585   -1.5205    1.1522 H   0  0  0  0  0  0  0  0  0  0  0  0
   -4.2301    2.4966   -0.0863 H   0  0  0  0  0  0  0  0  0  0  0  0
   -4.9607    0.0040   -0.5523 H   0  0  0  0  0  0  0  0  0  0  0  0
   -4.1053   -1.2821    0.3230 H   0  0  0  0  0  0  0  0  0  0  0  0
   -5.0438   -0.0891    1.2100 H   0  0  0  0  0  0  0  0  0  0  0  0
   -4.1630    2.1990    1.6551 H   0  0  0  0  0  0  0  0  0  0  0  0
   -2.7257    2.7868    0.8081 H   0  0  0  0  0  0  0  0  0  0  0  0
   -2.1065    0.8493   -2.7505 H   0  0  0  0  0  0  0  0  0  0  0  0
   -3.0715    1.8921   -1.9543 H   0  0  0  0  0  0  0  0  0  0  0  0
   -0.0532   -3.2129    0.7707 H   0  0  0  0  0  0  0  0  0  0  0  0
    2.8869    1.0658    2.2588 H   0  0  0  0  0  0  0  0  0  0  0  0
    4.3739    0.3828   -2.2742 H   0  0  0  0  0  0  0  0  0  0  0  0
  1 13  1  0  0  0  0
  1 15  1  0  0  0  0
  2 10  1  0  0  0  0
  2 30  1  0  0  0  0
  3 16  1  0  0  0  0
  3 32  1  0  0  0  0
  4 16  2  0  0  0  0
  5  7  1  0  0  0  0
  5 28  1  0  0  0  0
  5 29  1  0  0  0  0
  6 13  2  0  0  0  0
  6 14  1  0  0  0  0
  7  8  1  0  0  0  0
  7  9  1  0  0  0  0
  7 17  1  0  0  0  0
  8 11  1  0  0  0  0
  8 12  1  0  0  0  0
  8 18  1  0  0  0  0
  9 10  1  0  0  0  0
  9 19  1  0  0  0  0
  9 20  1  0  0  0  0
 10 13  1  0  0  0  0
 10 21  1  0  0  0  0
 11 23  1  0  0  0  0
 11 24  1  0  0  0  0
 11 25  1  0  0  0  0
 12 22  1  0  0  0  0
 12 26  1  0  0  0  0
 12 27  1  0  0  0  0
 14 15  2  0  0  0  0
 14 16  1  0  0  0  0
 15 31  1  0  0  0  0
M  END
> <PUBCHEM_COMPOUND_CID>
101360189

> <PUBCHEM_CONFORMER_RMSD>
0.6

> <PUBCHEM_CONFORMER_DIVERSEORDER>
1
69
87
240
65
220
92
219
63
136
161
169
165
198
237
48
174
208
107
7
195
231
210
158
175
62
193
223
185
68
93
188
203
61
66
213
104
222
173
167
239
125
115
170
124
38
81
143
200
119
224
207
133
114
238
74
60
199
214
236
122
149
129
138
84
80
49
128
187
178
197
105
31
232
152
131
39
227
32
41
216
171
230
132
6
51
194
144
121
140
134
234
96
209
50
206
127
225
142
218
30
73
75
59
101
100
159
16
86
56
28
183
162
157
3
168
99
186
91
33
42
118
166
82
163
120
241
153
148
156
221
72
180
25
150
37
57
155
190
77
233
83
146
177
19
160
102
34
151
89
108
12
112
95
54
189
126
11
29
106
117
2
201
24
64
205
23
52
226
78
58
5
26
191
211
181
43
27
46
116
55
94
76
147
10
145
88
164
97
217
137
196
13
44
85
9
182
130
212
176
40
235
179
228
79
98
135
70
110
202
35
215
47
67
20
4
192
45
229
172
184
111
141
113
109
8
139
90
123
21
154
71
22
36
103
17
15
14
18
204
53

> <PUBCHEM_MMFF94_PARTIAL_CHARGES>
17
1 -0.08
10 0.46
13 0.2
14 0.14
15 -0.11
16 0.81
2 -0.68
28 0.36
29 0.36
3 -0.65
30 0.4
31 0.15
32 0.5
4 -0.57
5 -0.99
6 -0.57
7 0.27

> <PUBCHEM_EFFECTIVE_ROTOR_COUNT>
5

> <PUBCHEM_PHARMACOPHORE_FEATURES>
10
1 2 acceptor
1 2 donor
1 3 acceptor
1 4 acceptor
1 5 cation
1 5 donor
1 6 acceptor
3 3 4 16 anion
3 8 11 12 hydrophobe
5 1 6 13 14 15 rings

> <PUBCHEM_HEAVY_ATOM_COUNT>
16

> <PUBCHEM_ATOM_DEF_STEREO_COUNT>
2

> <PUBCHEM_ATOM_UDEF_STEREO_COUNT>
0

> <PUBCHEM_BOND_DEF_STEREO_COUNT>
0

> <PUBCHEM_BOND_UDEF_STEREO_COUNT>
0

> <PUBCHEM_ISOTOPIC_ATOM_COUNT>
0

> <PUBCHEM_COMPONENT_COUNT>
1

> <PUBCHEM_CACTVS_TAUTO_COUNT>
2

> <PUBCHEM_CONFORMER_ID>
060AA23D00000001

> <PUBCHEM_MMFF94_ENERGY>
14.5951

> <PUBCHEM_FEATURE_SELFOVERLAP>
50.811

> <PUBCHEM_SHAPE_FINGERPRINT>
10498660 4 18340483353461344081
10610426 29 12031503229430715578
11132069 177 15140686898876068865
11471102 22 14418125206332427168
12251169 10 14345798261825894440
12363563 72 9511453450919647485
12916748 109 18413114978077283857
13549 16 15913332359946187801
13693222 15 11818988578336993602
13764800 53 18410011065779993427
13897977 13 16732703839776678949
14251764 38 17326889578883738597
14289901 80 16298381353526481217
14341114 328 16732997422213702461
14787075 74 16226907694757392001
14943859 89 18334015016506163042
15309172 13 18261107465752100975
15775835 57 17894625963468794145
17041 50 15985095306221610193
1741750 31 18409727395895620194
17834072 14 11818997400579640875
18186145 218 17132108044141538107
18522851 268 15266474357894121133
19107657 9 18410007698256581681
20645477 56 18336549434021493116
20645477 70 16343157865514636148
20671657 53 14405187270130247120
21524375 3 18040155132056347210
22802520 49 17345746520493362027
22854114 59 15140958465299936696
22926399 65 18202563977636856112
22959321 28 16877660162563385388
23402539 116 18202279174387642456
23402655 69 16988566775175952832
23419403 2 13819527956241334851
23526113 38 17489597765828798894
23557571 272 17764572610105308306
23559900 14 18202281438457451608
24859131 72 11818985296924314848
25 1 17846501404662482523
251288 83 11458718222077357740
2637199 183 18410302380030770344
5161694 15 16558747910106849329
549884 4 17131819946430674281
6442390 28 18341341054298834003
81228 2 17906433769427677819
93112 12 15625933261792992981
9882013 296 16370728136328510113

> <PUBCHEM_SHAPE_MULTIPOLES>
305.55
7.75
1.76
1.66
0.97
0.45
0.12
-3.49
2.53
-1.05
-0.4
0.41
-0.11
0.26

> <PUBCHEM_SHAPE_SELFOVERLAP>
600.387

> <PUBCHEM_SHAPE_VOLUME>
185.3

> <PUBCHEM_COORDINATE_TYPE>
2
5
10

$$$$
