101317837
  -OEChem-03292013293D

 67 73  0     1  0  0  0  0  0999 V2000
   -4.4332   -1.4127    0.7965 O   0  0  0  0  0  0  0  0  0  0  0  0
   -4.9243    0.9142    0.6180 O   0  0  0  0  0  0  0  0  0  0  0  0
   -5.6113   -0.5717   -1.0975 O   0  0  0  0  0  0  0  0  0  0  0  0
    2.0647   -1.7039    0.4293 O   0  0  0  0  0  0  0  0  0  0  0  0
   -1.2089    2.7652   -0.3554 O   0  0  0  0  0  0  0  0  0  0  0  0
   -2.5227    1.7717    2.3166 O   0  0  0  0  0  0  0  0  0  0  0  0
    1.2628    2.7384   -1.0850 O   0  0  0  0  0  0  0  0  0  0  0  0
    6.0380   -1.5411    0.1438 O   0  0  0  0  0  0  0  0  0  0  0  0
    8.0353   -0.9557    1.0580 O   0  0  0  0  0  0  0  0  0  0  0  0
   -2.5919    0.1830    0.5338 C   0  0  2  0  0  0  0  0  0  0  0  0
   -1.1311    0.3474   -0.0640 C   0  0  2  0  0  0  0  0  0  0  0  0
   -3.1438   -1.2432    0.1700 C   0  0  1  0  0  0  0  0  0  0  0  0
   -0.1845   -0.8089    0.3993 C   0  0  2  0  0  0  0  0  0  0  0  0
    1.2482   -0.7032   -0.1973 C   0  0  1  0  0  0  0  0  0  0  0  0
   -3.6578    1.1857   -0.0233 C   0  0  1  0  0  0  0  0  0  0  0  0
    1.9258    0.6740    0.0105 C   0  0  1  0  0  0  0  0  0  0  0  0
   -2.2183   -2.3465    0.6837 C   0  0  0  0  0  0  0  0  0  0  0  0
   -0.7969   -2.2057    0.1521 C   0  0  0  0  0  0  0  0  0  0  0  0
   -3.3852   -1.4086   -1.3563 C   0  0  0  0  0  0  0  0  0  0  0  0
   -0.4651    1.7069    0.2282 C   0  0  1  0  0  0  0  0  0  0  0  0
   -4.3940   -0.3622   -1.8268 C   0  0  2  0  0  0  0  0  0  0  0  0
   -3.8891    1.0516   -1.5334 C   0  0  0  0  0  0  0  0  0  0  0  0
    1.3335   -0.8954   -1.7203 C   0  0  0  0  0  0  0  0  0  0  0  0
    3.1262    0.6419   -0.9945 C   0  0  2  0  0  0  0  0  0  0  0  0
   -2.5589    0.3869    2.0802 C   0  0  0  0  0  0  0  0  0  0  0  0
    0.9316    1.7849   -0.3779 C   0  0  0  0  0  0  0  0  0  0  0  0
   -5.3556   -0.4207    0.3083 C   0  0  1  0  0  0  0  0  0  0  0  0
    2.6799   -0.2968   -2.1323 C   0  0  0  0  0  0  0  0  0  0  0  0
    2.3603    0.9562    1.4589 C   0  0  0  0  0  0  0  0  0  0  0  0
    4.4445    0.1769   -0.4452 C   0  0  0  0  0  0  0  0  0  0  0  0
   -6.6755   -0.6452    1.0315 C   0  0  0  0  0  0  0  0  0  0  0  0
    5.3785    1.1643    0.0298 C   0  0  0  0  0  0  0  0  0  0  0  0
    4.8071   -1.1076   -0.3690 C   0  0  0  0  0  0  0  0  0  0  0  0
    6.5652    0.8030    0.5277 C   0  0  0  0  0  0  0  0  0  0  0  0
    6.9462   -0.6231    0.6019 C   0  0  0  0  0  0  0  0  0  0  0  0
   -1.2242    0.2764   -1.1526 H   0  0  0  0  0  0  0  0  0  0  0  0
   -0.0638   -0.7320    1.4870 H   0  0  0  0  0  0  0  0  0  0  0  0
   -3.4251    2.2288    0.1988 H   0  0  0  0  0  0  0  0  0  0  0  0
   -2.6180   -3.3319    0.4115 H   0  0  0  0  0  0  0  0  0  0  0  0
   -2.2038   -2.3448    1.7810 H   0  0  0  0  0  0  0  0  0  0  0  0
   -0.1745   -2.9727    0.6288 H   0  0  0  0  0  0  0  0  0  0  0  0
   -0.7898   -2.4360   -0.9188 H   0  0  0  0  0  0  0  0  0  0  0  0
   -3.8133   -2.4031   -1.5398 H   0  0  0  0  0  0  0  0  0  0  0  0
   -2.4657   -1.3325   -1.9430 H   0  0  0  0  0  0  0  0  0  0  0  0
   -0.3628    1.9093    1.2959 H   0  0  0  0  0  0  0  0  0  0  0  0
   -4.6102   -0.4829   -2.8927 H   0  0  0  0  0  0  0  0  0  0  0  0
   -2.9871    1.2751   -2.1093 H   0  0  0  0  0  0  0  0  0  0  0  0
   -4.6658    1.7666   -1.8329 H   0  0  0  0  0  0  0  0  0  0  0  0
    0.5322   -0.3747   -2.2534 H   0  0  0  0  0  0  0  0  0  0  0  0
    1.2960   -1.9528   -2.0039 H   0  0  0  0  0  0  0  0  0  0  0  0
    3.2955    1.6293   -1.4433 H   0  0  0  0  0  0  0  0  0  0  0  0
   -1.7004   -0.0812    2.5644 H   0  0  0  0  0  0  0  0  0  0  0  0
   -3.4553   -0.0079    2.5687 H   0  0  0  0  0  0  0  0  0  0  0  0
    3.3868   -1.0757   -2.4314 H   0  0  0  0  0  0  0  0  0  0  0  0
    2.5246    0.2954   -3.0445 H   0  0  0  0  0  0  0  0  0  0  0  0
    3.0807    0.2276    1.8422 H   0  0  0  0  0  0  0  0  0  0  0  0
    1.5090    0.9397    2.1474 H   0  0  0  0  0  0  0  0  0  0  0  0
    2.8114    1.9520    1.5417 H   0  0  0  0  0  0  0  0  0  0  0  0
    1.9391   -1.6465    1.3912 H   0  0  0  0  0  0  0  0  0  0  0  0
   -7.4299    0.0795    0.7064 H   0  0  0  0  0  0  0  0  0  0  0  0
   -7.0656   -1.6495    0.8335 H   0  0  0  0  0  0  0  0  0  0  0  0
   -6.5517   -0.5396    2.1148 H   0  0  0  0  0  0  0  0  0  0  0  0
   -1.2812    2.5936   -1.3097 H   0  0  0  0  0  0  0  0  0  0  0  0
   -2.5046    1.9021    3.2799 H   0  0  0  0  0  0  0  0  0  0  0  0
    5.1075    2.2137   -0.0179 H   0  0  0  0  0  0  0  0  0  0  0  0
    4.2454   -1.9767   -0.6756 H   0  0  0  0  0  0  0  0  0  0  0  0
    7.2733    1.5401    0.8882 H   0  0  0  0  0  0  0  0  0  0  0  0
  1 12  1  0  0  0  0
  1 27  1  0  0  0  0
  2 15  1  0  0  0  0
  2 27  1  0  0  0  0
  3 21  1  0  0  0  0
  3 27  1  0  0  0  0
  4 14  1  0  0  0  0
  4 59  1  0  0  0  0
  5 20  1  0  0  0  0
  5 63  1  0  0  0  0
  6 25  1  0  0  0  0
  6 64  1  0  0  0  0
  7 26  2  0  0  0  0
  8 33  1  0  0  0  0
  8 35  1  0  0  0  0
  9 35  2  0  0  0  0
 10 11  1  0  0  0  0
 10 12  1  0  0  0  0
 10 15  1  0  0  0  0
 10 25  1  0  0  0  0
 11 13  1  0  0  0  0
 11 20  1  0  0  0  0
 11 36  1  0  0  0  0
 12 17  1  0  0  0  0
 12 19  1  0  0  0  0
 13 14  1  0  0  0  0
 13 18  1  0  0  0  0
 13 37  1  0  0  0  0
 14 16  1  0  0  0  0
 14 23  1  0  0  0  0
 15 22  1  0  0  0  0
 15 38  1  0  0  0  0
 16 24  1  0  0  0  0
 16 26  1  0  0  0  0
 16 29  1  0  0  0  0
 17 18  1  0  0  0  0
 17 39  1  0  0  0  0
 17 40  1  0  0  0  0
 18 41  1  0  0  0  0
 18 42  1  0  0  0  0
 19 21  1  0  0  0  0
 19 43  1  0  0  0  0
 19 44  1  0  0  0  0
 20 26  1  0  0  0  0
 20 45  1  0  0  0  0
 21 22  1  0  0  0  0
 21 46  1  0  0  0  0
 22 47  1  0  0  0  0
 22 48  1  0  0  0  0
 23 28  1  0  0  0  0
 23 49  1  0  0  0  0
 23 50  1  0  0  0  0
 24 28  1  0  0  0  0
 24 30  1  0  0  0  0
 24 51  1  0  0  0  0
 25 52  1  0  0  0  0
 25 53  1  0  0  0  0
 27 31  1  0  0  0  0
 28 54  1  0  0  0  0
 28 55  1  0  0  0  0
 29 56  1  0  0  0  0
 29 57  1  0  0  0  0
 29 58  1  0  0  0  0
 30 32  1  0  0  0  0
 30 33  2  0  0  0  0
 31 60  1  0  0  0  0
 31 61  1  0  0  0  0
 31 62  1  0  0  0  0
 32 34  2  0  0  0  0
 32 65  1  0  0  0  0
 33 66  1  0  0  0  0
 34 35  1  0  0  0  0
 34 67  1  0  0  0  0
M  END
> <PUBCHEM_COMPOUND_CID>
101317837

> <PUBCHEM_CONFORMER_RMSD>
0.8

> <PUBCHEM_CONFORMER_DIVERSEORDER>
1
4
2
3

> <PUBCHEM_MMFF94_PARTIAL_CHARGES>
30
1 -0.56
12 0.28
14 0.28
15 0.28
16 0.06
2 -0.56
20 0.34
21 0.28
24 0.14
25 0.28
26 0.45
27 0.84
3 -0.56
30 -0.14
32 -0.15
33 -0.07
34 -0.14
35 0.71
4 -0.68
5 -0.68
59 0.4
6 -0.68
63 0.4
64 0.4
65 0.15
66 0.15
67 0.15
7 -0.57
8 -0.23
9 -0.57

> <PUBCHEM_EFFECTIVE_ROTOR_COUNT>
4.2

> <PUBCHEM_PHARMACOPHORE_FEATURES>
19
1 1 acceptor
1 2 acceptor
1 3 acceptor
1 4 acceptor
1 4 donor
1 5 acceptor
1 5 donor
1 6 acceptor
1 6 donor
1 7 acceptor
1 9 acceptor
5 14 16 23 24 28 rings
6 1 2 10 12 15 27 rings
6 1 3 12 19 21 27 rings
6 10 11 12 13 17 18 rings
6 10 12 15 19 21 22 rings
6 11 13 14 16 20 26 rings
6 2 3 15 21 22 27 rings
6 8 30 32 33 34 35 rings

> <PUBCHEM_HEAVY_ATOM_COUNT>
35

> <PUBCHEM_ATOM_DEF_STEREO_COUNT>
11

> <PUBCHEM_ATOM_UDEF_STEREO_COUNT>
0

> <PUBCHEM_BOND_DEF_STEREO_COUNT>
0

> <PUBCHEM_BOND_UDEF_STEREO_COUNT>
0

> <PUBCHEM_ISOTOPIC_ATOM_COUNT>
0

> <PUBCHEM_COMPONENT_COUNT>
1

> <PUBCHEM_CACTVS_TAUTO_COUNT>
1

> <PUBCHEM_CONFORMER_ID>
0609FCCD00000001

> <PUBCHEM_MMFF94_ENERGY>
139.8194

> <PUBCHEM_FEATURE_SELFOVERLAP>
110.602

> <PUBCHEM_SHAPE_FINGERPRINT>
10 15 17131826591430831370
10675989 125 16820503961870877925
10906281 52 18270700747617131596
10930396 42 18192684892264822416
11135926 11 18410004404017101071
11315181 36 18131067155787529016
11456790 92 18335152990172983761
11646440 116 18411991272919971673
12107698 1 16630524042110939760
12166972 35 17530688735719496780
12236239 1 18060143145938290681
12516196 113 18408884044907765588
12788726 201 18270960142304643481
13140716 1 18193565681575000000
13224815 77 18131074844153405325
13631057 29 14907882921260907557
13782708 43 17917720055055832254
13811026 1 18408881819602932118
14068700 675 17703783764848906889
14394314 77 18338519629672677129
14849402 71 16486399023535575072
15131766 46 15868626316262491757
15183329 4 13479131285733414344
15788980 27 17821734944233583398
15849732 13 17385722508827914998
17349148 13 18272374191176600901
17980427 23 17917439734623821096
18608769 82 18260551177763019747
19377110 9 17203331091800812522
20511986 3 18272362049288107358
20775438 99 16475110518031938447
21033648 29 17749656476428224621
21236236 1 18342738481541965144
21267235 1 18333739021712588619
23198884 109 14851605483570956149
23402539 116 18412260636310239180
23559900 14 18267859656541681960
23569917 315 18335427871827249226
3004659 81 17749107799378621108
3178227 256 18261689142031984779
32027 91 16913148940728678910
335352 9 18335139816732514535
3383291 50 18187086173759218091
34797466 226 16200442390021951760
392239 28 17060339647441997216
4015057 19 18339917241958240945
5104073 3 17417260805890866866
5265222 85 14924243646082702042
57527293 21 16517974777065960123
59755656 215 18187925041739958046
7226269 152 18333729122139882516

> <PUBCHEM_SHAPE_MULTIPOLES>
667.46
15.77
2.15
1.61
15.88
0.41
-0.14
-3.52
2.89
-0.25
0.05
-0.92
0.16
-0.28

> <PUBCHEM_SHAPE_SELFOVERLAP>
1497.859

> <PUBCHEM_SHAPE_VOLUME>
346.3

> <PUBCHEM_COORDINATE_TYPE>
2
5
10

$$$$
