101344358
  -OEChem-03292013293D

 45 47  0     1  0  0  0  0  0999 V2000
    0.7591   -0.5393   -1.7875 O   0  0  0  0  0  0  0  0  0  0  0  0
    1.4770   -1.6954    2.1672 O   0  0  0  0  0  0  0  0  0  0  0  0
   -0.9775   -2.0486   -2.0266 O   0  0  0  0  0  0  0  0  0  0  0  0
    1.5542    2.4881    0.0471 O   0  0  0  0  0  0  0  0  0  0  0  0
   -1.7103    0.8023   -1.5498 O   0  0  0  0  0  0  0  0  0  0  0  0
    0.5873    2.2247   -1.9578 O   0  0  0  0  0  0  0  0  0  0  0  0
   -2.9124    1.8518    0.8882 O   0  0  0  0  0  0  0  0  0  0  0  0
    0.1214   -1.9444    0.1265 C   0  0  2  0  0  0  0  0  0  0  0  0
    2.1077   -0.3367    0.2845 C   0  0  1  0  0  0  0  0  0  0  0  0
    0.9404   -0.9924    1.0458 C   0  0  2  0  0  0  0  0  0  0  0  0
   -0.3386   -1.1380   -1.1140 C   0  0  1  0  0  0  0  0  0  0  0  0
    1.6494    0.2781   -1.0358 C   0  0  2  0  0  0  0  0  0  0  0  0
    2.8716    0.6947    1.1341 C   0  0  2  0  0  0  0  0  0  0  0  0
   -1.1138   -2.5214    0.8655 C   0  0  0  0  0  0  0  0  0  0  0  0
    0.9873   -3.1608   -0.2997 C   0  0  0  0  0  0  0  0  0  0  0  0
   -1.4794   -0.1551   -0.8105 C   0  0  0  0  0  0  0  0  0  0  0  0
    2.0213    1.9456    1.2952 C   0  0  0  0  0  0  0  0  0  0  0  0
    1.1859    1.7253   -1.0066 C   0  0  0  0  0  0  0  0  0  0  0  0
   -2.1957   -1.5140    1.0935 C   0  0  0  0  0  0  0  0  0  0  0  0
   -2.3784   -0.4105    0.3562 C   0  0  0  0  0  0  0  0  0  0  0  0
    4.2330    1.0440    0.5180 C   0  0  0  0  0  0  0  0  0  0  0  0
   -3.4707    0.5778    0.6207 C   0  0  0  0  0  0  0  0  0  0  0  0
   -3.9188    2.8242    1.1459 C   0  0  0  0  0  0  0  0  0  0  0  0
    2.8205   -1.1416    0.0573 H   0  0  0  0  0  0  0  0  0  0  0  0
    0.2877   -0.2110    1.4478 H   0  0  0  0  0  0  0  0  0  0  0  0
    2.5472    0.3354   -1.6672 H   0  0  0  0  0  0  0  0  0  0  0  0
    3.0752    0.2810    2.1294 H   0  0  0  0  0  0  0  0  0  0  0  0
   -0.8150   -2.9440    1.8315 H   0  0  0  0  0  0  0  0  0  0  0  0
   -1.5537   -3.3535    0.3002 H   0  0  0  0  0  0  0  0  0  0  0  0
    1.8387   -2.8662   -0.9207 H   0  0  0  0  0  0  0  0  0  0  0  0
    0.4048   -3.8816   -0.8849 H   0  0  0  0  0  0  0  0  0  0  0  0
    1.3763   -3.6990    0.5716 H   0  0  0  0  0  0  0  0  0  0  0  0
    1.1445    1.7646    1.9253 H   0  0  0  0  0  0  0  0  0  0  0  0
    2.5987    2.7347    1.7899 H   0  0  0  0  0  0  0  0  0  0  0  0
   -2.8735   -1.7206    1.9183 H   0  0  0  0  0  0  0  0  0  0  0  0
    4.8384    0.1420    0.3800 H   0  0  0  0  0  0  0  0  0  0  0  0
    4.7889    1.7166    1.1804 H   0  0  0  0  0  0  0  0  0  0  0  0
    4.1390    1.5423   -0.4515 H   0  0  0  0  0  0  0  0  0  0  0  0
    0.7468   -1.8750    2.7824 H   0  0  0  0  0  0  0  0  0  0  0  0
   -1.3772   -1.5224   -2.7402 H   0  0  0  0  0  0  0  0  0  0  0  0
   -4.0814    0.2645    1.4764 H   0  0  0  0  0  0  0  0  0  0  0  0
   -4.1289    0.6367   -0.2551 H   0  0  0  0  0  0  0  0  0  0  0  0
   -3.4290    3.7820    1.3401 H   0  0  0  0  0  0  0  0  0  0  0  0
   -4.5042    2.5456    2.0274 H   0  0  0  0  0  0  0  0  0  0  0  0
   -4.5742    2.9364    0.2768 H   0  0  0  0  0  0  0  0  0  0  0  0
  1 11  1  0  0  0  0
  1 12  1  0  0  0  0
  2 10  1  0  0  0  0
  2 39  1  0  0  0  0
  3 11  1  0  0  0  0
  3 40  1  0  0  0  0
  4 17  1  0  0  0  0
  4 18  1  0  0  0  0
  5 16  2  0  0  0  0
  6 18  2  0  0  0  0
  7 22  1  0  0  0  0
  7 23  1  0  0  0  0
  8 10  1  0  0  0  0
  8 11  1  0  0  0  0
  8 14  1  0  0  0  0
  8 15  1  0  0  0  0
  9 10  1  0  0  0  0
  9 12  1  0  0  0  0
  9 13  1  0  0  0  0
  9 24  1  0  0  0  0
 10 25  1  0  0  0  0
 11 16  1  0  0  0  0
 12 18  1  0  0  0  0
 12 26  1  0  0  0  0
 13 17  1  0  0  0  0
 13 21  1  0  0  0  0
 13 27  1  0  0  0  0
 14 19  1  0  0  0  0
 14 28  1  0  0  0  0
 14 29  1  0  0  0  0
 15 30  1  0  0  0  0
 15 31  1  0  0  0  0
 15 32  1  0  0  0  0
 16 20  1  0  0  0  0
 17 33  1  0  0  0  0
 17 34  1  0  0  0  0
 19 20  2  0  0  0  0
 19 35  1  0  0  0  0
 20 22  1  0  0  0  0
 21 36  1  0  0  0  0
 21 37  1  0  0  0  0
 21 38  1  0  0  0  0
 22 41  1  0  0  0  0
 22 42  1  0  0  0  0
 23 43  1  0  0  0  0
 23 44  1  0  0  0  0
 23 45  1  0  0  0  0
M  END
> <PUBCHEM_COMPOUND_CID>
101344358

> <PUBCHEM_CONFORMER_RMSD>
0.6

> <PUBCHEM_CONFORMER_DIVERSEORDER>
1
8
12
3
15
7
2
4
13
11
5
9
10
6
14

> <PUBCHEM_MMFF94_PARTIAL_CHARGES>
21
1 -0.56
10 0.28
11 0.62
12 0.34
14 0.14
16 0.49
17 0.28
18 0.66
19 -0.29
2 -0.68
20 -0.12
22 0.42
23 0.28
3 -0.68
35 0.15
39 0.4
4 -0.43
40 0.4
5 -0.57
6 -0.57
7 -0.56

> <PUBCHEM_EFFECTIVE_ROTOR_COUNT>
3.2

> <PUBCHEM_PHARMACOPHORE_FEATURES>
11
1 1 acceptor
1 2 acceptor
1 2 donor
1 3 acceptor
1 3 donor
1 5 acceptor
1 6 acceptor
1 7 acceptor
6 1 8 9 10 11 12 rings
6 4 9 12 13 17 18 rings
6 8 11 14 16 19 20 rings

> <PUBCHEM_HEAVY_ATOM_COUNT>
23

> <PUBCHEM_ATOM_DEF_STEREO_COUNT>
6

> <PUBCHEM_ATOM_UDEF_STEREO_COUNT>
0

> <PUBCHEM_BOND_DEF_STEREO_COUNT>
0

> <PUBCHEM_BOND_UDEF_STEREO_COUNT>
0

> <PUBCHEM_ISOTOPIC_ATOM_COUNT>
0

> <PUBCHEM_COMPONENT_COUNT>
1

> <PUBCHEM_CACTVS_TAUTO_COUNT>
3

> <PUBCHEM_CONFORMER_ID>
060A646600000001

> <PUBCHEM_MMFF94_ENERGY>
66.2713

> <PUBCHEM_FEATURE_SELFOVERLAP>
56.03

> <PUBCHEM_SHAPE_FINGERPRINT>
10382601 240 18115590331615614712
10863032 1 16845849092232933510
10948715 1 18273496766773332384
11640471 11 17631999854764285905
12011746 2 17968362515988822751
12077114 3 18059576944283423208
121448 382 10303549311556400324
12422481 6 18045483232956695128
12491281 212 17987507268665839780
12633257 1 17458068161821813793
13134695 92 17550671015461877871
13140716 1 17897731091859105665
13299463 15 10519714418019975790
13464514 151 18128550270671300128
13965767 371 18190462649598448545
14178342 30 18261967296898677051
144361 1 10230111829955809574
14787075 74 15734901783356151707
14817 1 18050867789962918591
15664445 248 15965983964865438830
15881359 60 16449223555388346442
16945 1 17476371967822431855
17859628 37 18121221978739061361
18981168 100 17201666516842342139
19930381 70 15531636224122923968
20775530 9 11241963768122045065
21041028 32 17404301798141353746
21330990 113 18264497191723923126
21524375 3 18131075977919289347
21731228 192 18411702118589026507
23419403 2 15902897723873813690
238 59 10229739074456226345
2748010 2 17679570147751022231
427121 178 18263945258055719729
568465 68 16226314980575257392
6992083 37 18118947321183104318

> <PUBCHEM_SHAPE_MULTIPOLES>
432.24
5.11
3.34
1.81
1.11
0.11
-0.42
-4.07
2.3
0.95
0.36
-0.16
0.04
-0.5

> <PUBCHEM_SHAPE_SELFOVERLAP>
921.58

> <PUBCHEM_SHAPE_VOLUME>
231.7

> <PUBCHEM_COORDINATE_TYPE>
2
5
10

$$$$
