10134240
  -OEChem-03292013303D

 42 46  0     1  0  0  0  0  0999 V2000
   -2.0175   -0.6280   -0.1949 O   0  0  0  0  0  0  0  0  0  0  0  0
    2.5702   -2.0166   -0.1228 O   0  0  0  0  0  0  0  0  0  0  0  0
    1.6589    2.5470    0.0442 O   0  0  0  0  0  0  0  0  0  0  0  0
   -0.7982    3.2843   -0.0939 O   0  0  0  0  0  0  0  0  0  0  0  0
    6.9492    1.2306    0.1839 O   0  0  0  0  0  0  0  0  0  0  0  0
    7.3584   -1.5023    0.0693 O   0  0  0  0  0  0  0  0  0  0  0  0
   -8.2551   -1.2375   -0.1393 O   0  0  0  0  0  0  0  0  0  0  0  0
   -2.8540    0.3863    0.3814 C   0  0  1  0  0  0  0  0  0  0  0  0
   -2.6163    1.7347   -0.2933 C   0  0  0  0  0  0  0  0  0  0  0  0
   -0.2021    0.9983   -0.0803 C   0  0  0  0  0  0  0  0  0  0  0  0
    2.0741    0.1878   -0.0335 C   0  0  0  0  0  0  0  0  0  0  0  0
   -0.6805   -0.3165   -0.1396 C   0  0  0  0  0  0  0  0  0  0  0  0
   -1.1688    2.1168   -0.1281 C   0  0  0  0  0  0  0  0  0  0  0  0
    1.1744    1.2708   -0.0196 C   0  0  0  0  0  0  0  0  0  0  0  0
    1.5604   -1.1023   -0.1142 C   0  0  0  0  0  0  0  0  0  0  0  0
    3.4921    0.0436    0.0087 C   0  0  0  0  0  0  0  0  0  0  0  0
    0.2004   -1.4027   -0.1760 C   0  0  0  0  0  0  0  0  0  0  0  0
   -4.2979   -0.0475    0.2421 C   0  0  0  0  0  0  0  0  0  0  0  0
    3.7405   -1.3242   -0.0480 C   0  0  0  0  0  0  0  0  0  0  0  0
    4.5901    0.9200    0.0882 C   0  0  0  0  0  0  0  0  0  0  0  0
    5.0147   -1.8890   -0.0305 C   0  0  0  0  0  0  0  0  0  0  0  0
   -5.0666   -0.2857    1.3807 C   0  0  0  0  0  0  0  0  0  0  0  0
   -4.8577   -0.2087   -1.0250 C   0  0  0  0  0  0  0  0  0  0  0  0
    5.8838    0.3813    0.1072 C   0  0  0  0  0  0  0  0  0  0  0  0
    6.0896   -0.9990    0.0490 C   0  0  0  0  0  0  0  0  0  0  0  0
   -6.3966   -0.6857    1.2524 C   0  0  0  0  0  0  0  0  0  0  0  0
   -6.1878   -0.6086   -1.1534 C   0  0  0  0  0  0  0  0  0  0  0  0
   -6.9574   -0.8471   -0.0147 C   0  0  0  0  0  0  0  0  0  0  0  0
   -2.6047    0.4575    1.4506 H   0  0  0  0  0  0  0  0  0  0  0  0
   -2.8167    1.7111   -1.3703 H   0  0  0  0  0  0  0  0  0  0  0  0
   -3.2419    2.5075    0.1673 H   0  0  0  0  0  0  0  0  0  0  0  0
   -0.1513   -2.4264   -0.2353 H   0  0  0  0  0  0  0  0  0  0  0  0
    4.4351    1.9940    0.1339 H   0  0  0  0  0  0  0  0  0  0  0  0
    5.1609   -2.9621   -0.0767 H   0  0  0  0  0  0  0  0  0  0  0  0
   -4.6443   -0.1643    2.3746 H   0  0  0  0  0  0  0  0  0  0  0  0
   -4.2717   -0.0394   -1.9241 H   0  0  0  0  0  0  0  0  0  0  0  0
    0.9367    3.1843    0.1464 H   0  0  0  0  0  0  0  0  0  0  0  0
   -6.9911   -0.8701    2.1431 H   0  0  0  0  0  0  0  0  0  0  0  0
   -6.6120   -0.7334   -2.1461 H   0  0  0  0  0  0  0  0  0  0  0  0
    6.6235    2.1464    0.2160 H   0  0  0  0  0  0  0  0  0  0  0  0
    7.9821   -0.7576    0.1261 H   0  0  0  0  0  0  0  0  0  0  0  0
   -8.4763   -1.2985   -1.0846 H   0  0  0  0  0  0  0  0  0  0  0  0
  1  8  1  0  0  0  0
  1 12  1  0  0  0  0
  2 15  1  0  0  0  0
  2 19  1  0  0  0  0
  3 14  1  0  0  0  0
  3 37  1  0  0  0  0
  4 13  2  0  0  0  0
  5 24  1  0  0  0  0
  5 40  1  0  0  0  0
  6 25  1  0  0  0  0
  6 41  1  0  0  0  0
  7 28  1  0  0  0  0
  7 42  1  0  0  0  0
  8  9  1  0  0  0  0
  8 18  1  0  0  0  0
  8 29  1  0  0  0  0
  9 13  1  0  0  0  0
  9 30  1  0  0  0  0
  9 31  1  0  0  0  0
 10 12  2  0  0  0  0
 10 13  1  0  0  0  0
 10 14  1  0  0  0  0
 11 14  2  0  0  0  0
 11 15  1  0  0  0  0
 11 16  1  0  0  0  0
 12 17  1  0  0  0  0
 15 17  2  0  0  0  0
 16 19  1  0  0  0  0
 16 20  2  0  0  0  0
 17 32  1  0  0  0  0
 18 22  2  0  0  0  0
 18 23  1  0  0  0  0
 19 21  2  0  0  0  0
 20 24  1  0  0  0  0
 20 33  1  0  0  0  0
 21 25  1  0  0  0  0
 21 34  1  0  0  0  0
 22 26  1  0  0  0  0
 22 35  1  0  0  0  0
 23 27  2  0  0  0  0
 23 36  1  0  0  0  0
 24 25  2  0  0  0  0
 26 28  2  0  0  0  0
 26 38  1  0  0  0  0
 27 28  1  0  0  0  0
 27 39  1  0  0  0  0
M  END
> <PUBCHEM_COMPOUND_CID>
10134240

> <PUBCHEM_CONFORMER_RMSD>
0.6

> <PUBCHEM_CONFORMER_DIVERSEORDER>
1
4
3
2

> <PUBCHEM_MMFF94_PARTIAL_CHARGES>
37
1 -0.36
10 0.09
12 0.08
13 0.42
14 0.08
15 0.14
17 -0.15
18 -0.14
19 0.14
2 -0.28
20 -0.15
21 -0.15
22 -0.15
23 -0.15
24 0.08
25 0.08
26 -0.15
27 -0.15
28 0.08
3 -0.53
32 0.15
33 0.15
34 0.15
35 0.15
36 0.15
37 0.45
38 0.15
39 0.15
4 -0.57
40 0.45
41 0.45
42 0.45
5 -0.53
6 -0.53
7 -0.53
8 0.42
9 0.06

> <PUBCHEM_EFFECTIVE_ROTOR_COUNT>
1.6

> <PUBCHEM_PHARMACOPHORE_FEATURES>
12
1 1 acceptor
1 2 acceptor
1 3 donor
1 4 acceptor
1 5 donor
1 6 donor
1 7 donor
5 2 11 15 16 19 rings
6 1 8 9 10 12 13 rings
6 10 11 12 14 15 17 rings
6 16 19 20 21 24 25 rings
6 18 22 23 26 27 28 rings

> <PUBCHEM_HEAVY_ATOM_COUNT>
28

> <PUBCHEM_ATOM_DEF_STEREO_COUNT>
1

> <PUBCHEM_ATOM_UDEF_STEREO_COUNT>
0

> <PUBCHEM_BOND_DEF_STEREO_COUNT>
0

> <PUBCHEM_BOND_UDEF_STEREO_COUNT>
0

> <PUBCHEM_ISOTOPIC_ATOM_COUNT>
0

> <PUBCHEM_COMPONENT_COUNT>
1

> <PUBCHEM_CACTVS_TAUTO_COUNT>
160

> <PUBCHEM_CONFORMER_ID>
009AA2E000000001

> <PUBCHEM_MMFF94_ENERGY>
74.3978

> <PUBCHEM_FEATURE_SELFOVERLAP>
61.136

> <PUBCHEM_SHAPE_FINGERPRINT>
10 15 18260824943431254416
10050765 1 18050285873370451966
10076449 9 18202006508805190912
10299344 5 17775286070928196615
11315181 36 15430043158519768231
11796584 16 16660367012740192123
11963148 33 18408878546912946147
12166972 35 18409168818008370692
12236239 1 17846782914679225171
12516196 113 18412262844050140057
12623949 98 17773889601351938566
12760667 363 18410013226301387337
13685833 64 18408042922838976947
13862211 1 18411700980274967271
14170010 4 18410291445302685808
14251764 18 17988925586841376107
1454969 45 18413671318102481990
14840074 17 18202560687528241039
14849402 71 17703226346655484888
14856354 85 16271924943878664877
15131766 46 14187854589781840578
15196674 1 18338797802156594708
15419008 47 17603579742908725565
15716309 27 18202565073038106623
15927050 60 17693940000612597052
16087824 20 18265894650262337005
17492 89 18049722923913546018
19489759 90 16298386847211379527
20028762 73 18273495667352252687
21049683 271 18337393837319553100
21130935 74 18272653398495475698
21236236 1 18339924810191594377
21267235 1 18412267199489928118
21521721 280 18202002170460980458
21623969 137 18410298003754962415
21641784 216 18114479863321091004
21792934 111 18340476807551188808
21792961 116 18041552547490892423
22149856 69 18272379628747707464
22224240 67 17846777420931179102
22311459 1 18411701006630307526
23522609 53 18127159482889251473
23559900 14 18188770673223389609
283562 15 18263082124358965505
3004659 81 17822008717991261681
3178227 256 18409458007131057971
335352 9 18410858793735115774
34797466 226 17203332234773952764
350125 39 18342176652453961681
4093350 32 15698000786702963464
4325135 7 18201719556743098631
4340502 62 17095240324336049706
44880568 143 16877660136957106309
465052 167 18341617031389916487
50009960 94 17536579722007727914
5104073 3 18267863887590630752
5385378 56 10231767677250896269
57527295 17 17896577550603185631
59682541 35 18341330084561457114
5969126 39 18409162182795439229
59755656 215 18259703380544958442
6691757 9 16415483771225269175
9663363 56 18409161109095286683

> <PUBCHEM_SHAPE_MULTIPOLES>
535.14
19.68
2.2
0.84
7.2
1.31
-0.07
-8.88
-1.04
-1.33
0.1
1.3
-0.1
0.17

> <PUBCHEM_SHAPE_SELFOVERLAP>
1227.648

> <PUBCHEM_SHAPE_VOLUME>
276.6

> <PUBCHEM_COORDINATE_TYPE>
2
5
10

$$$$
