101316758
  -OEChem-03292013293D

 52 56  0     1  0  0  0  0  0999 V2000
   -0.8040   -2.5975   -1.8655 O   0  0  0  0  0  0  0  0  0  0  0  0
    0.8588   -2.2001    1.8228 O   0  0  0  0  0  0  0  0  0  0  0  0
   -0.2319    1.7027   -0.7984 O   0  0  0  0  0  0  0  0  0  0  0  0
   -1.7749   -2.0128    1.5639 O   0  0  0  0  0  0  0  0  0  0  0  0
    1.5159    0.1766   -2.4219 O   0  0  0  0  0  0  0  0  0  0  0  0
    3.0804   -0.5949    1.1031 O   0  0  0  0  0  0  0  0  0  0  0  0
   -2.4249   -3.5013   -0.5615 O   0  0  0  0  0  0  0  0  0  0  0  0
   -1.6879    0.8435    1.8989 O   0  0  0  0  0  0  0  0  0  0  0  0
    4.4485    2.8259   -0.8124 O   0  0  0  0  0  0  0  0  0  0  0  0
    5.2230   -1.1249    1.6457 O   0  0  0  0  0  0  0  0  0  0  0  0
    0.4539   -1.6181    0.5985 C   0  0  2  0  0  0  0  0  0  0  0  0
   -0.1496    0.2979   -0.6348 C   0  0  1  0  0  0  0  0  0  0  0  0
    0.7445   -0.0968    0.5620 C   0  0  2  0  0  0  0  0  0  0  0  0
   -1.0943   -1.6902    0.3649 C   0  0  2  0  0  0  0  0  0  0  0  0
   -1.5029   -0.2976   -0.1861 C   0  0  1  0  0  0  0  0  0  0  0  0
    0.2796   -0.3809   -1.9734 C   0  0  2  0  0  0  0  0  0  0  0  0
    1.1805   -2.3180   -0.5607 C   0  0  0  0  0  0  0  0  0  0  0  0
    0.4723   -1.9113   -1.8504 C   0  0  1  0  0  0  0  0  0  0  0  0
   -1.5048   -2.7029   -0.6989 C   0  0  0  0  0  0  0  0  0  0  0  0
    2.1850    0.3021    0.4702 C   0  0  0  0  0  0  0  0  0  0  0  0
   -2.2090    0.5770    0.8185 C   0  0  0  0  0  0  0  0  0  0  0  0
    2.6224    1.4063   -0.1485 C   0  0  0  0  0  0  0  0  0  0  0  0
   -3.5560    1.1207    0.4856 C   0  0  0  0  0  0  0  0  0  0  0  0
    4.0320    1.6820   -0.1674 C   0  0  0  0  0  0  0  0  0  0  0  0
    4.4297   -0.3622    1.1040 C   0  0  0  0  0  0  0  0  0  0  0  0
   -4.6129    0.2508    0.2172 C   0  0  0  0  0  0  0  0  0  0  0  0
   -3.7601    2.4998    0.4440 C   0  0  0  0  0  0  0  0  0  0  0  0
    4.9039    0.8573    0.4197 C   0  0  0  0  0  0  0  0  0  0  0  0
   -5.8739    0.7602   -0.0929 C   0  0  0  0  0  0  0  0  0  0  0  0
   -5.0210    3.0093    0.1339 C   0  0  0  0  0  0  0  0  0  0  0  0
   -6.0779    2.1394   -0.1346 C   0  0  0  0  0  0  0  0  0  0  0  0
    5.8557    2.9583   -0.7454 C   0  0  0  0  0  0  0  0  0  0  0  0
    0.4267    0.3546    1.5060 H   0  0  0  0  0  0  0  0  0  0  0  0
   -2.1641   -0.3764   -1.0596 H   0  0  0  0  0  0  0  0  0  0  0  0
   -0.4669   -0.1511   -2.7435 H   0  0  0  0  0  0  0  0  0  0  0  0
    1.1267   -3.4063   -0.4205 H   0  0  0  0  0  0  0  0  0  0  0  0
    2.2471   -2.0863   -0.6121 H   0  0  0  0  0  0  0  0  0  0  0  0
    1.0394   -2.2976   -2.7047 H   0  0  0  0  0  0  0  0  0  0  0  0
    1.8242   -2.1132    1.8951 H   0  0  0  0  0  0  0  0  0  0  0  0
   -0.3564    2.1117    0.0745 H   0  0  0  0  0  0  0  0  0  0  0  0
   -2.7309   -1.9639    1.3946 H   0  0  0  0  0  0  0  0  0  0  0  0
    1.7179   -0.2137   -3.2892 H   0  0  0  0  0  0  0  0  0  0  0  0
    1.9887    2.1412   -0.6216 H   0  0  0  0  0  0  0  0  0  0  0  0
   -4.4697   -0.8258    0.2478 H   0  0  0  0  0  0  0  0  0  0  0  0
   -2.9432    3.1867    0.6498 H   0  0  0  0  0  0  0  0  0  0  0  0
    5.9795    0.9702    0.4639 H   0  0  0  0  0  0  0  0  0  0  0  0
   -6.6970    0.0830   -0.3015 H   0  0  0  0  0  0  0  0  0  0  0  0
   -5.1799    4.0831    0.1010 H   0  0  0  0  0  0  0  0  0  0  0  0
   -7.0597    2.5361   -0.3760 H   0  0  0  0  0  0  0  0  0  0  0  0
    6.1073    3.8841   -1.2763 H   0  0  0  0  0  0  0  0  0  0  0  0
    6.3821    2.1612   -1.2844 H   0  0  0  0  0  0  0  0  0  0  0  0
    6.2192    3.1022    0.2794 H   0  0  0  0  0  0  0  0  0  0  0  0
  1 18  1  0  0  0  0
  1 19  1  0  0  0  0
  2 11  1  0  0  0  0
  2 39  1  0  0  0  0
  3 12  1  0  0  0  0
  3 40  1  0  0  0  0
  4 14  1  0  0  0  0
  4 41  1  0  0  0  0
  5 16  1  0  0  0  0
  5 42  1  0  0  0  0
  6 20  1  0  0  0  0
  6 25  1  0  0  0  0
  7 19  2  0  0  0  0
  8 21  2  0  0  0  0
  9 24  1  0  0  0  0
  9 32  1  0  0  0  0
 10 25  2  0  0  0  0
 11 13  1  0  0  0  0
 11 14  1  0  0  0  0
 11 17  1  0  0  0  0
 12 13  1  0  0  0  0
 12 15  1  0  0  0  0
 12 16  1  0  0  0  0
 13 20  1  0  0  0  0
 13 33  1  0  0  0  0
 14 15  1  0  0  0  0
 14 19  1  0  0  0  0
 15 21  1  0  0  0  0
 15 34  1  0  0  0  0
 16 18  1  0  0  0  0
 16 35  1  0  0  0  0
 17 18  1  0  0  0  0
 17 36  1  0  0  0  0
 17 37  1  0  0  0  0
 18 38  1  0  0  0  0
 20 22  2  0  0  0  0
 21 23  1  0  0  0  0
 22 24  1  0  0  0  0
 22 43  1  0  0  0  0
 23 26  2  0  0  0  0
 23 27  1  0  0  0  0
 24 28  2  0  0  0  0
 25 28  1  0  0  0  0
 26 29  1  0  0  0  0
 26 44  1  0  0  0  0
 27 30  2  0  0  0  0
 27 45  1  0  0  0  0
 28 46  1  0  0  0  0
 29 31  2  0  0  0  0
 29 47  1  0  0  0  0
 30 31  1  0  0  0  0
 30 48  1  0  0  0  0
 31 49  1  0  0  0  0
 32 50  1  0  0  0  0
 32 51  1  0  0  0  0
 32 52  1  0  0  0  0
M  END
> <PUBCHEM_COMPOUND_CID>
101316758

> <PUBCHEM_CONFORMER_RMSD>
0.8

> <PUBCHEM_CONFORMER_DIVERSEORDER>
1
11
10
7
9
2
4
6
5
8
3

> <PUBCHEM_MMFF94_PARTIAL_CHARGES>
42
1 -0.43
10 -0.57
11 0.28
12 0.28
13 0.14
14 0.34
15 0.06
16 0.28
18 0.28
19 0.66
2 -0.68
20 -0.06
21 0.42
22 -0.15
23 0.09
24 0.08
25 0.71
26 -0.15
27 -0.15
28 -0.14
29 -0.15
3 -0.68
30 -0.15
31 -0.15
32 0.28
39 0.4
4 -0.68
40 0.4
41 0.4
42 0.4
43 0.15
44 0.15
45 0.15
46 0.15
47 0.15
48 0.15
49 0.15
5 -0.68
6 -0.23
7 -0.57
8 -0.57
9 -0.36

> <PUBCHEM_EFFECTIVE_ROTOR_COUNT>
5

> <PUBCHEM_PHARMACOPHORE_FEATURES>
15
1 10 acceptor
1 2 acceptor
1 2 donor
1 3 acceptor
1 3 donor
1 4 acceptor
1 4 donor
1 5 acceptor
1 5 donor
1 7 acceptor
1 8 acceptor
1 9 acceptor
10 1 11 12 13 14 15 16 17 18 19 rings
6 23 26 27 29 30 31 rings
6 6 20 22 24 25 28 rings

> <PUBCHEM_HEAVY_ATOM_COUNT>
32

> <PUBCHEM_ATOM_DEF_STEREO_COUNT>
7

> <PUBCHEM_ATOM_UDEF_STEREO_COUNT>
0

> <PUBCHEM_BOND_DEF_STEREO_COUNT>
0

> <PUBCHEM_BOND_UDEF_STEREO_COUNT>
0

> <PUBCHEM_ISOTOPIC_ATOM_COUNT>
0

> <PUBCHEM_COMPONENT_COUNT>
1

> <PUBCHEM_CACTVS_TAUTO_COUNT>
6

> <PUBCHEM_CONFORMER_ID>
0609F89600000001

> <PUBCHEM_MMFF94_ENERGY>
138.3207

> <PUBCHEM_FEATURE_SELFOVERLAP>
76.163

> <PUBCHEM_SHAPE_FINGERPRINT>
10675989 125 17690843364048070969
10764073 3 16811778310548086149
10863032 1 18341044224481425194
10906281 52 18272104776959090497
10948715 1 18411702071381517131
11115154 58 17618203445306646079
11578080 2 17414475858474559206
11763715 3 17401775610221251998
12107183 9 18335974260770710442
12422481 6 17385721353297200533
12553582 1 11819282182217329584
12597179 24 17703793613008495959
12633257 1 18114733863850320834
12760667 363 8286210413792491801
12788726 201 18053377979320273302
13140716 1 18187082866981929130
13540713 5 18262786489159870994
13583140 156 18042980949922709305
13911987 19 18202290212443440097
14142880 1 18263074590543112636
14294032 229 18130796711262955747
14790565 3 18409449167661581661
15131766 46 16082792545679627972
15163728 17 18059592247188777185
15219462 58 17975414934589422770
15840311 113 18186518774678119749
16945 1 17416400094318446726
173720 79 18272921704996422530
17980427 23 18113624503999932085
1813 80 11891341945234599969
20197701 30 18271518698437552507
21403212 168 18264757775589257712
21452121 103 18268709398909909559
22182313 1 18128563555353910399
22950370 63 9439396935103477961
23559900 14 17844811382355534535
23569917 315 18272932679034483919
25147074 1 18262505014124897730
2838139 119 18201427082487362425
3411729 13 18337392630316892793
4340502 62 18202282460063627285
44802255 64 17558562545981129852
474 4 18341614755088859041
5104073 3 17895746430991341344
5171179 24 17413861369409497441
7808743 9 18339924912848816281
9999458 23 18114181878811353330

> <PUBCHEM_SHAPE_MULTIPOLES>
599.85
11.4
3.61
1.62
1.5
0.52
-0.31
-12.2
1.51
0.61
-0.8
-0.92
0.75
-1.35

> <PUBCHEM_SHAPE_SELFOVERLAP>
1349.992

> <PUBCHEM_SHAPE_VOLUME>
311.2

> <PUBCHEM_COORDINATE_TYPE>
2
5
10

$$$$
