101316891
  -OEChem-03292013293D

 76 77  0     1  0  0  0  0  0999 V2000
    1.3687   -0.2311   -0.3012 O   0  0  0  0  0  0  0  0  0  0  0  0
    2.6035    0.1986   -2.1952 O   0  0  0  0  0  0  0  0  0  0  0  0
   -1.4334    0.6016   -2.2483 O   0  0  0  0  0  0  0  0  0  0  0  0
    2.2067    1.7990    2.3817 O   0  0  0  0  0  0  0  0  0  0  0  0
   -2.6673    2.7234    0.9271 O   0  0  0  0  0  0  0  0  0  0  0  0
    1.1717    2.2296    0.3493 N   0  0  0  0  0  0  0  0  0  0  0  0
   -1.9058   -0.5184   -0.2710 N   0  0  0  0  0  0  0  0  0  0  0  0
   -1.0581    1.2268    1.6605 N   0  0  0  0  0  0  0  0  0  0  0  0
    0.8683   -1.5333   -0.6861 C   0  0  2  0  0  0  0  0  0  0  0  0
    1.9836   -2.5038   -1.0578 C   0  0  0  0  0  0  0  0  0  0  0  0
    2.2931    1.9480   -0.5396 C   0  0  2  0  0  0  0  0  0  0  0  0
    3.0505   -2.6493    0.0279 C   0  0  0  0  0  0  0  0  0  0  0  0
    2.3752    3.0072   -1.6282 C   0  0  0  0  0  0  0  0  0  0  0  0
   -0.2040   -1.4055   -1.7735 C   0  0  0  0  0  0  0  0  0  0  0  0
    2.4926    4.4421   -1.0845 C   0  0  0  0  0  0  0  0  0  0  0  0
    4.1561   -3.6426   -0.3364 C   0  0  0  0  0  0  0  0  0  0  0  0
    2.0986    0.5559   -1.1387 C   0  0  0  0  0  0  0  0  0  0  0  0
    5.2079   -3.7316    0.7718 C   0  0  0  0  0  0  0  0  0  0  0  0
   -2.8868    0.4311    0.2398 C   0  0  1  0  0  0  0  0  0  0  0  0
   -1.2370   -0.3307   -1.4700 C   0  0  0  0  0  0  0  0  0  0  0  0
   -0.1898    2.1758    2.3511 C   0  0  2  0  0  0  0  0  0  0  0  0
    3.7398    4.6374   -0.2212 C   0  0  0  0  0  0  0  0  0  0  0  0
    2.5063    5.4390   -2.2459 C   0  0  0  0  0  0  0  0  0  0  0  0
    1.1942    2.0219    1.7223 C   0  0  0  0  0  0  0  0  0  0  0  0
   -3.8440   -0.2480    1.2087 C   0  0  0  0  0  0  0  0  0  0  0  0
    6.3335   -4.6944    0.3940 C   0  0  0  0  0  0  0  0  0  0  0  0
   -2.1781    1.5937    0.9330 C   0  0  0  0  0  0  0  0  0  0  0  0
   -0.1867    1.9006    3.8463 C   0  0  0  0  0  0  0  0  0  0  0  0
   -4.8989   -1.0434    0.4865 C   0  0  0  0  0  0  0  0  0  0  0  0
    7.3973   -4.7604    1.4782 C   0  0  0  0  0  0  0  0  0  0  0  0
   -6.1036   -0.4394    0.1265 C   0  0  0  0  0  0  0  0  0  0  0  0
   -4.6713   -2.3844    0.1777 C   0  0  0  0  0  0  0  0  0  0  0  0
   -7.0809   -1.1765   -0.5424 C   0  0  0  0  0  0  0  0  0  0  0  0
   -5.6485   -3.1215   -0.4912 C   0  0  0  0  0  0  0  0  0  0  0  0
   -6.8533   -2.5176   -0.8512 C   0  0  0  0  0  0  0  0  0  0  0  0
    0.3925   -1.9235    0.2215 H   0  0  0  0  0  0  0  0  0  0  0  0
    2.4704   -2.2012   -1.9910 H   0  0  0  0  0  0  0  0  0  0  0  0
    1.5422   -3.4893   -1.2548 H   0  0  0  0  0  0  0  0  0  0  0  0
    3.2168    1.9029    0.0470 H   0  0  0  0  0  0  0  0  0  0  0  0
    3.5068   -1.6725    0.2279 H   0  0  0  0  0  0  0  0  0  0  0  0
    2.5714   -2.9707    0.9611 H   0  0  0  0  0  0  0  0  0  0  0  0
    3.2306    2.7932   -2.2826 H   0  0  0  0  0  0  0  0  0  0  0  0
    1.4831    2.9426   -2.2669 H   0  0  0  0  0  0  0  0  0  0  0  0
   -0.7238   -2.3602   -1.9138 H   0  0  0  0  0  0  0  0  0  0  0  0
    0.2604   -1.1440   -2.7319 H   0  0  0  0  0  0  0  0  0  0  0  0
    1.6130    4.6745   -0.4717 H   0  0  0  0  0  0  0  0  0  0  0  0
    4.6332   -3.3290   -1.2729 H   0  0  0  0  0  0  0  0  0  0  0  0
    3.7182   -4.6326   -0.5114 H   0  0  0  0  0  0  0  0  0  0  0  0
   -3.4207    0.8573   -0.6193 H   0  0  0  0  0  0  0  0  0  0  0  0
    4.7346   -4.0647    1.7034 H   0  0  0  0  0  0  0  0  0  0  0  0
    5.6268   -2.7355    0.9604 H   0  0  0  0  0  0  0  0  0  0  0  0
    0.2782    2.4336   -0.0892 H   0  0  0  0  0  0  0  0  0  0  0  0
   -0.5369    3.1986    2.1656 H   0  0  0  0  0  0  0  0  0  0  0  0
   -1.6763   -1.3230    0.3042 H   0  0  0  0  0  0  0  0  0  0  0  0
    3.3718    5.2783   -2.8978 H   0  0  0  0  0  0  0  0  0  0  0  0
    2.5480    6.4687   -1.8752 H   0  0  0  0  0  0  0  0  0  0  0  0
    1.6005    5.3409   -2.8536 H   0  0  0  0  0  0  0  0  0  0  0  0
    3.6902    4.0439    0.6965 H   0  0  0  0  0  0  0  0  0  0  0  0
    4.6471    4.3530   -0.7646 H   0  0  0  0  0  0  0  0  0  0  0  0
    3.8425    5.6857    0.0801 H   0  0  0  0  0  0  0  0  0  0  0  0
   -4.3447    0.5006    1.8379 H   0  0  0  0  0  0  0  0  0  0  0  0
   -3.3062   -0.8971    1.9131 H   0  0  0  0  0  0  0  0  0  0  0  0
    5.9246   -5.6977    0.2276 H   0  0  0  0  0  0  0  0  0  0  0  0
    6.7989   -4.3736   -0.5453 H   0  0  0  0  0  0  0  0  0  0  0  0
   -0.7708    0.2522    1.6484 H   0  0  0  0  0  0  0  0  0  0  0  0
    0.1692    0.8874    4.0655 H   0  0  0  0  0  0  0  0  0  0  0  0
   -1.1961    1.9943    4.2608 H   0  0  0  0  0  0  0  0  0  0  0  0
    0.4664    2.6048    4.3722 H   0  0  0  0  0  0  0  0  0  0  0  0
    7.8500   -3.7776    1.6443 H   0  0  0  0  0  0  0  0  0  0  0  0
    6.9713   -5.1073    2.4250 H   0  0  0  0  0  0  0  0  0  0  0  0
    8.1915   -5.4554    1.1880 H   0  0  0  0  0  0  0  0  0  0  0  0
   -6.2918    0.6053    0.3595 H   0  0  0  0  0  0  0  0  0  0  0  0
   -3.7382   -2.8680    0.4539 H   0  0  0  0  0  0  0  0  0  0  0  0
   -8.0187   -0.7062   -0.8232 H   0  0  0  0  0  0  0  0  0  0  0  0
   -5.4715   -4.1658   -0.7315 H   0  0  0  0  0  0  0  0  0  0  0  0
   -7.6141   -3.0916   -1.3721 H   0  0  0  0  0  0  0  0  0  0  0  0
  1  9  1  0  0  0  0
  1 17  1  0  0  0  0
  2 17  2  0  0  0  0
  3 20  2  0  0  0  0
  4 24  2  0  0  0  0
  5 27  2  0  0  0  0
  6 11  1  0  0  0  0
  6 24  1  0  0  0  0
  6 52  1  0  0  0  0
  7 19  1  0  0  0  0
  7 20  1  0  0  0  0
  7 54  1  0  0  0  0
  8 21  1  0  0  0  0
  8 27  1  0  0  0  0
  8 65  1  0  0  0  0
  9 10  1  0  0  0  0
  9 14  1  0  0  0  0
  9 36  1  0  0  0  0
 10 12  1  0  0  0  0
 10 37  1  0  0  0  0
 10 38  1  0  0  0  0
 11 13  1  0  0  0  0
 11 17  1  0  0  0  0
 11 39  1  0  0  0  0
 12 16  1  0  0  0  0
 12 40  1  0  0  0  0
 12 41  1  0  0  0  0
 13 15  1  0  0  0  0
 13 42  1  0  0  0  0
 13 43  1  0  0  0  0
 14 20  1  0  0  0  0
 14 44  1  0  0  0  0
 14 45  1  0  0  0  0
 15 22  1  0  0  0  0
 15 23  1  0  0  0  0
 15 46  1  0  0  0  0
 16 18  1  0  0  0  0
 16 47  1  0  0  0  0
 16 48  1  0  0  0  0
 18 26  1  0  0  0  0
 18 50  1  0  0  0  0
 18 51  1  0  0  0  0
 19 25  1  0  0  0  0
 19 27  1  0  0  0  0
 19 49  1  0  0  0  0
 21 24  1  0  0  0  0
 21 28  1  0  0  0  0
 21 53  1  0  0  0  0
 22 58  1  0  0  0  0
 22 59  1  0  0  0  0
 22 60  1  0  0  0  0
 23 55  1  0  0  0  0
 23 56  1  0  0  0  0
 23 57  1  0  0  0  0
 25 29  1  0  0  0  0
 25 61  1  0  0  0  0
 25 62  1  0  0  0  0
 26 30  1  0  0  0  0
 26 63  1  0  0  0  0
 26 64  1  0  0  0  0
 28 66  1  0  0  0  0
 28 67  1  0  0  0  0
 28 68  1  0  0  0  0
 29 31  2  0  0  0  0
 29 32  1  0  0  0  0
 30 69  1  0  0  0  0
 30 70  1  0  0  0  0
 30 71  1  0  0  0  0
 31 33  1  0  0  0  0
 31 72  1  0  0  0  0
 32 34  2  0  0  0  0
 32 73  1  0  0  0  0
 33 35  2  0  0  0  0
 33 74  1  0  0  0  0
 34 35  1  0  0  0  0
 34 75  1  0  0  0  0
 35 76  1  0  0  0  0
M  END
> <PUBCHEM_COMPOUND_CID>
101316891

> <PUBCHEM_CONFORMER_RMSD>
1.2

> <PUBCHEM_CONFORMER_DIVERSEORDER>
2
17
22
148
149
119
106
108
50
11
61
56
49
16
86
82
96
71
35
109
28
124
30
142
90
8
153
126
129
20
41
68
85
52
122
134
92
89
39
5
113
75
145
104
23
6
12
48
115
152
117
154
38
120
155
127
143
159
105
65
15
138
132
37
62
112
77
103
79
40
87
128
111
54
97
118
76
116
80
44
135
94
102
69
7
43
100
107
157
98
146
55
46
144
27
24
151
130
110
156
133
9
72
53
57
34
63
14
64
74
26
45
137
125
4
67
91
25
47
99
121
158
95
93
29
88
81
123
131
51
70
73
78
101
10
141
21
147
3
59
32
83
66
150
31
140
139
58
1
33
18
114
136
19
13
42
60
84
36

> <PUBCHEM_MMFF94_PARTIAL_CHARGES>
32
1 -0.43
11 0.36
14 0.06
17 0.66
19 0.36
2 -0.57
20 0.57
21 0.36
24 0.57
25 0.14
27 0.57
29 -0.14
3 -0.57
31 -0.15
32 -0.15
33 -0.15
34 -0.15
35 -0.15
4 -0.57
5 -0.57
52 0.37
54 0.37
6 -0.73
65 0.37
7 -0.73
72 0.15
73 0.15
74 0.15
75 0.15
76 0.15
8 -0.73
9 0.28

> <PUBCHEM_EFFECTIVE_ROTOR_COUNT>
10.8

> <PUBCHEM_PHARMACOPHORE_FEATURES>
11
1 2 acceptor
1 3 acceptor
1 30 hydrophobe
1 4 acceptor
1 5 acceptor
1 6 donor
1 7 donor
1 8 donor
3 15 22 23 hydrophobe
5 10 12 16 18 26 hydrophobe
6 29 31 32 33 34 35 rings

> <PUBCHEM_HEAVY_ATOM_COUNT>
35

> <PUBCHEM_ATOM_DEF_STEREO_COUNT>
4

> <PUBCHEM_ATOM_UDEF_STEREO_COUNT>
0

> <PUBCHEM_BOND_DEF_STEREO_COUNT>
0

> <PUBCHEM_BOND_UDEF_STEREO_COUNT>
0

> <PUBCHEM_ISOTOPIC_ATOM_COUNT>
0

> <PUBCHEM_COMPONENT_COUNT>
1

> <PUBCHEM_CACTVS_TAUTO_COUNT>
24

> <PUBCHEM_CONFORMER_ID>
0609F91B00000002

> <PUBCHEM_MMFF94_ENERGY>
70.2802

> <PUBCHEM_FEATURE_SELFOVERLAP>
55.832

> <PUBCHEM_SHAPE_FINGERPRINT>
11136131 41 18265331901285031168
11578080 2 18409164433811840437
11963148 33 17910666893980615687
12166972 35 18411138008884068026
131258 38 18056744649633279134
13617811 41 17912367825689274241
14068700 675 18341049610075437986
16114785 44 17256799002335401636
19319366 153 18126568061870866268
20600515 1 17911247117595272820
20771845 171 18263637545572067191
21133410 52 18413670210777269902
21927370 108 18267299829779006150
23559900 14 18334856126175469815
4058900 60 18049737496457512709
469060 322 17902523584463012186

> <PUBCHEM_SHAPE_MULTIPOLES>
675.99
14.57
7.48
2.47
11.15
2
-1.61
-24.25
-0.53
-17.14
1.09
-1.01
2.44
-4.43

> <PUBCHEM_SHAPE_SELFOVERLAP>
1362.859

> <PUBCHEM_SHAPE_VOLUME>
390.5

> <PUBCHEM_COORDINATE_TYPE>
2
5
10

$$$$
