REMARK  Name = 10138259
REMARK  7 active torsions:
REMARK  status: ('A' for Active; 'I' for Inactive)
REMARK    1  A    between atoms: C_2  and  C_24
REMARK    2  A    between atoms: C_4  and  C_12
REMARK    3  A    between atoms: N_23  and  C_26
REMARK    4  A    between atoms: C_26  and  C_27
REMARK    5  A    between atoms: C_27  and  O_28
REMARK    6  A    between atoms: C_27  and  C_30
REMARK    7  A    between atoms: C_30  and  N_32
REMARK                            x       y       z     vdW  Elec       q    Type
REMARK                         _______ _______ _______ _____ _____    ______ ____
ROOT
ATOM      1  N   UNL     1       0.969   2.006   0.248  0.00  0.00    -0.357 N 
ATOM      2  C   UNL     1      -0.809   0.685   0.412  0.00  0.00    +0.062 A 
ATOM      3  C   UNL     1       0.256  -0.059  -0.152  0.00  0.00    -0.001 A 
ATOM      4  C   UNL     1       1.315   0.785  -0.233  0.00  0.00    +0.053 A 
ATOM      5  C   UNL     1      -0.341   1.958   0.650  0.00  0.00    +0.038 A 
ATOM      6  C   UNL     1       0.209  -1.477  -0.569  0.00  0.00    +0.033 C 
ATOM      7  C   UNL     1      -1.002   3.148   1.222  0.00  0.00    +0.050 C 
ATOM      8  H   UNL     1       1.559   2.792   0.300  0.00  0.00    +0.166 HD
ENDROOT
BRANCH   4  12
ATOM      9  F   UNL     1       7.836   0.095  -2.680  0.00  0.00    -0.204 F 
ATOM     10  O   UNL     1       2.538  -0.120   2.160  0.00  0.00    -0.270 OA
ATOM     11  N   UNL     1       4.847  -0.522   1.867  0.00  0.00    -0.280 N 
ATOM     12  C   UNL     1       2.660   0.634  -0.706  0.00  0.00    +0.021 C 
ATOM     13  C   UNL     1       3.685   0.218   0.040  0.00  0.00    +0.056 C 
ATOM     14  C   UNL     1       5.078   0.034  -0.352  0.00  0.00    +0.020 C 
ATOM     15  C   UNL     1       5.739  -0.416   0.795  0.00  0.00    +0.051 C 
ATOM     16  C   UNL     1       3.553  -0.149   1.489  0.00  0.00    +0.250 C 
ATOM     17  C   UNL     1       5.765   0.214  -1.538  0.00  0.00    +0.031 C 
ATOM     18  C   UNL     1       7.091  -0.700   0.806  0.00  0.00    +0.017 C 
ATOM     19  C   UNL     1       7.136  -0.068  -1.549  0.00  0.00    +0.140 C 
ATOM     20  C   UNL     1       7.792  -0.520  -0.388  0.00  0.00    +0.031 C 
ATOM     21  H   UNL     1       5.098  -0.820   2.772  0.00  0.00    +0.155 HD
ENDBRANCH   4  12
BRANCH   2  24
ATOM     22  O   UNL     1      -3.134   0.998   0.648  0.00  0.00    -0.270 OA
ATOM     23  N   UNL     1      -2.301  -1.119   1.023  0.00  0.00    -0.299 N 
ATOM     24  C   UNL     1      -2.144   0.239   0.701  0.00  0.00    +0.247 C 
ATOM     25  H   UNL     1      -1.497  -1.687   1.056  0.00  0.00    +0.150 HD
BRANCH  23  26
ATOM     26  C   UNL     1      -3.581  -1.725   1.310  0.00  0.00    +0.117 C 
BRANCH  26  27
ATOM     27  C   UNL     1      -4.272  -2.281   0.063  0.00  0.00    +0.109 C 
BRANCH  27  28
ATOM     28  O   UNL     1      -3.430  -3.291  -0.497  0.00  0.00    -0.385 OA
ATOM     29  H   UNL     1      -3.849  -3.658  -1.290  0.00  0.00    +0.210 HD
ENDBRANCH  27  28
BRANCH  27  30
ATOM     30  C   UNL     1      -4.593  -1.246  -1.022  0.00  0.00    -0.045 C 
BRANCH  30  32
ATOM     31  O   UNL     1      -8.051   1.110  -0.692  0.00  0.00    -0.358 OA
ATOM     32  N   UNL     1      -5.546  -0.237  -0.565  0.00  0.00    +0.392 N 
ATOM     33  C   UNL     1      -5.853   0.716  -1.641  0.00  0.00    -0.045 C 
ATOM     34  C   UNL     1      -6.783  -0.868  -0.083  0.00  0.00    -0.045 C 
ATOM     35  C   UNL     1      -6.858   1.752  -1.144  0.00  0.00    +0.119 C 
ATOM     36  C   UNL     1      -7.767   0.205   0.376  0.00  0.00    +0.119 C 
ATOM     37  H   UNL     1      -5.117   0.272   0.208  0.00  0.00    -0.079 HD
ENDBRANCH  30  32
ENDBRANCH  27  30
ENDBRANCH  26  27
ENDBRANCH  23  26
ENDBRANCH   2  24
TORSDOF 7
