REMARK  Name = 101301309
REMARK  2 active torsions:
REMARK  status: ('A' for Active; 'I' for Inactive)
REMARK    1  A    between atoms: C_9  and  C_34
REMARK    2  A    between atoms: C_16  and  O_37
REMARK                            x       y       z     vdW  Elec       q    Type
REMARK                         _______ _______ _______ _____ _____    ______ ____
ROOT
ATOM      1  O   UNL     1       0.352   2.651   0.391  0.00  0.00    -0.451 OA
ATOM      2  O   UNL     1       0.760   4.915   0.424  0.00  0.00    -0.248 OA
ATOM      3  O   UNL     1       4.605  -2.150  -0.767  0.00  0.00    -0.447 OA
ATOM      4  O   UNL     1      -3.791   0.643  -1.729  0.00  0.00    -0.270 OA
ATOM      5  O   UNL     1       4.337   1.907  -1.916  0.00  0.00    -0.268 OA
ATOM      6  N   UNL     1       2.789   1.985  -0.193  0.00  0.00    -0.291 N 
ATOM      7  N   UNL     1      -5.416  -0.088  -0.234  0.00  0.00    -0.297 N 
ATOM      8  N   UNL     1       3.245  -0.704   0.314  0.00  0.00    -0.367 NA
ATOM      9  C   UNL     1      -1.003   2.822   0.877  0.00  0.00    +0.173 C 
ATOM     10  C   UNL     1      -2.009   2.658  -0.291  0.00  0.00    +0.062 C 
ATOM     11  C   UNL     1      -1.722   3.630  -1.440  0.00  0.00    +0.008 C 
ATOM     12  C   UNL     1      -3.429   2.878   0.183  0.00  0.00    -0.018 C 
ATOM     13  C   UNL     1       1.130   3.760   0.242  0.00  0.00    +0.335 C 
ATOM     14  C   UNL     1       2.527   3.417  -0.256  0.00  0.00    +0.172 C 
ATOM     15  C   UNL     1      -4.504   2.092   0.023  0.00  0.00    +0.053 C 
ATOM     16  C   UNL     1       2.398  -4.077   0.408  0.00  0.00    +0.121 C 
ATOM     17  C   UNL     1       1.025  -3.446   0.142  0.00  0.00    +0.034 C 
ATOM     18  C   UNL     1       3.367  -3.102   1.088  0.00  0.00    +0.128 C 
ATOM     19  C   UNL     1       3.573   4.178   0.552  0.00  0.00    +0.033 C 
ATOM     20  C   UNL     1       0.033  -4.430  -0.490  0.00  0.00    +0.028 C 
ATOM     21  C   UNL     1       3.704  -1.936   0.238  0.00  0.00    +0.255 C 
ATOM     22  C   UNL     1      -4.510   0.825  -0.753  0.00  0.00    +0.246 C 
ATOM     23  C   UNL     1       3.709   1.354  -1.018  0.00  0.00    +0.276 C 
ATOM     24  C   UNL     1      -1.224  -3.716  -0.898  0.00  0.00    -0.030 C 
ATOM     25  C   UNL     1       3.887  -0.051  -0.714  0.00  0.00    +0.209 C 
ATOM     26  C   UNL     1      -2.332  -3.509  -0.156  0.00  0.00    -0.026 C 
ATOM     27  C   UNL     1       4.714  -0.935  -1.370  0.00  0.00    +0.271 C 
ATOM     28  C   UNL     1      -5.557  -1.431  -0.766  0.00  0.00    +0.116 C 
ATOM     29  C   UNL     1      -3.422  -2.727  -0.736  0.00  0.00    -0.007 C 
ATOM     30  C   UNL     1      -4.532  -2.305  -0.109  0.00  0.00    -0.005 C 
ATOM     31  C   UNL     1      -2.488  -3.998   1.260  0.00  0.00    +0.031 C 
ATOM     32  H   UNL     1       2.293   1.443   0.462  0.00  0.00    +0.150 HD
ATOM     33  H   UNL     1      -5.984   0.185   0.522  0.00  0.00    +0.150 HD
ENDROOT
BRANCH   9  34
ATOM     34  C   UNL     1      -1.195   1.758   1.959  0.00  0.00    +0.041 C 
ATOM     35  C   UNL     1      -0.210   1.976   3.104  0.00  0.00    +0.004 C 
ATOM     36  C   UNL     1      -1.034   0.360   1.368  0.00  0.00    +0.004 C 
ENDBRANCH   9  34
BRANCH  16  37
ATOM     37  O   UNL     1       2.224  -5.205   1.265  0.00  0.00    -0.384 OA
ATOM     38  H   UNL     1       1.613  -5.834   0.851  0.00  0.00    +0.210 HD
ENDBRANCH  16  37
TORSDOF 2
