REMARK  Name = 101316758
REMARK  8 active torsions:
REMARK  status: ('A' for Active; 'I' for Inactive)
REMARK    1  A    between atoms: C_3  and  O_21
REMARK    2  A    between atoms: C_4  and  O_23
REMARK    3  A    between atoms: C_5  and  C_14
REMARK    4  A    between atoms: C_6  and  O_25
REMARK    5  A    between atoms: C_7  and  C_30
REMARK    6  A    between atoms: C_8  and  O_27
REMARK    7  A    between atoms: C_16  and  O_19
REMARK    8  A    between atoms: C_30  and  C_31
REMARK                            x       y       z     vdW  Elec       q    Type
REMARK                         _______ _______ _______ _____ _____    ______ ____
ROOT
ATOM      1  O   UNL     1      -0.804  -2.598  -1.865  0.00  0.00    -0.448 OA
ATOM      2  O   UNL     1      -2.425  -3.501  -0.561  0.00  0.00    -0.247 OA
ATOM      3  C   UNL     1       0.454  -1.618   0.599  0.00  0.00    +0.133 C 
ATOM      4  C   UNL     1      -0.150   0.298  -0.635  0.00  0.00    +0.135 C 
ATOM      5  C   UNL     1       0.745  -0.097   0.562  0.00  0.00    +0.113 C 
ATOM      6  C   UNL     1      -1.094  -1.690   0.365  0.00  0.00    +0.209 C 
ATOM      7  C   UNL     1      -1.503  -0.298  -0.186  0.00  0.00    +0.127 C 
ATOM      8  C   UNL     1       0.280  -0.381  -1.973  0.00  0.00    +0.176 C 
ATOM      9  C   UNL     1       1.181  -2.318  -0.561  0.00  0.00    +0.077 C 
ATOM     10  C   UNL     1       0.472  -1.911  -1.850  0.00  0.00    +0.200 C 
ATOM     11  C   UNL     1      -1.505  -2.703  -0.699  0.00  0.00    +0.344 C 
ENDROOT
BRANCH   5  14
ATOM     12  O   UNL     1       3.080  -0.595   1.103  0.00  0.00    -0.425 OA
ATOM     13  O   UNL     1       5.223  -1.125   1.646  0.00  0.00    -0.244 OA
ATOM     14  C   UNL     1       2.185   0.302   0.470  0.00  0.00    +0.134 C 
ATOM     15  C   UNL     1       2.622   1.406  -0.148  0.00  0.00    +0.070 C 
ATOM     16  C   UNL     1       4.032   1.682  -0.167  0.00  0.00    +0.148 C 
ATOM     17  C   UNL     1       4.430  -0.362   1.104  0.00  0.00    +0.349 C 
ATOM     18  C   UNL     1       4.904   0.857   0.420  0.00  0.00    +0.119 C 
BRANCH  16  19
ATOM     19  O   UNL     1       4.449   2.826  -0.812  0.00  0.00    -0.471 OA
ATOM     20  C   UNL     1       5.856   2.958  -0.745  0.00  0.00    +0.252 C 
ENDBRANCH  16  19
ENDBRANCH   5  14
BRANCH   3  21
ATOM     21  O   UNL     1       0.859  -2.200   1.823  0.00  0.00    -0.383 OA
ATOM     22  H   UNL     1       0.402  -1.760   2.557  0.00  0.00    +0.210 HD
ENDBRANCH   3  21
BRANCH   4  23
ATOM     23  O   UNL     1      -0.232   1.703  -0.798  0.00  0.00    -0.383 OA
ATOM     24  H   UNL     1      -0.499   2.111   0.040  0.00  0.00    +0.210 HD
ENDBRANCH   4  23
BRANCH   6  25
ATOM     25  O   UNL     1      -1.775  -2.013   1.564  0.00  0.00    -0.374 OA
ATOM     26  H   UNL     1      -1.528  -1.380   2.256  0.00  0.00    +0.211 HD
ENDBRANCH   6  25
BRANCH   8  27
ATOM     27  O   UNL     1       1.516   0.177  -2.422  0.00  0.00    -0.379 OA
ATOM     28  H   UNL     1       1.424   1.138  -2.508  0.00  0.00    +0.211 HD
ENDBRANCH   8  27
BRANCH   7  30
ATOM     29  O   UNL     1      -1.688   0.844   1.899  0.00  0.00    -0.291 OA
ATOM     30  C   UNL     1      -2.209   0.577   0.819  0.00  0.00    +0.178 C 
BRANCH  30  31
ATOM     31  C   UNL     1      -3.556   1.121   0.486  0.00  0.00    +0.035 C 
ATOM     32  C   UNL     1      -4.613   0.251   0.217  0.00  0.00    +0.003 C 
ATOM     33  C   UNL     1      -3.760   2.500   0.444  0.00  0.00    +0.003 C 
ATOM     34  C   UNL     1      -5.874   0.760  -0.093  0.00  0.00    +0.000 C 
ATOM     35  C   UNL     1      -5.021   3.009   0.134  0.00  0.00    +0.000 C 
ATOM     36  C   UNL     1      -6.078   2.139  -0.135  0.00  0.00    +0.000 C 
ENDBRANCH  30  31
ENDBRANCH   7  30
TORSDOF 8
