REMARK  Name = 101348504
REMARK  14 active torsions:
REMARK  status: ('A' for Active; 'I' for Inactive)
REMARK    1  A    between atoms: C_3  and  O_11
REMARK    2  A    between atoms: C_4  and  C_30
REMARK    3  A    between atoms: C_5  and  O_13
REMARK    4  A    between atoms: C_8  and  O_15
REMARK    5  A    between atoms: O_15  and  C_17
REMARK    6  A    between atoms: C_17  and  C_18
REMARK    7  A    between atoms: C_19  and  C_20
REMARK    8  A    between atoms: C_21  and  C_22
REMARK    9  A    between atoms: C_23  and  C_24
REMARK   10  A    between atoms: C_25  and  C_27
REMARK   11  A    between atoms: C_27  and  O_28
REMARK   12  A    between atoms: C_30  and  O_31
REMARK   13  A    between atoms: C_30  and  C_33
REMARK   14  A    between atoms: C_33  and  C_34
REMARK                            x       y       z     vdW  Elec       q    Type
REMARK                         _______ _______ _______ _____ _____    ______ ____
ROOT
ATOM      1  O   UNL     1       3.351   2.438   1.770  0.00  0.00    -0.354 OA
ATOM      2  C   UNL     1       3.223   0.422   0.541  0.00  0.00    +0.085 C 
ATOM      3  C   UNL     1       3.594   0.110   1.984  0.00  0.00    +0.120 C 
ATOM      4  C   UNL     1       3.534   1.920   0.421  0.00  0.00    +0.122 C 
ATOM      5  C   UNL     1       3.816  -0.600  -0.424  0.00  0.00    +0.160 C 
ATOM      6  C   UNL     1       3.041  -1.248   2.402  0.00  0.00    +0.033 C 
ATOM      7  C   UNL     1       3.044   1.343   2.670  0.00  0.00    +0.169 C 
ATOM      8  C   UNL     1       3.340  -2.022  -0.048  0.00  0.00    +0.196 C 
ATOM      9  C   UNL     1       3.532  -2.356   1.444  0.00  0.00    +0.049 C 
ATOM     10  C   UNL     1       4.955   2.263  -0.033  0.00  0.00    +0.032 C 
ENDROOT
BRANCH   3  11
ATOM     11  O   UNL     1       5.005   0.121   2.212  0.00  0.00    -0.384 OA
ATOM     12  H   UNL     1       5.407  -0.655   1.790  0.00  0.00    +0.210 HD
ENDBRANCH   3  11
BRANCH   5  13
ATOM     13  O   UNL     1       3.443  -0.305  -1.765  0.00  0.00    -0.350 OA
ATOM     14  C   UNL     1       4.316  -0.927  -2.698  0.00  0.00    +0.174 C 
ENDBRANCH   5  13
BRANCH   8  15
ATOM     15  O   UNL     1       1.959  -2.186  -0.383  0.00  0.00    -0.447 OA
BRANCH  15  17
ATOM     16  O   UNL     1       2.315  -4.425  -0.829  0.00  0.00    -0.245 OA
ATOM     17  C   UNL     1       1.594  -3.442  -0.755  0.00  0.00    +0.341 C 
BRANCH  17  18
ATOM     18  C   UNL     1       0.146  -3.416  -1.060  0.00  0.00    +0.082 C 
ATOM     19  C   UNL     1      -0.653  -2.552  -0.420  0.00  0.00    +0.007 C 
BRANCH  19  20
ATOM     20  C   UNL     1      -2.076  -2.471  -0.670  0.00  0.00    +0.000 C 
ATOM     21  C   UNL     1      -2.882  -1.607  -0.033  0.00  0.00    +0.000 C 
BRANCH  21  22
ATOM     22  C   UNL     1      -4.313  -1.506  -0.226  0.00  0.00    +0.000 C 
ATOM     23  C   UNL     1      -5.118  -0.642   0.411  0.00  0.00    +0.000 C 
BRANCH  23  24
ATOM     24  C   UNL     1      -6.551  -0.602   0.205  0.00  0.00    +0.007 C 
ATOM     25  C   UNL     1      -7.349   0.264   0.846  0.00  0.00    +0.082 C 
BRANCH  25  27
ATOM     26  O   UNL     1      -9.415  -0.410  -0.108  0.00  0.00    -0.245 OA
ATOM     27  C   UNL     1      -8.812   0.330   0.657  0.00  0.00    +0.338 C 
BRANCH  27  28
ATOM     28  O   UNL     1      -9.399   1.284   1.411  0.00  0.00    -0.477 OA
ATOM     29  H   UNL     1      -8.879   1.819   1.978  0.00  0.00    +0.295 HD
ENDBRANCH  27  28
ENDBRANCH  25  27
ENDBRANCH  23  24
ENDBRANCH  21  22
ENDBRANCH  19  20
ENDBRANCH  17  18
ENDBRANCH  15  17
ENDBRANCH   8  15
BRANCH   4  30
ATOM     30  C   UNL     1       2.530   2.643  -0.482  0.00  0.00    +0.140 C 
BRANCH  30  31
ATOM     31  O   UNL     1       2.630   2.086  -1.788  0.00  0.00    -0.382 OA
ATOM     32  H   UNL     1       3.534   2.201  -2.120  0.00  0.00    +0.210 HD
ENDBRANCH  30  31
BRANCH  30  33
ATOM     33  C   UNL     1       1.106   2.461   0.039  0.00  0.00    +0.057 C 
BRANCH  33  34
ATOM     34  C   UNL     1       0.174   3.496  -0.533  0.00  0.00    -0.032 C 
ATOM     35  C   UNL     1      -0.921   3.286  -1.288  0.00  0.00    -0.048 C 
ATOM     36  C   UNL     1      -1.349   1.887  -1.641  0.00  0.00    +0.026 C 
ATOM     37  C   UNL     1      -1.814   4.366  -1.830  0.00  0.00    +0.026 C 
ENDBRANCH  33  34
ENDBRANCH  30  33
ENDBRANCH   4  30
TORSDOF 14
