REMARK  Name = 10138980
REMARK  5 active torsions:
REMARK  status: ('A' for Active; 'I' for Inactive)
REMARK    1  A    between atoms: C_4  and  C_15
REMARK    2  A    between atoms: C_6  and  C_29
REMARK    3  A    between atoms: C_10  and  S_16
REMARK    4  A    between atoms: S_16  and  N_19
REMARK    5  A    between atoms: N_28  and  C_32
REMARK                            x       y       z     vdW  Elec       q    Type
REMARK                         _______ _______ _______ _____ _____    ______ ____
ROOT
ATOM      1  N   UNL     1      -1.699  -1.242   0.140  0.00  0.00    -0.397 NA
ATOM      2  N   UNL     1      -2.246  -3.930   0.722  0.00  0.00    -0.247 NA
ATOM      3  N   UNL     1      -4.500  -3.346   1.195  0.00  0.00    -0.341 N 
ATOM      4  C   UNL     1      -0.756  -2.199   0.060  0.00  0.00    +0.134 C 
ATOM      5  C   UNL     1      -1.020  -3.518   0.344  0.00  0.00    +0.185 C 
ATOM      6  C   UNL     1      -2.925  -1.655   0.517  0.00  0.00    +0.215 C 
ATOM      7  C   UNL     1      -3.194  -2.975   0.803  0.00  0.00    +0.156 C 
ATOM      8  H   UNL     1      -4.703  -4.287   1.402  0.00  0.00    +0.144 HD
ATOM      9  H   UNL     1      -5.206  -2.664   1.261  0.00  0.00    +0.144 HD
ENDROOT
BRANCH   4  15
ATOM     10  C   UNL     1       3.077  -0.900  -1.123  0.00  0.00    +0.122 C 
ATOM     11  C   UNL     1       2.962  -1.994  -0.282  0.00  0.00    +0.020 C 
ATOM     12  C   UNL     1       1.960  -0.223  -1.584  0.00  0.00    +0.020 C 
ATOM     13  C   UNL     1       1.694  -2.424   0.109  0.00  0.00    +0.004 C 
ATOM     14  C   UNL     1       0.692  -0.652  -1.192  0.00  0.00    +0.004 C 
ATOM     15  C   UNL     1       0.559  -1.753  -0.346  0.00  0.00    +0.027 C 
BRANCH  10  16
ATOM     16  S   UNL     1       4.682  -0.357  -1.619  0.00  0.00    +0.063 S 
ATOM     17  O   UNL     1       5.584  -1.483  -1.508  0.00  0.00    -0.153 OA
ATOM     18  O   UNL     1       4.543   0.367  -2.865  0.00  0.00    -0.153 OA
BRANCH  16  19
ATOM     19  N   UNL     1       5.022   0.757  -0.364  0.00  0.00    -0.160 NA
ATOM     20  N   UNL     1       4.918   2.342   2.033  0.00  0.00    +0.387 N 
ATOM     21  C   UNL     1       5.322   0.154   0.966  0.00  0.00    +0.073 C 
ATOM     22  C   UNL     1       4.069   1.897  -0.242  0.00  0.00    +0.073 C 
ATOM     23  C   UNL     1       5.869   1.229   1.903  0.00  0.00    -0.058 C 
ATOM     24  C   UNL     1       4.639   2.939   0.719  0.00  0.00    -0.058 C 
ATOM     25  C   UNL     1       5.431   3.352   2.958  0.00  0.00    -0.101 C 
ATOM     26  H   UNL     1       4.044   1.976   2.412  0.00  0.00    -0.080 HD
ENDBRANCH  16  19
ENDBRANCH  10  16
ENDBRANCH   4  15
BRANCH   6  29
ATOM     27  O   UNL     1      -4.846  -0.716   1.433  0.00  0.00    -0.267 OA
ATOM     28  N   UNL     1      -3.767   0.470  -0.280  0.00  0.00    -0.277 N 
ATOM     29  C   UNL     1      -3.933  -0.609   0.599  0.00  0.00    +0.282 C 
ATOM     30  H   UNL     1      -2.992   0.413  -0.886  0.00  0.00    +0.155 HD
BRANCH  28  32
ATOM     31  N   UNL     1      -6.473   2.889   0.316  0.00  0.00    -0.241 NA
ATOM     32  C   UNL     1      -4.566   1.632  -0.411  0.00  0.00    +0.070 C 
ATOM     33  C   UNL     1      -4.242   2.595  -1.342  0.00  0.00    +0.018 C 
ATOM     34  C   UNL     1      -5.669   1.805   0.390  0.00  0.00    +0.113 C 
ATOM     35  C   UNL     1      -5.046   3.725  -1.447  0.00  0.00    +0.022 C 
ATOM     36  C   UNL     1      -6.140   3.823  -0.603  0.00  0.00    +0.099 C 
ENDBRANCH  28  32
ENDBRANCH   6  29
TORSDOF 5
