101306862
  -OEChem-03292013293D

 63 64  0     1  0  0  0  0  0999 V2000
    1.2034    3.0916   -0.9640 Cl  0  0  0  0  0  0  0  0  0  0  0  0
    5.3861    1.7136   -1.2057 S   0  0  0  0  0  0  0  0  0  0  0  0
    3.6125    1.0031    0.7404 O   0  0  0  0  0  0  0  0  0  0  0  0
    2.6078   -1.6822    1.1644 O   0  0  0  0  0  0  0  0  0  0  0  0
    4.4205   -2.8646   -0.5747 O   0  0  0  0  0  0  0  0  0  0  0  0
    6.5549   -0.9704   -0.3041 O   0  0  0  0  0  0  0  0  0  0  0  0
   -0.6189   -1.2042    1.5561 O   0  0  0  0  0  0  0  0  0  0  0  0
   -2.0324   -2.6619   -0.1613 N   0  0  0  0  0  0  0  0  0  0  0  0
    0.1734    0.1302   -0.1791 N   0  0  0  0  0  0  0  0  0  0  0  0
   -4.0092   -1.4767    0.1301 C   0  0  2  0  0  0  0  0  0  0  0  0
   -3.0042   -0.4914   -0.4607 C   0  0  0  0  0  0  0  0  0  0  0  0
   -1.7077   -1.2915   -0.5601 C   0  0  1  0  0  0  0  0  0  0  0  0
    2.5954    0.3904   -0.0674 C   0  0  2  0  0  0  0  0  0  0  0  0
    1.2500    0.7725    0.5416 C   0  0  1  0  0  0  0  0  0  0  0  0
   -3.4739   -2.8183   -0.3438 C   0  0  0  0  0  0  0  0  0  0  0  0
    2.7906   -1.1282   -0.1408 C   0  0  1  0  0  0  0  0  0  0  0  0
   -5.4419   -1.2138   -0.3001 C   0  0  0  0  0  0  0  0  0  0  0  0
    4.1971   -1.4585   -0.6458 C   0  0  1  0  0  0  0  0  0  0  0  0
    5.2451   -0.7401    0.2040 C   0  0  2  0  0  0  0  0  0  0  0  0
   -0.6692   -0.8054    0.3954 C   0  0  0  0  0  0  0  0  0  0  0  0
    4.9576    0.7652    0.3040 C   0  0  1  0  0  0  0  0  0  0  0  0
    1.0454    2.2989    0.6360 C   0  0  2  0  0  0  0  0  0  0  0  0
   -5.8963    0.1929    0.0905 C   0  0  0  0  0  0  0  0  0  0  0  0
   -7.3502    0.4419   -0.3141 C   0  0  0  0  0  0  0  0  0  0  0  0
   -0.3026    2.6757    1.2446 C   0  0  0  0  0  0  0  0  0  0  0  0
   -7.7926    1.8598    0.0467 C   0  0  0  0  0  0  0  0  0  0  0  0
    5.4859    3.3488   -0.4481 C   0  0  0  0  0  0  0  0  0  0  0  0
   -9.2268    2.1226   -0.3841 C   0  0  0  0  0  0  0  0  0  0  0  0
   -3.9466   -1.4301    1.2269 H   0  0  0  0  0  0  0  0  0  0  0  0
   -2.9140    0.4059    0.1611 H   0  0  0  0  0  0  0  0  0  0  0  0
   -3.3122   -0.1799   -1.4666 H   0  0  0  0  0  0  0  0  0  0  0  0
   -1.3239   -1.2870   -1.5865 H   0  0  0  0  0  0  0  0  0  0  0  0
    2.6654    0.7810   -1.0890 H   0  0  0  0  0  0  0  0  0  0  0  0
    1.2285    0.4135    1.5794 H   0  0  0  0  0  0  0  0  0  0  0  0
   -3.8657   -3.6538    0.2444 H   0  0  0  0  0  0  0  0  0  0  0  0
   -3.7007   -3.0040   -1.4002 H   0  0  0  0  0  0  0  0  0  0  0  0
    2.0521   -1.6058   -0.7930 H   0  0  0  0  0  0  0  0  0  0  0  0
   -6.1016   -1.9579    0.1631 H   0  0  0  0  0  0  0  0  0  0  0  0
   -5.5404   -1.3382   -1.3860 H   0  0  0  0  0  0  0  0  0  0  0  0
    4.3063   -1.1730   -1.6985 H   0  0  0  0  0  0  0  0  0  0  0  0
   -1.8298   -2.7930    0.8309 H   0  0  0  0  0  0  0  0  0  0  0  0
    5.2317   -1.1757    1.2111 H   0  0  0  0  0  0  0  0  0  0  0  0
    5.6139    1.1589    1.0885 H   0  0  0  0  0  0  0  0  0  0  0  0
    0.0339    0.3976   -1.1493 H   0  0  0  0  0  0  0  0  0  0  0  0
    1.8321    2.7343    1.2619 H   0  0  0  0  0  0  0  0  0  0  0  0
   -5.2636    0.9457   -0.3934 H   0  0  0  0  0  0  0  0  0  0  0  0
   -5.7895    0.3278    1.1738 H   0  0  0  0  0  0  0  0  0  0  0  0
   -8.0017   -0.2857    0.1850 H   0  0  0  0  0  0  0  0  0  0  0  0
   -7.4614    0.2875   -1.3943 H   0  0  0  0  0  0  0  0  0  0  0  0
   -0.3725    3.7595    1.3893 H   0  0  0  0  0  0  0  0  0  0  0  0
   -0.4294    2.2041    2.2249 H   0  0  0  0  0  0  0  0  0  0  0  0
   -1.1420    2.3719    0.6104 H   0  0  0  0  0  0  0  0  0  0  0  0
    3.1199   -1.1522    1.7981 H   0  0  0  0  0  0  0  0  0  0  0  0
    3.7329   -3.2971   -1.1093 H   0  0  0  0  0  0  0  0  0  0  0  0
    7.1789   -0.4866    0.2635 H   0  0  0  0  0  0  0  0  0  0  0  0
   -7.7069    2.0123    1.1288 H   0  0  0  0  0  0  0  0  0  0  0  0
   -7.1341    2.5906   -0.4372 H   0  0  0  0  0  0  0  0  0  0  0  0
    5.7141    4.0884   -1.2203 H   0  0  0  0  0  0  0  0  0  0  0  0
    6.2812    3.3774    0.3013 H   0  0  0  0  0  0  0  0  0  0  0  0
    4.5329    3.6176    0.0150 H   0  0  0  0  0  0  0  0  0  0  0  0
   -9.3379    2.0115   -1.4675 H   0  0  0  0  0  0  0  0  0  0  0  0
   -9.9169    1.4280    0.1054 H   0  0  0  0  0  0  0  0  0  0  0  0
   -9.5226    3.1415   -0.1152 H   0  0  0  0  0  0  0  0  0  0  0  0
  1 22  1  0  0  0  0
  2 21  1  0  0  0  0
  2 27  1  0  0  0  0
  3 13  1  0  0  0  0
  3 21  1  0  0  0  0
  4 16  1  0  0  0  0
  4 53  1  0  0  0  0
  5 18  1  0  0  0  0
  5 54  1  0  0  0  0
  6 19  1  0  0  0  0
  6 55  1  0  0  0  0
  7 20  2  0  0  0  0
  8 12  1  0  0  0  0
  8 15  1  0  0  0  0
  8 41  1  0  0  0  0
  9 14  1  0  0  0  0
  9 20  1  0  0  0  0
  9 44  1  0  0  0  0
 10 11  1  0  0  0  0
 10 15  1  0  0  0  0
 10 17  1  0  0  0  0
 10 29  1  0  0  0  0
 11 12  1  0  0  0  0
 11 30  1  0  0  0  0
 11 31  1  0  0  0  0
 12 20  1  0  0  0  0
 12 32  1  0  0  0  0
 13 14  1  0  0  0  0
 13 16  1  0  0  0  0
 13 33  1  0  0  0  0
 14 22  1  0  0  0  0
 14 34  1  0  0  0  0
 15 35  1  0  0  0  0
 15 36  1  0  0  0  0
 16 18  1  0  0  0  0
 16 37  1  0  0  0  0
 17 23  1  0  0  0  0
 17 38  1  0  0  0  0
 17 39  1  0  0  0  0
 18 19  1  0  0  0  0
 18 40  1  0  0  0  0
 19 21  1  0  0  0  0
 19 42  1  0  0  0  0
 21 43  1  0  0  0  0
 22 25  1  0  0  0  0
 22 45  1  0  0  0  0
 23 24  1  0  0  0  0
 23 46  1  0  0  0  0
 23 47  1  0  0  0  0
 24 26  1  0  0  0  0
 24 48  1  0  0  0  0
 24 49  1  0  0  0  0
 25 50  1  0  0  0  0
 25 51  1  0  0  0  0
 25 52  1  0  0  0  0
 26 28  1  0  0  0  0
 26 56  1  0  0  0  0
 26 57  1  0  0  0  0
 27 58  1  0  0  0  0
 27 59  1  0  0  0  0
 27 60  1  0  0  0  0
 28 61  1  0  0  0  0
 28 62  1  0  0  0  0
 28 63  1  0  0  0  0
M  END
> <PUBCHEM_COMPOUND_CID>
101306862

> <PUBCHEM_CONFORMER_RMSD>
1.2

> <PUBCHEM_CONFORMER_DIVERSEORDER>
1
53
137
4
119
157
56
163
139
60
111
126
87
178
65
93
169
122
62
84
40
146
176
26
76
33
161
125
188
190
57
130
172
58
20
149
131
85
104
89
180
159
83
29
7
50
191
124
177
173
142
9
61
38
39
109
106
128
34
158
102
187
133
116
99
27
101
113
44
54
45
112
143
77
150
6
168
165
98
28
55
144
167
32
114
95
21
64
135
63
5
179
160
182
148
100
67
72
103
108
118
184
110
70
185
115
94
97
10
24
25
16
15
90
147
120
71
138
3
174
52
41
107
127
47
35
171
141
140
74
145
91
75
117
36
12
153
132
162
189
129
154
18
194
49
136
192
156
181
186
175
31
82
11
30
96
14
78
121
23
152
43
193
166
88
164
46
183
79
37
73
81
134
17
48
170
92
51
105
151
86
2
80
59
68
19
69
22
13
8
42
66
155
123

> <PUBCHEM_MMFF94_PARTIAL_CHARGES>
25
1 -0.29
12 0.33
13 0.28
14 0.3
15 0.27
16 0.28
18 0.28
19 0.28
2 -0.46
20 0.57
21 0.51
22 0.29
27 0.23
3 -0.56
4 -0.68
41 0.36
44 0.37
5 -0.68
53 0.4
54 0.4
55 0.4
6 -0.68
7 -0.57
8 -0.9
9 -0.73

> <PUBCHEM_EFFECTIVE_ROTOR_COUNT>
12.2

> <PUBCHEM_PHARMACOPHORE_FEATURES>
16
1 27 hydrophobe
1 28 hydrophobe
1 3 acceptor
1 4 acceptor
1 4 donor
1 5 acceptor
1 5 donor
1 6 acceptor
1 6 donor
1 7 acceptor
1 8 cation
1 8 donor
1 9 donor
4 17 23 24 26 hydrophobe
5 8 10 11 12 15 rings
6 3 13 16 18 19 21 rings

> <PUBCHEM_HEAVY_ATOM_COUNT>
28

> <PUBCHEM_ATOM_DEF_STEREO_COUNT>
6

> <PUBCHEM_ATOM_UDEF_STEREO_COUNT>
3

> <PUBCHEM_BOND_DEF_STEREO_COUNT>
0

> <PUBCHEM_BOND_UDEF_STEREO_COUNT>
0

> <PUBCHEM_ISOTOPIC_ATOM_COUNT>
0

> <PUBCHEM_COMPONENT_COUNT>
1

> <PUBCHEM_CACTVS_TAUTO_COUNT>
2

> <PUBCHEM_CONFORMER_ID>
0609D1EE00000001

> <PUBCHEM_MMFF94_ENERGY>
55.8103

> <PUBCHEM_FEATURE_SELFOVERLAP>
81.214

> <PUBCHEM_SHAPE_FINGERPRINT>
10066227 112 18334010601643818805
10625338 86 16732976485361309573
10675989 125 18334010580021503506
10816530 90 18408877443179463993
10835480 77 18337949111907109132
11135609 187 18121224448704641128
11421498 54 14274001204852129901
12788726 201 17775298156886780504
13004483 165 18341887459985249570
14117953 113 18131074797099144014
15064981 113 16773803554896751741
15142383 8 18261110751285927435
15183329 4 18201721739171943411
15840311 113 18260270729140483509
16087824 20 18339361851943968841
18335252 114 18341602682700778517
20511986 3 17417519319603388086
21792934 111 18271233950833029728
23559900 14 18198899403991425939
3004659 81 18334857234435261694
335352 9 18413387627639889493
350125 39 18408602557326013925
4073 2 18187648071598586731
4144715 1 18191031295058299467
58260988 393 15068612756566546205
59682541 35 10809639116289824311
6009941 240 18113341920721134059
6328613 192 18411140264227214537
6443956 14 18341049743772753160

> <PUBCHEM_SHAPE_MULTIPOLES>
542.64
20.32
3.65
0.99
35.16
1.11
-0.11
9.16
3.94
-0.94
0.38
-0.53
0.23
-0.4

> <PUBCHEM_SHAPE_SELFOVERLAP>
1061.936

> <PUBCHEM_SHAPE_VOLUME>
328.9

> <PUBCHEM_COORDINATE_TYPE>
2
5
10

$$$$
