REMARK  Name = 101345907
REMARK  7 active torsions:
REMARK  status: ('A' for Active; 'I' for Inactive)
REMARK    1  A    between atoms: C_2  and  C_13
REMARK    2  A    between atoms: C_3  and  O_22
REMARK    3  A    between atoms: C_7  and  O_24
REMARK    4  A    between atoms: C_10  and  O_26
REMARK    5  A    between atoms: C_14  and  C_17
REMARK    6  A    between atoms: C_17  and  C_19
REMARK    7  A    between atoms: C_19  and  O_20
REMARK                            x       y       z     vdW  Elec       q    Type
REMARK                         _______ _______ _______ _____ _____    ______ ____
ROOT
ATOM      1  O   UNL     1       0.498   0.298   0.372  0.00  0.00    -0.473 OA
ATOM      2  C   UNL     1      -0.127  -0.719  -0.425  0.00  0.00    +0.215 C 
ATOM      3  C   UNL     1       0.615  -2.055  -0.332  0.00  0.00    +0.159 C 
ATOM      4  C   UNL     1       2.044  -1.877  -0.839  0.00  0.00    +0.066 C 
ATOM      5  C   UNL     1       2.656  -0.618  -0.304  0.00  0.00    +0.048 C 
ATOM      6  C   UNL     1       1.859   0.389   0.253  0.00  0.00    +0.141 C 
ATOM      7  C   UNL     1       4.042  -0.427  -0.382  0.00  0.00    +0.136 C 
ATOM      8  C   UNL     1       2.445   1.552   0.760  0.00  0.00    +0.073 C 
ATOM      9  C   UNL     1       4.624   0.740   0.114  0.00  0.00    +0.073 C 
ATOM     10  C   UNL     1       3.826   1.728   0.688  0.00  0.00    +0.140 C 
ENDROOT
BRANCH   2  13
ATOM     11  O   UNL     1      -3.793  -0.496   0.246  0.00  0.00    -0.444 OA
ATOM     12  O   UNL     1      -4.157  -2.088   1.866  0.00  0.00    -0.245 OA
ATOM     13  C   UNL     1      -1.536  -0.849   0.067  0.00  0.00    +0.044 C 
ATOM     14  C   UNL     1      -2.642  -0.013  -0.465  0.00  0.00    +0.202 C 
ATOM     15  C   UNL     1      -1.977  -1.706   0.983  0.00  0.00    +0.080 C 
ATOM     16  C   UNL     1      -3.418  -1.482   1.110  0.00  0.00    +0.341 C 
BRANCH  14  17
ATOM     17  C   UNL     1      -2.488   1.474  -0.190  0.00  0.00    +0.157 C 
BRANCH  17  19
ATOM     18  O   UNL     1      -4.597   1.825  -1.359  0.00  0.00    -0.250 OA
ATOM     19  C   UNL     1      -3.633   2.272  -0.757  0.00  0.00    +0.318 C 
BRANCH  19  20
ATOM     20  O   UNL     1      -3.448   3.594  -0.502  0.00  0.00    -0.480 OA
ATOM     21  H   UNL     1      -2.688   3.879  -0.035  0.00  0.00    +0.295 HD
ENDBRANCH  19  20
ENDBRANCH  17  19
ENDBRANCH  14  17
ENDBRANCH   2  13
BRANCH   3  22
ATOM     22  O   UNL     1      -0.036  -3.032  -1.137  0.00  0.00    -0.380 OA
ATOM     23  H   UNL     1      -0.946  -3.155  -0.824  0.00  0.00    +0.211 HD
ENDBRANCH   3  22
BRANCH   7  24
ATOM     24  O   UNL     1       4.849  -1.373  -0.942  0.00  0.00    -0.506 OA
ATOM     25  H   UNL     1       4.478  -2.164  -1.280  0.00  0.00    +0.292 HD
ENDBRANCH   7  24
BRANCH  10  26
ATOM     26  O   UNL     1       4.394   2.864   1.176  0.00  0.00    -0.505 OA
ATOM     27  H   UNL     1       3.857   3.527   1.562  0.00  0.00    +0.292 HD
ENDBRANCH  10  26
TORSDOF 7
