REMARK  Name = 101324719
REMARK  7 active torsions:
REMARK  status: ('A' for Active; 'I' for Inactive)
REMARK    1  A    between atoms: N_1  and  C_33
REMARK    2  A    between atoms: C_7  and  O_21
REMARK    3  A    between atoms: C_8  and  O_23
REMARK    4  A    between atoms: C_10  and  O_25
REMARK    5  A    between atoms: C_13  and  O_27
REMARK    6  A    between atoms: C_14  and  O_29
REMARK    7  A    between atoms: C_16  and  O_31
REMARK                            x       y       z     vdW  Elec       q    Type
REMARK                         _______ _______ _______ _____ _____    ______ ____
ROOT
ATOM      1  N   UNL     1       2.256  -1.389  -0.272  0.00  0.00    +0.390 N 
ATOM      2  C   UNL     1       1.021   0.541   0.719  0.00  0.00    +0.012 C 
ATOM      3  C   UNL     1      -0.446   1.066   1.026  0.00  0.00    +0.030 C 
ATOM      4  C   UNL     1       0.926  -0.760  -0.119  0.00  0.00    -0.053 C 
ATOM      5  C   UNL     1       1.781   1.411  -0.341  0.00  0.00    +0.023 C 
ATOM      6  C   UNL     1       0.303  -0.187  -1.429  0.00  0.00    +0.008 C 
ATOM      7  C   UNL     1      -1.407   1.268  -0.179  0.00  0.00    +0.135 C 
ATOM      8  C   UNL     1      -1.204   0.166  -1.257  0.00  0.00    +0.113 C 
ATOM      9  C   UNL     1       1.107   1.103  -1.698  0.00  0.00    +0.003 C 
ATOM     10  C   UNL     1       3.253   0.929  -0.426  0.00  0.00    +0.070 C 
ATOM     11  C   UNL     1      -1.284   0.179   1.987  0.00  0.00    +0.007 C 
ATOM     12  C   UNL     1      -2.638  -0.062   1.302  0.00  0.00    +0.057 C 
ATOM     13  C   UNL     1      -2.794   1.203   0.472  0.00  0.00    +0.144 C 
ATOM     14  C   UNL     1       1.811   0.470   2.076  0.00  0.00    +0.109 C 
ATOM     15  C   UNL     1      -2.066  -1.101  -1.007  0.00  0.00    +0.059 C 
ATOM     16  C   UNL     1      -2.575  -1.328   0.424  0.00  0.00    +0.120 C 
ATOM     17  C   UNL     1       3.290  -0.551  -0.895  0.00  0.00    -0.050 C 
ATOM     18  C   UNL     1       3.955   1.132   0.918  0.00  0.00    +0.027 C 
ATOM     19  C   UNL     1       3.328   0.302   2.013  0.00  0.00    +0.031 C 
ATOM     20  H   UNL     1       2.569  -1.513   0.691  0.00  0.00    -0.080 HD
ENDROOT
BRANCH   7  21
ATOM     21  O   UNL     1      -1.235   2.574  -0.724  0.00  0.00    -0.382 OA
ATOM     22  H   UNL     1      -0.362   2.638  -1.141  0.00  0.00    +0.210 HD
ENDBRANCH   7  21
BRANCH   8  23
ATOM     23  O   UNL     1      -1.663   0.694  -2.518  0.00  0.00    -0.384 OA
ATOM     24  H   UNL     1      -1.161   1.494  -2.736  0.00  0.00    +0.210 HD
ENDBRANCH   8  23
BRANCH  10  25
ATOM     25  O   UNL     1       3.958   1.712  -1.394  0.00  0.00    -0.389 OA
ATOM     26  H   UNL     1       3.538   1.606  -2.262  0.00  0.00    +0.210 HD
ENDBRANCH  10  25
BRANCH  13  27
ATOM     27  O   UNL     1      -3.860   1.128  -0.453  0.00  0.00    -0.351 OA
ATOM     28  C   UNL     1      -5.118   1.374   0.167  0.00  0.00    +0.174 C 
ENDBRANCH  13  27
BRANCH  14  29
ATOM     29  O   UNL     1       1.333  -0.564   2.933  0.00  0.00    -0.385 OA
ATOM     30  H   UNL     1       0.368  -0.501   3.008  0.00  0.00    +0.210 HD
ENDBRANCH  14  29
BRANCH  16  31
ATOM     31  O   UNL     1      -3.889  -1.890   0.324  0.00  0.00    -0.353 OA
ATOM     32  C   UNL     1      -3.830  -3.280   0.051  0.00  0.00    +0.174 C 
ENDBRANCH  16  31
BRANCH   1  33
ATOM     33  C   UNL     1       2.183  -2.702  -0.906  0.00  0.00    -0.077 C 
ATOM     34  C   UNL     1       3.505  -3.441  -0.792  0.00  0.00    -0.025 C 
ENDBRANCH   1  33
TORSDOF 7
