REMARK  Name = 10134240
REMARK  5 active torsions:
REMARK  status: ('A' for Active; 'I' for Inactive)
REMARK    1  A    between atoms: C_4  and  C_19
REMARK    2  A    between atoms: C_10  and  O_27
REMARK    3  A    between atoms: C_17  and  O_29
REMARK    4  A    between atoms: C_18  and  O_31
REMARK    5  A    between atoms: C_24  and  O_25
REMARK                            x       y       z     vdW  Elec       q    Type
REMARK                         _______ _______ _______ _____ _____    ______ ____
ROOT
ATOM      1  O   UNL     1      -2.018  -0.628  -0.195  0.00  0.00    -0.474 OA
ATOM      2  O   UNL     1       2.570  -2.017  -0.123  0.00  0.00    -0.453 OA
ATOM      3  O   UNL     1      -0.798   3.284  -0.094  0.00  0.00    -0.291 OA
ATOM      4  C   UNL     1      -2.854   0.386   0.381  0.00  0.00    +0.196 C 
ATOM      5  C   UNL     1      -2.616   1.735  -0.293  0.00  0.00    +0.117 C 
ATOM      6  C   UNL     1      -0.202   0.998  -0.080  0.00  0.00    +0.103 C 
ATOM      7  C   UNL     1       2.074   0.188  -0.034  0.00  0.00    +0.072 A 
ATOM      8  C   UNL     1      -0.680  -0.317  -0.140  0.00  0.00    +0.148 C 
ATOM      9  C   UNL     1      -1.169   2.117  -0.128  0.00  0.00    +0.183 C 
ATOM     10  C   UNL     1       1.174   1.271  -0.020  0.00  0.00    +0.142 C 
ATOM     11  C   UNL     1       1.560  -1.102  -0.114  0.00  0.00    +0.151 A 
ATOM     12  C   UNL     1       3.492   0.044   0.009  0.00  0.00    +0.044 A 
ATOM     13  C   UNL     1       0.200  -1.403  -0.176  0.00  0.00    +0.075 C 
ATOM     14  C   UNL     1       3.740  -1.324  -0.048  0.00  0.00    +0.149 A 
ATOM     15  C   UNL     1       4.590   0.920   0.088  0.00  0.00    +0.043 C 
ATOM     16  C   UNL     1       5.015  -1.889  -0.030  0.00  0.00    +0.077 C 
ATOM     17  C   UNL     1       5.884   0.381   0.107  0.00  0.00    +0.168 C 
ATOM     18  C   UNL     1       6.090  -0.999   0.049  0.00  0.00    +0.171 C 
ENDROOT
BRANCH   4  19
ATOM     19  C   UNL     1      -4.298  -0.048   0.242  0.00  0.00    +0.018 C 
ATOM     20  C   UNL     1      -5.067  -0.286   1.381  0.00  0.00    +0.002 C 
ATOM     21  C   UNL     1      -4.858  -0.209  -1.025  0.00  0.00    +0.002 C 
ATOM     22  C   UNL     1      -6.397  -0.686   1.252  0.00  0.00    +0.036 C 
ATOM     23  C   UNL     1      -6.188  -0.609  -1.153  0.00  0.00    +0.036 C 
ATOM     24  C   UNL     1      -6.957  -0.847  -0.015  0.00  0.00    +0.134 C 
BRANCH  24  25
ATOM     25  O   UNL     1      -8.255  -1.238  -0.139  0.00  0.00    -0.506 OA
ATOM     26  H   UNL     1      -8.772  -1.398   0.626  0.00  0.00    +0.292 HD
ENDBRANCH  24  25
ENDBRANCH   4  19
BRANCH  10  27
ATOM     27  O   UNL     1       1.659   2.547   0.044  0.00  0.00    -0.505 OA
ATOM     28  H   UNL     1       1.067   3.273   0.054  0.00  0.00    +0.292 HD
ENDBRANCH  10  27
BRANCH  17  29
ATOM     29  O   UNL     1       6.949   1.231   0.184  0.00  0.00    -0.503 OA
ATOM     30  H   UNL     1       6.809   2.156   0.223  0.00  0.00    +0.292 HD
ENDBRANCH  17  29
BRANCH  18  31
ATOM     31  O   UNL     1       7.358  -1.502   0.069  0.00  0.00    -0.503 OA
ATOM     32  H   UNL     1       7.496  -2.428   0.030  0.00  0.00    +0.292 HD
ENDBRANCH  18  31
TORSDOF 5
