101361613
  -OEChem-03292013293D

 40 44  0     1  0  0  0  0  0999 V2000
   -2.3078    0.9882    1.1342 O   0  0  0  0  0  0  0  0  0  0  0  0
   -0.7161   -2.4893   -0.3270 O   0  0  0  0  0  0  0  0  0  0  0  0
    0.6832    1.8672   -0.8065 O   0  0  0  0  0  0  0  0  0  0  0  0
    2.5531    0.5690    1.3132 O   0  0  0  0  0  0  0  0  0  0  0  0
    2.1235   -1.4333   -1.4880 O   0  0  0  0  0  0  0  0  0  0  0  0
   -0.2014    3.0106    0.9371 O   0  0  0  0  0  0  0  0  0  0  0  0
    3.8641    0.6053   -0.5655 O   0  0  0  0  0  0  0  0  0  0  0  0
   -1.2968   -0.1536   -0.6213 C   0  0  2  0  0  0  0  0  0  0  0  0
   -0.5888   -1.1973    0.3234 C   0  0  2  0  0  0  0  0  0  0  0  0
    0.9285   -0.9982    0.6033 C   0  0  1  0  0  0  0  0  0  0  0  0
   -2.7455   -0.6627   -0.5236 C   0  0  1  0  0  0  0  0  0  0  0  0
   -2.7438   -0.3960    0.9954 C   0  0  1  0  0  0  0  0  0  0  0  0
   -1.5626   -1.2420    1.5234 C   0  0  0  0  0  0  0  0  0  0  0  0
   -0.5439    0.0155   -1.9134 C   0  0  0  0  0  0  0  0  0  0  0  0
   -1.5024    1.2336   -0.0122 C   0  0  2  0  0  0  0  0  0  0  0  0
    1.6453   -0.4041   -0.6355 C   0  0  2  0  0  0  0  0  0  0  0  0
    0.8215    0.5925   -1.4983 C   0  0  2  0  0  0  0  0  0  0  0  0
    1.2993   -0.0104    1.7092 C   0  0  0  0  0  0  0  0  0  0  0  0
    1.5807   -2.3520    1.0364 C   0  0  0  0  0  0  0  0  0  0  0  0
   -3.8359    0.0604   -1.3056 C   0  0  0  0  0  0  0  0  0  0  0  0
   -0.2794    2.0973    0.1218 C   0  0  0  0  0  0  0  0  0  0  0  0
    2.8252    0.2992   -0.0005 C   0  0  0  0  0  0  0  0  0  0  0  0
   -2.8525   -1.7295   -0.7503 H   0  0  0  0  0  0  0  0  0  0  0  0
   -3.6852   -0.5591    1.5242 H   0  0  0  0  0  0  0  0  0  0  0  0
   -1.1454   -0.7922    2.4284 H   0  0  0  0  0  0  0  0  0  0  0  0
   -1.8886   -2.2644    1.7426 H   0  0  0  0  0  0  0  0  0  0  0  0
   -1.0623    0.7248   -2.5698 H   0  0  0  0  0  0  0  0  0  0  0  0
   -0.4351   -0.9190   -2.4712 H   0  0  0  0  0  0  0  0  0  0  0  0
   -2.1145    1.8488   -0.6867 H   0  0  0  0  0  0  0  0  0  0  0  0
    1.3762    0.8195   -2.4171 H   0  0  0  0  0  0  0  0  0  0  0  0
    0.5814    0.7836    1.8922 H   0  0  0  0  0  0  0  0  0  0  0  0
    1.4492   -0.5025    2.6772 H   0  0  0  0  0  0  0  0  0  0  0  0
    1.5389   -3.1173    0.2549 H   0  0  0  0  0  0  0  0  0  0  0  0
    1.0744   -2.7566    1.9207 H   0  0  0  0  0  0  0  0  0  0  0  0
    2.6391   -2.2259    1.2939 H   0  0  0  0  0  0  0  0  0  0  0  0
   -4.0389    1.0749   -0.9527 H   0  0  0  0  0  0  0  0  0  0  0  0
   -4.7794   -0.4883   -1.2059 H   0  0  0  0  0  0  0  0  0  0  0  0
   -3.5864    0.1022   -2.3702 H   0  0  0  0  0  0  0  0  0  0  0  0
   -0.1472   -2.4936   -1.1145 H   0  0  0  0  0  0  0  0  0  0  0  0
    2.6156   -1.0212   -2.2183 H   0  0  0  0  0  0  0  0  0  0  0  0
  1 12  1  0  0  0  0
  1 15  1  0  0  0  0
  2  9  1  0  0  0  0
  2 39  1  0  0  0  0
  3 17  1  0  0  0  0
  3 21  1  0  0  0  0
  4 18  1  0  0  0  0
  4 22  1  0  0  0  0
  5 16  1  0  0  0  0
  5 40  1  0  0  0  0
  6 21  2  0  0  0  0
  7 22  2  0  0  0  0
  8  9  1  0  0  0  0
  8 11  1  0  0  0  0
  8 14  1  0  0  0  0
  8 15  1  0  0  0  0
  9 10  1  0  0  0  0
  9 13  1  0  0  0  0
 10 16  1  0  0  0  0
 10 18  1  0  0  0  0
 10 19  1  0  0  0  0
 11 12  1  0  0  0  0
 11 20  1  0  0  0  0
 11 23  1  0  0  0  0
 12 13  1  0  0  0  0
 12 24  1  0  0  0  0
 13 25  1  0  0  0  0
 13 26  1  0  0  0  0
 14 17  1  0  0  0  0
 14 27  1  0  0  0  0
 14 28  1  0  0  0  0
 15 21  1  0  0  0  0
 15 29  1  0  0  0  0
 16 17  1  0  0  0  0
 16 22  1  0  0  0  0
 17 30  1  0  0  0  0
 18 31  1  0  0  0  0
 18 32  1  0  0  0  0
 19 33  1  0  0  0  0
 19 34  1  0  0  0  0
 19 35  1  0  0  0  0
 20 36  1  0  0  0  0
 20 37  1  0  0  0  0
 20 38  1  0  0  0  0
M  END
> <PUBCHEM_COMPOUND_CID>
101361613

> <PUBCHEM_CONFORMER_RMSD>
0.6

> <PUBCHEM_CONFORMER_DIVERSEORDER>
1

> <PUBCHEM_MMFF94_PARTIAL_CHARGES>
17
1 -0.56
12 0.28
15 0.34
16 0.34
17 0.28
18 0.28
2 -0.68
21 0.66
22 0.66
3 -0.43
39 0.4
4 -0.43
40 0.4
5 -0.68
6 -0.57
7 -0.57
9 0.28

> <PUBCHEM_EFFECTIVE_ROTOR_COUNT>
1.4

> <PUBCHEM_PHARMACOPHORE_FEATURES>
11
1 1 acceptor
1 2 acceptor
1 2 donor
1 5 acceptor
1 5 donor
1 6 acceptor
1 7 acceptor
5 4 10 16 18 22 rings
6 3 8 14 15 17 21 rings
6 8 9 10 14 16 17 rings
7 1 8 9 11 12 13 15 rings

> <PUBCHEM_HEAVY_ATOM_COUNT>
22

> <PUBCHEM_ATOM_DEF_STEREO_COUNT>
8

> <PUBCHEM_ATOM_UDEF_STEREO_COUNT>
0

> <PUBCHEM_BOND_DEF_STEREO_COUNT>
0

> <PUBCHEM_BOND_UDEF_STEREO_COUNT>
0

> <PUBCHEM_ISOTOPIC_ATOM_COUNT>
0

> <PUBCHEM_COMPONENT_COUNT>
1

> <PUBCHEM_CACTVS_TAUTO_COUNT>
1

> <PUBCHEM_CONFORMER_ID>
060AA7CD00000001

> <PUBCHEM_MMFF94_ENERGY>
113.0057

> <PUBCHEM_FEATURE_SELFOVERLAP>
57.5

> <PUBCHEM_SHAPE_FINGERPRINT>
10863032 1 15410906127803279467
10948715 1 17703520921139444561
12011746 2 18412256259501363012
12423570 1 17341854090644208701
12491281 212 16773251637811681379
13027679 85 18191032398374153861
13140716 1 18120375620709519713
13172582 1 18262243316744760006
141345 1 15404940014591848037
144361 1 17604422011305772905
14787075 74 17974020727453106482
14817 1 17697592191202148525
15557651 10 17632297817740442897
15881359 60 17317004066762288767
16945 1 17749685029386268543
22802520 49 18053968180840849982
2334 1 17687184605049263769
23402539 116 18271795835344326566
23419403 2 16037669798975676943
23493267 7 17240487970300934762
23559900 14 18337957900417901740
2748010 2 18190177884460049903
296302 2 16877938343273760621
3286 77 16128369393824832616
568465 68 17896055392935442962
70251023 43 17977654313390018267

> <PUBCHEM_SHAPE_MULTIPOLES>
411.66
4.4
2.23
1.65
0.24
0.21
0.11
-0.02
0.53
-0.25
-0.56
0.05
0.05
-0.02

> <PUBCHEM_SHAPE_SELFOVERLAP>
942.181

> <PUBCHEM_SHAPE_VOLUME>
214.8

> <PUBCHEM_COORDINATE_TYPE>
2
5
10

$$$$
