REMARK  Name = 101377924
REMARK  9 active torsions:
REMARK  status: ('A' for Active; 'I' for Inactive)
REMARK    1  A    between atoms: C_4  and  C_29
REMARK    2  A    between atoms: C_7  and  O_25
REMARK    3  A    between atoms: C_8  and  C_15
REMARK    4  A    between atoms: C_13  and  O_27
REMARK    5  A    between atoms: C_18  and  O_21
REMARK    6  A    between atoms: C_20  and  O_23
REMARK    7  A    between atoms: C_29  and  C_30
REMARK    8  A    between atoms: C_30  and  C_31
REMARK    9  A    between atoms: C_31  and  C_32
REMARK                            x       y       z     vdW  Elec       q    Type
REMARK                         _______ _______ _______ _____ _____    ______ ____
ROOT
ATOM      1  O   UNL     1       0.033  -0.784  -0.329  0.00  0.00    -0.473 OA
ATOM      2  O   UNL     1       4.417   0.834  -0.386  0.00  0.00    -0.424 OA
ATOM      3  O   UNL     1       3.881   3.002  -0.953  0.00  0.00    -0.249 OA
ATOM      4  C   UNL     1       2.082   1.373  -0.684  0.00  0.00    +0.128 C 
ATOM      5  C   UNL     1       2.268  -0.048  -0.314  0.00  0.00    +0.057 C 
ATOM      6  C   UNL     1       1.355  -1.077  -0.147  0.00  0.00    +0.137 C 
ATOM      7  C   UNL     1      -0.560  -2.997   0.579  0.00  0.00    +0.159 C 
ATOM      8  C   UNL     1      -0.830  -1.921  -0.481  0.00  0.00    +0.215 C 
ATOM      9  C   UNL     1       1.829  -2.345   0.223  0.00  0.00    +0.048 C 
ATOM     10  C   UNL     1       0.878  -3.493   0.445  0.00  0.00    +0.066 C 
ATOM     11  C   UNL     1       3.624  -0.278  -0.164  0.00  0.00    +0.151 C 
ATOM     12  C   UNL     1       3.528   1.859  -0.700  0.00  0.00    +0.325 C 
ATOM     13  C   UNL     1       3.216  -2.558   0.370  0.00  0.00    +0.136 C 
ATOM     14  C   UNL     1       4.126  -1.519   0.174  0.00  0.00    +0.074 C 
ENDROOT
BRANCH   8  15
ATOM     15  C   UNL     1      -2.276  -1.463  -0.466  0.00  0.00    +0.023 C 
ATOM     16  C   UNL     1      -2.656  -0.380   0.327  0.00  0.00    +0.039 C 
ATOM     17  C   UNL     1      -3.226  -2.125  -1.244  0.00  0.00    +0.003 C 
ATOM     18  C   UNL     1      -3.986   0.042   0.340  0.00  0.00    +0.167 C 
ATOM     19  C   UNL     1      -4.556  -1.703  -1.230  0.00  0.00    +0.040 C 
ATOM     20  C   UNL     1      -4.935  -0.620  -0.438  0.00  0.00    +0.167 C 
BRANCH  18  21
ATOM     21  O   UNL     1      -4.343   1.103   1.116  0.00  0.00    -0.503 OA
ATOM     22  H   UNL     1      -3.699   1.542   1.636  0.00  0.00    +0.292 HD
ENDBRANCH  18  21
BRANCH  20  23
ATOM     23  O   UNL     1      -6.236  -0.216  -0.433  0.00  0.00    -0.503 OA
ATOM     24  H   UNL     1      -6.500   0.511   0.096  0.00  0.00    +0.292 HD
ENDBRANCH  20  23
ENDBRANCH   8  15
BRANCH   7  25
ATOM     25  O   UNL     1      -0.749  -2.454   1.887  0.00  0.00    -0.380 OA
ATOM     26  H   UNL     1      -1.661  -2.137   1.977  0.00  0.00    +0.211 HD
ENDBRANCH   7  25
BRANCH  13  27
ATOM     27  O   UNL     1       3.699  -3.790   0.705  0.00  0.00    -0.506 OA
ATOM     28  H   UNL     1       3.107  -4.504   0.842  0.00  0.00    +0.292 HD
ENDBRANCH  13  27
BRANCH   4  29
ATOM     29  C   UNL     1       1.262   2.169   0.318  0.00  0.00    +0.016 C 
BRANCH  29  30
ATOM     30  C   UNL     1       0.658   3.420  -0.320  0.00  0.00    +0.001 C 
BRANCH  30  31
ATOM     31  C   UNL     1      -0.139   4.236   0.699  0.00  0.00    +0.000 C 
BRANCH  31  32
ATOM     32  C   UNL     1      -0.771   5.468   0.052  0.00  0.00    +0.000 C 
ATOM     33  C   UNL     1      -1.592   6.264   1.054  0.00  0.00    +0.000 C 
ENDBRANCH  31  32
ENDBRANCH  30  31
ENDBRANCH  29  30
ENDBRANCH   4  29
TORSDOF 9
