REMARK  Name = 101306693
REMARK  8 active torsions:
REMARK  status: ('A' for Active; 'I' for Inactive)
REMARK    1  A    between atoms: C_4  and  O_22
REMARK    2  A    between atoms: C_9  and  O_24
REMARK    3  A    between atoms: C_10  and  O_30
REMARK    4  A    between atoms: C_11  and  O_26
REMARK    5  A    between atoms: C_15  and  O_28
REMARK    6  A    between atoms: O_30  and  C_32
REMARK    7  A    between atoms: C_32  and  C_33
REMARK    8  A    between atoms: C_33  and  O_35
REMARK                            x       y       z     vdW  Elec       q    Type
REMARK                         _______ _______ _______ _____ _____    ______ ____
ROOT
ATOM      1  O   UNL     1       4.447   0.595   0.878  0.00  0.00    -0.354 OA
ATOM      2  C   UNL     1       1.957   0.285   0.729  0.00  0.00    +0.081 C 
ATOM      3  C   UNL     1      -0.727   0.911  -0.824  0.00  0.00    +0.044 C 
ATOM      4  C   UNL     1       2.324  -0.352  -0.642  0.00  0.00    +0.119 C 
ATOM      5  C   UNL     1       3.240   0.189   1.542  0.00  0.00    +0.147 C 
ATOM      6  C   UNL     1       0.143   2.063  -0.185  0.00  0.00    +0.028 C 
ATOM      7  C   UNL     1       3.483  -1.401  -0.294  0.00  0.00    +0.052 C 
ATOM      8  C   UNL     1       4.152  -0.803   0.927  0.00  0.00    +0.144 C 
ATOM      9  C   UNL     1       1.332   1.705   0.805  0.00  0.00    +0.093 C 
ATOM     10  C   UNL     1      -1.506   0.212   0.305  0.00  0.00    +0.171 C 
ATOM     11  C   UNL     1       1.082  -0.976  -1.295  0.00  0.00    +0.135 C 
ATOM     12  C   UNL     1       0.047   0.015  -1.810  0.00  0.00    +0.035 C 
ATOM     13  C   UNL     1      -2.602   1.261   0.603  0.00  0.00    +0.065 C 
ATOM     14  C   UNL     1      -1.897   1.555  -1.696  0.00  0.00    +0.031 C 
ATOM     15  C   UNL     1      -3.150   1.587  -0.801  0.00  0.00    +0.092 C 
ATOM     16  C   UNL     1      -0.811   3.110   0.483  0.00  0.00    +0.003 C 
ATOM     17  C   UNL     1      -1.959   2.477   1.292  0.00  0.00    +0.006 C 
ATOM     18  C   UNL     1       2.947  -2.790   0.119  0.00  0.00    +0.005 C 
ATOM     19  C   UNL     1       4.527  -1.579  -1.407  0.00  0.00    +0.005 C 
ATOM     20  C   UNL     1       2.393   2.832   0.691  0.00  0.00    +0.029 C 
ATOM     21  C   UNL     1      -3.974   2.864  -0.928  0.00  0.00    +0.029 C 
ENDROOT
BRANCH   4  22
ATOM     22  O   UNL     1       2.842   0.662  -1.504  0.00  0.00    -0.384 OA
ATOM     23  H   UNL     1       3.627   1.062  -1.098  0.00  0.00    +0.210 HD
ENDBRANCH   4  22
BRANCH   9  24
ATOM     24  O   UNL     1       0.848   1.757   2.168  0.00  0.00    -0.387 OA
ATOM     25  H   UNL     1       0.177   1.069   2.299  0.00  0.00    +0.210 HD
ENDBRANCH   9  24
BRANCH  11  26
ATOM     26  O   UNL     1       1.513  -1.730  -2.437  0.00  0.00    -0.382 OA
ATOM     27  H   UNL     1       2.178  -2.381  -2.162  0.00  0.00    +0.210 HD
ENDBRANCH  11  26
BRANCH  15  28
ATOM     28  O   UNL     1      -4.019   0.511  -1.188  0.00  0.00    -0.387 OA
ATOM     29  H   UNL     1      -3.540  -0.330  -1.125  0.00  0.00    +0.210 HD
ENDBRANCH  15  28
BRANCH  10  30
ATOM     30  O   UNL     1      -2.056  -1.038  -0.085  0.00  0.00    -0.451 OA
BRANCH  30  32
ATOM     31  O   UNL     1      -2.053  -1.739   2.112  0.00  0.00    -0.247 OA
ATOM     32  C   UNL     1      -2.284  -1.933   0.925  0.00  0.00    +0.344 C 
BRANCH  32  33
ATOM     33  C   UNL     1      -2.896  -3.202   0.367  0.00  0.00    +0.210 C 
ATOM     34  C   UNL     1      -4.242  -2.929  -0.283  0.00  0.00    +0.044 C 
BRANCH  33  35
ATOM     35  O   UNL     1      -3.099  -4.116   1.434  0.00  0.00    -0.374 OA
ATOM     36  H   UNL     1      -2.250  -4.305   1.864  0.00  0.00    +0.211 HD
ENDBRANCH  33  35
ENDBRANCH  32  33
ENDBRANCH  30  32
ENDBRANCH  10  30
TORSDOF 8
