101301309
  -OEChem-03292013293D

 72 73  0     1  0  0  0  0  0999 V2000
    0.3517    2.6511    0.3907 O   0  0  0  0  0  0  0  0  0  0  0  0
    0.7597    4.9155    0.4245 O   0  0  0  0  0  0  0  0  0  0  0  0
    2.2239   -5.2052    1.2651 O   0  0  0  0  0  0  0  0  0  0  0  0
    4.6054   -2.1499   -0.7675 O   0  0  0  0  0  0  0  0  0  0  0  0
   -3.7912    0.6430   -1.7288 O   0  0  0  0  0  0  0  0  0  0  0  0
    4.3373    1.9072   -1.9164 O   0  0  0  0  0  0  0  0  0  0  0  0
    2.7893    1.9854   -0.1933 N   0  0  0  0  0  0  0  0  0  0  0  0
   -5.4162   -0.0876   -0.2341 N   0  0  0  0  0  0  0  0  0  0  0  0
    3.2446   -0.7035    0.3136 N   0  0  0  0  0  0  0  0  0  0  0  0
   -1.0027    2.8217    0.8771 C   0  0  2  0  0  0  0  0  0  0  0  0
   -1.1953    1.7579    1.9588 C   0  0  0  0  0  0  0  0  0  0  0  0
   -2.0089    2.6576   -0.2909 C   0  0  2  0  0  0  0  0  0  0  0  0
   -0.2105    1.9758    3.1042 C   0  0  0  0  0  0  0  0  0  0  0  0
   -1.0341    0.3597    1.3683 C   0  0  0  0  0  0  0  0  0  0  0  0
   -1.7215    3.6297   -1.4400 C   0  0  0  0  0  0  0  0  0  0  0  0
   -3.4291    2.8779    0.1834 C   0  0  0  0  0  0  0  0  0  0  0  0
    1.1296    3.7603    0.2420 C   0  0  0  0  0  0  0  0  0  0  0  0
    2.5267    3.4170   -0.2562 C   0  0  1  0  0  0  0  0  0  0  0  0
   -4.5037    2.0921    0.0229 C   0  0  0  0  0  0  0  0  0  0  0  0
    2.3980   -4.0771    0.4079 C   0  0  1  0  0  0  0  0  0  0  0  0
    1.0247   -3.4464    0.1421 C   0  0  0  0  0  0  0  0  0  0  0  0
    3.3671   -3.1024    1.0876 C   0  0  0  0  0  0  0  0  0  0  0  0
    3.5726    4.1780    0.5517 C   0  0  0  0  0  0  0  0  0  0  0  0
    0.0333   -4.4302   -0.4897 C   0  0  0  0  0  0  0  0  0  0  0  0
    3.7041   -1.9360    0.2376 C   0  0  0  0  0  0  0  0  0  0  0  0
   -4.5103    0.8250   -0.7528 C   0  0  0  0  0  0  0  0  0  0  0  0
    3.7095    1.3542   -1.0175 C   0  0  0  0  0  0  0  0  0  0  0  0
   -1.2244   -3.7156   -0.8979 C   0  0  0  0  0  0  0  0  0  0  0  0
    3.8870   -0.0506   -0.7143 C   0  0  0  0  0  0  0  0  0  0  0  0
   -2.3320   -3.5091   -0.1562 C   0  0  0  0  0  0  0  0  0  0  0  0
    4.7139   -0.9347   -1.3703 C   0  0  0  0  0  0  0  0  0  0  0  0
   -5.5569   -1.4314   -0.7662 C   0  0  0  0  0  0  0  0  0  0  0  0
   -3.4217   -2.7268   -0.7362 C   0  0  0  0  0  0  0  0  0  0  0  0
   -4.5315   -2.3048   -0.1090 C   0  0  0  0  0  0  0  0  0  0  0  0
   -2.4883   -3.9976    1.2598 C   0  0  0  0  0  0  0  0  0  0  0  0
   -1.1238    3.8134    1.3330 H   0  0  0  0  0  0  0  0  0  0  0  0
   -2.2036    1.8379    2.3825 H   0  0  0  0  0  0  0  0  0  0  0  0
   -1.8798    1.6650   -0.7283 H   0  0  0  0  0  0  0  0  0  0  0  0
    0.8276    1.8249    2.7897 H   0  0  0  0  0  0  0  0  0  0  0  0
   -0.0894    0.2334    0.8296 H   0  0  0  0  0  0  0  0  0  0  0  0
   -1.8551    0.0945    0.6971 H   0  0  0  0  0  0  0  0  0  0  0  0
   -1.0472   -0.3895    2.1690 H   0  0  0  0  0  0  0  0  0  0  0  0
   -0.4111    1.2732    3.9205 H   0  0  0  0  0  0  0  0  0  0  0  0
   -0.3003    2.9887    3.5109 H   0  0  0  0  0  0  0  0  0  0  0  0
   -1.7313    4.6703   -1.0968 H   0  0  0  0  0  0  0  0  0  0  0  0
   -2.4708    3.5323   -2.2342 H   0  0  0  0  0  0  0  0  0  0  0  0
   -0.7454    3.4296   -1.8937 H   0  0  0  0  0  0  0  0  0  0  0  0
   -3.5856    3.7933    0.7546 H   0  0  0  0  0  0  0  0  0  0  0  0
    2.5777    3.7201   -1.3085 H   0  0  0  0  0  0  0  0  0  0  0  0
   -5.4449    2.3924    0.4758 H   0  0  0  0  0  0  0  0  0  0  0  0
    2.8213   -4.4398   -0.5367 H   0  0  0  0  0  0  0  0  0  0  0  0
    1.1380   -2.5752   -0.5148 H   0  0  0  0  0  0  0  0  0  0  0  0
    0.6025   -3.0847    1.0891 H   0  0  0  0  0  0  0  0  0  0  0  0
    4.2897   -3.6312    1.3585 H   0  0  0  0  0  0  0  0  0  0  0  0
    2.9415   -2.7572    2.0382 H   0  0  0  0  0  0  0  0  0  0  0  0
   -0.1822   -5.2626    0.1877 H   0  0  0  0  0  0  0  0  0  0  0  0
    0.4760   -4.8809   -1.3866 H   0  0  0  0  0  0  0  0  0  0  0  0
    3.4153    5.2597    0.4836 H   0  0  0  0  0  0  0  0  0  0  0  0
    4.5846    3.9616    0.1934 H   0  0  0  0  0  0  0  0  0  0  0  0
    3.5282    3.9018    1.6115 H   0  0  0  0  0  0  0  0  0  0  0  0
    2.3148    1.4467    0.5265 H   0  0  0  0  0  0  0  0  0  0  0  0
   -1.1832   -3.3030   -1.9063 H   0  0  0  0  0  0  0  0  0  0  0  0
   -5.9706    0.1563    0.5820 H   0  0  0  0  0  0  0  0  0  0  0  0
    3.0953   -5.6197    1.3853 H   0  0  0  0  0  0  0  0  0  0  0  0
    5.3927   -0.8737   -2.2080 H   0  0  0  0  0  0  0  0  0  0  0  0
   -6.5650   -1.7871   -0.5333 H   0  0  0  0  0  0  0  0  0  0  0  0
   -5.4400   -1.4030   -1.8548 H   0  0  0  0  0  0  0  0  0  0  0  0
   -3.2866   -2.4231   -1.7738 H   0  0  0  0  0  0  0  0  0  0  0  0
   -4.7174   -2.5600    0.9306 H   0  0  0  0  0  0  0  0  0  0  0  0
   -3.3585   -4.6578    1.3442 H   0  0  0  0  0  0  0  0  0  0  0  0
   -2.6181   -3.1537    1.9466 H   0  0  0  0  0  0  0  0  0  0  0  0
   -1.6249   -4.5616    1.6211 H   0  0  0  0  0  0  0  0  0  0  0  0
  1 10  1  0  0  0  0
  1 17  1  0  0  0  0
  2 17  2  0  0  0  0
  3 20  1  0  0  0  0
  3 64  1  0  0  0  0
  4 25  1  0  0  0  0
  4 31  1  0  0  0  0
  5 26  2  0  0  0  0
  6 27  2  0  0  0  0
  7 18  1  0  0  0  0
  7 27  1  0  0  0  0
  7 61  1  0  0  0  0
  8 26  1  0  0  0  0
  8 32  1  0  0  0  0
  8 63  1  0  0  0  0
  9 25  2  0  0  0  0
  9 29  1  0  0  0  0
 10 11  1  0  0  0  0
 10 12  1  0  0  0  0
 10 36  1  0  0  0  0
 11 13  1  0  0  0  0
 11 14  1  0  0  0  0
 11 37  1  0  0  0  0
 12 15  1  0  0  0  0
 12 16  1  0  0  0  0
 12 38  1  0  0  0  0
 13 39  1  0  0  0  0
 13 43  1  0  0  0  0
 13 44  1  0  0  0  0
 14 40  1  0  0  0  0
 14 41  1  0  0  0  0
 14 42  1  0  0  0  0
 15 45  1  0  0  0  0
 15 46  1  0  0  0  0
 15 47  1  0  0  0  0
 16 19  2  0  0  0  0
 16 48  1  0  0  0  0
 17 18  1  0  0  0  0
 18 23  1  0  0  0  0
 18 49  1  0  0  0  0
 19 26  1  0  0  0  0
 19 50  1  0  0  0  0
 20 21  1  0  0  0  0
 20 22  1  0  0  0  0
 20 51  1  0  0  0  0
 21 24  1  0  0  0  0
 21 52  1  0  0  0  0
 21 53  1  0  0  0  0
 22 25  1  0  0  0  0
 22 54  1  0  0  0  0
 22 55  1  0  0  0  0
 23 58  1  0  0  0  0
 23 59  1  0  0  0  0
 23 60  1  0  0  0  0
 24 28  1  0  0  0  0
 24 56  1  0  0  0  0
 24 57  1  0  0  0  0
 27 29  1  0  0  0  0
 28 30  2  0  0  0  0
 28 62  1  0  0  0  0
 29 31  2  0  0  0  0
 30 33  1  0  0  0  0
 30 35  1  0  0  0  0
 31 65  1  0  0  0  0
 32 34  1  0  0  0  0
 32 66  1  0  0  0  0
 32 67  1  0  0  0  0
 33 34  2  0  0  0  0
 33 68  1  0  0  0  0
 34 69  1  0  0  0  0
 35 70  1  0  0  0  0
 35 71  1  0  0  0  0
 35 72  1  0  0  0  0
M  END
> <PUBCHEM_COMPOUND_CID>
101301309

> <PUBCHEM_CONFORMER_RMSD>
0.8

> <PUBCHEM_CONFORMER_DIVERSEORDER>
1
2

> <PUBCHEM_MMFF94_PARTIAL_CHARGES>
38
1 -0.43
10 0.28
12 0.14
16 -0.29
17 0.66
18 0.36
19 -0.14
2 -0.57
20 0.28
22 0.18
24 0.14
25 0.3
26 0.62
27 0.72
28 -0.29
29 0.14
3 -0.68
30 -0.14
31 -0.01
32 0.44
33 -0.15
34 -0.29
35 0.14
4 -0.28
48 0.15
5 -0.57
50 0.15
6 -0.57
61 0.37
62 0.15
63 0.37
64 0.4
65 0.15
68 0.15
69 0.15
7 -0.73
8 -0.73
9 -0.57

> <PUBCHEM_EFFECTIVE_ROTOR_COUNT>
3.2

> <PUBCHEM_PHARMACOPHORE_FEATURES>
9
1 2 acceptor
1 3 acceptor
1 3 donor
1 5 acceptor
1 6 acceptor
1 7 donor
1 8 donor
3 11 13 14 hydrophobe
5 4 9 25 29 31 rings

> <PUBCHEM_HEAVY_ATOM_COUNT>
35

> <PUBCHEM_ATOM_DEF_STEREO_COUNT>
4

> <PUBCHEM_ATOM_UDEF_STEREO_COUNT>
0

> <PUBCHEM_BOND_DEF_STEREO_COUNT>
3

> <PUBCHEM_BOND_UDEF_STEREO_COUNT>
0

> <PUBCHEM_ISOTOPIC_ATOM_COUNT>
0

> <PUBCHEM_COMPONENT_COUNT>
1

> <PUBCHEM_CACTVS_TAUTO_COUNT>
8

> <PUBCHEM_CONFORMER_ID>
0609BC3D00000001

> <PUBCHEM_MMFF94_ENERGY>
51.2519

> <PUBCHEM_FEATURE_SELFOVERLAP>
45.672

> <PUBCHEM_SHAPE_FINGERPRINT>
10675989 125 18338794644949593306
10908659 184 17830739751286616889
1361 2 18266179422401410569
14117953 113 17402890025432725439
144659 178 18122342367854794686
14932702 115 18201152153246260267
15001296 14 18335984172990882727
15264996 142 17905066762794378682
15264996 151 18189335659028284603
15320291 9 17977096856002916759
15320467 1 18410854386502707335
15351339 4 18338794636443989850
15406563 228 18260553320851025788
161222 619 17762091781587734923
20764821 26 18123168350269223535
21792938 131 18270948108670955647
325973 47 18410857629234755231
3493558 16 18260834752609654831
45266715 3 17624102282170366959
463206 1 18265618688645852080
50150288 127 17057563359107085505
6433294 58 18339921635793706533
9831354 38 17549768471577317989
9982175 69 16612207578641525535

> <PUBCHEM_SHAPE_MULTIPOLES>
670.12
10.46
8.71
1.66
3.32
3.23
0.78
1.75
-4.15
-2.59
1.35
-0.19
-0.66
-0.63

> <PUBCHEM_SHAPE_SELFOVERLAP>
1363.499

> <PUBCHEM_SHAPE_VOLUME>
384.8

> <PUBCHEM_COORDINATE_TYPE>
2
5
10

$$$$
