10138260
  -OEChem-03292013303D

 59 62  0     1  0  0  0  0  0999 V2000
    8.5951    0.6330   -1.6455 F   0  0  0  0  0  0  0  0  0  0  0  0
   -8.7795    0.8495    0.1749 O   0  0  0  0  0  0  0  0  0  0  0  0
   -3.4327   -2.6041    0.6651 O   0  0  0  0  0  0  0  0  0  0  0  0
   -2.7507    1.6965   -0.1106 O   0  0  0  0  0  0  0  0  0  0  0  0
    2.3467   -0.9692    1.5049 O   0  0  0  0  0  0  0  0  0  0  0  0
   -6.5475   -0.8412   -0.3358 N   0  0  0  0  0  0  0  0  0  0  0  0
   -2.1720   -0.4468   -0.7326 N   0  0  0  0  0  0  0  0  0  0  0  0
    1.3969    2.0479    0.7132 N   0  0  0  0  0  0  0  0  0  0  0  0
    4.6294   -1.5716    1.4205 N   0  0  0  0  0  0  0  0  0  0  0  0
   -5.6559   -1.9483    0.0039 C   0  0  0  0  0  0  0  0  0  0  0  0
   -7.9272   -1.3166   -0.5085 C   0  0  0  0  0  0  0  0  0  0  0  0
   -6.5002    0.2027    0.6974 C   0  0  0  0  0  0  0  0  0  0  0  0
   -4.2104   -1.4885    0.2259 C   0  0  2  0  0  0  0  0  0  0  0  0
   -8.8400   -0.1426   -0.8506 C   0  0  0  0  0  0  0  0  0  0  0  0
   -7.4473    1.3407    0.3279 C   0  0  0  0  0  0  0  0  0  0  0  0
   -3.5232   -0.8846   -1.0004 C   0  0  0  0  0  0  0  0  0  0  0  0
   -0.4601    1.1408   -0.0995 C   0  0  0  0  0  0  0  0  0  0  0  0
    0.6500    0.5898   -0.7861 C   0  0  0  0  0  0  0  0  0  0  0  0
    1.7560    1.1714   -0.2580 C   0  0  0  0  0  0  0  0  0  0  0  0
    0.0306    2.0397    0.8215 C   0  0  0  0  0  0  0  0  0  0  0  0
   -1.8527    0.8485   -0.2926 C   0  0  0  0  0  0  0  0  0  0  0  0
    3.1594    1.0378   -0.5222 C   0  0  0  0  0  0  0  0  0  0  0  0
    3.9600    0.1442    0.0616 C   0  0  0  0  0  0  0  0  0  0  0  0
    5.3895   -0.0650   -0.1419 C   0  0  0  0  0  0  0  0  0  0  0  0
    0.5990   -0.4199   -1.8646 C   0  0  0  0  0  0  0  0  0  0  0  0
   -0.6577    2.9002    1.8038 C   0  0  0  0  0  0  0  0  0  0  0  0
    5.7442   -1.1176    0.7070 C   0  0  0  0  0  0  0  0  0  0  0  0
    3.4818   -0.8466    1.0833 C   0  0  0  0  0  0  0  0  0  0  0  0
    6.3352    0.5421   -0.9461 C   0  0  0  0  0  0  0  0  0  0  0  0
    7.0359   -1.6000    0.7871 C   0  0  0  0  0  0  0  0  0  0  0  0
    7.6503    0.0693   -0.8806 C   0  0  0  0  0  0  0  0  0  0  0  0
    7.9971   -0.9914   -0.0223 C   0  0  0  0  0  0  0  0  0  0  0  0
   -5.6644   -2.6955   -0.8006 H   0  0  0  0  0  0  0  0  0  0  0  0
   -6.0024   -2.4753    0.9038 H   0  0  0  0  0  0  0  0  0  0  0  0
   -7.9769   -2.0536   -1.3181 H   0  0  0  0  0  0  0  0  0  0  0  0
   -8.2828   -1.7973    0.4122 H   0  0  0  0  0  0  0  0  0  0  0  0
   -6.7822   -0.2092    1.6749 H   0  0  0  0  0  0  0  0  0  0  0  0
   -5.5110    0.6596    0.7826 H   0  0  0  0  0  0  0  0  0  0  0  0
   -4.1504   -0.7880    1.0640 H   0  0  0  0  0  0  0  0  0  0  0  0
   -9.8774   -0.4852   -0.9210 H   0  0  0  0  0  0  0  0  0  0  0  0
   -8.5741    0.3098   -1.8138 H   0  0  0  0  0  0  0  0  0  0  0  0
   -7.1349    1.8444   -0.5952 H   0  0  0  0  0  0  0  0  0  0  0  0
   -7.4596    2.0903    1.1257 H   0  0  0  0  0  0  0  0  0  0  0  0
   -3.4441   -1.6374   -1.7928 H   0  0  0  0  0  0  0  0  0  0  0  0
   -4.0947   -0.0366   -1.3911 H   0  0  0  0  0  0  0  0  0  0  0  0
   -1.4494   -1.1537   -0.7908 H   0  0  0  0  0  0  0  0  0  0  0  0
    2.0235    2.6162    1.2685 H   0  0  0  0  0  0  0  0  0  0  0  0
   -2.5308   -2.2844    0.8388 H   0  0  0  0  0  0  0  0  0  0  0  0
    3.5713    1.7278   -1.2548 H   0  0  0  0  0  0  0  0  0  0  0  0
    1.5085   -0.3862   -2.4754 H   0  0  0  0  0  0  0  0  0  0  0  0
    0.5281   -1.4308   -1.4512 H   0  0  0  0  0  0  0  0  0  0  0  0
   -0.2364   -0.2451   -2.5495 H   0  0  0  0  0  0  0  0  0  0  0  0
   -1.3868    2.3227    2.3814 H   0  0  0  0  0  0  0  0  0  0  0  0
   -1.1865    3.7130    1.2958 H   0  0  0  0  0  0  0  0  0  0  0  0
    0.0447    3.3489    2.5142 H   0  0  0  0  0  0  0  0  0  0  0  0
    4.6652   -2.3294    2.0920 H   0  0  0  0  0  0  0  0  0  0  0  0
    6.0802    1.3597   -1.6111 H   0  0  0  0  0  0  0  0  0  0  0  0
    7.3015   -2.4166    1.4484 H   0  0  0  0  0  0  0  0  0  0  0  0
    9.0263   -1.3390    0.0087 H   0  0  0  0  0  0  0  0  0  0  0  0
  1 31  1  0  0  0  0
  2 14  1  0  0  0  0
  2 15  1  0  0  0  0
  3 13  1  0  0  0  0
  3 48  1  0  0  0  0
  4 21  2  0  0  0  0
  5 28  2  0  0  0  0
  6 10  1  0  0  0  0
  6 11  1  0  0  0  0
  6 12  1  0  0  0  0
  7 16  1  0  0  0  0
  7 21  1  0  0  0  0
  7 46  1  0  0  0  0
  8 19  1  0  0  0  0
  8 20  1  0  0  0  0
  8 47  1  0  0  0  0
  9 27  1  0  0  0  0
  9 28  1  0  0  0  0
  9 56  1  0  0  0  0
 10 13  1  0  0  0  0
 10 33  1  0  0  0  0
 10 34  1  0  0  0  0
 11 14  1  0  0  0  0
 11 35  1  0  0  0  0
 11 36  1  0  0  0  0
 12 15  1  0  0  0  0
 12 37  1  0  0  0  0
 12 38  1  0  0  0  0
 13 16  1  0  0  0  0
 13 39  1  0  0  0  0
 14 40  1  0  0  0  0
 14 41  1  0  0  0  0
 15 42  1  0  0  0  0
 15 43  1  0  0  0  0
 16 44  1  0  0  0  0
 16 45  1  0  0  0  0
 17 18  1  0  0  0  0
 17 20  2  0  0  0  0
 17 21  1  0  0  0  0
 18 19  2  0  0  0  0
 18 25  1  0  0  0  0
 19 22  1  0  0  0  0
 20 26  1  0  0  0  0
 22 23  2  0  0  0  0
 22 49  1  0  0  0  0
 23 24  1  0  0  0  0
 23 28  1  0  0  0  0
 24 27  2  0  0  0  0
 24 29  1  0  0  0  0
 25 50  1  0  0  0  0
 25 51  1  0  0  0  0
 25 52  1  0  0  0  0
 26 53  1  0  0  0  0
 26 54  1  0  0  0  0
 26 55  1  0  0  0  0
 27 30  1  0  0  0  0
 29 31  2  0  0  0  0
 29 57  1  0  0  0  0
 30 32  2  0  0  0  0
 30 58  1  0  0  0  0
 31 32  1  0  0  0  0
 32 59  1  0  0  0  0
M  END
> <PUBCHEM_COMPOUND_CID>
10138260

> <PUBCHEM_CONFORMER_RMSD>
1

> <PUBCHEM_CONFORMER_DIVERSEORDER>
12
72
78
22
92
74
76
70
103
109
79
50
87
26
45
46
75
35
108
106
105
81
101
54
38
55
15
34
37
97
86
36
98
88
100
64
107
96
95
47
10
77
85
9
20
57
5
33
93
19
67
89
16
51
56
84
4
104
94
80
66
53
90
99
23
63
69
102
17
68
2
82
1
28
43
14
58
59
29
25
83
62
11
91
18
21
31
7
60
39
13
40
49
65
61
27
71
8
6
48
42
73
3
24
44
32
41
52
30

> <PUBCHEM_MMFF94_PARTIAL_CHARGES>
40
1 -0.19
10 0.27
11 0.27
12 0.27
13 0.28
14 0.28
15 0.28
16 0.3
17 -0.09
18 -0.18
19 -0.2
2 -0.56
20 -0.33
21 0.72
22 -0.11
23 -0.01
24 0.03
25 0.18
26 0.18
27 0.12
28 0.62
29 -0.15
3 -0.68
30 -0.15
31 0.19
32 -0.15
4 -0.57
46 0.37
47 0.27
48 0.4
49 0.15
5 -0.57
56 0.37
57 0.15
58 0.15
59 0.15
6 -0.81
7 -0.73
8 0.03
9 -0.55

> <PUBCHEM_EFFECTIVE_ROTOR_COUNT>
8.4

> <PUBCHEM_PHARMACOPHORE_FEATURES>
14
1 2 acceptor
1 3 acceptor
1 3 donor
1 4 acceptor
1 5 acceptor
1 6 cation
1 7 donor
1 8 cation
1 8 donor
1 9 donor
5 8 17 18 19 20 rings
5 9 23 24 27 28 rings
6 2 6 11 12 14 15 rings
6 24 27 29 30 31 32 rings

> <PUBCHEM_HEAVY_ATOM_COUNT>
32

> <PUBCHEM_ATOM_DEF_STEREO_COUNT>
0

> <PUBCHEM_ATOM_UDEF_STEREO_COUNT>
1

> <PUBCHEM_BOND_DEF_STEREO_COUNT>
1

> <PUBCHEM_BOND_UDEF_STEREO_COUNT>
0

> <PUBCHEM_ISOTOPIC_ATOM_COUNT>
0

> <PUBCHEM_COMPONENT_COUNT>
1

> <PUBCHEM_CACTVS_TAUTO_COUNT>
6

> <PUBCHEM_CONFORMER_ID>
009AB2940000000C

> <PUBCHEM_MMFF94_ENERGY>
76.0659

> <PUBCHEM_FEATURE_SELFOVERLAP>
71.139

> <PUBCHEM_SHAPE_FINGERPRINT>
10299344 5 18259984872933159551
10674148 151 18260263062159682049
117089 54 18057051199299607262
12144603 126 18260554428377496852
12236239 1 18336265653285908084
12592606 108 18412822521576462383
12645989 146 18271799190694732933
13422730 43 9223227434418262701
13540713 4 16771845246929904548
13947934 56 18337104558988028644
14117953 113 17917994984053789447
14190465 44 9294705577238528718
14251764 18 18408885135597155469
14347424 109 18060411456471403336
15064986 266 17458632155256848856
15131766 46 15838987936747913960
15183329 4 18260261954643642811
15301273 46 17203892955016595414
18335252 98 8718828704675778669
19301679 30 18058732382357572998
19304144 158 8934739777057390347
19841028 212 18114739335797671826
21150785 3 15429753986091153685
21267235 1 18341894091330046820
21591340 7 10087637091954238668
21792934 111 17917704717052826464
22224240 67 15554728875798145181
23516275 137 18115323158754237907
23522609 53 18193023536697173725
23559900 14 18115865381094591557
25019877 29 10665224843992885097
2838139 119 11024108732948211978
3004659 81 18187642535158238976
335352 9 18410008854161882239
4098825 35 17676202459736599877
4325135 7 17967534575876421726
439807 62 18187643592279505866
5219985 9 18411980264982530429
5381727 24 8718829778006249900
5470011 282 17749111102077025454
6081469 158 16415482644540331147
6371380 46 18341046398193650755
6394761 36 18413386540876143335
9663363 56 18202559592728233304

> <PUBCHEM_SHAPE_MULTIPOLES>
607.87
27.51
2.21
1.31
16.27
0.56
0
-8.81
3.72
1.53
-0.94
-1.25
0.05
-1.55

> <PUBCHEM_SHAPE_SELFOVERLAP>
1314.207

> <PUBCHEM_SHAPE_VOLUME>
337.1

> <PUBCHEM_COORDINATE_TYPE>
2
5
10

$$$$
