REMARK  Name = 101306935
REMARK  3 active torsions:
REMARK  status: ('A' for Active; 'I' for Inactive)
REMARK    1  A    between atoms: C_9  and  C_18
REMARK    2  A    between atoms: C_9  and  O_22
REMARK    3  A    between atoms: C_13  and  O_24
REMARK                            x       y       z     vdW  Elec       q    Type
REMARK                         _______ _______ _______ _____ _____    ______ ____
ROOT
ATOM      1  O   UNL     1       0.017  -0.865   2.279  0.00  0.00    -0.413 OA
ATOM      2  O   UNL     1      -1.648   2.162  -0.695  0.00  0.00    -0.452 OA
ATOM      3  O   UNL     1       0.043  -2.578   0.679  0.00  0.00    -0.412 OA
ATOM      4  O   UNL     1      -1.968   0.095   2.874  0.00  0.00    -0.250 OA
ATOM      5  O   UNL     1      -0.772  -3.548  -1.228  0.00  0.00    -0.247 OA
ATOM      6  O   UNL     1      -3.295   1.279  -2.024  0.00  0.00    -0.250 OA
ATOM      7  C   UNL     1       0.161  -0.317  -0.043  0.00  0.00    +0.148 C 
ATOM      8  C   UNL     1      -1.148   0.262   0.580  0.00  0.00    +0.149 C 
ATOM      9  C   UNL     1       1.073   0.930  -0.290  0.00  0.00    +0.102 C 
ATOM     10  C   UNL     1      -1.023   1.776   0.531  0.00  0.00    +0.182 C 
ATOM     11  C   UNL     1       0.467   2.061   0.546  0.00  0.00    +0.071 C 
ATOM     12  C   UNL     1       0.585  -1.297   1.047  0.00  0.00    +0.350 C 
ATOM     13  C   UNL     1       0.014  -1.255  -1.245  0.00  0.00    +0.220 C 
ATOM     14  C   UNL     1      -2.474   0.036  -0.113  0.00  0.00    +0.124 C 
ATOM     15  C   UNL     1      -1.129  -0.174   2.028  0.00  0.00    +0.323 C 
ATOM     16  C   UNL     1      -0.310  -2.584  -0.636  0.00  0.00    +0.347 C 
ATOM     17  C   UNL     1      -2.541   1.195  -1.067  0.00  0.00    +0.318 C 
ENDROOT
BRANCH   9  18
ATOM     18  C   UNL     1       2.561   0.777   0.020  0.00  0.00    +0.023 C 
ATOM     19  C   UNL     1       3.156  -0.362  -0.827  0.00  0.00    +0.002 C 
ATOM     20  C   UNL     1       2.752   0.448   1.511  0.00  0.00    +0.002 C 
ATOM     21  C   UNL     1       3.300   2.087  -0.306  0.00  0.00    +0.002 C 
ENDBRANCH   9  18
BRANCH   9  22
ATOM     22  O   UNL     1       0.960   1.347  -1.660  0.00  0.00    -0.386 OA
ATOM     23  H   UNL     1       0.023   1.453  -1.889  0.00  0.00    +0.210 HD
ENDBRANCH   9  22
BRANCH  13  24
ATOM     24  O   UNL     1       1.219  -1.472  -1.960  0.00  0.00    -0.374 OA
ATOM     25  H   UNL     1       1.496  -0.646  -2.387  0.00  0.00    +0.211 HD
ENDBRANCH  13  24
TORSDOF 3
