REMARK  Name = 10135969
REMARK  9 active torsions:
REMARK  status: ('A' for Active; 'I' for Inactive)
REMARK    1  A    between atoms: N_1  and  C_4
REMARK    2  A    between atoms: N_1  and  C_18
REMARK    3  A    between atoms: C_4  and  N_5
REMARK    4  A    between atoms: N_5  and  C_7
REMARK    5  A    between atoms: C_7  and  C_11
REMARK    6  A    between atoms: C_8  and  C_14
REMARK    7  A    between atoms: C_18  and  C_19
REMARK    8  A    between atoms: C_20  and  N_25
REMARK    9  A    between atoms: N_25  and  S_27
REMARK                            x       y       z     vdW  Elec       q    Type
REMARK                         _______ _______ _______ _____ _____    ______ ____
ROOT
ATOM      1  N   UNL     1      -0.931  -1.679   0.013  0.00  0.00    -0.312 N 
ATOM      2  H   UNL     1      -1.789  -2.162   0.046  0.00  0.00    +0.149 HD
ENDROOT
BRANCH   1   4
ATOM      3  S   UNL     1       0.058  -4.125   0.078  0.00  0.00    -0.019 S 
ATOM      4  C   UNL     1       0.214  -2.452   0.018  0.00  0.00    +0.132 C 
BRANCH   4   5
ATOM      5  N   UNL     1       1.422  -1.765  -0.028  0.00  0.00    -0.312 N 
ATOM      6  H   UNL     1       1.372  -0.782  -0.062  0.00  0.00    +0.149 HD
BRANCH   5   7
ATOM      7  C   UNL     1       2.739  -2.349  -0.032  0.00  0.00    +0.116 C 
BRANCH   7  11
ATOM      8  C   UNL     1       5.801   0.575  -0.018  0.00  0.00    -0.023 C 
ATOM      9  C   UNL     1       5.330   0.132  -1.228  0.00  0.00    -0.005 C 
ATOM     10  C   UNL     1       5.331   0.119   1.188  0.00  0.00    -0.005 C 
ATOM     11  C   UNL     1       3.817  -1.319  -0.027  0.00  0.00    -0.003 C 
ATOM     12  C   UNL     1       4.321  -0.831  -1.233  0.00  0.00    -0.003 C 
ATOM     13  C   UNL     1       4.322  -0.844   1.183  0.00  0.00    -0.003 C 
BRANCH   8  14
ATOM     14  C   UNL     1       6.913   1.637  -0.013  0.00  0.00    +0.019 C 
ATOM     15  C   UNL     1       7.363   2.078  -1.424  0.00  0.00    +0.004 C 
ATOM     16  C   UNL     1       6.420   2.902   0.723  0.00  0.00    +0.004 C 
ATOM     17  C   UNL     1       8.158   1.082   0.711  0.00  0.00    +0.004 C 
ENDBRANCH   8  14
ENDBRANCH   7  11
ENDBRANCH   5   7
ENDBRANCH   4   5
ENDBRANCH   1   4
BRANCH   1  18
ATOM     18  C   UNL     1      -1.002  -0.232  -0.037  0.00  0.00    +0.116 C 
BRANCH  18  19
ATOM     19  C   UNL     1      -2.418   0.264   0.021  0.00  0.00    -0.003 C 
ATOM     20  C   UNL     1      -5.041   1.178   0.127  0.00  0.00    +0.064 C 
ATOM     21  C   UNL     1      -3.002   0.535   1.253  0.00  0.00    -0.001 C 
ATOM     22  C   UNL     1      -3.131   0.444  -1.158  0.00  0.00    -0.001 C 
ATOM     23  C   UNL     1      -4.318   0.994   1.306  0.00  0.00    +0.016 C 
ATOM     24  C   UNL     1      -4.447   0.903  -1.105  0.00  0.00    +0.016 C 
BRANCH  20  25
ATOM     25  N   UNL     1      -6.388   1.649   0.182  0.00  0.00    -0.219 N 
ATOM     26  H   UNL     1      -6.589   2.578   0.438  0.00  0.00    +0.173 HD
BRANCH  25  27
ATOM     27  S   UNL     1      -7.651   0.546  -0.213  0.00  0.00    +0.056 S 
ATOM     28  O   UNL     1      -8.887   1.294  -0.345  0.00  0.00    -0.154 OA
ATOM     29  O   UNL     1      -7.231  -0.372  -1.252  0.00  0.00    -0.154 OA
ATOM     30  C   UNL     1      -7.760  -0.366   1.310  0.00  0.00    +0.200 C 
ENDBRANCH  25  27
ENDBRANCH  20  25
ENDBRANCH  18  19
ENDBRANCH   1  18
TORSDOF 9
