REMARK  Name = 101396888
REMARK  8 active torsions:
REMARK  status: ('A' for Active; 'I' for Inactive)
REMARK    1  A    between atoms: C_4  and  C_28
REMARK    2  A    between atoms: C_10  and  O_26
REMARK    3  A    between atoms: C_16  and  C_18
REMARK    4  A    between atoms: C_23  and  O_24
REMARK    5  A    between atoms: C_28  and  C_29
REMARK    6  A    between atoms: C_29  and  C_30
REMARK    7  A    between atoms: C_29  and  O_35
REMARK    8  A    between atoms: C_30  and  O_33
REMARK                            x       y       z     vdW  Elec       q    Type
REMARK                         _______ _______ _______ _____ _____    ______ ____
ROOT
ATOM      1  O   UNL     1      -0.273   3.126   0.225  0.00  0.00    -0.478 OA
ATOM      2  O   UNL     1       0.175  -1.602  -0.578  0.00  0.00    -0.450 OA
ATOM      3  O   UNL     1      -2.324   1.549   0.090  0.00  0.00    -0.286 OA
ATOM      4  C   UNL     1       2.080  -0.229  -0.533  0.00  0.00    +0.049 A 
ATOM      5  C   UNL     1       0.288   4.455   0.210  0.00  0.00    +0.152 C 
ATOM      6  C   UNL     1       0.522   2.045  -0.037  0.00  0.00    +0.147 A 
ATOM      7  C   UNL     1       1.916   2.155  -0.140  0.00  0.00    +0.067 A 
ATOM      8  C   UNL     1       0.694  -0.342  -0.427  0.00  0.00    +0.150 A 
ATOM      9  C   UNL     1      -0.092   0.787  -0.179  0.00  0.00    +0.107 A 
ATOM     10  C   UNL     1       2.689   1.015  -0.388  0.00  0.00    +0.135 A 
ATOM     11  C   UNL     1       1.793   4.525   0.181  0.00  0.00    +0.013 C 
ATOM     12  C   UNL     1       2.562   3.447   0.021  0.00  0.00    +0.005 C 
ATOM     13  C   UNL     1      -1.563   0.605  -0.081  0.00  0.00    +0.204 C 
ATOM     14  C   UNL     1      -0.283   5.164  -1.023  0.00  0.00    +0.048 C 
ATOM     15  C   UNL     1      -0.225   5.141   1.482  0.00  0.00    +0.048 C 
ATOM     16  C   UNL     1      -2.076  -0.786  -0.216  0.00  0.00    +0.077 C 
ATOM     17  C   UNL     1      -1.181  -1.755  -0.449  0.00  0.00    +0.183 C 
ENDROOT
BRANCH  16  18
ATOM     18  C   UNL     1      -3.508  -1.104  -0.085  0.00  0.00    +0.006 C 
ATOM     19  C   UNL     1      -4.189  -1.707  -1.143  0.00  0.00    +0.003 C 
ATOM     20  C   UNL     1      -4.184  -0.801   1.097  0.00  0.00    +0.003 C 
ATOM     21  C   UNL     1      -5.545  -2.007  -1.019  0.00  0.00    +0.037 C 
ATOM     22  C   UNL     1      -5.541  -1.101   1.221  0.00  0.00    +0.037 C 
ATOM     23  C   UNL     1      -6.221  -1.704   0.163  0.00  0.00    +0.134 C 
BRANCH  23  24
ATOM     24  O   UNL     1      -7.545  -1.996   0.283  0.00  0.00    -0.506 OA
ATOM     25  H   UNL     1      -8.002  -2.401  -0.428  0.00  0.00    +0.292 HD
ENDBRANCH  23  24
ENDBRANCH  16  18
BRANCH  10  26
ATOM     26  O   UNL     1       4.049   1.101  -0.494  0.00  0.00    -0.506 OA
ATOM     27  H   UNL     1       4.555   0.330  -0.661  0.00  0.00    +0.292 HD
ENDBRANCH  10  26
BRANCH   4  28
ATOM     28  C   UNL     1       2.918  -1.440  -0.799  0.00  0.00    +0.064 C 
BRANCH  28  29
ATOM     29  C   UNL     1       3.373  -2.143   0.497  0.00  0.00    +0.139 C 
BRANCH  29  30
ATOM     30  C   UNL     1       4.547  -3.141   0.325  0.00  0.00    +0.113 C 
ATOM     31  C   UNL     1       4.983  -3.786   1.643  0.00  0.00    +0.032 C 
ATOM     32  C   UNL     1       4.244  -4.224  -0.715  0.00  0.00    +0.032 C 
BRANCH  30  33
ATOM     33  O   UNL     1       5.678  -2.399  -0.158  0.00  0.00    -0.384 OA
ATOM     34  H   UNL     1       5.901  -1.700   0.476  0.00  0.00    +0.210 HD
ENDBRANCH  30  33
ENDBRANCH  29  30
BRANCH  29  35
ATOM     35  O   UNL     1       2.240  -2.845   1.024  0.00  0.00    -0.382 OA
ATOM     36  H   UNL     1       1.500  -2.228   1.134  0.00  0.00    +0.210 HD
ENDBRANCH  29  35
ENDBRANCH  28  29
ENDBRANCH   4  28
TORSDOF 8
