REMARK  Name = 101340323
REMARK  3 active torsions:
REMARK  status: ('A' for Active; 'I' for Inactive)
REMARK    1  A    between atoms: N_3  and  C_13
REMARK    2  A    between atoms: C_15  and  C_17
REMARK    3  A    between atoms: C_17  and  O_18
REMARK                            x       y       z     vdW  Elec       q    Type
REMARK                         _______ _______ _______ _____ _____    ______ ____
ROOT
ATOM      1  O   UNL     1       1.452   2.645   0.617  0.00  0.00    -0.252 OA
ATOM      2  O   UNL     1       4.603  -0.583  -0.275  0.00  0.00    -0.270 OA
ATOM      3  N   UNL     1       0.728   0.464   0.219  0.00  0.00    -0.219 N 
ATOM      4  N   UNL     1       3.013   1.025   0.171  0.00  0.00    -0.236 N 
ATOM      5  C   UNL     1       1.068  -0.841  -0.074  0.00  0.00    +0.071 C 
ATOM      6  C   UNL     1       1.698   1.466   0.356  0.00  0.00    +0.315 C 
ATOM      7  C   UNL     1       2.328  -1.259  -0.251  0.00  0.00    +0.047 C 
ATOM      8  C   UNL     1       3.426  -0.265  -0.125  0.00  0.00    +0.250 C 
ATOM      9  C   UNL     1       2.693  -2.674  -0.567  0.00  0.00    +0.037 C 
ATOM     10  H   UNL     1       3.720   1.704   0.261  0.00  0.00    +0.159 HD
ENDROOT
BRANCH   3  13
ATOM     11  S   UNL     1      -4.092   1.228  -1.352  0.00  0.00    -0.057 S 
ATOM     12  O   UNL     1      -1.342  -0.370   0.919  0.00  0.00    -0.332 OA
ATOM     13  C   UNL     1      -0.662   0.770   0.381  0.00  0.00    +0.204 C 
ATOM     14  C   UNL     1      -1.348   1.071  -0.936  0.00  0.00    +0.083 C 
ATOM     15  C   UNL     1      -2.754  -0.227   0.648  0.00  0.00    +0.171 C 
ATOM     16  C   UNL     1      -2.735   0.683  -0.553  0.00  0.00    +0.025 C 
BRANCH  15  17
ATOM     17  C   UNL     1      -3.329  -1.606   0.396  0.00  0.00    +0.171 C 
BRANCH  17  18
ATOM     18  O   UNL     1      -4.746  -1.526   0.424  0.00  0.00    -0.379 OA
ATOM     19  H   UNL     1      -5.123  -2.405   0.263  0.00  0.00    +0.211 HD
ENDBRANCH  17  18
ENDBRANCH  15  17
ENDBRANCH   3  13
TORSDOF 3
