REMARK  Name = 101324862
REMARK  7 active torsions:
REMARK  status: ('A' for Active; 'I' for Inactive)
REMARK    1  A    between atoms: C_4  and  O_21
REMARK    2  A    between atoms: C_6  and  O_28
REMARK    3  A    between atoms: C_9  and  C_18
REMARK    4  A    between atoms: C_18  and  O_19
REMARK    5  A    between atoms: O_21  and  C_23
REMARK    6  A    between atoms: C_23  and  C_24
REMARK    7  A    between atoms: O_28  and  C_30
REMARK                            x       y       z     vdW  Elec       q    Type
REMARK                         _______ _______ _______ _____ _____    ______ ____
ROOT
ATOM      1  O   UNL     1       1.677  -3.056  -0.938  0.00  0.00    -0.449 OA
ATOM      2  O   UNL     1       1.453  -4.780   0.571  0.00  0.00    -0.245 OA
ATOM      3  C   UNL     1       0.674  -1.289   0.285  0.00  0.00    +0.113 C 
ATOM      4  C   UNL     1      -0.442  -0.221   0.372  0.00  0.00    +0.221 C 
ATOM      5  C   UNL     1       1.007  -1.803  -1.123  0.00  0.00    +0.177 C 
ATOM      6  C   UNL     1      -0.078   1.179  -0.200  0.00  0.00    +0.237 C 
ATOM      7  C   UNL     1       0.435  -2.615   0.938  0.00  0.00    +0.060 C 
ATOM      8  C   UNL     1       1.819  -0.827  -1.918  0.00  0.00    +0.044 C 
ATOM      9  C   UNL     1       1.184   1.821   0.328  0.00  0.00    +0.092 C 
ATOM     10  C   UNL     1       1.222  -3.640   0.212  0.00  0.00    +0.337 C 
ATOM     11  C   UNL     1       3.046  -0.343  -1.646  0.00  0.00    +0.004 C 
ATOM     12  C   UNL     1       3.451   0.985  -2.259  0.00  0.00    +0.005 C 
ATOM     13  C   UNL     1       2.491   2.129  -1.859  0.00  0.00    +0.026 C 
ATOM     14  C   UNL     1       2.266   2.225  -0.368  0.00  0.00    -0.020 C 
ATOM     15  C   UNL     1      -0.338  -2.943   1.976  0.00  0.00    +0.002 C 
ATOM     16  C   UNL     1       4.008  -0.895  -0.632  0.00  0.00    +0.000 C 
ENDROOT
BRANCH   9  18
ATOM     17  O   UNL     1       0.501   2.736   2.405  0.00  0.00    -0.245 OA
ATOM     18  C   UNL     1       1.281   2.041   1.782  0.00  0.00    +0.341 C 
BRANCH  18  19
ATOM     19  O   UNL     1       2.349   1.351   2.248  0.00  0.00    -0.441 OA
ATOM     20  C   UNL     1       2.578   1.466   3.656  0.00  0.00    +0.256 C 
ENDBRANCH  18  19
ENDBRANCH   9  18
BRANCH   4  21
ATOM     21  O   UNL     1      -1.597  -0.668  -0.352  0.00  0.00    -0.445 OA
BRANCH  21  23
ATOM     22  O   UNL     1      -2.841  -0.606   1.585  0.00  0.00    -0.245 OA
ATOM     23  C   UNL     1      -2.730  -0.817   0.385  0.00  0.00    +0.337 C 
BRANCH  23  24
ATOM     24  C   UNL     1      -3.837  -1.291  -0.500  0.00  0.00    +0.049 C 
ATOM     25  C   UNL     1      -3.650  -2.578  -1.247  0.00  0.00    +0.037 C 
ATOM     26  C   UNL     1      -4.915  -0.488  -0.573  0.00  0.00    -0.024 C 
ATOM     27  C   UNL     1      -5.122   0.816   0.130  0.00  0.00    +0.031 C 
ENDBRANCH  23  24
ENDBRANCH  21  23
ENDBRANCH   4  21
BRANCH   6  28
ATOM     28  O   UNL     1      -1.171   2.075   0.065  0.00  0.00    -0.444 OA
BRANCH  28  30
ATOM     29  O   UNL     1      -0.771   3.157  -1.937  0.00  0.00    -0.250 OA
ATOM     30  C   UNL     1      -1.397   3.012  -0.896  0.00  0.00    +0.318 C 
ATOM     31  C   UNL     1      -2.556   3.870  -0.488  0.00  0.00    +0.121 C 
ENDBRANCH  28  30
ENDBRANCH   6  28
TORSDOF 7
