101340292
  -OEChem-03292013293D

 56 59  0     1  0  0  0  0  0999 V2000
    1.0519    1.1994    1.6095 O   0  0  0  0  0  0  0  0  0  0  0  0
    1.6140    0.2774   -1.8281 O   0  0  0  0  0  0  0  0  0  0  0  0
   -0.6269   -0.9143   -1.7576 O   0  0  0  0  0  0  0  0  0  0  0  0
    2.0487    2.6532    0.0167 O   0  0  0  0  0  0  0  0  0  0  0  0
   -0.6524    3.0706    0.2493 O   0  0  0  0  0  0  0  0  0  0  0  0
   -1.3317   -3.0681   -0.2077 O   0  0  0  0  0  0  0  0  0  0  0  0
    0.8527   -0.7825    0.2676 C   0  0  1  0  0  0  0  0  0  0  0  0
    1.8114    0.2534   -0.4122 C   0  0  2  0  0  0  0  0  0  0  0  0
   -0.6450   -0.6919   -0.3375 C   0  0  1  0  0  0  0  0  0  0  0  0
    1.2024    1.5280    0.2099 C   0  0  1  0  0  0  0  0  0  0  0  0
    3.3765    0.0373   -0.1806 C   0  0  0  0  0  0  0  0  0  0  0  0
    1.3972   -2.2247    0.2148 C   0  0  0  0  0  0  0  0  0  0  0  0
    0.8200   -0.2236    1.7106 C   0  0  0  0  0  0  0  0  0  0  0  0
   -0.1993    1.8573   -0.3630 C   0  0  1  0  0  0  0  0  0  0  0  0
   -1.2015    0.7283   -0.1679 C   0  0  0  0  0  0  0  0  0  0  0  0
    3.7185   -1.4618   -0.3743 C   0  0  0  0  0  0  0  0  0  0  0  0
    2.8838   -2.3749    0.5081 C   0  0  0  0  0  0  0  0  0  0  0  0
   -1.6241   -1.7512    0.2626 C   0  0  1  0  0  0  0  0  0  0  0  0
    4.2128    0.8093   -1.2439 C   0  0  0  0  0  0  0  0  0  0  0  0
    3.9346    0.4910    1.1907 C   0  0  0  0  0  0  0  0  0  0  0  0
   -3.0824   -1.4548   -0.1039 C   0  0  0  0  0  0  0  0  0  0  0  0
   -3.5477   -0.0806    0.4085 C   0  0  2  0  0  0  0  0  0  0  0  0
   -2.4824    0.9684    0.1805 C   0  0  0  0  0  0  0  0  0  0  0  0
   -3.8590   -0.1374    1.9144 C   0  0  0  0  0  0  0  0  0  0  0  0
   -4.8186    0.2920   -0.3163 C   0  0  0  0  0  0  0  0  0  0  0  0
   -4.8534    1.0003   -1.4500 C   0  0  0  0  0  0  0  0  0  0  0  0
    1.2149   -2.6400   -0.7845 H   0  0  0  0  0  0  0  0  0  0  0  0
    0.8580   -2.8570    0.9294 H   0  0  0  0  0  0  0  0  0  0  0  0
   -0.1338   -0.3734    2.2236 H   0  0  0  0  0  0  0  0  0  0  0  0
    1.5805   -0.6514    2.3656 H   0  0  0  0  0  0  0  0  0  0  0  0
   -0.1060    2.0735   -1.4347 H   0  0  0  0  0  0  0  0  0  0  0  0
    4.7811   -1.6398   -0.1639 H   0  0  0  0  0  0  0  0  0  0  0  0
    3.5673   -1.7511   -1.4227 H   0  0  0  0  0  0  0  0  0  0  0  0
    3.0886   -2.1911    1.5672 H   0  0  0  0  0  0  0  0  0  0  0  0
    3.1770   -3.4156    0.3228 H   0  0  0  0  0  0  0  0  0  0  0  0
   -1.5291   -1.7815    1.3525 H   0  0  0  0  0  0  0  0  0  0  0  0
    4.0359    1.8873   -1.2015 H   0  0  0  0  0  0  0  0  0  0  0  0
    3.9965    0.4729   -2.2637 H   0  0  0  0  0  0  0  0  0  0  0  0
    3.7904    1.5607    1.3643 H   0  0  0  0  0  0  0  0  0  0  0  0
    5.0171    0.3164    1.2412 H   0  0  0  0  0  0  0  0  0  0  0  0
    3.5094   -0.0469    2.0366 H   0  0  0  0  0  0  0  0  0  0  0  0
    5.2871    0.6524   -1.0869 H   0  0  0  0  0  0  0  0  0  0  0  0
   -3.2037   -1.5392   -1.1932 H   0  0  0  0  0  0  0  0  0  0  0  0
   -3.7272   -2.2488    0.2994 H   0  0  0  0  0  0  0  0  0  0  0  0
    1.7348   -0.6271   -2.1626 H   0  0  0  0  0  0  0  0  0  0  0  0
   -2.8039    1.9958    0.3423 H   0  0  0  0  0  0  0  0  0  0  0  0
   -1.4828   -0.6500   -2.1343 H   0  0  0  0  0  0  0  0  0  0  0  0
    1.5113    3.4571    0.1144 H   0  0  0  0  0  0  0  0  0  0  0  0
   -1.2955    3.4812   -0.3541 H   0  0  0  0  0  0  0  0  0  0  0  0
   -1.9334   -3.6837    0.2446 H   0  0  0  0  0  0  0  0  0  0  0  0
   -4.5996   -0.9134    2.1429 H   0  0  0  0  0  0  0  0  0  0  0  0
   -4.2618    0.8164    2.2784 H   0  0  0  0  0  0  0  0  0  0  0  0
   -2.9634   -0.3551    2.5075 H   0  0  0  0  0  0  0  0  0  0  0  0
   -5.7601   -0.0878    0.0750 H   0  0  0  0  0  0  0  0  0  0  0  0
   -5.8065    1.2041   -1.9279 H   0  0  0  0  0  0  0  0  0  0  0  0
   -3.9666    1.3797   -1.9438 H   0  0  0  0  0  0  0  0  0  0  0  0
  1 10  1  0  0  0  0
  1 13  1  0  0  0  0
  2  8  1  0  0  0  0
  2 45  1  0  0  0  0
  3  9  1  0  0  0  0
  3 47  1  0  0  0  0
  4 10  1  0  0  0  0
  4 48  1  0  0  0  0
  5 14  1  0  0  0  0
  5 49  1  0  0  0  0
  6 18  1  0  0  0  0
  6 50  1  0  0  0  0
  7  8  1  0  0  0  0
  7  9  1  0  0  0  0
  7 12  1  0  0  0  0
  7 13  1  0  0  0  0
  8 10  1  0  0  0  0
  8 11  1  0  0  0  0
  9 15  1  0  0  0  0
  9 18  1  0  0  0  0
 10 14  1  0  0  0  0
 11 16  1  0  0  0  0
 11 19  1  0  0  0  0
 11 20  1  0  0  0  0
 12 17  1  0  0  0  0
 12 27  1  0  0  0  0
 12 28  1  0  0  0  0
 13 29  1  0  0  0  0
 13 30  1  0  0  0  0
 14 15  1  0  0  0  0
 14 31  1  0  0  0  0
 15 23  2  0  0  0  0
 16 17  1  0  0  0  0
 16 32  1  0  0  0  0
 16 33  1  0  0  0  0
 17 34  1  0  0  0  0
 17 35  1  0  0  0  0
 18 21  1  0  0  0  0
 18 36  1  0  0  0  0
 19 37  1  0  0  0  0
 19 38  1  0  0  0  0
 19 42  1  0  0  0  0
 20 39  1  0  0  0  0
 20 40  1  0  0  0  0
 20 41  1  0  0  0  0
 21 22  1  0  0  0  0
 21 43  1  0  0  0  0
 21 44  1  0  0  0  0
 22 23  1  0  0  0  0
 22 24  1  0  0  0  0
 22 25  1  0  0  0  0
 23 46  1  0  0  0  0
 24 51  1  0  0  0  0
 24 52  1  0  0  0  0
 24 53  1  0  0  0  0
 25 26  2  0  0  0  0
 25 54  1  0  0  0  0
 26 55  1  0  0  0  0
 26 56  1  0  0  0  0
M  END
> <PUBCHEM_COMPOUND_CID>
101340292

> <PUBCHEM_CONFORMER_RMSD>
0.6

> <PUBCHEM_CONFORMER_DIVERSEORDER>
1
2

> <PUBCHEM_MMFF94_PARTIAL_CHARGES>
26
1 -0.56
10 0.56
13 0.28
14 0.42
15 -0.28
18 0.28
2 -0.68
22 0.28
23 -0.29
25 -0.29
26 -0.3
3 -0.68
4 -0.68
45 0.4
46 0.15
47 0.4
48 0.4
49 0.4
5 -0.68
50 0.4
54 0.15
55 0.15
56 0.15
6 -0.68
8 0.28
9 0.42

> <PUBCHEM_EFFECTIVE_ROTOR_COUNT>
3

> <PUBCHEM_PHARMACOPHORE_FEATURES>
16
1 1 acceptor
1 2 acceptor
1 2 donor
1 26 hydrophobe
1 3 acceptor
1 3 donor
1 4 acceptor
1 4 donor
1 5 acceptor
1 5 donor
1 6 acceptor
1 6 donor
3 11 19 20 hydrophobe
6 7 8 11 12 16 17 rings
6 9 15 18 21 22 23 rings
8 1 7 8 9 10 13 14 15 rings

> <PUBCHEM_HEAVY_ATOM_COUNT>
26

> <PUBCHEM_ATOM_DEF_STEREO_COUNT>
6

> <PUBCHEM_ATOM_UDEF_STEREO_COUNT>
1

> <PUBCHEM_BOND_DEF_STEREO_COUNT>
0

> <PUBCHEM_BOND_UDEF_STEREO_COUNT>
0

> <PUBCHEM_ISOTOPIC_ATOM_COUNT>
0

> <PUBCHEM_COMPONENT_COUNT>
1

> <PUBCHEM_CACTVS_TAUTO_COUNT>
1

> <PUBCHEM_CONFORMER_ID>
060A548400000001

> <PUBCHEM_MMFF94_ENERGY>
115.8661

> <PUBCHEM_FEATURE_SELFOVERLAP>
81.319

> <PUBCHEM_SHAPE_FINGERPRINT>
104564 63 18127699227291880729
10863032 1 18199194077497666808
10948715 1 17604721095769807580
10967382 1 18410575084832020434
11132069 177 18409726278898064123
11578080 2 17630300009693442673
12011746 2 18412260601966370559
12236239 1 17603584145181169948
12403814 3 17458338654392769831
12553582 1 18411707581729495464
12788726 201 18129393626350312856
13132413 78 18342178890368662946
13134695 92 18341607088451091701
13140716 1 18267580402326618992
13221675 6 18410293609702309523
13224815 77 18113343011225855019
13583140 156 18262524800965721579
13675066 3 17967819366114009267
14115302 16 18260272949074079446
14178342 30 18124296453658001490
14223421 5 17979069719534652995
14713325 29 15872546268356788612
14787075 74 17750814313737942259
14790565 3 18339376162068084977
15196674 1 18409167705711742959
15238133 3 17677314023200999945
15788980 27 18187083949144745891
1601671 61 18407759239879947420
16752209 62 18267864977984646501
16945 1 18410856555703700312
17349148 13 17704348879818967983
19591789 44 18195529190467784698
19862831 5 18113897148212352949
20691752 17 18261947573897118138
20739085 24 18122089531878139529
20905425 154 17767122003876583943
21033648 29 18259976068667258849
21267235 1 18337682909976871970
21421861 104 18042116575370498106
2334 1 17978791538565808152
23402539 116 18271799116514549055
23559900 14 18343027722642207068
2748010 2 18122903389404615280
296302 2 18411705421614101154
3286 77 16701726199249421345
335352 9 18410009901390182022
34934 24 18411974788935612102
350125 39 18192995911619408542
5104073 3 18409168809518338995
59755656 215 18339364068352471454
7832392 63 18340204214534814079

> <PUBCHEM_SHAPE_MULTIPOLES>
499.85
7.88
2.59
1.4
4.04
0.17
0.13
-0.27
-0.81
-0.66
0.03
0.19
-0.14
0.16

> <PUBCHEM_SHAPE_SELFOVERLAP>
1086.241

> <PUBCHEM_SHAPE_VOLUME>
268.1

> <PUBCHEM_COORDINATE_TYPE>
2
5
10

$$$$
