REMARK  Name = 101360525
REMARK  4 active torsions:
REMARK  status: ('A' for Active; 'I' for Inactive)
REMARK    1  A    between atoms: C_8  and  O_21
REMARK    2  A    between atoms: C_10  and  O_23
REMARK    3  A    between atoms: C_12  and  O_27
REMARK    4  A    between atoms: C_13  and  O_25
REMARK                            x       y       z     vdW  Elec       q    Type
REMARK                         _______ _______ _______ _____ _____    ______ ____
ROOT
ATOM      1  O   UNL     1      -0.104   1.137   1.440  0.00  0.00    -0.290 OA
ATOM      2  O   UNL     1      -1.281  -2.048  -1.955  0.00  0.00    -0.273 OA
ATOM      3  O   UNL     1      -4.918   0.104   0.716  0.00  0.00    -0.283 OA
ATOM      4  N   UNL     1       0.889  -1.523  -1.518  0.00  0.00    -0.283 N 
ATOM      5  C   UNL     1      -0.899  -0.429  -0.203  0.00  0.00    +0.227 C 
ATOM      6  C   UNL     1       0.181   0.334   0.553  0.00  0.00    +0.198 C 
ATOM      7  C   UNL     1      -0.462  -1.399  -1.297  0.00  0.00    +0.246 C 
ATOM      8  C   UNL     1      -1.768   0.618  -0.879  0.00  0.00    +0.174 C 
ATOM      9  C   UNL     1       1.588   0.080   0.188  0.00  0.00    +0.083 C 
ATOM     10  C   UNL     1      -1.637  -1.251   0.827  0.00  0.00    +0.141 C 
ATOM     11  C   UNL     1       1.889  -0.829  -0.823  0.00  0.00    +0.056 C 
ATOM     12  C   UNL     1      -3.073   0.801  -0.593  0.00  0.00    +0.205 C 
ATOM     13  C   UNL     1       2.617   0.753   0.858  0.00  0.00    +0.142 C 
ATOM     14  C   UNL     1      -2.930  -1.081   1.124  0.00  0.00    +0.079 C 
ATOM     15  C   UNL     1       3.224  -1.067  -1.166  0.00  0.00    +0.011 C 
ATOM     16  C   UNL     1      -3.732  -0.046   0.437  0.00  0.00    +0.235 C 
ATOM     17  C   UNL     1       4.250  -0.398  -0.500  0.00  0.00    -0.018 C 
ATOM     18  C   UNL     1       3.947   0.511   0.511  0.00  0.00    +0.033 C 
ATOM     19  C   UNL     1       5.672  -0.655  -0.870  0.00  0.00    +0.031 C 
ATOM     20  H   UNL     1       1.178  -2.149  -2.221  0.00  0.00    +0.155 HD
ENDROOT
BRANCH   8  21
ATOM     21  O   UNL     1      -1.163   1.412  -1.842  0.00  0.00    -0.471 OA
ATOM     22  C   UNL     1      -1.234   2.773  -1.476  0.00  0.00    +0.252 C 
ENDBRANCH   8  21
BRANCH  10  23
ATOM     23  O   UNL     1      -0.920  -2.235   1.492  0.00  0.00    -0.474 OA
ATOM     24  C   UNL     1      -0.919  -1.993   2.883  0.00  0.00    +0.252 C 
ENDBRANCH  10  23
BRANCH  13  25
ATOM     25  O   UNL     1       2.387   1.653   1.855  0.00  0.00    -0.471 OA
ATOM     26  C   UNL     1       2.224   3.017   1.470  0.00  0.00    +0.252 C 
ENDBRANCH  13  25
BRANCH  12  27
ATOM     27  O   UNL     1      -3.827   1.762  -1.231  0.00  0.00    -0.501 OA
ATOM     28  H   UNL     1      -3.436   2.308  -1.883  0.00  0.00    +0.292 HD
ENDBRANCH  12  27
TORSDOF 4
