101316727
  -OEChem-03292013293D

 62 68  0     1  0  0  0  0  0999 V2000
   -1.5819   -1.6802   -1.5662 O   0  0  0  0  0  0  0  0  0  0  0  0
    3.8150    1.2973   -1.8149 O   0  0  0  0  0  0  0  0  0  0  0  0
   -3.9046   -1.5365    0.0864 O   0  0  0  0  0  0  0  0  0  0  0  0
    0.9644   -1.9311    1.3675 O   0  0  0  0  0  0  0  0  0  0  0  0
    3.5675   -2.3263    0.0944 O   0  0  0  0  0  0  0  0  0  0  0  0
   -3.3671   -3.6998    0.5251 O   0  0  0  0  0  0  0  0  0  0  0  0
    4.4438   -0.4892    2.2911 O   0  0  0  0  0  0  0  0  0  0  0  0
   -6.1219    2.4268   -0.3255 O   0  0  0  0  0  0  0  0  0  0  0  0
   -1.1028   -0.9129   -0.4261 C   0  0  1  0  0  0  0  0  0  0  0  0
    0.4205   -0.5552   -0.6163 C   0  0  1  0  0  0  0  0  0  0  0  0
    0.7606    0.7900    0.0895 C   0  0  1  0  0  0  0  0  0  0  0  0
   -2.0831    0.1740    0.0509 C   0  0  1  0  0  0  0  0  0  0  0  0
    2.2661    1.2123    0.0249 C   0  0  1  0  0  0  0  0  0  0  0  0
   -1.6430   -2.3365   -0.3113 C   0  0  1  0  0  0  0  0  0  0  0  0
    3.3117    0.0776    0.1946 C   0  0  2  0  0  0  0  0  0  0  0  0
    1.3052   -1.6533    0.0120 C   0  0  1  0  0  0  0  0  0  0  0  0
   -0.2199    1.9403   -0.2447 C   0  0  0  0  0  0  0  0  0  0  0  0
   -1.6489    1.5086   -0.5810 C   0  0  0  0  0  0  0  0  0  0  0  0
    4.4440    0.4599   -0.8294 C   0  0  0  0  0  0  0  0  0  0  0  0
    2.7908   -1.3650    0.0382 C   0  0  0  0  0  0  0  0  0  0  0  0
   -3.5223   -0.2319   -0.4456 C   0  0  2  0  0  0  0  0  0  0  0  0
    0.7425   -0.4886   -2.1340 C   0  0  0  0  0  0  0  0  0  0  0  0
    2.6814    1.9526   -1.2511 C   0  0  0  0  0  0  0  0  0  0  0  0
    2.5328    2.1014    1.2331 C   0  0  0  0  0  0  0  0  0  0  0  0
   -2.0928    0.2597    1.5985 C   0  0  0  0  0  0  0  0  0  0  0  0
   -3.0336   -2.5896    0.1301 C   0  0  0  0  0  0  0  0  0  0  0  0
    3.7638    0.2906    1.6385 C   0  0  0  0  0  0  0  0  0  0  0  0
    3.3211    1.5820    2.1732 C   0  0  0  0  0  0  0  0  0  0  0  0
    5.0721   -0.6971   -1.6167 C   0  0  0  0  0  0  0  0  0  0  0  0
    5.6067    1.2949   -0.2533 C   0  0  0  0  0  0  0  0  0  0  0  0
   -4.6449    0.7440   -0.1291 C   0  0  0  0  0  0  0  0  0  0  0  0
   -5.4265    0.7908    1.0500 C   0  0  0  0  0  0  0  0  0  0  0  0
   -5.1068    1.7591   -0.9341 C   0  0  0  0  0  0  0  0  0  0  0  0
   -6.3102    1.8313    0.8814 C   0  0  0  0  0  0  0  0  0  0  0  0
    0.5951    0.5862    1.1536 H   0  0  0  0  0  0  0  0  0  0  0  0
   -0.9529   -3.1527   -0.1458 H   0  0  0  0  0  0  0  0  0  0  0  0
    1.1753   -2.5839   -0.5552 H   0  0  0  0  0  0  0  0  0  0  0  0
    0.1370    2.5616   -1.0711 H   0  0  0  0  0  0  0  0  0  0  0  0
   -0.2631    2.6132    0.6220 H   0  0  0  0  0  0  0  0  0  0  0  0
   -2.3250    2.3211   -0.2900 H   0  0  0  0  0  0  0  0  0  0  0  0
   -1.7312    1.4269   -1.6733 H   0  0  0  0  0  0  0  0  0  0  0  0
   -3.5276   -0.3391   -1.5397 H   0  0  0  0  0  0  0  0  0  0  0  0
    0.1583    0.2890   -2.6357 H   0  0  0  0  0  0  0  0  0  0  0  0
    0.5197   -1.4374   -2.6360 H   0  0  0  0  0  0  0  0  0  0  0  0
    1.7990   -0.3048   -2.3342 H   0  0  0  0  0  0  0  0  0  0  0  0
    1.9152    1.9693   -2.0283 H   0  0  0  0  0  0  0  0  0  0  0  0
    2.9586    2.9971   -1.0655 H   0  0  0  0  0  0  0  0  0  0  0  0
    2.0680    3.0733    1.3459 H   0  0  0  0  0  0  0  0  0  0  0  0
   -2.5379   -0.6317    2.0531 H   0  0  0  0  0  0  0  0  0  0  0  0
   -2.6691    1.1264    1.9393 H   0  0  0  0  0  0  0  0  0  0  0  0
   -1.1048    0.3474    2.0466 H   0  0  0  0  0  0  0  0  0  0  0  0
    3.6122    2.0102    3.1155 H   0  0  0  0  0  0  0  0  0  0  0  0
    6.2956    1.5966   -1.0524 H   0  0  0  0  0  0  0  0  0  0  0  0
    6.1838    0.7353    0.4894 H   0  0  0  0  0  0  0  0  0  0  0  0
    5.7677   -0.3178   -2.3759 H   0  0  0  0  0  0  0  0  0  0  0  0
    5.2605    2.2331    0.1911 H   0  0  0  0  0  0  0  0  0  0  0  0
    4.3164   -1.2581   -2.1775 H   0  0  0  0  0  0  0  0  0  0  0  0
    5.6293   -1.3784   -0.9666 H   0  0  0  0  0  0  0  0  0  0  0  0
    1.4237   -2.7485    1.6260 H   0  0  0  0  0  0  0  0  0  0  0  0
   -5.3592    0.1499    1.9176 H   0  0  0  0  0  0  0  0  0  0  0  0
   -4.8349    2.1189   -1.9159 H   0  0  0  0  0  0  0  0  0  0  0  0
   -7.0937    2.2533    1.4936 H   0  0  0  0  0  0  0  0  0  0  0  0
  1  9  1  0  0  0  0
  1 14  1  0  0  0  0
  2 19  1  0  0  0  0
  2 23  1  0  0  0  0
  3 21  1  0  0  0  0
  3 26  1  0  0  0  0
  4 16  1  0  0  0  0
  4 59  1  0  0  0  0
  5 20  2  0  0  0  0
  6 26  2  0  0  0  0
  7 27  2  0  0  0  0
  8 33  1  0  0  0  0
  8 34  1  0  0  0  0
  9 10  1  0  0  0  0
  9 12  1  0  0  0  0
  9 14  1  0  0  0  0
 10 11  1  0  0  0  0
 10 16  1  0  0  0  0
 10 22  1  0  0  0  0
 11 13  1  0  0  0  0
 11 17  1  0  0  0  0
 11 35  1  0  0  0  0
 12 18  1  0  0  0  0
 12 21  1  0  0  0  0
 12 25  1  0  0  0  0
 13 15  1  0  0  0  0
 13 23  1  0  0  0  0
 13 24  1  0  0  0  0
 14 26  1  0  0  0  0
 14 36  1  0  0  0  0
 15 19  1  0  0  0  0
 15 20  1  0  0  0  0
 15 27  1  0  0  0  0
 16 20  1  0  0  0  0
 16 37  1  0  0  0  0
 17 18  1  0  0  0  0
 17 38  1  0  0  0  0
 17 39  1  0  0  0  0
 18 40  1  0  0  0  0
 18 41  1  0  0  0  0
 19 29  1  0  0  0  0
 19 30  1  0  0  0  0
 21 31  1  0  0  0  0
 21 42  1  0  0  0  0
 22 43  1  0  0  0  0
 22 44  1  0  0  0  0
 22 45  1  0  0  0  0
 23 46  1  0  0  0  0
 23 47  1  0  0  0  0
 24 28  2  0  0  0  0
 24 48  1  0  0  0  0
 25 49  1  0  0  0  0
 25 50  1  0  0  0  0
 25 51  1  0  0  0  0
 27 28  1  0  0  0  0
 28 52  1  0  0  0  0
 29 55  1  0  0  0  0
 29 57  1  0  0  0  0
 29 58  1  0  0  0  0
 30 53  1  0  0  0  0
 30 54  1  0  0  0  0
 30 56  1  0  0  0  0
 31 32  1  0  0  0  0
 31 33  2  0  0  0  0
 32 34  2  0  0  0  0
 32 60  1  0  0  0  0
 33 61  1  0  0  0  0
 34 62  1  0  0  0  0
M  END
> <PUBCHEM_COMPOUND_CID>
101316727

> <PUBCHEM_CONFORMER_RMSD>
0.8

> <PUBCHEM_CONFORMER_DIVERSEORDER>
1

> <PUBCHEM_MMFF94_PARTIAL_CHARGES>
34
1 -0.3
10 0.09
12 0.09
13 0.14
14 0.05
15 0.12
16 0.34
19 0.28
2 -0.56
20 0.45
21 0.46
23 0.28
24 -0.29
26 0.72
27 0.49
28 -0.14
3 -0.43
31 -0.18
32 -0.15
33 -0.01
34 -0.01
36 0.1
4 -0.68
48 0.15
5 -0.57
52 0.15
59 0.4
6 -0.57
60 0.15
61 0.15
62 0.15
7 -0.57
8 -0.28
9 -0.04

> <PUBCHEM_EFFECTIVE_ROTOR_COUNT>
2.8

> <PUBCHEM_PHARMACOPHORE_FEATURES>
15
1 1 acceptor
1 2 acceptor
1 4 acceptor
1 4 donor
1 5 acceptor
1 6 acceptor
1 7 acceptor
1 8 acceptor
3 19 29 30 hydrophobe
5 13 15 24 27 28 rings
5 2 13 15 19 23 rings
5 8 31 32 33 34 rings
6 10 11 13 15 16 20 rings
6 9 10 11 12 17 18 rings
7 1 3 9 12 14 21 26 rings

> <PUBCHEM_HEAVY_ATOM_COUNT>
34

> <PUBCHEM_ATOM_DEF_STEREO_COUNT>
8

> <PUBCHEM_ATOM_UDEF_STEREO_COUNT>
1

> <PUBCHEM_BOND_DEF_STEREO_COUNT>
0

> <PUBCHEM_BOND_UDEF_STEREO_COUNT>
0

> <PUBCHEM_ISOTOPIC_ATOM_COUNT>
0

> <PUBCHEM_COMPONENT_COUNT>
1

> <PUBCHEM_CACTVS_TAUTO_COUNT>
1

> <PUBCHEM_CONFORMER_ID>
0609F87700000001

> <PUBCHEM_MMFF94_ENERGY>
125.9151

> <PUBCHEM_FEATURE_SELFOVERLAP>
76.813

> <PUBCHEM_SHAPE_FINGERPRINT>
10863032 1 18412542149931398091
10906281 52 18058745615072579965
11578080 2 17774148145002149520
11595378 159 16226042250294659453
12011746 2 18200882781292223636
12107183 9 18189325775844332475
12166972 35 11887678368723488368
12236239 1 18113898299559195380
12403259 415 18059860626773077665
12422481 6 18188473688792582529
12633257 1 18187634817112531473
12788726 201 17968659315551978144
13140716 1 18338505439147456712
13224815 77 18336260249415040310
13533116 47 17774441560124930159
13583140 156 18201717418018313431
13726171 33 18051722080270120277
14790565 3 18120380014762302436
15131766 46 16372144410511065069
15238133 3 18410005533761908680
1601671 61 18409450293063917020
16994733 274 18117001190467569164
20691752 17 17095514128332305682
20715895 44 18199181798766825833
21033648 144 18272360988669082037
21033648 29 17774715467284752578
21421861 104 17822845377952916922
22182313 1 17916044476301835855
22393880 68 18341615953099852518
23559900 14 18412268315843971198
335352 9 18339362963527583071
34797466 226 15913320313169973661
34934 24 18410011031061370215
350125 39 18338237042283131604
3680242 22 18114457864381925714
4058900 60 18193569861411550945
4340502 62 16515695424203932769
495365 180 17346871252206094416
508706 21 18410853304703529919
5104073 3 18336538412692359186
513532 50 17203604857416709204
59755656 215 18270967842901072956
6086070 43 17632855347439868651
633830 44 18340199808082959140

> <PUBCHEM_SHAPE_MULTIPOLES>
652.75
12.52
2.89
1.68
8.66
1.48
0.26
-5.65
0.64
2.21
0.24
-1.7
-0.27
0.33

> <PUBCHEM_SHAPE_SELFOVERLAP>
1470.496

> <PUBCHEM_SHAPE_VOLUME>
336.6

> <PUBCHEM_COORDINATE_TYPE>
2
5
10

$$$$
