101345907
  -OEChem-03292013293D

 37 39  0     1  0  0  0  0  0999 V2000
    0.4978    0.2976    0.3716 O   0  0  0  0  0  0  0  0  0  0  0  0
   -3.7933   -0.4959    0.2457 O   0  0  0  0  0  0  0  0  0  0  0  0
   -0.0364   -3.0324   -1.1366 O   0  0  0  0  0  0  0  0  0  0  0  0
    4.8488   -1.3731   -0.9419 O   0  0  0  0  0  0  0  0  0  0  0  0
   -4.1572   -2.0884    1.8661 O   0  0  0  0  0  0  0  0  0  0  0  0
    4.3941    2.8639    1.1762 O   0  0  0  0  0  0  0  0  0  0  0  0
   -3.4482    3.5935   -0.5025 O   0  0  0  0  0  0  0  0  0  0  0  0
   -4.5971    1.8253   -1.3595 O   0  0  0  0  0  0  0  0  0  0  0  0
   -0.1270   -0.7189   -0.4248 C   0  0  1  0  0  0  0  0  0  0  0  0
    0.6150   -2.0552   -0.3319 C   0  0  2  0  0  0  0  0  0  0  0  0
   -1.5355   -0.8485    0.0667 C   0  0  0  0  0  0  0  0  0  0  0  0
    2.0439   -1.8768   -0.8391 C   0  0  0  0  0  0  0  0  0  0  0  0
   -2.6415   -0.0135   -0.4647 C   0  0  2  0  0  0  0  0  0  0  0  0
    2.6556   -0.6177   -0.3038 C   0  0  0  0  0  0  0  0  0  0  0  0
    1.8591    0.3891    0.2525 C   0  0  0  0  0  0  0  0  0  0  0  0
   -1.9774   -1.7064    0.9834 C   0  0  0  0  0  0  0  0  0  0  0  0
   -2.4876    1.4744   -0.1903 C   0  0  0  0  0  0  0  0  0  0  0  0
    4.0418   -0.4267   -0.3815 C   0  0  0  0  0  0  0  0  0  0  0  0
   -3.4178   -1.4824    1.1102 C   0  0  0  0  0  0  0  0  0  0  0  0
    2.4452    1.5519    0.7598 C   0  0  0  0  0  0  0  0  0  0  0  0
    4.6242    0.7404    0.1136 C   0  0  0  0  0  0  0  0  0  0  0  0
    3.8263    1.7275    0.6878 C   0  0  0  0  0  0  0  0  0  0  0  0
   -3.6328    2.2724   -0.7570 C   0  0  0  0  0  0  0  0  0  0  0  0
   -0.1595   -0.3864   -1.4720 H   0  0  0  0  0  0  0  0  0  0  0  0
    0.6620   -2.4137    0.7043 H   0  0  0  0  0  0  0  0  0  0  0  0
    2.0535   -1.8407   -1.9363 H   0  0  0  0  0  0  0  0  0  0  0  0
    2.6330   -2.7551   -0.5472 H   0  0  0  0  0  0  0  0  0  0  0  0
   -2.7986   -0.2092   -1.5318 H   0  0  0  0  0  0  0  0  0  0  0  0
   -1.4344   -2.4405    1.5524 H   0  0  0  0  0  0  0  0  0  0  0  0
   -1.5646    1.8511   -0.6450 H   0  0  0  0  0  0  0  0  0  0  0  0
   -2.4628    1.6624    0.8901 H   0  0  0  0  0  0  0  0  0  0  0  0
    0.4724   -3.8578   -1.0633 H   0  0  0  0  0  0  0  0  0  0  0  0
    1.8181    2.3210    1.2049 H   0  0  0  0  0  0  0  0  0  0  0  0
    5.7000    0.8872    0.0565 H   0  0  0  0  0  0  0  0  0  0  0  0
    5.7714   -1.0674   -0.9072 H   0  0  0  0  0  0  0  0  0  0  0  0
    3.6950    3.4364    1.5361 H   0  0  0  0  0  0  0  0  0  0  0  0
   -4.1798    4.1404   -0.8601 H   0  0  0  0  0  0  0  0  0  0  0  0
  1  9  1  0  0  0  0
  1 15  1  0  0  0  0
  2 13  1  0  0  0  0
  2 19  1  0  0  0  0
  3 10  1  0  0  0  0
  3 32  1  0  0  0  0
  4 18  1  0  0  0  0
  4 35  1  0  0  0  0
  5 19  2  0  0  0  0
  6 22  1  0  0  0  0
  6 36  1  0  0  0  0
  7 23  1  0  0  0  0
  7 37  1  0  0  0  0
  8 23  2  0  0  0  0
  9 10  1  0  0  0  0
  9 11  1  0  0  0  0
  9 24  1  0  0  0  0
 10 12  1  0  0  0  0
 10 25  1  0  0  0  0
 11 13  1  0  0  0  0
 11 16  2  0  0  0  0
 12 14  1  0  0  0  0
 12 26  1  0  0  0  0
 12 27  1  0  0  0  0
 13 17  1  0  0  0  0
 13 28  1  0  0  0  0
 14 15  1  0  0  0  0
 14 18  2  0  0  0  0
 15 20  2  0  0  0  0
 16 19  1  0  0  0  0
 16 29  1  0  0  0  0
 17 23  1  0  0  0  0
 17 30  1  0  0  0  0
 17 31  1  0  0  0  0
 18 21  1  0  0  0  0
 20 22  1  0  0  0  0
 20 33  1  0  0  0  0
 21 22  2  0  0  0  0
 21 34  1  0  0  0  0
M  END
> <PUBCHEM_COMPOUND_CID>
101345907

> <PUBCHEM_CONFORMER_RMSD>
0.8

> <PUBCHEM_CONFORMER_DIVERSEORDER>
1
4
2
16
21
22
3
24
11
20
14
12
23
18
13
5
6
15
9
8
19
7
10
17

> <PUBCHEM_MMFF94_PARTIAL_CHARGES>
30
1 -0.36
10 0.28
11 -0.28
12 0.14
13 0.42
14 -0.14
15 0.08
16 -0.14
17 0.06
18 0.08
19 0.71
2 -0.43
20 -0.15
21 -0.15
22 0.08
23 0.66
29 0.15
3 -0.68
32 0.4
33 0.15
34 0.15
35 0.45
36 0.45
37 0.5
4 -0.53
5 -0.57
6 -0.53
7 -0.65
8 -0.57
9 0.42

> <PUBCHEM_EFFECTIVE_ROTOR_COUNT>
4.2

> <PUBCHEM_PHARMACOPHORE_FEATURES>
12
1 1 acceptor
1 3 acceptor
1 3 donor
1 4 donor
1 5 acceptor
1 6 donor
1 7 acceptor
1 8 acceptor
3 7 8 23 anion
5 2 11 13 16 19 rings
6 1 9 10 12 14 15 rings
6 14 15 18 20 21 22 rings

> <PUBCHEM_HEAVY_ATOM_COUNT>
23

> <PUBCHEM_ATOM_DEF_STEREO_COUNT>
3

> <PUBCHEM_ATOM_UDEF_STEREO_COUNT>
0

> <PUBCHEM_BOND_DEF_STEREO_COUNT>
0

> <PUBCHEM_BOND_UDEF_STEREO_COUNT>
0

> <PUBCHEM_ISOTOPIC_ATOM_COUNT>
0

> <PUBCHEM_COMPONENT_COUNT>
1

> <PUBCHEM_CACTVS_TAUTO_COUNT>
18

> <PUBCHEM_CONFORMER_ID>
060A6A7300000001

> <PUBCHEM_MMFF94_ENERGY>
47.7118

> <PUBCHEM_FEATURE_SELFOVERLAP>
60.984

> <PUBCHEM_SHAPE_FINGERPRINT>
10319926 262 18260537927682903642
10608611 8 18410855447264378429
10646746 165 18334295349021494836
1100329 8 16754660786219616480
11405975 8 18261388906379486672
11545043 162 18260272940821995138
12236239 1 14923943483450442171
12403259 226 18270400632387631499
12403259 415 18412550933176285712
12507560 40 18409167744482129418
12596602 18 16661202706023124096
12730499 353 18340205177192843125
12892183 10 18041273370073927834
13140716 1 18339929212126605408
13402501 40 18411132520163997989
13464514 151 18195246603088899407
13583140 156 18411984619994927286
13675066 3 18410295856371190386
13944108 23 16390703719991038117
14178342 30 17749111071595483787
15806764 133 18199489713123828110
18186145 218 17846225492143115398
20645477 56 18199748227332124176
20645477 70 17846501404999976158
20681677 76 18411697694762168351
21033648 144 17845087553564196564
21033648 29 18343011229377291224
21049683 118 17678164998410024185
21065199 12 18335702779776624434
21065201 7 18040434395335760674
21279426 13 18267311928743739406
22182313 1 18341060661157431622
22182937 141 18338804407911560105
23493267 7 18259983743050831915
23503958 25 18409739486086114084
23557571 272 18113911463444072999
23559900 14 18267020549277044610
23845131 108 17755874013822453785
3187 122 17968658336673377109
3380486 145 18267593597194210883
495365 180 18058147475950825720
5104073 3 18408603652072832400
5281201 14 18342183280089185060
621550 34 18341065081148862139
7808743 9 18051970622149391296
9709674 26 18340206284962252111
9981440 41 18339906152784576059

> <PUBCHEM_SHAPE_MULTIPOLES>
426.37
9.98
3.32
1.16
2.08
1.43
0.19
4.41
0.49
-1.77
-0.24
-0.65
-0.24
3.29

> <PUBCHEM_SHAPE_SELFOVERLAP>
933.128

> <PUBCHEM_SHAPE_VOLUME>
230.5

> <PUBCHEM_COORDINATE_TYPE>
2
5
10

$$$$
