101396888
  -OEChem-03292013293D

 58 61  0     1  0  0  0  0  0999 V2000
   -0.2729    3.1262    0.2248 O   0  0  0  0  0  0  0  0  0  0  0  0
    2.2396   -2.8454    1.0235 O   0  0  0  0  0  0  0  0  0  0  0  0
    0.1752   -1.6022   -0.5780 O   0  0  0  0  0  0  0  0  0  0  0  0
    5.6777   -2.3993   -0.1581 O   0  0  0  0  0  0  0  0  0  0  0  0
    4.0491    1.1005   -0.4943 O   0  0  0  0  0  0  0  0  0  0  0  0
   -2.3241    1.5488    0.0901 O   0  0  0  0  0  0  0  0  0  0  0  0
   -7.5452   -1.9959    0.2833 O   0  0  0  0  0  0  0  0  0  0  0  0
    3.3730   -2.1433    0.4969 C   0  0  2  0  0  0  0  0  0  0  0  0
    2.9182   -1.4401   -0.7990 C   0  0  0  0  0  0  0  0  0  0  0  0
    4.5466   -3.1407    0.3252 C   0  0  0  0  0  0  0  0  0  0  0  0
    2.0803   -0.2289   -0.5331 C   0  0  0  0  0  0  0  0  0  0  0  0
    0.2876    4.4546    0.2102 C   0  0  0  0  0  0  0  0  0  0  0  0
    0.5223    2.0450   -0.0373 C   0  0  0  0  0  0  0  0  0  0  0  0
    1.9156    2.1547   -0.1401 C   0  0  0  0  0  0  0  0  0  0  0  0
    0.6944   -0.3416   -0.4269 C   0  0  0  0  0  0  0  0  0  0  0  0
   -0.0919    0.7869   -0.1786 C   0  0  0  0  0  0  0  0  0  0  0  0
    2.6892    1.0151   -0.3884 C   0  0  0  0  0  0  0  0  0  0  0  0
    4.9827   -3.7863    1.6431 C   0  0  0  0  0  0  0  0  0  0  0  0
    4.2436   -4.2240   -0.7145 C   0  0  0  0  0  0  0  0  0  0  0  0
    1.7932    4.5250    0.1812 C   0  0  0  0  0  0  0  0  0  0  0  0
    2.5622    3.4471    0.0208 C   0  0  0  0  0  0  0  0  0  0  0  0
   -1.5628    0.6051   -0.0805 C   0  0  0  0  0  0  0  0  0  0  0  0
   -0.2832    5.1640   -1.0233 C   0  0  0  0  0  0  0  0  0  0  0  0
   -0.2248    5.1405    1.4824 C   0  0  0  0  0  0  0  0  0  0  0  0
   -2.0765   -0.7862   -0.2160 C   0  0  0  0  0  0  0  0  0  0  0  0
   -1.1808   -1.7548   -0.4485 C   0  0  0  0  0  0  0  0  0  0  0  0
   -3.5081   -1.1043   -0.0846 C   0  0  0  0  0  0  0  0  0  0  0  0
   -4.1885   -1.7070   -1.1426 C   0  0  0  0  0  0  0  0  0  0  0  0
   -4.1842   -0.8015    1.0973 C   0  0  0  0  0  0  0  0  0  0  0  0
   -5.5451   -2.0068   -1.0189 C   0  0  0  0  0  0  0  0  0  0  0  0
   -5.5409   -1.1012    1.2211 C   0  0  0  0  0  0  0  0  0  0  0  0
   -6.2212   -1.7039    0.1630 C   0  0  0  0  0  0  0  0  0  0  0  0
    3.6735   -1.3896    1.2368 H   0  0  0  0  0  0  0  0  0  0  0  0
    2.3651   -2.1407   -1.4376 H   0  0  0  0  0  0  0  0  0  0  0  0
    3.7900   -1.1505   -1.3984 H   0  0  0  0  0  0  0  0  0  0  0  0
    5.8684   -4.4165    1.5024 H   0  0  0  0  0  0  0  0  0  0  0  0
    4.1875   -4.4027    2.0741 H   0  0  0  0  0  0  0  0  0  0  0  0
    5.0915   -4.9114   -0.8191 H   0  0  0  0  0  0  0  0  0  0  0  0
    5.2618   -3.0197    2.3748 H   0  0  0  0  0  0  0  0  0  0  0  0
    3.3621   -4.8128   -0.4419 H   0  0  0  0  0  0  0  0  0  0  0  0
    4.0855   -3.7932   -1.7089 H   0  0  0  0  0  0  0  0  0  0  0  0
    2.2661    5.4977    0.2924 H   0  0  0  0  0  0  0  0  0  0  0  0
    3.6387    3.5566    0.0262 H   0  0  0  0  0  0  0  0  0  0  0  0
   -1.3198    5.1070    1.5300 H   0  0  0  0  0  0  0  0  0  0  0  0
    0.0897    6.1884    1.5402 H   0  0  0  0  0  0  0  0  0  0  0  0
    0.1379    4.6221    2.3782 H   0  0  0  0  0  0  0  0  0  0  0  0
   -1.3791    5.1339   -1.0184 H   0  0  0  0  0  0  0  0  0  0  0  0
    0.0338    4.6617   -1.9453 H   0  0  0  0  0  0  0  0  0  0  0  0
    0.0328    6.2116   -1.0771 H   0  0  0  0  0  0  0  0  0  0  0  0
    1.6088   -2.1844    1.3546 H   0  0  0  0  0  0  0  0  0  0  0  0
    6.4138   -3.0209   -0.2905 H   0  0  0  0  0  0  0  0  0  0  0  0
   -1.4350   -2.8020   -0.5578 H   0  0  0  0  0  0  0  0  0  0  0  0
    4.2948    1.9470   -0.9005 H   0  0  0  0  0  0  0  0  0  0  0  0
   -3.6810   -1.9456   -2.0742 H   0  0  0  0  0  0  0  0  0  0  0  0
   -3.6689   -0.3359    1.9339 H   0  0  0  0  0  0  0  0  0  0  0  0
   -6.0702   -2.4750   -1.8470 H   0  0  0  0  0  0  0  0  0  0  0  0
   -6.0561   -0.8610    2.1473 H   0  0  0  0  0  0  0  0  0  0  0  0
   -7.8502   -1.7186    1.1643 H   0  0  0  0  0  0  0  0  0  0  0  0
  1 12  1  0  0  0  0
  1 13  1  0  0  0  0
  2  8  1  0  0  0  0
  2 50  1  0  0  0  0
  3 15  1  0  0  0  0
  3 26  1  0  0  0  0
  4 10  1  0  0  0  0
  4 51  1  0  0  0  0
  5 17  1  0  0  0  0
  5 53  1  0  0  0  0
  6 22  2  0  0  0  0
  7 32  1  0  0  0  0
  7 58  1  0  0  0  0
  8  9  1  0  0  0  0
  8 10  1  0  0  0  0
  8 33  1  0  0  0  0
  9 11  1  0  0  0  0
  9 34  1  0  0  0  0
  9 35  1  0  0  0  0
 10 18  1  0  0  0  0
 10 19  1  0  0  0  0
 11 15  2  0  0  0  0
 11 17  1  0  0  0  0
 12 20  1  0  0  0  0
 12 23  1  0  0  0  0
 12 24  1  0  0  0  0
 13 14  1  0  0  0  0
 13 16  2  0  0  0  0
 14 17  2  0  0  0  0
 14 21  1  0  0  0  0
 15 16  1  0  0  0  0
 16 22  1  0  0  0  0
 18 36  1  0  0  0  0
 18 37  1  0  0  0  0
 18 39  1  0  0  0  0
 19 38  1  0  0  0  0
 19 40  1  0  0  0  0
 19 41  1  0  0  0  0
 20 21  2  0  0  0  0
 20 42  1  0  0  0  0
 21 43  1  0  0  0  0
 22 25  1  0  0  0  0
 23 47  1  0  0  0  0
 23 48  1  0  0  0  0
 23 49  1  0  0  0  0
 24 44  1  0  0  0  0
 24 45  1  0  0  0  0
 24 46  1  0  0  0  0
 25 26  2  0  0  0  0
 25 27  1  0  0  0  0
 26 52  1  0  0  0  0
 27 28  2  0  0  0  0
 27 29  1  0  0  0  0
 28 30  1  0  0  0  0
 28 54  1  0  0  0  0
 29 31  2  0  0  0  0
 29 55  1  0  0  0  0
 30 32  2  0  0  0  0
 30 56  1  0  0  0  0
 31 32  1  0  0  0  0
 31 57  1  0  0  0  0
M  END
> <PUBCHEM_COMPOUND_CID>
101396888

> <PUBCHEM_CONFORMER_RMSD>
0.8

> <PUBCHEM_CONFORMER_DIVERSEORDER>
1
13
5
9
14
12
17
16
4
8
15
10
6
3
11
2
7

> <PUBCHEM_MMFF94_PARTIAL_CHARGES>
39
1 -0.36
10 0.28
11 -0.14
12 0.42
13 0.08
14 0.03
15 0.08
16 0.09
17 0.08
2 -0.68
20 -0.29
21 -0.18
22 0.47
25 -0.01
26 -0.07
27 0.03
28 -0.15
29 -0.15
3 -0.16
30 -0.15
31 -0.15
32 0.08
4 -0.68
42 0.15
43 0.15
5 -0.53
50 0.4
51 0.4
52 0.15
53 0.45
54 0.15
55 0.15
56 0.15
57 0.15
58 0.45
6 -0.57
7 -0.53
8 0.28
9 0.14

> <PUBCHEM_EFFECTIVE_ROTOR_COUNT>
4.4

> <PUBCHEM_PHARMACOPHORE_FEATURES>
15
1 1 acceptor
1 2 acceptor
1 2 donor
1 3 acceptor
1 4 acceptor
1 4 donor
1 5 donor
1 6 acceptor
1 7 donor
3 10 18 19 hydrophobe
3 12 23 24 hydrophobe
6 1 12 13 14 20 21 rings
6 11 13 14 15 16 17 rings
6 27 28 29 30 31 32 rings
6 3 15 16 22 25 26 rings

> <PUBCHEM_HEAVY_ATOM_COUNT>
32

> <PUBCHEM_ATOM_DEF_STEREO_COUNT>
0

> <PUBCHEM_ATOM_UDEF_STEREO_COUNT>
1

> <PUBCHEM_BOND_DEF_STEREO_COUNT>
0

> <PUBCHEM_BOND_UDEF_STEREO_COUNT>
0

> <PUBCHEM_ISOTOPIC_ATOM_COUNT>
0

> <PUBCHEM_COMPONENT_COUNT>
1

> <PUBCHEM_CACTVS_TAUTO_COUNT>
14

> <PUBCHEM_CONFORMER_ID>
060B319800000001

> <PUBCHEM_MMFF94_ENERGY>
109.8596

> <PUBCHEM_FEATURE_SELFOVERLAP>
76.193

> <PUBCHEM_SHAPE_FINGERPRINT>
10074138 170 17471547959756349666
10411042 1 18339080393482235862
10675989 125 17840032067783184769
1100329 8 18193838128673255845
11014199 57 18266461993053632850
11763715 3 18192452787346081670
11991303 11 17395021950130837156
12107183 9 18270695160497799513
12236239 1 17630619027769876031
12342043 65 17605013566543824331
12516196 113 18409727339882353282
12788726 201 18191031110348533162
13140716 1 18268149764460653537
13533116 47 18336267937697092251
13540713 5 17972052344901575910
13590594 115 18338801117496684155
13782708 43 17821725053383869515
13785724 45 18342186518209988567
138480 1 18411135866006272932
13955234 65 18196091277443769377
14790565 3 17330276581159277855
14844126 61 17831017927549063376
14910700 183 18053650654494629096
15042514 8 18195532480570729133
15400415 2 17474387358731969301
15439362 3 17619353542510705036
15927050 60 17979638162725547918
16992752 21 18267033765382148790
17492 89 18122065308864645614
17980427 26 17909537690604599548
1813 80 18272379624263258094
18681886 176 16700629002271843141
19301679 30 18337100190573467090
19319366 153 17767687518320885717
20511986 3 17487335091717069949
21033648 29 17460577346894539831
21049683 271 18261119612072537084
2132832 1 18202286892538455601
21344244 78 18339910572279751490
21478907 32 18338235955745836044
21796203 349 18122097331428525259
22033318 11 17984175654587886729
22223350 30 18199740341308796697
22311459 1 18266458904603304268
23559900 14 18337388374358055227
23845131 108 17689151639988723675
255183 451 18343591724040177262
3178227 256 18121232135898957721
335352 9 17981330302388530860
345986 75 18060425711514928795
34797466 226 16298672793270722943
4015057 19 18336262440265716555
4058900 60 17903931297921130708
4073 2 17974291229701570843
4409770 3 17830734253686818349
44280117 145 17979360756017030622
474 4 17980482592155991889
5104073 3 18343030995307281227
6058803 2 17986395710319839751
6086070 43 18337376168566986583
6679774 75 17829030359041284096
6695519 79 17260490574161118443
6697151 62 18265870559156972023
6700243 42 17628382401748867382
70251023 43 18335986384941309802
77188 2 18410855443122703868
79837 15 17475234596295156272
86090 222 17386016117071790443
9777508 108 16826153845445626744
9896288 288 17834385731876951066
9981440 41 17402604646462520739

> <PUBCHEM_SHAPE_MULTIPOLES>
617.46
12.2
7.45
1.09
16.6
9.38
-0.23
-18.98
-1.56
-8.22
-1.1
0.13
-0.23
-1.07

> <PUBCHEM_SHAPE_SELFOVERLAP>
1357.546

> <PUBCHEM_SHAPE_VOLUME>
334.2

> <PUBCHEM_COORDINATE_TYPE>
2
5
10

$$$$
