REMARK  Name = 101340292
REMARK  6 active torsions:
REMARK  status: ('A' for Active; 'I' for Inactive)
REMARK    1  A    between atoms: C_3  and  O_20
REMARK    2  A    between atoms: C_4  and  O_22
REMARK    3  A    between atoms: C_5  and  O_24
REMARK    4  A    between atoms: C_9  and  O_26
REMARK    5  A    between atoms: C_13  and  O_28
REMARK    6  A    between atoms: C_17  and  C_30
REMARK                            x       y       z     vdW  Elec       q    Type
REMARK                         _______ _______ _______ _____ _____    ______ ____
ROOT
ATOM      1  O   UNL     1       1.052   1.199   1.609  0.00  0.00    -0.330 OA
ATOM      2  C   UNL     1       0.853  -0.782   0.268  0.00  0.00    +0.083 C 
ATOM      3  C   UNL     1       1.811   0.253  -0.412  0.00  0.00    +0.142 C 
ATOM      4  C   UNL     1      -0.645  -0.692  -0.338  0.00  0.00    +0.134 C 
ATOM      5  C   UNL     1       1.202   1.528   0.210  0.00  0.00    +0.236 C 
ATOM      6  C   UNL     1       3.377   0.037  -0.181  0.00  0.00    +0.027 C 
ATOM      7  C   UNL     1       1.397  -2.225   0.215  0.00  0.00    +0.008 C 
ATOM      8  C   UNL     1       0.820  -0.224   1.711  0.00  0.00    +0.150 C 
ATOM      9  C   UNL     1      -0.199   1.857  -0.363  0.00  0.00    +0.184 C 
ATOM     10  C   UNL     1      -1.202   0.728  -0.168  0.00  0.00    +0.009 C 
ATOM     11  C   UNL     1       3.719  -1.462  -0.374  0.00  0.00    +0.002 C 
ATOM     12  C   UNL     1       2.884  -2.375   0.508  0.00  0.00    +0.000 C 
ATOM     13  C   UNL     1      -1.624  -1.751   0.263  0.00  0.00    +0.139 C 
ATOM     14  C   UNL     1       4.213   0.809  -1.244  0.00  0.00    +0.002 C 
ATOM     15  C   UNL     1       3.935   0.491   1.191  0.00  0.00    +0.002 C 
ATOM     16  C   UNL     1      -3.082  -1.455  -0.104  0.00  0.00    +0.040 C 
ATOM     17  C   UNL     1      -3.548  -0.081   0.408  0.00  0.00    +0.039 C 
ATOM     18  C   UNL     1      -2.482   0.968   0.180  0.00  0.00    -0.026 C 
ATOM     19  C   UNL     1      -3.859  -0.137   1.914  0.00  0.00    +0.009 C 
ENDROOT
BRANCH   3  20
ATOM     20  O   UNL     1       1.614   0.277  -1.828  0.00  0.00    -0.382 OA
ATOM     21  H   UNL     1       0.672   0.407  -2.021  0.00  0.00    +0.210 HD
ENDBRANCH   3  20
BRANCH   4  22
ATOM     22  O   UNL     1      -0.627  -0.914  -1.758  0.00  0.00    -0.380 OA
ATOM     23  H   UNL     1      -0.029  -0.276  -2.177  0.00  0.00    +0.211 HD
ENDBRANCH   4  22
BRANCH   5  24
ATOM     24  O   UNL     1       2.049   2.653   0.017  0.00  0.00    -0.360 OA
ATOM     25  H   UNL     1       2.930   2.459   0.372  0.00  0.00    +0.213 HD
ENDBRANCH   5  24
BRANCH   9  26
ATOM     26  O   UNL     1      -0.652   3.071   0.249  0.00  0.00    -0.376 OA
ATOM     27  H   UNL     1       0.006   3.769   0.108  0.00  0.00    +0.211 HD
ENDBRANCH   9  26
BRANCH  13  28
ATOM     28  O   UNL     1      -1.332  -3.068  -0.208  0.00  0.00    -0.382 OA
ATOM     29  H   UNL     1      -0.413  -3.292   0.007  0.00  0.00    +0.210 HD
ENDBRANCH  13  28
BRANCH  17  30
ATOM     30  C   UNL     1      -4.819   0.292  -0.316  0.00  0.00    -0.023 C 
ATOM     31  C   UNL     1      -4.853   1.000  -1.450  0.00  0.00    -0.005 C 
ENDBRANCH  17  30
TORSDOF 6
