REMARK  Name = 101393722
REMARK  12 active torsions:
REMARK  status: ('A' for Active; 'I' for Inactive)
REMARK    1  A    between atoms: N_2  and  C_4
REMARK    2  A    between atoms: N_2  and  C_13
REMARK    3  A    between atoms: C_3  and  C_17
REMARK    4  A    between atoms: C_5  and  C_11
REMARK    5  A    between atoms: C_13  and  O_14
REMARK    6  A    between atoms: O_14  and  C_15
REMARK    7  A    between atoms: C_17  and  S_18
REMARK    8  A    between atoms: S_18  and  C_19
REMARK    9  A    between atoms: C_19  and  C_20
REMARK   10  A    between atoms: C_20  and  N_22
REMARK   11  A    between atoms: C_20  and  C_27
REMARK   12  A    between atoms: C_27  and  O_28
REMARK                            x       y       z     vdW  Elec       q    Type
REMARK                         _______ _______ _______ _____ _____    ______ ____
ROOT
ATOM      1  O   UNK A   1       0.654  -1.810   1.595  0.00  0.00    -0.274 OA
ATOM      2  N   UNK A   1       2.188  -0.305   0.657  0.00  0.00    -0.232 N 
ATOM      3  C   UNK A   1       0.899  -0.862   0.845  0.00  0.00    +0.242 C 
ENDROOT
BRANCH   2   4
ATOM      4  C   UNK A   1       2.411   0.748  -0.314  0.00  0.00    +0.048 C 
ATOM      5  C   UNK A   1       2.283   2.084   0.065  0.00  0.00    -0.009 C 
ATOM      6  C   UNK A   1       2.754   0.424  -1.626  0.00  0.00    -0.008 C 
ATOM      7  C   UNK A   1       2.498   3.097  -0.870  0.00  0.00    -0.003 C 
ATOM      8  C   UNK A   1       2.969   1.438  -2.561  0.00  0.00    -0.003 C 
ATOM      9  C   UNK A   1       2.841   2.774  -2.182  0.00  0.00    -0.001 C 
ATOM     10  C   UNK A   1       2.899  -0.998  -2.062  0.00  0.00    +0.032 C 
BRANCH   5  11
ATOM     11  C   UNK A   1       1.916   2.462   1.463  0.00  0.00    +0.028 C 
ATOM     12  C   UNK A   1       3.120   2.948   2.265  0.00  0.00    +0.005 C 
ENDBRANCH   5  11
ENDBRANCH   2   4
BRANCH   2  13
ATOM     13  C   UNK A   1       3.373  -0.829   1.364  0.00  0.00    +0.247 C 
BRANCH  13  14
ATOM     14  O   UNK A   1       3.913  -1.917   0.618  0.00  0.00    -0.334 OA
BRANCH  14  15
ATOM     15  C   UNK A   1       5.070  -2.457   1.242  0.00  0.00    +0.144 C 
ATOM     16  C   UNK A   1       5.593  -3.604   0.403  0.00  0.00    +0.035 C 
ENDBRANCH  14  15
ENDBRANCH  13  14
ENDBRANCH   2  13
BRANCH   3  17
ATOM     17  C   UNK A   1      -0.221  -0.180   0.069  0.00  0.00    +0.143 C 
BRANCH  17  18
ATOM     18  S   UNK A   1      -1.833  -0.950   0.375  0.00  0.00    -0.128 S 
BRANCH  18  19
ATOM     19  C   UNK A   1      -2.841   0.111  -0.686  0.00  0.00    +0.089 C 
BRANCH  19  20
ATOM     20  C   UNK A   1      -4.321  -0.277  -0.719  0.00  0.00    +0.182 C 
BRANCH  20  22
ATOM     21  O   UNK A   0      -5.588   2.164   0.212  0.00  0.00    -0.275 OA
ATOM     22  N   UNK A   1      -4.966  -0.054   0.551  0.00  0.00    -0.296 N 
ATOM     23  C   UNK A   0      -5.546   1.153   0.908  0.00  0.00    +0.223 C 
ATOM     24  C   UNK A   0      -6.170   1.105   2.277  0.00  0.00    +0.095 C 
ATOM     25  H   UNK A   1      -4.995  -0.797   1.197  0.00  0.00    +0.150 HD
ENDBRANCH  20  22
BRANCH  20  27
ATOM     26  O   UNK A   1      -4.171  -2.087  -2.326  0.00  0.00    -0.248 OA
ATOM     27  C   UNK A   1      -4.536  -1.694  -1.224  0.00  0.00    +0.333 C 
BRANCH  27  28
ATOM     28  O   UNK A   1      -5.189  -2.485  -0.339  0.00  0.00    -0.479 OA
ATOM     29  H   UNK A   1      -5.449  -2.141   0.493  0.00  0.00    +0.295 HD
ENDBRANCH  27  28
ENDBRANCH  20  27
ENDBRANCH  19  20
ENDBRANCH  18  19
ENDBRANCH  17  18
ENDBRANCH   3  17
TORSDOF 12
