101348504
  -OEChem-03292013293D

 70 71  0     1  0  0  0  0  0999 V2000
    3.3506    2.4383    1.7701 O   0  0  0  0  0  0  0  0  0  0  0  0
    5.0055    0.1207    2.2121 O   0  0  0  0  0  0  0  0  0  0  0  0
    3.4430   -0.3050   -1.7648 O   0  0  0  0  0  0  0  0  0  0  0  0
    1.9592   -2.1860   -0.3832 O   0  0  0  0  0  0  0  0  0  0  0  0
    2.6303    2.0863   -1.7882 O   0  0  0  0  0  0  0  0  0  0  0  0
    2.3150   -4.4249   -0.8289 O   0  0  0  0  0  0  0  0  0  0  0  0
   -9.3991    1.2842    1.4109 O   0  0  0  0  0  0  0  0  0  0  0  0
   -9.4147   -0.4097   -0.1077 O   0  0  0  0  0  0  0  0  0  0  0  0
    3.2225    0.4217    0.5414 C   0  0  1  0  0  0  0  0  0  0  0  0
    3.5944    0.1099    1.9844 C   0  0  1  0  0  0  0  0  0  0  0  0
    3.5345    1.9204    0.4214 C   0  0  1  0  0  0  0  0  0  0  0  0
    3.8162   -0.6000   -0.4241 C   0  0  1  0  0  0  0  0  0  0  0  0
    3.0408   -1.2475    2.4019 C   0  0  0  0  0  0  0  0  0  0  0  0
    3.0443    1.3425    2.6696 C   0  0  0  0  0  0  0  0  0  0  0  0
    3.3402   -2.0215   -0.0475 C   0  0  1  0  0  0  0  0  0  0  0  0
    3.5322   -2.3564    1.4443 C   0  0  0  0  0  0  0  0  0  0  0  0
    2.5304    2.6427   -0.4823 C   0  0  2  0  0  0  0  0  0  0  0  0
    4.9546    2.2625   -0.0330 C   0  0  0  0  0  0  0  0  0  0  0  0
    1.1057    2.4606    0.0387 C   0  0  0  0  0  0  0  0  0  0  0  0
    4.3158   -0.9269   -2.6978 C   0  0  0  0  0  0  0  0  0  0  0  0
    0.1739    3.4958   -0.5328 C   0  0  0  0  0  0  0  0  0  0  0  0
    1.5942   -3.4425   -0.7549 C   0  0  0  0  0  0  0  0  0  0  0  0
   -0.9209    3.2859   -1.2881 C   0  0  0  0  0  0  0  0  0  0  0  0
    0.1465   -3.4161   -1.0595 C   0  0  0  0  0  0  0  0  0  0  0  0
   -1.3490    1.8866   -1.6408 C   0  0  0  0  0  0  0  0  0  0  0  0
   -1.8136    4.3660   -1.8303 C   0  0  0  0  0  0  0  0  0  0  0  0
   -0.6527   -2.5516   -0.4201 C   0  0  0  0  0  0  0  0  0  0  0  0
   -2.0759   -2.4711   -0.6704 C   0  0  0  0  0  0  0  0  0  0  0  0
   -2.8817   -1.6074   -0.0334 C   0  0  0  0  0  0  0  0  0  0  0  0
   -4.3126   -1.5062   -0.2259 C   0  0  0  0  0  0  0  0  0  0  0  0
   -5.1183   -0.6425    0.4114 C   0  0  0  0  0  0  0  0  0  0  0  0
   -6.5509   -0.6022    0.2049 C   0  0  0  0  0  0  0  0  0  0  0  0
   -7.3486    0.2640    0.8456 C   0  0  0  0  0  0  0  0  0  0  0  0
   -8.8119    0.3297    0.6567 C   0  0  0  0  0  0  0  0  0  0  0  0
    2.1395    0.2798    0.4785 H   0  0  0  0  0  0  0  0  0  0  0  0
    4.9100   -0.5610   -0.3311 H   0  0  0  0  0  0  0  0  0  0  0  0
    1.9440   -1.2299    2.3928 H   0  0  0  0  0  0  0  0  0  0  0  0
    3.3542   -1.4981    3.4221 H   0  0  0  0  0  0  0  0  0  0  0  0
    1.9583    1.3013    2.8018 H   0  0  0  0  0  0  0  0  0  0  0  0
    3.5130    1.5560    3.6348 H   0  0  0  0  0  0  0  0  0  0  0  0
    3.9394   -2.7334   -0.6282 H   0  0  0  0  0  0  0  0  0  0  0  0
    4.6019   -2.5180    1.6277 H   0  0  0  0  0  0  0  0  0  0  0  0
    3.0183   -3.2896    1.7017 H   0  0  0  0  0  0  0  0  0  0  0  0
    2.7805    3.7102   -0.5350 H   0  0  0  0  0  0  0  0  0  0  0  0
    5.7112    1.8595    0.6457 H   0  0  0  0  0  0  0  0  0  0  0  0
    5.1684    1.8936   -1.0406 H   0  0  0  0  0  0  0  0  0  0  0  0
    5.1081    3.3482   -0.0289 H   0  0  0  0  0  0  0  0  0  0  0  0
    5.1579   -0.0439    3.1584 H   0  0  0  0  0  0  0  0  0  0  0  0
    1.0480    2.5997    1.1223 H   0  0  0  0  0  0  0  0  0  0  0  0
    0.7205    1.4634   -0.1799 H   0  0  0  0  0  0  0  0  0  0  0  0
    2.0148    2.5698   -2.3647 H   0  0  0  0  0  0  0  0  0  0  0  0
    4.0353   -0.5846   -3.6981 H   0  0  0  0  0  0  0  0  0  0  0  0
    4.2138   -2.0148   -2.6776 H   0  0  0  0  0  0  0  0  0  0  0  0
    5.3557   -0.6357   -2.5198 H   0  0  0  0  0  0  0  0  0  0  0  0
    0.4298    4.5270   -0.2928 H   0  0  0  0  0  0  0  0  0  0  0  0
   -0.2266   -4.1492   -1.7658 H   0  0  0  0  0  0  0  0  0  0  0  0
   -1.9228    1.4459   -0.8196 H   0  0  0  0  0  0  0  0  0  0  0  0
   -1.8219    4.3422   -2.9247 H   0  0  0  0  0  0  0  0  0  0  0  0
   -2.8378    4.2319   -1.4675 H   0  0  0  0  0  0  0  0  0  0  0  0
   -1.4765    5.3606   -1.5202 H   0  0  0  0  0  0  0  0  0  0  0  0
   -0.5046    1.2364   -1.8879 H   0  0  0  0  0  0  0  0  0  0  0  0
   -1.9905    1.8909   -2.5295 H   0  0  0  0  0  0  0  0  0  0  0  0
   -0.2636   -1.8589    0.3220 H   0  0  0  0  0  0  0  0  0  0  0  0
   -2.4917   -3.1591   -1.4030 H   0  0  0  0  0  0  0  0  0  0  0  0
   -2.4548   -0.9235    0.6986 H   0  0  0  0  0  0  0  0  0  0  0  0
   -4.7433   -2.2052   -0.9411 H   0  0  0  0  0  0  0  0  0  0  0  0
   -4.6983    0.0592    1.1285 H   0  0  0  0  0  0  0  0  0  0  0  0
   -6.9729   -1.3111   -0.5026 H   0  0  0  0  0  0  0  0  0  0  0  0
   -6.9304    0.9752    1.5537 H   0  0  0  0  0  0  0  0  0  0  0  0
  -10.3700    1.3159    1.2744 H   0  0  0  0  0  0  0  0  0  0  0  0
  1 11  1  0  0  0  0
  1 14  1  0  0  0  0
  2 10  1  0  0  0  0
  2 48  1  0  0  0  0
  3 12  1  0  0  0  0
  3 20  1  0  0  0  0
  4 15  1  0  0  0  0
  4 22  1  0  0  0  0
  5 17  1  0  0  0  0
  5 51  1  0  0  0  0
  6 22  2  0  0  0  0
  7 34  1  0  0  0  0
  7 70  1  0  0  0  0
  8 34  2  0  0  0  0
  9 10  1  0  0  0  0
  9 11  1  0  0  0  0
  9 12  1  0  0  0  0
  9 35  1  0  0  0  0
 10 13  1  0  0  0  0
 10 14  1  0  0  0  0
 11 17  1  0  0  0  0
 11 18  1  0  0  0  0
 12 15  1  0  0  0  0
 12 36  1  0  0  0  0
 13 16  1  0  0  0  0
 13 37  1  0  0  0  0
 13 38  1  0  0  0  0
 14 39  1  0  0  0  0
 14 40  1  0  0  0  0
 15 16  1  0  0  0  0
 15 41  1  0  0  0  0
 16 42  1  0  0  0  0
 16 43  1  0  0  0  0
 17 19  1  0  0  0  0
 17 44  1  0  0  0  0
 18 45  1  0  0  0  0
 18 46  1  0  0  0  0
 18 47  1  0  0  0  0
 19 21  1  0  0  0  0
 19 49  1  0  0  0  0
 19 50  1  0  0  0  0
 20 52  1  0  0  0  0
 20 53  1  0  0  0  0
 20 54  1  0  0  0  0
 21 23  2  0  0  0  0
 21 55  1  0  0  0  0
 22 24  1  0  0  0  0
 23 25  1  0  0  0  0
 23 26  1  0  0  0  0
 24 27  2  0  0  0  0
 24 56  1  0  0  0  0
 25 57  1  0  0  0  0
 25 61  1  0  0  0  0
 25 62  1  0  0  0  0
 26 58  1  0  0  0  0
 26 59  1  0  0  0  0
 26 60  1  0  0  0  0
 27 28  1  0  0  0  0
 27 63  1  0  0  0  0
 28 29  2  0  0  0  0
 28 64  1  0  0  0  0
 29 30  1  0  0  0  0
 29 65  1  0  0  0  0
 30 31  2  0  0  0  0
 30 66  1  0  0  0  0
 31 32  1  0  0  0  0
 31 67  1  0  0  0  0
 32 33  2  0  0  0  0
 32 68  1  0  0  0  0
 33 34  1  0  0  0  0
 33 69  1  0  0  0  0
M  END
> <PUBCHEM_COMPOUND_CID>
101348504

> <PUBCHEM_CONFORMER_RMSD>
1.2

> <PUBCHEM_CONFORMER_DIVERSEORDER>
1
53
61
10
12
71
66
44
27
41
60
33
23
15
4
47
2
68
3
75
31
63
56
36
22
52
49
64
5
54
43
38
8
18
37
50
34
9
24
55
32
46
74
26
13
30
48
19
42
28
51
58
72
21
69
39
7
20
6
25
45
35
67
73
57
62
70
14
40
16
11
29
65
59
17

> <PUBCHEM_MMFF94_PARTIAL_CHARGES>
42
1 -0.56
10 0.28
11 0.28
12 0.28
14 0.28
15 0.28
17 0.28
19 0.14
2 -0.68
20 0.28
21 -0.29
22 0.71
23 -0.28
24 -0.14
25 0.14
26 0.14
27 -0.15
28 -0.15
29 -0.15
3 -0.56
30 -0.15
31 -0.15
32 -0.15
33 -0.14
34 0.71
4 -0.43
48 0.4
5 -0.68
51 0.4
55 0.15
56 0.15
6 -0.57
63 0.15
64 0.15
65 0.15
66 0.15
67 0.15
68 0.15
69 0.15
7 -0.65
70 0.5
8 -0.57

> <PUBCHEM_EFFECTIVE_ROTOR_COUNT>
12.4

> <PUBCHEM_PHARMACOPHORE_FEATURES>
13
1 1 acceptor
1 2 acceptor
1 2 donor
1 3 acceptor
1 5 acceptor
1 5 donor
1 6 acceptor
1 7 acceptor
1 8 acceptor
3 23 25 26 hydrophobe
3 7 8 34 anion
5 1 9 10 11 14 rings
6 9 10 12 13 15 16 rings

> <PUBCHEM_HEAVY_ATOM_COUNT>
34

> <PUBCHEM_ATOM_DEF_STEREO_COUNT>
4

> <PUBCHEM_ATOM_UDEF_STEREO_COUNT>
2

> <PUBCHEM_BOND_DEF_STEREO_COUNT>
4

> <PUBCHEM_BOND_UDEF_STEREO_COUNT>
0

> <PUBCHEM_ISOTOPIC_ATOM_COUNT>
0

> <PUBCHEM_COMPONENT_COUNT>
1

> <PUBCHEM_CACTVS_TAUTO_COUNT>
1

> <PUBCHEM_CONFORMER_ID>
060A749800000001

> <PUBCHEM_MMFF94_ENERGY>
100.7021

> <PUBCHEM_FEATURE_SELFOVERLAP>
66.115

> <PUBCHEM_SHAPE_FINGERPRINT>
10049733 57 18262508205671084549
10190108 129 17968642883902876984
10673678 19 17846781815300284675
11966995 178 18131081411807539723
1200032 147 18115597079230613534
12422481 6 18261385634078818973
12925494 130 18339364188448220139
13383668 40 17561357402202993474
13561361 72 18191299382452915765
13965767 371 18125133156616503114
14725015 67 18189612752859018795
15001296 14 18337110189505557097
19026451 147 8862678896788621232
19301679 30 18187081737923131221
1979834 28 18411696591250926919
20587220 17 16558743499228087081
20721686 146 17345459561840388760
20764821 26 18192966400741006038
21421861 104 18115014312256150100
373842 8 18337954494445610253
394071 54 18410578392579350243
5109719 28 18338528512646064963
550186 83 17968370259941626948
57527573 199 17972314290588118632
60111433 81 17630597032715697657
6609424 69 18266737983162000159

> <PUBCHEM_SHAPE_MULTIPOLES>
652.75
18.15
5.32
2.2
65.95
0.81
-0.5
1.53
-8.21
-2.93
2.74
-3.11
0.47
0.64

> <PUBCHEM_SHAPE_SELFOVERLAP>
1336.882

> <PUBCHEM_SHAPE_VOLUME>
374.5

> <PUBCHEM_COORDINATE_TYPE>
2
5
10

$$$$
