REMARK  Name = 101316891
REMARK  9 active torsions:
REMARK  status: ('A' for Active; 'I' for Inactive)
REMARK    1  A    between atoms: C_9  and  C_22
REMARK    2  A    between atoms: C_10  and  C_28
REMARK    3  A    between atoms: C_13  and  C_32
REMARK    4  A    between atoms: C_22  and  C_23
REMARK    5  A    between atoms: C_23  and  C_24
REMARK    6  A    between atoms: C_24  and  C_25
REMARK    7  A    between atoms: C_25  and  C_26
REMARK    8  A    between atoms: C_28  and  C_29
REMARK    9  A    between atoms: C_32  and  C_33
REMARK                            x       y       z     vdW  Elec       q    Type
REMARK                         _______ _______ _______ _____ _____    ______ ____
ROOT
ATOM      1  O   UNL     1       1.369  -0.231  -0.301  0.00  0.00    -0.451 OA
ATOM      2  O   UNL     1       2.603   0.199  -2.195  0.00  0.00    -0.248 OA
ATOM      3  O   UNL     1      -1.433   0.602  -2.248  0.00  0.00    -0.275 OA
ATOM      4  O   UNL     1       2.207   1.799   2.382  0.00  0.00    -0.273 OA
ATOM      5  O   UNL     1      -2.667   2.723   0.927  0.00  0.00    -0.273 OA
ATOM      6  N   UNL     1       1.172   2.230   0.349  0.00  0.00    -0.295 N 
ATOM      7  N   UNL     1      -1.906  -0.518  -0.271  0.00  0.00    -0.298 N 
ATOM      8  N   UNL     1      -1.058   1.227   1.661  0.00  0.00    -0.297 N 
ATOM      9  C   UNL     1       0.868  -1.533  -0.686  0.00  0.00    +0.178 C 
ATOM     10  C   UNL     1       2.293   1.948  -0.540  0.00  0.00    +0.171 C 
ATOM     11  C   UNL     1      -0.204  -1.405  -1.774  0.00  0.00    +0.129 C 
ATOM     12  C   UNL     1       2.099   0.556  -1.139  0.00  0.00    +0.335 C 
ATOM     13  C   UNL     1      -2.887   0.431   0.240  0.00  0.00    +0.153 C 
ATOM     14  C   UNL     1      -1.237  -0.331  -1.470  0.00  0.00    +0.226 C 
ATOM     15  C   UNL     1      -0.190   2.176   2.351  0.00  0.00    +0.149 C 
ATOM     16  C   UNL     1       1.194   2.022   1.722  0.00  0.00    +0.241 C 
ATOM     17  C   UNL     1      -2.178   1.594   0.933  0.00  0.00    +0.241 C 
ATOM     18  C   UNL     1      -0.187   1.901   3.846  0.00  0.00    +0.031 C 
ATOM     19  H   UNL     1       0.347   2.590  -0.049  0.00  0.00    +0.150 HD
ATOM     20  H   UNL     1      -1.710  -1.326   0.257  0.00  0.00    +0.150 HD
ATOM     21  H   UNL     1      -0.834   0.270   1.715  0.00  0.00    +0.150 HD
ENDROOT
BRANCH   9  22
ATOM     22  C   UNL     1       1.984  -2.504  -1.058  0.00  0.00    +0.044 C 
BRANCH  22  23
ATOM     23  C   UNL     1       3.050  -2.649   0.028  0.00  0.00    +0.004 C 
BRANCH  23  24
ATOM     24  C   UNL     1       4.156  -3.643  -0.336  0.00  0.00    +0.000 C 
BRANCH  24  25
ATOM     25  C   UNL     1       5.208  -3.732   0.772  0.00  0.00    +0.000 C 
BRANCH  25  26
ATOM     26  C   UNL     1       6.333  -4.694   0.394  0.00  0.00    +0.000 C 
ATOM     27  C   UNL     1       7.397  -4.760   1.478  0.00  0.00    +0.000 C 
ENDBRANCH  25  26
ENDBRANCH  24  25
ENDBRANCH  23  24
ENDBRANCH  22  23
ENDBRANCH   9  22
BRANCH  10  28
ATOM     28  C   UNL     1       2.375   3.007  -1.628  0.00  0.00    +0.031 C 
BRANCH  28  29
ATOM     29  C   UNL     1       2.493   4.442  -1.085  0.00  0.00    +0.002 C 
ATOM     30  C   UNL     1       3.740   4.637  -0.221  0.00  0.00    +0.000 C 
ATOM     31  C   UNL     1       2.506   5.439  -2.246  0.00  0.00    +0.000 C 
ENDBRANCH  28  29
ENDBRANCH  10  28
BRANCH  13  32
ATOM     32  C   UNL     1      -3.844  -0.248   1.209  0.00  0.00    +0.055 C 
BRANCH  32  33
ATOM     33  C   UNL     1      -4.899  -1.043   0.486  0.00  0.00    -0.020 C 
ATOM     34  C   UNL     1      -6.104  -0.439   0.127  0.00  0.00    -0.004 C 
ATOM     35  C   UNL     1      -4.671  -2.384   0.178  0.00  0.00    -0.004 C 
ATOM     36  C   UNL     1      -7.081  -1.177  -0.542  0.00  0.00    -0.000 C 
ATOM     37  C   UNL     1      -5.649  -3.122  -0.491  0.00  0.00    -0.000 C 
ATOM     38  C   UNL     1      -6.853  -2.518  -0.851  0.00  0.00    -0.000 C 
ENDBRANCH  32  33
ENDBRANCH  13  32
TORSDOF 9
