REMARK  Name = 101377925
REMARK  10 active torsions:
REMARK  status: ('A' for Active; 'I' for Inactive)
REMARK    1  A    between atoms: C_4  and  C_31
REMARK    2  A    between atoms: C_7  and  O_27
REMARK    3  A    between atoms: C_8  and  C_15
REMARK    4  A    between atoms: C_13  and  O_29
REMARK    5  A    between atoms: C_18  and  O_21
REMARK    6  A    between atoms: C_19  and  O_23
REMARK    7  A    between atoms: C_20  and  O_25
REMARK    8  A    between atoms: C_31  and  C_32
REMARK    9  A    between atoms: C_32  and  C_33
REMARK   10  A    between atoms: C_33  and  C_34
REMARK                            x       y       z     vdW  Elec       q    Type
REMARK                         _______ _______ _______ _____ _____    ______ ____
ROOT
ATOM      1  O   UNL     1       0.114  -0.731  -0.255  0.00  0.00    -0.473 OA
ATOM      2  O   UNL     1       4.662   0.314  -0.510  0.00  0.00    -0.424 OA
ATOM      3  O   UNL     1       4.382   2.522  -1.106  0.00  0.00    -0.249 OA
ATOM      4  C   UNL     1       2.404   1.140  -0.734  0.00  0.00    +0.128 C 
ATOM      5  C   UNL     1       2.423  -0.286  -0.338  0.00  0.00    +0.057 C 
ATOM      6  C   UNL     1       1.394  -1.187  -0.115  0.00  0.00    +0.137 C 
ATOM      7  C   UNL     1      -0.718  -2.834   0.725  0.00  0.00    +0.159 C 
ATOM      8  C   UNL     1      -0.891  -1.752  -0.349  0.00  0.00    +0.215 C 
ATOM      9  C   UNL     1       0.640  -3.512   0.549  0.00  0.00    +0.066 C 
ATOM     10  C   UNL     1       1.718  -2.499   0.266  0.00  0.00    +0.048 C 
ATOM     11  C   UNL     1       3.744  -0.683  -0.234  0.00  0.00    +0.151 C 
ATOM     12  C   UNL     1       3.897   1.438  -0.814  0.00  0.00    +0.325 C 
ATOM     13  C   UNL     1       3.072  -2.884   0.367  0.00  0.00    +0.136 C 
ATOM     14  C   UNL     1       4.098  -1.973   0.114  0.00  0.00    +0.074 C 
ENDROOT
BRANCH   8  15
ATOM     15  C   UNL     1      -2.266  -1.114  -0.291  0.00  0.00    +0.026 C 
ATOM     16  C   UNL     1      -2.474   0.023   0.491  0.00  0.00    +0.039 C 
ATOM     17  C   UNL     1      -3.322  -1.663  -1.018  0.00  0.00    +0.039 C 
ATOM     18  C   UNL     1      -4.586  -1.076  -0.964  0.00  0.00    +0.170 C 
ATOM     19  C   UNL     1      -3.739   0.610   0.545  0.00  0.00    +0.170 C 
ATOM     20  C   UNL     1      -4.794   0.061  -0.183  0.00  0.00    +0.202 C 
BRANCH  18  21
ATOM     21  O   UNL     1      -5.609  -1.621  -1.681  0.00  0.00    -0.503 OA
ATOM     22  H   UNL     1      -5.460  -2.385  -2.203  0.00  0.00    +0.292 HD
ENDBRANCH  18  21
BRANCH  19  23
ATOM     23  O   UNL     1      -3.929   1.719   1.312  0.00  0.00    -0.503 OA
ATOM     24  H   UNL     1      -3.214   2.081   1.798  0.00  0.00    +0.292 HD
ENDBRANCH  19  23
BRANCH  20  25
ATOM     25  O   UNL     1      -6.030   0.635  -0.131  0.00  0.00    -0.501 OA
ATOM     26  H   UNL     1      -6.739   0.267  -0.619  0.00  0.00    +0.292 HD
ENDBRANCH  20  25
ENDBRANCH   8  15
BRANCH   7  27
ATOM     27  O   UNL     1      -0.785  -2.249   2.026  0.00  0.00    -0.380 OA
ATOM     28  H   UNL     1      -1.646  -1.817   2.142  0.00  0.00    +0.211 HD
ENDBRANCH   7  27
BRANCH  13  29
ATOM     29  O   UNL     1       3.408  -4.161   0.712  0.00  0.00    -0.506 OA
ATOM     30  H   UNL     1       2.736  -4.791   0.886  0.00  0.00    +0.292 HD
ENDBRANCH  13  29
BRANCH   4  31
ATOM     31  C   UNL     1       1.731   2.052   0.279  0.00  0.00    +0.016 C 
BRANCH  31  32
ATOM     32  C   UNL     1       1.265   3.358  -0.365  0.00  0.00    +0.001 C 
BRANCH  32  33
ATOM     33  C   UNL     1       0.619   4.287   0.664  0.00  0.00    +0.000 C 
BRANCH  33  34
ATOM     34  C   UNL     1       0.123   5.578   0.013  0.00  0.00    +0.000 C 
ATOM     35  C   UNL     1      -0.550   6.490   1.026  0.00  0.00    +0.000 C 
ENDBRANCH  33  34
ENDBRANCH  32  33
ENDBRANCH  31  32
ENDBRANCH   4  31
TORSDOF 10
