REMARK  Name = 101306824
REMARK  5 active torsions:
REMARK  status: ('A' for Active; 'I' for Inactive)
REMARK    1  A    between atoms: C_6  and  O_22
REMARK    2  A    between atoms: C_7  and  O_24
REMARK    3  A    between atoms: C_8  and  O_26
REMARK    4  A    between atoms: C_9  and  O_28
REMARK    5  A    between atoms: C_14  and  O_30
REMARK                            x       y       z     vdW  Elec       q    Type
REMARK                         _______ _______ _______ _____ _____    ______ ____
ROOT
ATOM      1  O   UNL     1       0.278  -0.772   1.974  0.00  0.00    -0.332 OA
ATOM      2  C   UNL     1      -1.313  -0.351   0.178  0.00  0.00    +0.103 C 
ATOM      3  C   UNL     1       1.000   0.818   0.219  0.00  0.00    +0.055 C 
ATOM      4  C   UNL     1      -0.512   0.939  -0.268  0.00  0.00    +0.014 C 
ATOM      5  C   UNL     1       1.613  -0.411  -0.569  0.00  0.00    +0.036 C 
ATOM      6  C   UNL     1      -0.308  -1.360   0.799  0.00  0.00    +0.213 C 
ATOM      7  C   UNL     1       0.851  -1.699  -0.158  0.00  0.00    +0.162 C 
ATOM      8  C   UNL     1      -2.462   0.065   1.147  0.00  0.00    +0.121 C 
ATOM      9  C   UNL     1      -2.157  -0.945  -0.995  0.00  0.00    +0.136 C 
ATOM     10  C   UNL     1       3.183  -0.488  -0.683  0.00  0.00    +0.003 C 
ATOM     11  C   UNL     1      -3.373   0.854   0.197  0.00  0.00    +0.048 C 
ATOM     12  C   UNL     1      -1.232   2.253   0.124  0.00  0.00    +0.001 C 
ATOM     13  C   UNL     1       0.937   0.474   1.723  0.00  0.00    +0.147 C 
ATOM     14  C   UNL     1       1.772   2.133  -0.074  0.00  0.00    +0.113 C 
ATOM     15  C   UNL     1      -2.749   2.222  -0.106  0.00  0.00    +0.007 C 
ATOM     16  C   UNL     1      -3.350  -0.019  -1.046  0.00  0.00    -0.016 C 
ATOM     17  C   UNL     1       3.717   0.908  -1.080  0.00  0.00    +0.003 C 
ATOM     18  C   UNL     1       3.288   1.985  -0.099  0.00  0.00    +0.029 C 
ATOM     19  C   UNL     1       3.948  -0.948   0.579  0.00  0.00    +0.000 C 
ATOM     20  C   UNL     1       3.563  -1.466  -1.823  0.00  0.00    +0.000 C 
ATOM     21  C   UNL     1      -4.278   0.002  -2.010  0.00  0.00    -0.007 C 
ENDROOT
BRANCH   6  22
ATOM     22  O   UNL     1      -0.932  -2.598   1.143  0.00  0.00    -0.362 OA
ATOM     23  H   UNL     1      -1.671  -2.430   1.748  0.00  0.00    +0.213 HD
ENDBRANCH   6  22
BRANCH   7  24
ATOM     24  O   UNL     1       1.688  -2.654   0.484  0.00  0.00    -0.380 OA
ATOM     25  H   UNL     1       2.426  -2.883  -0.103  0.00  0.00    +0.211 HD
ENDBRANCH   7  24
BRANCH   8  26
ATOM     26  O   UNL     1      -3.167  -1.051   1.680  0.00  0.00    -0.384 OA
ATOM     27  H   UNL     1      -2.585  -1.544   2.279  0.00  0.00    +0.210 HD
ENDBRANCH   8  26
BRANCH   9  28
ATOM     28  O   UNL     1      -1.460  -1.031  -2.225  0.00  0.00    -0.380 OA
ATOM     29  H   UNL     1      -0.709  -1.637  -2.129  0.00  0.00    +0.211 HD
ENDBRANCH   9  28
BRANCH  14  30
ATOM     30  O   UNL     1       1.453   3.138   0.889  0.00  0.00    -0.384 OA
ATOM     31  H   UNL     1       0.491   3.254   0.927  0.00  0.00    +0.210 HD
ENDBRANCH  14  30
TORSDOF 5
