REMARK  Name = 10131311
REMARK  5 active torsions:
REMARK  status: ('A' for Active; 'I' for Inactive)
REMARK    1  A    between atoms: C_5  and  C_17
REMARK    2  A    between atoms: C_11  and  N_14
REMARK    3  A    between atoms: C_17  and  O_18
REMARK    4  A    between atoms: C_17  and  C_20
REMARK    5  A    between atoms: C_20  and  O_21
REMARK                            x       y       z     vdW  Elec       q    Type
REMARK                         _______ _______ _______ _____ _____    ______ ____
ROOT
ATOM      1 CL   UNL     1      -2.834   2.704   0.023  0.00  0.00    -0.078 Cl
ATOM      2  O   UNL     1       0.073   2.341  -0.260  0.00  0.00    -0.286 OA
ATOM      3  O   UNL     1      -2.563  -2.361   0.182  0.00  0.00    -0.284 OA
ATOM      4  N   UNL     1       0.372  -2.217  -0.123  0.00  0.00    -0.309 N 
ATOM      5  C   UNL     1       1.528  -0.325  -0.310  0.00  0.00    +0.026 C 
ATOM      6  C   UNL     1       0.153  -0.006  -0.181  0.00  0.00    +0.056 C 
ATOM      7  C   UNL     1      -0.536  -1.193  -0.068  0.00  0.00    +0.092 C 
ATOM      8  C   UNL     1       1.633  -1.699  -0.271  0.00  0.00    +0.060 C 
ATOM      9  C   UNL     1      -0.516   1.272  -0.160  0.00  0.00    +0.208 C 
ATOM     10  C   UNL     1      -1.962  -1.295   0.081  0.00  0.00    +0.223 C 
ATOM     11  C   UNL     1      -2.702   0.021   0.109  0.00  0.00    +0.096 C 
ATOM     12  C   UNL     1      -2.008   1.174  -0.005  0.00  0.00    +0.113 C 
ATOM     13  H   UNL     1       0.153  -3.175  -0.065  0.00  0.00    +0.152 HD
ENDROOT
BRANCH  11  14
ATOM     14  N   UNL     1      -4.058  -0.085   0.251  0.00  0.00    -0.354 N 
ATOM     15  H   UNL     1      -4.477  -0.972   0.327  0.00  0.00    +0.142 HD
ATOM     16  H   UNL     1      -4.614   0.727   0.278  0.00  0.00    +0.142 HD
ENDBRANCH  11  14
BRANCH   5  17
ATOM     17  C   UNL     1       2.653   0.619  -0.459  0.00  0.00    +0.163 C 
BRANCH  17  18
ATOM     18  O   UNL     1       3.726   0.087  -1.260  0.00  0.00    -0.377 OA
ATOM     19  H   UNL     1       3.377  -0.201  -2.119  0.00  0.00    +0.211 HD
ENDBRANCH  17  18
BRANCH  17  20
ATOM     20  C   UNL     1       3.279   1.053   0.880  0.00  0.00    +0.171 C 
BRANCH  20  21
ATOM     21  O   UNL     1       3.763  -0.089   1.571  0.00  0.00    -0.379 OA
ATOM     22  H   UNL     1       4.156   0.185   2.414  0.00  0.00    +0.211 HD
ENDBRANCH  20  21
ENDBRANCH  17  20
ENDBRANCH   5  17
TORSDOF 5
