REMARK  Name = 101380106
REMARK  9 active torsions:
REMARK  status: ('A' for Active; 'I' for Inactive)
REMARK    1  A    between atoms: N_1  and  C_33
REMARK    2  A    between atoms: C_8  and  O_21
REMARK    3  A    between atoms: C_9  and  C_35
REMARK    4  A    between atoms: C_11  and  O_23
REMARK    5  A    between atoms: C_13  and  O_25
REMARK    6  A    between atoms: C_14  and  O_27
REMARK    7  A    between atoms: C_17  and  O_31
REMARK    8  A    between atoms: C_18  and  O_29
REMARK    9  A    between atoms: C_35  and  O_36
REMARK                            x       y       z     vdW  Elec       q    Type
REMARK                         _______ _______ _______ _____ _____    ______ ____
ROOT
ATOM      1  N   UNL     1       1.486   0.872   1.699  0.00  0.00    +0.388 N 
ATOM      2  C   UNL     1       0.531   0.345  -0.556  0.00  0.00    +0.009 C 
ATOM      3  C   UNL     1       1.485  -0.902  -0.511  0.00  0.00    +0.003 C 
ATOM      4  C   UNL     1      -0.827   0.043  -1.310  0.00  0.00    +0.008 C 
ATOM      5  C   UNL     1       0.271   0.452   0.967  0.00  0.00    -0.053 C 
ATOM      6  C   UNL     1      -0.217  -1.005   1.255  0.00  0.00    +0.006 C 
ATOM      7  C   UNL     1      -1.609  -1.197  -0.851  0.00  0.00    +0.054 C 
ATOM      8  C   UNL     1      -1.654  -1.263   0.696  0.00  0.00    +0.091 C 
ATOM      9  C   UNL     1       2.877  -0.475   0.062  0.00  0.00    +0.033 C 
ATOM     10  C   UNL     1       0.799  -1.883   0.484  0.00  0.00    +0.000 C 
ATOM     11  C   UNL     1       1.188   1.581  -1.246  0.00  0.00    +0.116 C 
ATOM     12  C   UNL     1      -1.918   1.150  -1.264  0.00  0.00    +0.032 C 
ATOM     13  C   UNL     1      -3.265   0.423  -1.028  0.00  0.00    +0.138 C 
ATOM     14  C   UNL     1      -2.973  -0.992  -1.504  0.00  0.00    +0.139 C 
ATOM     15  C   UNL     1      -2.703  -0.336   1.381  0.00  0.00    +0.059 C 
ATOM     16  C   UNL     1       2.669   0.013   1.531  0.00  0.00    -0.072 C 
ATOM     17  C   UNL     1       3.485   0.633  -0.838  0.00  0.00    +0.113 C 
ATOM     18  C   UNL     1      -3.663   0.434   0.456  0.00  0.00    +0.144 C 
ATOM     19  C   UNL     1       2.632   1.885  -0.884  0.00  0.00    +0.059 C 
ATOM     20  H   UNL     1       1.740   1.748   1.242  0.00  0.00    -0.080 HD
ENDROOT
BRANCH   8  21
ATOM     21  O   UNL     1      -2.048  -2.595   1.077  0.00  0.00    -0.387 OA
ATOM     22  H   UNL     1      -1.436  -3.238   0.685  0.00  0.00    +0.210 HD
ENDBRANCH   8  21
BRANCH  11  23
ATOM     23  O   UNL     1       0.436   2.766  -0.991  0.00  0.00    -0.354 OA
ATOM     24  C   UNL     1       0.575   3.704  -2.047  0.00  0.00    +0.174 C 
ENDBRANCH  11  23
BRANCH  13  25
ATOM     25  O   UNL     1      -4.272   1.044  -1.811  0.00  0.00    -0.382 OA
ATOM     26  H   UNL     1      -4.009   1.031  -2.745  0.00  0.00    +0.210 HD
ENDBRANCH  13  25
BRANCH  14  27
ATOM     27  O   UNL     1      -3.911  -1.965  -1.095  0.00  0.00    -0.382 OA
ATOM     28  H   UNL     1      -3.649  -2.833  -1.440  0.00  0.00    +0.210 HD
ENDBRANCH  14  27
BRANCH  18  29
ATOM     29  O   UNL     1      -4.968  -0.133   0.622  0.00  0.00    -0.351 OA
ATOM     30  C   UNL     1      -5.595   0.361   1.794  0.00  0.00    +0.174 C 
ENDBRANCH  18  29
BRANCH  17  31
ATOM     31  O   UNL     1       4.779   1.033  -0.386  0.00  0.00    -0.384 OA
ATOM     32  H   UNL     1       5.359   0.257  -0.341  0.00  0.00    +0.210 HD
ENDBRANCH  17  31
BRANCH   1  33
ATOM     33  C   UNL     1       1.222   1.140   3.110  0.00  0.00    -0.077 C 
ATOM     34  C   UNL     1       2.399   1.842   3.765  0.00  0.00    -0.025 C 
ENDBRANCH   1  33
BRANCH   9  35
ATOM     35  C   UNL     1       3.859  -1.672   0.065  0.00  0.00    +0.142 C 
BRANCH  35  36
ATOM     36  O   UNL     1       4.019  -2.097  -1.269  0.00  0.00    -0.351 OA
ATOM     37  C   UNL     1       4.912  -3.204  -1.373  0.00  0.00    +0.174 C 
ENDBRANCH  35  36
ENDBRANCH   9  35
TORSDOF 9
