REMARK  Name = 101317837
REMARK  5 active torsions:
REMARK  status: ('A' for Active; 'I' for Inactive)
REMARK    1  A    between atoms: C_5  and  C_36
REMARK    2  A    between atoms: C_9  and  O_32
REMARK    3  A    between atoms: C_15  and  O_34
REMARK    4  A    between atoms: C_19  and  C_27
REMARK    5  A    between atoms: C_36  and  O_37
REMARK                            x       y       z     vdW  Elec       q    Type
REMARK                         _______ _______ _______ _____ _____    ______ ____
ROOT
ATOM      1  O   UNL     1      -4.433  -1.413   0.796  0.00  0.00    -0.317 OA
ATOM      2  O   UNL     1      -4.924   0.914   0.618  0.00  0.00    -0.315 OA
ATOM      3  O   UNL     1      -5.611  -0.572  -1.097  0.00  0.00    -0.315 OA
ATOM      4  O   UNL     1       1.263   2.738  -1.085  0.00  0.00    -0.293 OA
ATOM      5  C   UNL     1      -2.592   0.183   0.534  0.00  0.00    +0.078 C 
ATOM      6  C   UNL     1      -1.131   0.347  -0.064  0.00  0.00    +0.043 C 
ATOM      7  C   UNL     1      -3.144  -1.243   0.170  0.00  0.00    +0.104 C 
ATOM      8  C   UNL     1      -0.184  -0.809   0.399  0.00  0.00    +0.028 C 
ATOM      9  C   UNL     1       1.248  -0.703  -0.197  0.00  0.00    +0.095 C 
ATOM     10  C   UNL     1      -3.658   1.186  -0.023  0.00  0.00    +0.127 C 
ATOM     11  C   UNL     1       1.926   0.674   0.011  0.00  0.00    +0.080 C 
ATOM     12  C   UNL     1      -2.218  -2.346   0.684  0.00  0.00    +0.028 C 
ATOM     13  C   UNL     1      -0.797  -2.206   0.152  0.00  0.00    +0.005 C 
ATOM     14  C   UNL     1      -3.385  -1.409  -1.356  0.00  0.00    +0.057 C 
ATOM     15  C   UNL     1      -0.465   1.707   0.228  0.00  0.00    +0.168 C 
ATOM     16  C   UNL     1      -4.394  -0.362  -1.827  0.00  0.00    +0.125 C 
ATOM     17  C   UNL     1      -3.889   1.052  -1.533  0.00  0.00    +0.060 C 
ATOM     18  C   UNL     1       1.333  -0.895  -1.720  0.00  0.00    +0.028 C 
ATOM     19  C   UNL     1       3.126   0.642  -0.995  0.00  0.00    +0.034 C 
ATOM     20  C   UNL     1       0.932   1.785  -0.378  0.00  0.00    +0.179 C 
ATOM     21  C   UNL     1      -5.356  -0.421   0.308  0.00  0.00    +0.296 C 
ATOM     22  C   UNL     1       2.680  -0.297  -2.132  0.00  0.00    +0.007 C 
ATOM     23  C   UNL     1       2.360   0.956   1.459  0.00  0.00    +0.010 C 
ATOM     24  C   UNL     1      -6.676  -0.645   1.032  0.00  0.00    +0.096 C 
ENDROOT
BRANCH  19  27
ATOM     25  O   UNL     1       6.038  -1.541   0.144  0.00  0.00    -0.418 OA
ATOM     26  O   UNL     1       8.035  -0.956   1.058  0.00  0.00    -0.244 OA
ATOM     27  C   UNL     1       4.444   0.177  -0.445  0.00  0.00    +0.016 C 
ATOM     28  C   UNL     1       5.378   1.164   0.030  0.00  0.00    +0.006 C 
ATOM     29  C   UNL     1       4.807  -1.108  -0.369  0.00  0.00    +0.179 C 
ATOM     30  C   UNL     1       6.565   0.803   0.528  0.00  0.00    +0.082 C 
ATOM     31  C   UNL     1       6.946  -0.623   0.602  0.00  0.00    +0.346 C 
ENDBRANCH  19  27
BRANCH   9  32
ATOM     32  O   UNL     1       2.065  -1.704   0.429  0.00  0.00    -0.386 OA
ATOM     33  H   UNL     1       2.023  -1.598   1.393  0.00  0.00    +0.210 HD
ENDBRANCH   9  32
BRANCH  15  34
ATOM     34  O   UNL     1      -1.209   2.765  -0.355  0.00  0.00    -0.377 OA
ATOM     35  H   UNL     1      -2.112   2.760  -0.001  0.00  0.00    +0.211 HD
ENDBRANCH  15  34
BRANCH   5  36
ATOM     36  C   UNL     1      -2.559   0.387   2.080  0.00  0.00    +0.142 C 
BRANCH  36  37
ATOM     37  O   UNL     1      -2.523   1.772   2.317  0.00  0.00    -0.382 OA
ATOM     38  H   UNL     1      -2.501   1.936   3.272  0.00  0.00    +0.210 HD
ENDBRANCH  36  37
ENDBRANCH   5  36
TORSDOF 5
