REMARK  Name = 101371653
REMARK  9 active torsions:
REMARK  status: ('A' for Active; 'I' for Inactive)
REMARK    1  A    between atoms: C_7  and  C_29
REMARK    2  A    between atoms: C_8  and  O_23
REMARK    3  A    between atoms: C_10  and  O_25
REMARK    4  A    between atoms: C_12  and  C_16
REMARK    5  A    between atoms: C_12  and  O_27
REMARK    6  A    between atoms: C_29  and  C_30
REMARK    7  A    between atoms: C_29  and  O_36
REMARK    8  A    between atoms: C_32  and  C_33
REMARK    9  A    between atoms: C_33  and  C_34
REMARK                            x       y       z     vdW  Elec       q    Type
REMARK                         _______ _______ _______ _____ _____    ______ ____
ROOT
ATOM      1  O   UNL     1       1.960  -2.441  -0.581  0.00  0.00    -0.453 OA
ATOM      2  O   UNL     1       3.302  -0.933  -1.653  0.00  0.00    -0.250 OA
ATOM      3  O   UNL     1      -3.463  -1.651  -1.757  0.00  0.00    -0.289 OA
ATOM      4  C   UNL     1       0.618  -0.982   0.717  0.00  0.00    +0.073 C 
ATOM      5  C   UNL     1       1.105  -2.446   0.579  0.00  0.00    +0.165 C 
ATOM      6  C   UNL     1      -0.713  -0.728   0.044  0.00  0.00    -0.012 C 
ATOM      7  C   UNL     1       1.719  -0.170   0.020  0.00  0.00    +0.137 C 
ATOM      8  C   UNL     1      -0.024  -3.480   0.348  0.00  0.00    +0.152 C 
ATOM      9  C   UNL     1      -1.376  -1.667  -0.635  0.00  0.00    +0.012 C 
ATOM     10  C   UNL     1      -1.422   0.597   0.140  0.00  0.00    +0.164 C 
ATOM     11  C   UNL     1      -0.979  -3.084  -0.787  0.00  0.00    +0.062 C 
ATOM     12  C   UNL     1      -2.650   0.431  -0.783  0.00  0.00    +0.189 C 
ATOM     13  C   UNL     1       1.968  -2.883   1.775  0.00  0.00    +0.047 C 
ATOM     14  C   UNL     1       2.430  -1.187  -0.835  0.00  0.00    +0.319 C 
ATOM     15  C   UNL     1      -2.614  -1.043  -1.121  0.00  0.00    +0.199 C 
ENDROOT
BRANCH  12  16
ATOM     16  C   UNL     1      -3.966   0.941  -0.236  0.00  0.00    +0.007 C 
ATOM     17  C   UNL     1      -4.127   2.282   0.113  0.00  0.00    -0.023 C 
ATOM     18  C   UNL     1      -5.027   0.049  -0.085  0.00  0.00    -0.002 C 
ATOM     19  C   UNL     1      -5.348   2.730   0.615  0.00  0.00    -0.004 C 
ATOM     20  C   UNL     1      -3.005   3.256  -0.040  0.00  0.00    +0.031 C 
ATOM     21  C   UNL     1      -6.249   0.497   0.417  0.00  0.00    -0.000 C 
ATOM     22  C   UNL     1      -6.410   1.838   0.767  0.00  0.00    -0.000 C 
ENDBRANCH  12  16
BRANCH   8  23
ATOM     23  O   UNL     1      -0.775  -3.642   1.553  0.00  0.00    -0.381 OA
ATOM     24  H   UNL     1      -0.178  -3.892   2.276  0.00  0.00    +0.211 HD
ENDBRANCH   8  23
BRANCH  10  25
ATOM     25  O   UNL     1      -1.770   0.799   1.503  0.00  0.00    -0.377 OA
ATOM     26  H   UNL     1      -0.963   0.896   2.032  0.00  0.00    +0.211 HD
ENDBRANCH  10  25
BRANCH  12  27
ATOM     27  O   UNL     1      -2.342   1.007  -2.061  0.00  0.00    -0.373 OA
ATOM     28  H   UNL     1      -1.495   0.657  -2.378  0.00  0.00    +0.211 HD
ENDBRANCH  12  27
BRANCH   7  29
ATOM     29  C   UNL     1       2.678   0.517   0.981  0.00  0.00    +0.139 C 
BRANCH  29  30
ATOM     30  C   UNL     1       3.742   1.325   0.262  0.00  0.00    -0.021 C 
ATOM     31  C   UNL     1       3.244   2.402  -0.673  0.00  0.00    +0.028 C 
ATOM     32  C   UNL     1       5.070   1.136   0.399  0.00  0.00    -0.032 C 
BRANCH  32  33
ATOM     33  C   UNL     1       6.198   1.873  -0.270  0.00  0.00    +0.025 C 
BRANCH  33  34
ATOM     34  C   UNL     1       7.571   1.291   0.080  0.00  0.00    +0.005 C 
ATOM     35  C   UNL     1       8.716   1.985  -0.644  0.00  0.00    +0.000 C 
ENDBRANCH  33  34
ENDBRANCH  32  33
ENDBRANCH  29  30
BRANCH  29  36
ATOM     36  O   UNL     1       1.940   1.383   1.846  0.00  0.00    -0.380 OA
ATOM     37  H   UNL     1       1.258   0.872   2.309  0.00  0.00    +0.211 HD
ENDBRANCH  29  36
ENDBRANCH   7  29
TORSDOF 9
