101371539
  -OEChem-03292013293D

 44 46  0     1  0  0  0  0  0999 V2000
   -1.5298   -0.1666   -0.2097 O   0  0  0  0  0  0  0  0  0  0  0  0
   -0.6122    1.9720   -0.0075 O   0  0  0  0  0  0  0  0  0  0  0  0
   -4.9610   -1.4448   -0.1178 O   0  0  0  0  0  0  0  0  0  0  0  0
   -3.2722    3.0148    0.2834 O   0  0  0  0  0  0  0  0  0  0  0  0
   -0.9701   -2.7992    0.3524 O   0  0  0  0  0  0  0  0  0  0  0  0
   -5.2731    1.2060    0.2420 O   0  0  0  0  0  0  0  0  0  0  0  0
    0.2382   -1.8991   -1.3922 O   0  0  0  0  0  0  0  0  0  0  0  0
    3.7018   -3.0549    0.7647 O   0  0  0  0  0  0  0  0  0  0  0  0
    2.9604   -2.0553   -1.1382 O   0  0  0  0  0  0  0  0  0  0  0  0
    2.0740    0.5723    1.8207 N   0  0  0  0  0  0  0  0  0  0  0  0
   -2.5932   -1.0586    0.1437 C   0  0  1  0  0  0  0  0  0  0  0  0
   -3.8931   -0.6170   -0.5301 C   0  0  2  0  0  0  0  0  0  0  0  0
   -1.7483    1.1578    0.2831 C   0  0  1  0  0  0  0  0  0  0  0  0
   -3.0011    1.7733   -0.3377 C   0  0  1  0  0  0  0  0  0  0  0  0
   -4.1703    0.8249   -0.1435 C   0  0  0  0  0  0  0  0  0  0  0  0
   -2.1812   -2.4591   -0.2979 C   0  0  0  0  0  0  0  0  0  0  0  0
    0.5895    1.5445    0.4873 C   0  0  0  0  0  0  0  0  0  0  0  0
    1.8849    1.7502   -0.0645 C   0  0  0  0  0  0  0  0  0  0  0  0
    2.7980    1.1305    0.7913 C   0  0  0  0  0  0  0  0  0  0  0  0
    0.7384    0.8173    1.6457 C   0  0  0  0  0  0  0  0  0  0  0  0
    2.3697    2.4064   -1.2133 C   0  0  0  0  0  0  0  0  0  0  0  0
    4.1773    1.1340    0.5547 C   0  0  0  0  0  0  0  0  0  0  0  0
    0.1863   -2.4607   -0.3074 C   0  0  0  0  0  0  0  0  0  0  0  0
    3.7469    2.4180   -1.4628 C   0  0  0  0  0  0  0  0  0  0  0  0
    4.6350    1.7910   -0.5910 C   0  0  0  0  0  0  0  0  0  0  0  0
    1.3745   -2.8919    0.5172 C   0  0  0  0  0  0  0  0  0  0  0  0
    2.7304   -2.6059   -0.0726 C   0  0  0  0  0  0  0  0  0  0  0  0
   -2.6951   -1.0603    1.2378 H   0  0  0  0  0  0  0  0  0  0  0  0
   -3.8055   -0.6564   -1.6222 H   0  0  0  0  0  0  0  0  0  0  0  0
   -1.8854    1.1302    1.3734 H   0  0  0  0  0  0  0  0  0  0  0  0
   -2.8618    1.9408   -1.4115 H   0  0  0  0  0  0  0  0  0  0  0  0
   -2.0788   -2.5282   -1.3878 H   0  0  0  0  0  0  0  0  0  0  0  0
   -2.9342   -3.1955    0.0016 H   0  0  0  0  0  0  0  0  0  0  0  0
   -5.7490   -1.1797   -0.6222 H   0  0  0  0  0  0  0  0  0  0  0  0
   -4.0249    3.4172   -0.1828 H   0  0  0  0  0  0  0  0  0  0  0  0
    0.0292    0.4476    2.3728 H   0  0  0  0  0  0  0  0  0  0  0  0
    2.4717    0.0555    2.5928 H   0  0  0  0  0  0  0  0  0  0  0  0
    1.6890    2.8990   -1.9017 H   0  0  0  0  0  0  0  0  0  0  0  0
    4.8691    0.6448    1.2321 H   0  0  0  0  0  0  0  0  0  0  0  0
    4.1266    2.9222   -2.3476 H   0  0  0  0  0  0  0  0  0  0  0  0
    5.7006    1.8118   -0.8044 H   0  0  0  0  0  0  0  0  0  0  0  0
    1.3138   -2.3806    1.4834 H   0  0  0  0  0  0  0  0  0  0  0  0
    1.2994   -3.9759    0.6587 H   0  0  0  0  0  0  0  0  0  0  0  0
    4.5994   -2.8799    0.4096 H   0  0  0  0  0  0  0  0  0  0  0  0
  1 11  1  0  0  0  0
  1 13  1  0  0  0  0
  2 13  1  0  0  0  0
  2 17  1  0  0  0  0
  3 12  1  0  0  0  0
  3 34  1  0  0  0  0
  4 14  1  0  0  0  0
  4 35  1  0  0  0  0
  5 16  1  0  0  0  0
  5 23  1  0  0  0  0
  6 15  2  0  0  0  0
  7 23  2  0  0  0  0
  8 27  1  0  0  0  0
  8 44  1  0  0  0  0
  9 27  2  0  0  0  0
 10 19  1  0  0  0  0
 10 20  1  0  0  0  0
 10 37  1  0  0  0  0
 11 12  1  0  0  0  0
 11 16  1  0  0  0  0
 11 28  1  0  0  0  0
 12 15  1  0  0  0  0
 12 29  1  0  0  0  0
 13 14  1  0  0  0  0
 13 30  1  0  0  0  0
 14 15  1  0  0  0  0
 14 31  1  0  0  0  0
 16 32  1  0  0  0  0
 16 33  1  0  0  0  0
 17 18  1  0  0  0  0
 17 20  2  0  0  0  0
 18 19  1  0  0  0  0
 18 21  2  0  0  0  0
 19 22  2  0  0  0  0
 20 36  1  0  0  0  0
 21 24  1  0  0  0  0
 21 38  1  0  0  0  0
 22 25  1  0  0  0  0
 22 39  1  0  0  0  0
 23 26  1  0  0  0  0
 24 25  2  0  0  0  0
 24 40  1  0  0  0  0
 25 41  1  0  0  0  0
 26 27  1  0  0  0  0
 26 42  1  0  0  0  0
 26 43  1  0  0  0  0
M  END
> <PUBCHEM_COMPOUND_CID>
101371539

> <PUBCHEM_CONFORMER_RMSD>
1

> <PUBCHEM_CONFORMER_DIVERSEORDER>
1
97
9
89
39
37
2
111
68
95
67
58
79
24
8
14
102
75
113
11
63
106
5
43
57
101
91
78
52
90
85
40
105
99
27
77
86
12
65
96
28
62
64
94
81
112
16
38
20
61
104
50
45
44
41
18
100
46
70
6
53
69
42
74
84
98
72
117
73
3
26
29
30
71
115
56
76
87
109
32
31
108
80
23
88
4
116
35
25
51
48
21
55
103
60
59
114
36
34
7
110
92
107
17
93
19
47
54
82
83
13
15
10
49
66
22
33

> <PUBCHEM_MMFF94_PARTIAL_CHARGES>
35
1 -0.56
10 0.03
11 0.28
12 0.34
13 0.56
14 0.34
15 0.45
16 0.28
17 0.06
19 -0.15
2 -0.34
20 -0.3
21 -0.15
22 -0.15
23 0.66
24 -0.15
25 -0.15
26 0.12
27 0.66
3 -0.68
34 0.4
35 0.4
36 0.15
37 0.27
38 0.15
39 0.15
4 -0.68
40 0.15
41 0.15
44 0.5
5 -0.43
6 -0.57
7 -0.57
8 -0.65
9 -0.57

> <PUBCHEM_EFFECTIVE_ROTOR_COUNT>
8

> <PUBCHEM_PHARMACOPHORE_FEATURES>
17
1 1 acceptor
1 10 cation
1 10 donor
1 2 acceptor
1 26 anion
1 3 acceptor
1 3 donor
1 4 acceptor
1 4 donor
1 6 acceptor
1 7 acceptor
1 8 acceptor
1 9 acceptor
3 8 9 27 anion
5 10 17 18 19 20 rings
6 1 11 12 13 14 15 rings
6 18 19 21 22 24 25 rings

> <PUBCHEM_HEAVY_ATOM_COUNT>
27

> <PUBCHEM_ATOM_DEF_STEREO_COUNT>
4

> <PUBCHEM_ATOM_UDEF_STEREO_COUNT>
0

> <PUBCHEM_BOND_DEF_STEREO_COUNT>
0

> <PUBCHEM_BOND_UDEF_STEREO_COUNT>
0

> <PUBCHEM_ISOTOPIC_ATOM_COUNT>
0

> <PUBCHEM_COMPONENT_COUNT>
1

> <PUBCHEM_CACTVS_TAUTO_COUNT>
15

> <PUBCHEM_CONFORMER_ID>
060ACE9300000001

> <PUBCHEM_MMFF94_ENERGY>
46.0922

> <PUBCHEM_FEATURE_SELFOVERLAP>
86.764

> <PUBCHEM_SHAPE_FINGERPRINT>
10616163 171 18337390572848099507
10759866 29 18261110833059202072
1100329 8 18052259496642076747
11370993 70 18338519750210725620
11513181 2 18202563973120882727
11963148 33 18120927563259016307
12236239 1 17968653929678605368
12422481 6 18122594255587709570
12553582 1 18122336050332097745
12592029 89 18336835276589657864
12788726 201 17687758546093021268
13140716 1 18269276751415890609
13617811 41 18336543923953635829
14020679 6 17467098270896426801
14117953 113 17330272771333441070
14251751 93 18264489662287570148
14251757 17 18057630770337458142
14251757 5 17760380181217294060
14363568 33 16749327665272608011
16752209 62 18124305258124140883
17093844 170 18412262861398905244
17492 54 18119270380312970982
17921350 177 17243830412772366220
20600515 1 17551798023512182302
20642791 178 18194972837457484105
20691752 17 17967533433066909247
20905425 154 18272372009296570871
23366157 5 18187926110485077995
23558518 356 18336267843212605961
23559900 14 18340481158320871615
25147074 1 18201997695569274853
27425 322 17385444340955007473
3298306 158 18342174505006795277
338550 245 18408885140113694796
350125 39 18195811774142176233
3680242 22 18050289158883686650
4280585 95 18050006593824169294
5265222 85 17980768457032631284
59755656 215 18412263955998199199
90525 40 18263643029401479961

> <PUBCHEM_SHAPE_MULTIPOLES>
497.84
9
4.17
1.17
4.21
2.59
0.1
-3.36
-1.07
-1.65
-0.41
-1.04
-0.22
-0.9

> <PUBCHEM_SHAPE_SELFOVERLAP>
1072.844

> <PUBCHEM_SHAPE_VOLUME>
271

> <PUBCHEM_COORDINATE_TYPE>
2
5
10

$$$$
