101405582
  -OEChem-03292013293D

 46 50  0     1  0  0  0  0  0999 V2000
   -0.5015    1.1474   -1.6862 O   0  0  0  0  0  0  0  0  0  0  0  0
   -2.3201   -0.0133   -0.5944 O   0  0  0  0  0  0  0  0  0  0  0  0
   -0.9020    3.7077    0.3425 O   0  0  0  0  0  0  0  0  0  0  0  0
    2.3585   -0.3502   -0.1894 O   0  0  0  0  0  0  0  0  0  0  0  0
   -2.7387    2.5315    1.0235 O   0  0  0  0  0  0  0  0  0  0  0  0
    1.1766    4.2909   -0.4089 O   0  0  0  0  0  0  0  0  0  0  0  0
   -2.0905   -1.1483    1.3954 O   0  0  0  0  0  0  0  0  0  0  0  0
    2.7008   -2.5344   -0.8314 O   0  0  0  0  0  0  0  0  0  0  0  0
   -0.9836    0.4190   -0.5307 C   0  0  2  0  0  0  0  0  0  0  0  0
    0.8683    1.3033   -1.2291 C   0  0  1  0  0  0  0  0  0  0  0  0
   -0.6422    1.3900    0.6061 C   0  0  1  0  0  0  0  0  0  0  0  0
    0.6710    1.9862    0.1278 C   0  0  2  0  0  0  0  0  0  0  0  0
    1.2657   -0.1649   -1.0630 C   0  0  2  0  0  0  0  0  0  0  0  0
   -0.0218   -0.7809   -0.5056 C   0  0  0  0  0  0  0  0  0  0  0  0
   -1.5633    2.5719    0.6928 C   0  0  0  0  0  0  0  0  0  0  0  0
    0.3834    3.4486   -0.0168 C   0  0  0  0  0  0  0  0  0  0  0  0
   -2.7607   -0.7984    0.4363 C   0  0  0  0  0  0  0  0  0  0  0  0
    3.1107   -1.4737   -0.3861 C   0  0  0  0  0  0  0  0  0  0  0  0
   -4.1818   -1.1866    0.2507 C   0  0  0  0  0  0  0  0  0  0  0  0
    4.5225   -1.2501    0.0155 C   0  0  0  0  0  0  0  0  0  0  0  0
   -4.6458   -2.3999    0.7587 C   0  0  0  0  0  0  0  0  0  0  0  0
   -5.0532   -0.3366   -0.4303 C   0  0  0  0  0  0  0  0  0  0  0  0
    5.5487   -1.9434   -0.6264 C   0  0  0  0  0  0  0  0  0  0  0  0
    4.8226   -0.3455    1.0337 C   0  0  0  0  0  0  0  0  0  0  0  0
   -5.9815   -2.7634    0.5855 C   0  0  0  0  0  0  0  0  0  0  0  0
   -6.3886   -0.7000   -0.6034 C   0  0  0  0  0  0  0  0  0  0  0  0
    6.8751   -1.7320   -0.2499 C   0  0  0  0  0  0  0  0  0  0  0  0
    6.1490   -0.1340    1.4103 C   0  0  0  0  0  0  0  0  0  0  0  0
   -6.8528   -1.9135   -0.0956 C   0  0  0  0  0  0  0  0  0  0  0  0
    7.1752   -0.8273    0.7684 C   0  0  0  0  0  0  0  0  0  0  0  0
    1.4761    1.8621   -1.9451 H   0  0  0  0  0  0  0  0  0  0  0  0
   -0.5595    0.9283    1.5941 H   0  0  0  0  0  0  0  0  0  0  0  0
    1.4932    1.8464    0.8348 H   0  0  0  0  0  0  0  0  0  0  0  0
    1.4753   -0.5919   -2.0534 H   0  0  0  0  0  0  0  0  0  0  0  0
   -0.3738   -1.5742   -1.1763 H   0  0  0  0  0  0  0  0  0  0  0  0
    0.1208   -1.2207    0.4859 H   0  0  0  0  0  0  0  0  0  0  0  0
   -3.9789   -3.0743    1.2893 H   0  0  0  0  0  0  0  0  0  0  0  0
   -4.7208    0.6196   -0.8256 H   0  0  0  0  0  0  0  0  0  0  0  0
    5.3316   -2.6493   -1.4239 H   0  0  0  0  0  0  0  0  0  0  0  0
    4.0423    0.2000    1.5578 H   0  0  0  0  0  0  0  0  0  0  0  0
   -6.3429   -3.7083    0.9805 H   0  0  0  0  0  0  0  0  0  0  0  0
   -7.0681   -0.0371   -1.1313 H   0  0  0  0  0  0  0  0  0  0  0  0
    7.6743   -2.2712   -0.7500 H   0  0  0  0  0  0  0  0  0  0  0  0
    6.3828    0.5685    2.2048 H   0  0  0  0  0  0  0  0  0  0  0  0
   -7.8927   -2.1961   -0.2301 H   0  0  0  0  0  0  0  0  0  0  0  0
    8.2079   -0.6630    1.0618 H   0  0  0  0  0  0  0  0  0  0  0  0
  1  9  1  0  0  0  0
  1 10  1  0  0  0  0
  2  9  1  0  0  0  0
  2 17  1  0  0  0  0
  3 15  1  0  0  0  0
  3 16  1  0  0  0  0
  4 13  1  0  0  0  0
  4 18  1  0  0  0  0
  5 15  2  0  0  0  0
  6 16  2  0  0  0  0
  7 17  2  0  0  0  0
  8 18  2  0  0  0  0
  9 11  1  0  0  0  0
  9 14  1  0  0  0  0
 10 12  1  0  0  0  0
 10 13  1  0  0  0  0
 10 31  1  0  0  0  0
 11 12  1  0  0  0  0
 11 15  1  0  0  0  0
 11 32  1  0  0  0  0
 12 16  1  0  0  0  0
 12 33  1  0  0  0  0
 13 14  1  0  0  0  0
 13 34  1  0  0  0  0
 14 35  1  0  0  0  0
 14 36  1  0  0  0  0
 17 19  1  0  0  0  0
 18 20  1  0  0  0  0
 19 21  2  0  0  0  0
 19 22  1  0  0  0  0
 20 23  2  0  0  0  0
 20 24  1  0  0  0  0
 21 25  1  0  0  0  0
 21 37  1  0  0  0  0
 22 26  2  0  0  0  0
 22 38  1  0  0  0  0
 23 27  1  0  0  0  0
 23 39  1  0  0  0  0
 24 28  2  0  0  0  0
 24 40  1  0  0  0  0
 25 29  2  0  0  0  0
 25 41  1  0  0  0  0
 26 29  1  0  0  0  0
 26 42  1  0  0  0  0
 27 30  2  0  0  0  0
 27 43  1  0  0  0  0
 28 30  1  0  0  0  0
 28 44  1  0  0  0  0
 29 45  1  0  0  0  0
 30 46  1  0  0  0  0
M  END
> <PUBCHEM_COMPOUND_CID>
101405582

> <PUBCHEM_CONFORMER_RMSD>
1

> <PUBCHEM_CONFORMER_DIVERSEORDER>
1
64
224
119
76
169
85
226
217
234
198
227
101
147
126
31
113
166
159
161
212
29
99
93
230
215
54
181
130
114
245
244
61
89
51
95
194
142
129
70
103
236
105
221
39
104
124
232
163
23
117
88
4
172
134
191
219
150
209
179
140
62
156
47
116
225
56
187
49
98
26
52
165
196
81
247
175
44
174
132
164
141
216
192
77
65
102
34
149
115
18
37
22
24
28
20
193
138
237
242
155
30
223
206
203
27
233
45
9
186
243
241
184
55
246
41
2
139
137
14
83
80
210
111
50
32
72
176
143
145
109
79
146
213
53
92
12
190
158
189
211
108
7
133
148
128
177
97
154
40
25
160
136
238
185
231
197
120
168
38
162
6
13
171
182
178
188
214
204
58
75
127
112
167
60
220
123
201
16
207
208
46
59
170
42
153
15
195
57
235
10
74
118
151
222
73
11
121
48
199
107
19
87
157
68
125
205
100
17
36
131
202
35
228
63
240
5
67
21
8
3
122
135
144
94
173
71
96
152
84
90
229
180
106
239
82
66
33
218
69
200
43
110
91
183
78
86

> <PUBCHEM_MMFF94_PARTIAL_CHARGES>
39
1 -0.56
10 0.28
11 0.06
12 0.06
13 0.28
15 0.66
16 0.66
17 0.63
18 0.63
19 0.09
2 -0.43
20 0.09
21 -0.15
22 -0.15
23 -0.15
24 -0.15
25 -0.15
26 -0.15
27 -0.15
28 -0.15
29 -0.15
3 -0.3
30 -0.15
37 0.15
38 0.15
39 0.15
4 -0.43
40 0.15
41 0.15
42 0.15
43 0.15
44 0.15
45 0.15
46 0.15
5 -0.57
6 -0.57
7 -0.57
8 -0.57
9 0.56

> <PUBCHEM_EFFECTIVE_ROTOR_COUNT>
6.8

> <PUBCHEM_PHARMACOPHORE_FEATURES>
9
1 1 acceptor
1 5 acceptor
1 6 acceptor
1 7 acceptor
1 8 acceptor
5 3 11 12 15 16 rings
6 19 21 22 25 26 29 rings
6 20 23 24 27 28 30 rings
7 1 9 10 11 12 13 14 rings

> <PUBCHEM_HEAVY_ATOM_COUNT>
30

> <PUBCHEM_ATOM_DEF_STEREO_COUNT>
0

> <PUBCHEM_ATOM_UDEF_STEREO_COUNT>
5

> <PUBCHEM_BOND_DEF_STEREO_COUNT>
0

> <PUBCHEM_BOND_UDEF_STEREO_COUNT>
0

> <PUBCHEM_ISOTOPIC_ATOM_COUNT>
0

> <PUBCHEM_COMPONENT_COUNT>
1

> <PUBCHEM_CACTVS_TAUTO_COUNT>
4

> <PUBCHEM_CONFORMER_ID>
060B538E00000001

> <PUBCHEM_MMFF94_ENERGY>
95.462

> <PUBCHEM_FEATURE_SELFOVERLAP>
45.772

> <PUBCHEM_SHAPE_FINGERPRINT>
10411042 1 18411141341746599405
10930396 42 18117534393265378496
11265709 11 18411140233850784901
11456790 92 18341346561174421323
11578080 2 15194181331382226035
11646440 116 18335431178840628531
11963148 33 17331679558308654207
12166972 35 17894915152370143372
12516196 113 18410573993805195998
12857493 111 18410284805574325869
13540713 5 18266766682197593081
13631057 29 18261111834071730498
13782708 43 17896319293703095747
14068700 675 18259421931295346964
14068700 686 18200879448693442918
14150022 121 17988926630713933632
14394314 77 18337674118553052059
1454969 45 18411705413509528534
14840074 17 17846491552181611950
14955137 171 18341047518425578342
15131766 46 16341424043131184480
15183329 4 14129052616879809050
15188451 53 18040428872657015178
15849732 13 18131064952907578679
15927050 60 17620477248089107788
16087824 20 18194684766619743421
16992752 21 18339375114759962948
17492 89 18050005799292402579
17980427 23 17275113816859471657
18006028 8 18409727365498650150
18393751 57 18199448026925971754
19309040 13 14474964610955939960
20567600 70 18335420218047009539
20642791 13 18340492145016123703
20771845 171 17824827994854859100
2132832 1 18113910342410377012
22122407 14 15769487608802477864
23559900 14 18264487459317454921
23845131 108 17407407931544132592
249057 3 18409164433864736847
25019877 29 17132114654181090806
2747138 104 18342178877869298898
283562 15 18261674749158991938
2838139 119 9727629484128930946
3004659 81 17894633673167517590
3383291 50 18333735753818432011
3886686 26 17109851476733828874
437815 12 18335137618031278323
469060 322 17895480211458585244
5104073 3 18127965309860280946
56616090 89 18333731312604968916
57035037 87 16343423913343444113
5969126 39 18343013359416942453
6004065 56 18339641256319083911
6009941 240 18261664871245628789
613672 6 18411427206492000055
9962374 69 18267019652098807031

> <PUBCHEM_SHAPE_MULTIPOLES>
570.43
16.7
3.91
1.14
5.8
4.36
0
-17.99
2.96
-1.38
0.25
0.41
0.03
0.61

> <PUBCHEM_SHAPE_SELFOVERLAP>
1283.29

> <PUBCHEM_SHAPE_VOLUME>
301

> <PUBCHEM_COORDINATE_TYPE>
2
5
10

$$$$
