REMARK  Name = 101404442
REMARK  11 active torsions:
REMARK  status: ('A' for Active; 'I' for Inactive)
REMARK    1  A    between atoms: C_3  and  O_15
REMARK    2  A    between atoms: C_4  and  O_17
REMARK    3  A    between atoms: C_6  and  O_19
REMARK    4  A    between atoms: C_7  and  O_21
REMARK    5  A    between atoms: O_21  and  C_23
REMARK    6  A    between atoms: C_23  and  C_24
REMARK    7  A    between atoms: C_25  and  C_26
REMARK    8  A    between atoms: C_26  and  O_27
REMARK    9  A    between atoms: C_26  and  C_29
REMARK   10  A    between atoms: C_29  and  C_30
REMARK   11  A    between atoms: C_30  and  C_31
REMARK                            x       y       z     vdW  Elec       q    Type
REMARK                         _______ _______ _______ _____ _____    ______ ____
ROOT
ATOM      1  O   UNL     1       2.581  -1.670  -0.831  0.00  0.00    -0.448 OA
ATOM      2  O   UNL     1       3.122  -2.534   1.237  0.00  0.00    -0.250 OA
ATOM      3  C   UNL     1       4.370   1.298  -0.005  0.00  0.00    +0.138 C 
ATOM      4  C   UNL     1       2.946   1.195  -0.631  0.00  0.00    +0.141 C 
ATOM      5  C   UNL     1       1.759   0.819   0.313  0.00  0.00    +0.073 C 
ATOM      6  C   UNL     1       4.942   0.020   0.691  0.00  0.00    +0.148 C 
ATOM      7  C   UNL     1       0.742  -0.106  -0.440  0.00  0.00    +0.211 C 
ATOM      8  C   UNL     1       4.783  -1.328  -0.065  0.00  0.00    +0.128 C 
ATOM      9  C   UNL     1       1.182  -1.591  -0.519  0.00  0.00    +0.209 C 
ATOM     10  C   UNL     1       4.507   2.507   0.934  0.00  0.00    +0.034 C 
ATOM     11  C   UNL     1       1.053   2.058   0.891  0.00  0.00    +0.006 C 
ATOM     12  C   UNL     1       3.423  -1.951   0.203  0.00  0.00    +0.319 C 
ATOM     13  C   UNL     1       5.857  -2.338   0.357  0.00  0.00    +0.014 C 
ATOM     14  C   UNL     1       0.420  -2.341  -1.607  0.00  0.00    +0.051 C 
ENDROOT
BRANCH   3  15
ATOM     15  O   UNL     1       5.268   1.587  -1.103  0.00  0.00    -0.382 OA
ATOM     16  H   UNL     1       5.237   0.861  -1.745  0.00  0.00    +0.210 HD
ENDBRANCH   3  15
BRANCH   4  17
ATOM     17  O   UNL     1       2.654   2.437  -1.295  0.00  0.00    -0.382 OA
ATOM     18  H   UNL     1       3.391   2.672  -1.881  0.00  0.00    +0.210 HD
ENDBRANCH   4  17
BRANCH   6  19
ATOM     19  O   UNL     1       4.437  -0.086   2.022  0.00  0.00    -0.381 OA
ATOM     20  H   UNL     1       4.544   0.763   2.478  0.00  0.00    +0.210 HD
ENDBRANCH   6  19
BRANCH   7  21
ATOM     21  O   UNL     1      -0.537  -0.106   0.200  0.00  0.00    -0.445 OA
BRANCH  21  23
ATOM     22  O   UNL     1      -1.511   0.772  -1.702  0.00  0.00    -0.245 OA
ATOM     23  C   UNL     1      -1.569   0.361  -0.554  0.00  0.00    +0.341 C 
BRANCH  23  24
ATOM     24  C   UNL     1      -2.796   0.285   0.268  0.00  0.00    +0.080 C 
ATOM     25  C   UNL     1      -3.968   0.687  -0.241  0.00  0.00    +0.009 C 
BRANCH  25  26
ATOM     26  C   UNL     1      -5.259   0.640   0.529  0.00  0.00    +0.133 C 
BRANCH  26  27
ATOM     27  O   UNL     1      -5.741   1.973   0.688  0.00  0.00    -0.380 OA
ATOM     28  H   UNL     1      -5.073   2.506   1.147  0.00  0.00    +0.211 HD
ENDBRANCH  26  27
BRANCH  26  29
ATOM     29  C   UNL     1      -6.307  -0.215  -0.196  0.00  0.00    +0.034 C 
BRANCH  29  30
ATOM     30  C   UNL     1      -7.644  -0.243   0.552  0.00  0.00    +0.003 C 
BRANCH  30  31
ATOM     31  C   UNL     1      -8.688  -1.061  -0.208  0.00  0.00    +0.000 C 
ATOM     32  C   UNL     1     -10.026  -1.068   0.515  0.00  0.00    +0.000 C 
ENDBRANCH  30  31
ENDBRANCH  29  30
ENDBRANCH  26  29
ENDBRANCH  25  26
ENDBRANCH  23  24
ENDBRANCH  21  23
ENDBRANCH   7  21
TORSDOF 11
