REMARK  Name = 101436
REMARK  5 active torsions:
REMARK  status: ('A' for Active; 'I' for Inactive)
REMARK    1  A    between atoms: C2*_2  and  O2*_16
REMARK    2  A    between atoms: C3*_3  and  O3*_18
REMARK    3  A    between atoms: C1*_4  and  N_7
REMARK    4  A    between atoms: C4*_5  and  C5*_20
REMARK    5  A    between atoms: C5*_20  and  O5*_21
REMARK                            x       y       z     vdW  Elec       q    Type
REMARK                         _______ _______ _______ _____ _____    ______ ____
ROOT
ATOM      1  O4* UNL     1      -1.696  -0.541   1.017  0.00  0.00    -0.332 OA
ATOM      2  C2* UNL     1      -1.677   0.978  -0.802  0.00  0.00    +0.188 C 
ATOM      3  C3* UNL     1      -3.110   0.582  -0.516  0.00  0.00    +0.171 C 
ATOM      4  C1* UNL     1      -0.978   0.587   0.488  0.00  0.00    +0.236 C 
ATOM      5  C4* UNL     1      -2.933  -0.698   0.288  0.00  0.00    +0.175 C 
ENDROOT
BRANCH   4   7
ATOM      6  O   UNL     1       1.236   2.311   0.730  0.00  0.00    -0.193 OA
ATOM      7  N   UNL     1       0.391   0.211   0.279  0.00  0.00    -0.178 N 
ATOM      8  N   UNL     1       2.752   0.706   0.202  0.00  0.00    -0.306 NA
ATOM      9  N   UNL     1       4.299  -0.943  -0.341  0.00  0.00    -0.306 N 
ATOM     10  C   UNL     1       0.676  -1.099  -0.074  0.00  0.00    +0.083 C 
ATOM     11  C   UNL     1       1.455   1.139   0.420  0.00  0.00    +0.276 C 
ATOM     12  C   UNL     1       1.916  -1.534  -0.288  0.00  0.00    +0.065 C 
ATOM     13  C   UNL     1       3.003  -0.533  -0.129  0.00  0.00    +0.196 C 
ATOM     14  C   UNL     1       5.409  -0.057  -0.191  0.00  0.00    +0.110 C 
ATOM     15  H   UNL     1       4.467  -1.876  -0.605  0.00  0.00    +0.149 HD
ENDBRANCH   4   7
BRANCH   2  16
ATOM     16  O2* UNL     1      -1.549   2.354  -1.094  0.00  0.00    -0.378 OA
ATOM     17  H2* UNL     1      -2.010   2.553  -1.924  0.00  0.00    +0.211 HD
ENDBRANCH   2  16
BRANCH   3  18
ATOM     18  O3* UNL     1      -3.731   1.550   0.329  0.00  0.00    -0.379 OA
ATOM     19  H3* UNL     1      -3.855   2.377  -0.162  0.00  0.00    +0.211 HD
ENDBRANCH   3  18
BRANCH   5  20
ATOM     20  C5* UNL     1      -2.817  -1.944  -0.580  0.00  0.00    +0.169 C 
BRANCH  20  21
ATOM     21  O5* UNL     1      -2.646  -3.070   0.262  0.00  0.00    -0.379 OA
ATOM     22  H5* UNL     1      -2.570  -3.871  -0.280  0.00  0.00    +0.211 HD
ENDBRANCH  20  21
ENDBRANCH   5  20
TORSDOF 5
