REMARK  Name = 101489519
REMARK  18 active torsions:
REMARK  status: ('A' for Active; 'I' for Inactive)
REMARK    1  A    between atoms: C_3  and  C_5
REMARK    2  A    between atoms: C_5  and  C_11
REMARK    3  A    between atoms: N_10  and  C_17
REMARK    4  A    between atoms: C_13  and  O_15
REMARK    5  A    between atoms: C_17  and  C_18
REMARK    6  A    between atoms: C_18  and  C_19
REMARK    7  A    between atoms: C_19  and  C_20
REMARK    8  A    between atoms: C_20  and  C_21
REMARK    9  A    between atoms: C_21  and  N_22
REMARK   10  A    between atoms: C_21  and  C_27
REMARK   11  A    between atoms: C_27  and  O_28
REMARK   12  A    between atoms: C_30  and  C_31
REMARK   13  A    between atoms: C_31  and  C_32
REMARK   14  A    between atoms: C_32  and  C_33
REMARK   15  A    between atoms: C_33  and  C_34
REMARK   16  A    between atoms: C_34  and  N_35
REMARK   17  A    between atoms: C_34  and  C_40
REMARK   18  A    between atoms: C_40  and  O_41
REMARK                            x       y       z     vdW  Elec       q    Type
REMARK                         _______ _______ _______ _____ _____    ______ ____
ROOT
ATOM      1  N   UNK     1      -2.067  -1.706   1.462  0.00  0.00    -0.286 N 
ATOM      2  C   UNK     1      -2.962  -0.689   1.258  0.00  0.00    +0.070 C 
ATOM      3  C   UNK     1      -2.734  -2.827   1.882  0.00  0.00    +0.068 C 
ATOM      4  C   UNK     1      -4.220  -1.168   1.552  0.00  0.00    +0.145 C 
ATOM      5  C   UNK     1      -4.076  -2.521   1.947  0.00  0.00    +0.054 C 
ENDROOT
BRANCH   4   6
ATOM      6  O   UNK     1      -5.355  -0.458   1.472  0.00  0.00    -0.505 OA
ATOM      7  H   UNK     1      -5.329   0.438   1.196  0.00  0.00    +0.292 HD
ENDBRANCH   4   6
BRANCH   2   8
ATOM      8  C   UNK     1      -2.473   0.625   0.803  0.00  0.00    +0.106 C 
BRANCH   8  11
ATOM      9  O   UNK     1      -3.135  -1.031  -1.522  0.00  0.00    -0.289 OA
ATOM     10  N   UNK     1      -1.930   2.201  -1.052  0.00  0.00    -0.411 NA
ATOM     11  C   UNK     1      -2.354   1.019  -0.467  0.00  0.00    +0.149 C 
ATOM     12  C   UNK     1      -2.053   2.078  -2.442  0.00  0.00    +0.095 C 
ATOM     13  C   UNK     1      -2.726   0.111  -1.591  0.00  0.00    +0.205 C 
ATOM     14  C   UNK     1      -2.507   0.876  -2.840  0.00  0.00    +0.126 C 
ATOM     15  C   UNK     1      -1.714   3.197  -3.368  0.00  0.00    +0.062 C 
ENDBRANCH   8  11
ENDBRANCH   2   8
BRANCH   1  16
ATOM     16  C   UNK     1      -0.632  -1.647   1.275  0.00  0.00    +0.095 C 
BRANCH  16  17
ATOM     17  C   UNK     1      -0.203  -2.327  -0.027  0.00  0.00    +0.022 C 
BRANCH  17  18
ATOM     18  C   UNK     1       1.310  -2.222  -0.236  0.00  0.00    +0.000 C 
BRANCH  18  19
ATOM     19  C   UNK     1       1.730  -2.869  -1.563  0.00  0.00    -0.011 C 
BRANCH  19  20
ATOM     20  C   UNK     1       3.243  -2.855  -1.829  0.00  0.00    +0.036 C 
BRANCH  20  21
ATOM     21  N   UNK     1       3.979  -3.556  -0.778  0.00  0.00    +0.389 N 
ATOM     22  H   UNK     1       3.627  -4.509  -0.693  0.00  0.00    -0.088 HD
ATOM     23  H   UNK     1       3.854  -3.067   0.109  0.00  0.00    -0.088 HD
ATOM     24  H   UNK     1       4.971  -3.579  -1.015  0.00  0.00    -0.088 HD
ENDBRANCH  20  21
BRANCH  20  26
ATOM     25  O   UNK     1       4.644  -0.958  -1.198  0.00  0.00    -0.253 OA
ATOM     26  C   UNK     1       3.790  -1.442  -1.929  0.00  0.00    +0.293 C 
BRANCH  26  27
ATOM     27  O   UNK     1       3.216  -0.747  -2.946  0.00  0.00    -0.482 OA
ATOM     28  H   UNK     1       2.565  -1.153  -3.483  0.00  0.00    +0.295 HD
ENDBRANCH  26  27
ENDBRANCH  20  26
ENDBRANCH  19  20
ENDBRANCH  18  19
ENDBRANCH  17  18
ENDBRANCH  16  17
ENDBRANCH   1  16
TORSDOF 11
REMARK  Name = 101489519
REMARK  18 active torsions:
REMARK  status: ('A' for Active; 'I' for Inactive)
REMARK    1  A    between atoms: C_3  and  C_5
REMARK    2  A    between atoms: C_5  and  C_11
REMARK    3  A    between atoms: N_10  and  C_17
REMARK    4  A    between atoms: C_13  and  O_15
REMARK    5  A    between atoms: C_17  and  C_18
REMARK    6  A    between atoms: C_18  and  C_19
REMARK    7  A    between atoms: C_19  and  C_20
REMARK    8  A    between atoms: C_20  and  C_21
REMARK    9  A    between atoms: C_21  and  N_22
REMARK   10  A    between atoms: C_21  and  C_27
REMARK   11  A    between atoms: C_27  and  O_28
REMARK   12  A    between atoms: C_30  and  C_31
REMARK   13  A    between atoms: C_31  and  C_32
REMARK   14  A    between atoms: C_32  and  C_33
REMARK   15  A    between atoms: C_33  and  C_34
REMARK   16  A    between atoms: C_34  and  N_35
REMARK   17  A    between atoms: C_34  and  C_40
REMARK   18  A    between atoms: C_40  and  O_41
REMARK                            x       y       z     vdW  Elec       q    Type
REMARK                         _______ _______ _______ _____ _____    ______ ____
ROOT
ATOM      1  C   UNK     1       2.637   1.311   1.778  0.00  0.00    +0.036 C 
ENDROOT
BRANCH   1   2
ATOM      2  N   UNK     1       1.932   1.272   3.062  0.00  0.00    +0.389 N 
ATOM      3  H   UNK     1       0.934   1.137   2.898  0.00  0.00    -0.088 HD
ATOM      4  H   UNK     1       2.080   2.151   3.558  0.00  0.00    -0.088 HD
ATOM      5  H   UNK     1       2.291   0.500   3.624  0.00  0.00    -0.088 HD
ENDBRANCH   1   2
BRANCH   1   7
ATOM      6  O   UNK     1       4.585   1.677   3.197  0.00  0.00    -0.253 OA
ATOM      7  C   UNK     1       4.112   1.512   2.080  0.00  0.00    +0.293 C 
BRANCH   7   8
ATOM      8  O   UNK     1       4.872   1.517   0.954  0.00  0.00    -0.482 OA
ATOM      9  H   UNK     1       4.471   1.387   0.117  0.00  0.00    +0.295 HD
ENDBRANCH   7   8
ENDBRANCH   1   7
BRANCH   1  10
ATOM     10  C   UNK     1       2.078   2.459   0.927  0.00  0.00    -0.011 C 
BRANCH  10  11
ATOM     11  C   UNK     1       0.579   2.310   0.645  0.00  0.00    -0.002 C 
BRANCH  11  13
ATOM     12  C   UNK     1      -1.541   3.395  -0.343  0.00  0.00    +0.005 C 
ATOM     13  C   UNK     1      -0.026   3.464  -0.165  0.00  0.00    -0.005 C 
ENDBRANCH  11  13
ENDBRANCH  10  11
ENDBRANCH   1  10
TORSDOF 6
