101424435
  -OEChem-03292013293D

 69 74  0     1  0  0  0  0  0999 V2000
   -1.6397    0.1771    2.5139 O   0  0  0  0  0  0  0  0  0  0  0  0
    2.2028   -1.1530   -1.2604 O   0  0  0  0  0  0  0  0  0  0  0  0
   -2.1841   -2.8613    0.2481 O   0  0  0  0  0  0  0  0  0  0  0  0
   -3.1804    1.9477    0.3617 O   0  0  0  0  0  0  0  0  0  0  0  0
   -3.0518   -1.7071    2.4335 O   0  0  0  0  0  0  0  0  0  0  0  0
   -6.5152   -1.2354   -0.9975 O   0  0  0  0  0  0  0  0  0  0  0  0
    5.8520   -0.0434   -1.4996 O   0  0  0  0  0  0  0  0  0  0  0  0
   -3.4567    3.1179   -1.6108 O   0  0  0  0  0  0  0  0  0  0  0  0
    7.9488   -0.7257   -0.9466 O   0  0  0  0  0  0  0  0  0  0  0  0
   -1.0264   -0.0940    0.3210 C   0  0  2  0  0  0  0  0  0  0  0  0
   -2.5299   -0.4381    0.3449 C   0  0  1  0  0  0  0  0  0  0  0  0
   -0.1016   -0.8872   -0.5951 C   0  0  2  0  0  0  0  0  0  0  0  0
    1.3218   -0.2642   -0.5566 C   0  0  1  0  0  0  0  0  0  0  0  0
    1.8661   -0.0638    0.9158 C   0  0  2  0  0  0  0  0  0  0  0  0
   -0.5463   -0.2919    1.7369 C   0  0  1  0  0  0  0  0  0  0  0  0
   -2.7935   -1.7594   -0.4415 C   0  0  1  0  0  0  0  0  0  0  0  0
    0.7643    0.4634    1.9101 C   0  0  0  0  0  0  0  0  0  0  0  0
   -0.7667   -1.0339   -1.9599 C   0  0  0  0  0  0  0  0  0  0  0  0
   -2.8118   -0.4138    1.8951 C   0  0  2  0  0  0  0  0  0  0  0  0
   -3.3492    0.7139   -0.3395 C   0  0  1  0  0  0  0  0  0  0  0  0
    2.9546    1.0364    0.7314 C   0  0  2  0  0  0  0  0  0  0  0  0
   -2.1507   -1.7161   -1.8649 C   0  0  0  0  0  0  0  0  0  0  0  0
    1.4535    1.1257   -1.2207 C   0  0  0  0  0  0  0  0  0  0  0  0
    2.3256    1.9856   -0.2971 C   0  0  0  0  0  0  0  0  0  0  0  0
   -4.3010   -2.0680   -0.5296 C   0  0  0  0  0  0  0  0  0  0  0  0
    2.4463   -1.3649    1.5151 C   0  0  0  0  0  0  0  0  0  0  0  0
   -4.8463    0.3988   -0.4099 C   0  0  0  0  0  0  0  0  0  0  0  0
   -5.1289   -0.9238   -1.1101 C   0  0  2  0  0  0  0  0  0  0  0  0
    4.2938    0.5618    0.2449 C   0  0  0  0  0  0  0  0  0  0  0  0
    5.3119    0.2611    1.2174 C   0  0  0  0  0  0  0  0  0  0  0  0
    4.6015    0.3995   -1.0460 C   0  0  0  0  0  0  0  0  0  0  0  0
   -3.2590    3.0735   -0.4041 C   0  0  0  0  0  0  0  0  0  0  0  0
    6.5205   -0.1644    0.8367 C   0  0  0  0  0  0  0  0  0  0  0  0
   -3.0639    4.2828    0.4594 C   0  0  0  0  0  0  0  0  0  0  0  0
    6.8396   -0.3360   -0.5961 C   0  0  0  0  0  0  0  0  0  0  0  0
   -0.9448    0.9716    0.0749 H   0  0  0  0  0  0  0  0  0  0  0  0
    0.0182   -1.9113   -0.2147 H   0  0  0  0  0  0  0  0  0  0  0  0
   -0.4015   -1.3503    1.9869 H   0  0  0  0  0  0  0  0  0  0  0  0
    0.5752    1.5349    1.7720 H   0  0  0  0  0  0  0  0  0  0  0  0
    1.1072    0.3774    2.9491 H   0  0  0  0  0  0  0  0  0  0  0  0
   -0.1356   -1.6105   -2.6452 H   0  0  0  0  0  0  0  0  0  0  0  0
   -0.8928   -0.0465   -2.4207 H   0  0  0  0  0  0  0  0  0  0  0  0
   -3.6692    0.2117    2.1594 H   0  0  0  0  0  0  0  0  0  0  0  0
   -2.9708    0.8267   -1.3635 H   0  0  0  0  0  0  0  0  0  0  0  0
    3.1028    1.5949    1.6657 H   0  0  0  0  0  0  0  0  0  0  0  0
   -2.8065   -1.2167   -2.5857 H   0  0  0  0  0  0  0  0  0  0  0  0
   -2.0389   -2.7455   -2.2314 H   0  0  0  0  0  0  0  0  0  0  0  0
    0.4897    1.6287   -1.3462 H   0  0  0  0  0  0  0  0  0  0  0  0
    1.8895    1.0636   -2.2234 H   0  0  0  0  0  0  0  0  0  0  0  0
    3.0449    2.5936   -0.8575 H   0  0  0  0  0  0  0  0  0  0  0  0
    1.6799    2.7070    0.2202 H   0  0  0  0  0  0  0  0  0  0  0  0
   -4.6901   -2.3314    0.4632 H   0  0  0  0  0  0  0  0  0  0  0  0
   -4.4663   -2.9782   -1.1223 H   0  0  0  0  0  0  0  0  0  0  0  0
    3.2311   -1.8107    0.8967 H   0  0  0  0  0  0  0  0  0  0  0  0
    1.6733   -2.1316    1.6281 H   0  0  0  0  0  0  0  0  0  0  0  0
    2.8732   -1.1811    2.5075 H   0  0  0  0  0  0  0  0  0  0  0  0
   -5.3829    1.2049   -0.9269 H   0  0  0  0  0  0  0  0  0  0  0  0
   -5.2890    0.3944    0.5945 H   0  0  0  0  0  0  0  0  0  0  0  0
   -4.9199   -0.8111   -2.1792 H   0  0  0  0  0  0  0  0  0  0  0  0
    1.9448   -1.1618   -2.1971 H   0  0  0  0  0  0  0  0  0  0  0  0
   -2.3985   -3.6780   -0.2342 H   0  0  0  0  0  0  0  0  0  0  0  0
   -3.5584   -1.5883    3.2546 H   0  0  0  0  0  0  0  0  0  0  0  0
   -6.6658   -2.0751   -1.4643 H   0  0  0  0  0  0  0  0  0  0  0  0
    5.0876    0.3837    2.2717 H   0  0  0  0  0  0  0  0  0  0  0  0
    3.9880    0.5887   -1.9110 H   0  0  0  0  0  0  0  0  0  0  0  0
    7.2921   -0.3929    1.5627 H   0  0  0  0  0  0  0  0  0  0  0  0
   -2.0774    4.2469    0.9286 H   0  0  0  0  0  0  0  0  0  0  0  0
   -3.1234    5.1833   -0.1585 H   0  0  0  0  0  0  0  0  0  0  0  0
   -3.8500    4.3274    1.2174 H   0  0  0  0  0  0  0  0  0  0  0  0
  1 15  1  0  0  0  0
  1 19  1  0  0  0  0
  2 13  1  0  0  0  0
  2 60  1  0  0  0  0
  3 16  1  0  0  0  0
  3 61  1  0  0  0  0
  4 20  1  0  0  0  0
  4 32  1  0  0  0  0
  5 19  1  0  0  0  0
  5 62  1  0  0  0  0
  6 28  1  0  0  0  0
  6 63  1  0  0  0  0
  7 31  1  0  0  0  0
  7 35  1  0  0  0  0
  8 32  2  0  0  0  0
  9 35  2  0  0  0  0
 10 11  1  0  0  0  0
 10 12  1  0  0  0  0
 10 15  1  0  0  0  0
 10 36  1  0  0  0  0
 11 16  1  0  0  0  0
 11 19  1  0  0  0  0
 11 20  1  0  0  0  0
 12 13  1  0  0  0  0
 12 18  1  0  0  0  0
 12 37  1  0  0  0  0
 13 14  1  0  0  0  0
 13 23  1  0  0  0  0
 14 17  1  0  0  0  0
 14 21  1  0  0  0  0
 14 26  1  0  0  0  0
 15 17  1  0  0  0  0
 15 38  1  0  0  0  0
 16 22  1  0  0  0  0
 16 25  1  0  0  0  0
 17 39  1  0  0  0  0
 17 40  1  0  0  0  0
 18 22  1  0  0  0  0
 18 41  1  0  0  0  0
 18 42  1  0  0  0  0
 19 43  1  0  0  0  0
 20 27  1  0  0  0  0
 20 44  1  0  0  0  0
 21 24  1  0  0  0  0
 21 29  1  0  0  0  0
 21 45  1  0  0  0  0
 22 46  1  0  0  0  0
 22 47  1  0  0  0  0
 23 24  1  0  0  0  0
 23 48  1  0  0  0  0
 23 49  1  0  0  0  0
 24 50  1  0  0  0  0
 24 51  1  0  0  0  0
 25 28  1  0  0  0  0
 25 52  1  0  0  0  0
 25 53  1  0  0  0  0
 26 54  1  0  0  0  0
 26 55  1  0  0  0  0
 26 56  1  0  0  0  0
 27 28  1  0  0  0  0
 27 57  1  0  0  0  0
 27 58  1  0  0  0  0
 28 59  1  0  0  0  0
 29 30  1  0  0  0  0
 29 31  2  0  0  0  0
 30 33  2  0  0  0  0
 30 64  1  0  0  0  0
 31 65  1  0  0  0  0
 32 34  1  0  0  0  0
 33 35  1  0  0  0  0
 33 66  1  0  0  0  0
 34 67  1  0  0  0  0
 34 68  1  0  0  0  0
 34 69  1  0  0  0  0
M  END
> <PUBCHEM_COMPOUND_CID>
101424435

> <PUBCHEM_CONFORMER_RMSD>
0.8

> <PUBCHEM_CONFORMER_DIVERSEORDER>
1
3
4
2

> <PUBCHEM_MMFF94_PARTIAL_CHARGES>
30
1 -0.56
13 0.28
15 0.28
16 0.28
19 0.56
2 -0.68
20 0.28
21 0.14
28 0.28
29 -0.14
3 -0.68
30 -0.15
31 -0.07
32 0.66
33 -0.14
34 0.06
35 0.71
4 -0.43
5 -0.68
6 -0.68
60 0.4
61 0.4
62 0.4
63 0.4
64 0.15
65 0.15
66 0.15
7 -0.23
8 -0.57
9 -0.57

> <PUBCHEM_EFFECTIVE_ROTOR_COUNT>
5.4

> <PUBCHEM_PHARMACOPHORE_FEATURES>
17
1 1 acceptor
1 2 acceptor
1 2 donor
1 3 acceptor
1 3 donor
1 5 acceptor
1 5 donor
1 6 acceptor
1 6 donor
1 8 acceptor
1 9 acceptor
5 1 10 11 15 19 rings
5 13 14 21 23 24 rings
6 10 11 12 16 18 22 rings
6 10 12 13 14 15 17 rings
6 11 16 20 25 27 28 rings
6 7 29 30 31 33 35 rings

> <PUBCHEM_HEAVY_ATOM_COUNT>
35

> <PUBCHEM_ATOM_DEF_STEREO_COUNT>
10

> <PUBCHEM_ATOM_UDEF_STEREO_COUNT>
1

> <PUBCHEM_BOND_DEF_STEREO_COUNT>
0

> <PUBCHEM_BOND_UDEF_STEREO_COUNT>
0

> <PUBCHEM_ISOTOPIC_ATOM_COUNT>
0

> <PUBCHEM_COMPONENT_COUNT>
1

> <PUBCHEM_CACTVS_TAUTO_COUNT>
2

> <PUBCHEM_CONFORMER_ID>
060B9D3300000001

> <PUBCHEM_MMFF94_ENERGY>
151.6181

> <PUBCHEM_FEATURE_SELFOVERLAP>
86.755

> <PUBCHEM_SHAPE_FINGERPRINT>
10165383 225 17988368049507220953
105312 117 18200876154063032588
10670039 82 18408881819613696085
11007060 377 18267590281437020058
11315181 36 17603591858989770020
11578080 2 18127139571414605053
11763715 3 17755320189698103087
12107183 9 17759508981028353706
12107698 1 18335698364387142581
12166972 35 17917710248959952664
12236239 1 18201718496455895050
12788726 201 18336253592627104049
13224815 77 14692578735889498106
13583140 156 18411422817055769474
13782708 43 17703221948677311095
14068700 675 18261948669477854037
14294032 229 18269556040719315857
14713325 29 18272370841724777649
14856354 85 17603877693231932454
15183329 4 18333730213351797462
15439362 3 17694222162525722653
15788980 27 18409169935205691826
15799311 1 16588308242303445010
17349148 13 15554729988658949856
17844677 252 18410294744328354924
1813 80 18341058488800915172
19958102 18 17988918981123711774
21033648 29 17489009505617064160
21033650 10 18338239267086812432
21756936 100 17822581512426801489
21927370 108 18338247059143476139
22393880 68 18271800212158646384
23198884 109 18040715870349303314
23522609 53 17750533801694281900
23559900 14 17059482071048023226
23569943 247 16662590088055669658
32027 91 17415292633260100918
497634 4 16588031250528734362
508706 21 18340497706872171990
5104073 3 14979415979844645094
531348 171 18340769234984374882
57527293 21 17981068593235931403
59755656 215 17632579365948486598
59755656 520 16805598192544827939
6086070 43 18200301135974118496

> <PUBCHEM_SHAPE_MULTIPOLES>
667.46
14.3
2.79
1.96
20.49
2.9
0.7
-1.86
-3.76
-4.98
-0.55
-0.35
-0.4
0.24

> <PUBCHEM_SHAPE_SELFOVERLAP>
1467.436

> <PUBCHEM_SHAPE_VOLUME>
352.3

> <PUBCHEM_COORDINATE_TYPE>
2
5
10

$$$$
