REMARK  Name = 101419366
REMARK  8 active torsions:
REMARK  status: ('A' for Active; 'I' for Inactive)
REMARK    1  A    between atoms: C_3  and  C_13
REMARK    2  A    between atoms: C_3  and  O_21
REMARK    3  A    between atoms: C_5  and  O_23
REMARK    4  A    between atoms: C_6  and  C_28
REMARK    5  A    between atoms: C_8  and  O_25
REMARK    6  A    between atoms: C_18  and  O_19
REMARK    7  A    between atoms: C_27  and  C_31
REMARK    8  A    between atoms: C_32  and  O_38
REMARK                            x       y       z     vdW  Elec       q    Type
REMARK                         _______ _______ _______ _____ _____    ______ ____
ROOT
ATOM      1  O   UNL     1       5.024  -3.235   0.925  0.00  0.00    -0.272 OA
ATOM      2  N   UNL     1       2.883  -3.348   0.117  0.00  0.00    -0.282 N 
ATOM      3  C   UNL     1       2.617  -0.514   0.559  0.00  0.00    +0.163 C 
ATOM      4  C   UNL     1       1.493  -1.343  -0.054  0.00  0.00    +0.056 C 
ATOM      5  C   UNL     1       3.984  -1.168   0.238  0.00  0.00    +0.224 C 
ATOM      6  C   UNL     1      -0.801  -1.594  -0.841  0.00  0.00    +0.033 C 
ATOM      7  C   UNL     1       1.672  -2.726  -0.235  0.00  0.00    +0.052 C 
ATOM      8  C   UNL     1       0.232  -0.795  -0.346  0.00  0.00    +0.133 C 
ATOM      9  C   UNL     1       4.022  -2.668   0.492  0.00  0.00    +0.256 C 
ATOM     10  C   UNL     1      -0.601  -2.958  -1.029  0.00  0.00    +0.004 C 
ATOM     11  C   UNL     1       0.631  -3.528  -0.716  0.00  0.00    +0.015 C 
ATOM     12  H   UNL     1       2.919  -4.331   0.094  0.00  0.00    +0.155 HD
ENDROOT
BRANCH   3  13
ATOM     13  C   UNL     1       2.624   0.953   0.099  0.00  0.00    +0.009 C 
ATOM     14  C   UNL     1       2.766   1.260  -1.255  0.00  0.00    +0.001 C 
ATOM     15  C   UNL     1       2.487   1.978   1.035  0.00  0.00    +0.001 C 
ATOM     16  C   UNL     1       2.772   2.591  -1.672  0.00  0.00    +0.037 C 
ATOM     17  C   UNL     1       2.493   3.309   0.618  0.00  0.00    +0.037 C 
ATOM     18  C   UNL     1       2.636   3.615  -0.735  0.00  0.00    +0.139 C 
BRANCH  18  19
ATOM     19  O   UNL     1       2.641   4.914  -1.142  0.00  0.00    -0.471 OA
ATOM     20  C   UNL     1       2.497   5.912  -0.132  0.00  0.00    +0.252 C 
ENDBRANCH  18  19
ENDBRANCH   3  13
BRANCH   3  21
ATOM     21  O   UNL     1       2.404  -0.619   1.975  0.00  0.00    -0.376 OA
ATOM     22  H   UNL     1       2.405  -1.554   2.234  0.00  0.00    +0.211 HD
ENDBRANCH   3  21
BRANCH   5  23
ATOM     23  O   UNL     1       5.037  -0.561   0.974  0.00  0.00    -0.342 OA
ATOM     24  C   UNL     1       6.284  -0.696   0.307  0.00  0.00    +0.175 C 
ENDBRANCH   5  23
BRANCH   8  25
ATOM     25  O   UNL     1      -0.030   0.526  -0.109  0.00  0.00    -0.506 OA
ATOM     26  H   UNL     1       0.644   1.085   0.223  0.00  0.00    +0.292 HD
ENDBRANCH   8  25
BRANCH   6  28
ATOM     27  C   UNL     1      -3.282  -1.406  -0.598  0.00  0.00    +0.000 C 
ATOM     28  C   UNL     1      -2.123  -1.027  -1.157  0.00  0.00    +0.001 C 
BRANCH  27  31
ATOM     29  O   UNL     1      -4.577   0.625  -0.829  0.00  0.00    -0.357 OA
ATOM     30  C   UNL     1      -4.685   1.209   0.481  0.00  0.00    +0.118 C 
ATOM     31  C   UNL     1      -4.611  -0.804  -0.959  0.00  0.00    +0.111 C 
ATOM     32  C   UNL     1      -5.867   0.607   1.268  0.00  0.00    +0.135 C 
ATOM     33  C   UNL     1      -5.775  -1.422  -0.166  0.00  0.00    +0.034 C 
ATOM     34  C   UNL     1      -5.830  -0.917   1.267  0.00  0.00    +0.034 C 
ATOM     35  C   UNL     1      -3.351   1.118   1.241  0.00  0.00    +0.032 C 
ATOM     36  C   UNL     1      -4.958   2.704   0.228  0.00  0.00    +0.032 C 
ATOM     37  C   UNL     1      -4.831  -1.077  -2.455  0.00  0.00    +0.034 C 
BRANCH  32  38
ATOM     38  O   UNL     1      -5.878   1.086   2.607  0.00  0.00    -0.382 OA
ATOM     39  H   UNL     1      -5.901   2.056   2.604  0.00  0.00    +0.210 HD
ENDBRANCH  32  38
ENDBRANCH  27  31
ENDBRANCH   6  28
TORSDOF 8
