101419366
  -OEChem-03292013293D

 68 71  0     1  0  0  0  0  0999 V2000
   -4.5773    0.6249   -0.8288 O   0  0  0  0  0  0  0  0  0  0  0  0
   -5.8776    1.0859    2.6075 O   0  0  0  0  0  0  0  0  0  0  0  0
    2.4041   -0.6188    1.9752 O   0  0  0  0  0  0  0  0  0  0  0  0
    5.0366   -0.5608    0.9741 O   0  0  0  0  0  0  0  0  0  0  0  0
   -0.0301    0.5259   -0.1091 O   0  0  0  0  0  0  0  0  0  0  0  0
    5.0242   -3.2354    0.9253 O   0  0  0  0  0  0  0  0  0  0  0  0
    2.6409    4.9142   -1.1423 O   0  0  0  0  0  0  0  0  0  0  0  0
    2.8828   -3.3478    0.1170 N   0  0  0  0  0  0  0  0  0  0  0  0
   -4.6850    1.2090    0.4806 C   0  0  0  0  0  0  0  0  0  0  0  0
   -4.6112   -0.8038   -0.9591 C   0  0  1  0  0  0  0  0  0  0  0  0
   -5.8669    0.6066    1.2676 C   0  0  1  0  0  0  0  0  0  0  0  0
   -5.7750   -1.4218   -0.1662 C   0  0  0  0  0  0  0  0  0  0  0  0
   -5.8298   -0.9172    1.2671 C   0  0  0  0  0  0  0  0  0  0  0  0
   -3.3507    1.1177    1.2407 C   0  0  0  0  0  0  0  0  0  0  0  0
   -4.9581    2.7035    0.2275 C   0  0  0  0  0  0  0  0  0  0  0  0
   -4.8307   -1.0767   -2.4549 C   0  0  0  0  0  0  0  0  0  0  0  0
   -3.2819   -1.4057   -0.5975 C   0  0  0  0  0  0  0  0  0  0  0  0
    2.6168   -0.5141    0.5588 C   0  0  2  0  0  0  0  0  0  0  0  0
    1.4933   -1.3433   -0.0538 C   0  0  0  0  0  0  0  0  0  0  0  0
   -2.1228   -1.0273   -1.1575 C   0  0  0  0  0  0  0  0  0  0  0  0
    3.9836   -1.1676    0.2382 C   0  0  2  0  0  0  0  0  0  0  0  0
   -0.8011   -1.5944   -0.8410 C   0  0  0  0  0  0  0  0  0  0  0  0
    1.6724   -2.7256   -0.2353 C   0  0  0  0  0  0  0  0  0  0  0  0
    0.2319   -0.7955   -0.3456 C   0  0  0  0  0  0  0  0  0  0  0  0
    2.6239    0.9533    0.0986 C   0  0  0  0  0  0  0  0  0  0  0  0
    4.0217   -2.6676    0.4924 C   0  0  0  0  0  0  0  0  0  0  0  0
   -0.6009   -2.9585   -1.0288 C   0  0  0  0  0  0  0  0  0  0  0  0
    0.6310   -3.5279   -0.7162 C   0  0  0  0  0  0  0  0  0  0  0  0
    2.7661    1.2597   -1.2549 C   0  0  0  0  0  0  0  0  0  0  0  0
    2.4874    1.9782    1.0349 C   0  0  0  0  0  0  0  0  0  0  0  0
    2.7722    2.5906   -1.6719 C   0  0  0  0  0  0  0  0  0  0  0  0
    2.4934    3.3093    0.6180 C   0  0  0  0  0  0  0  0  0  0  0  0
    6.2838   -0.6961    0.3069 C   0  0  0  0  0  0  0  0  0  0  0  0
    2.6359    3.6155   -0.7353 C   0  0  0  0  0  0  0  0  0  0  0  0
    2.4971    5.9116   -0.1321 C   0  0  0  0  0  0  0  0  0  0  0  0
   -6.8086    0.9212    0.7986 H   0  0  0  0  0  0  0  0  0  0  0  0
   -5.7232   -2.5176   -0.1756 H   0  0  0  0  0  0  0  0  0  0  0  0
   -6.7257   -1.1509   -0.6455 H   0  0  0  0  0  0  0  0  0  0  0  0
   -6.7215   -1.3116    1.7695 H   0  0  0  0  0  0  0  0  0  0  0  0
   -4.9786   -1.2868    1.8504 H   0  0  0  0  0  0  0  0  0  0  0  0
   -2.5280    1.4764    0.6155 H   0  0  0  0  0  0  0  0  0  0  0  0
   -4.1506    3.1525   -0.3629 H   0  0  0  0  0  0  0  0  0  0  0  0
   -5.0583    3.2675    1.1607 H   0  0  0  0  0  0  0  0  0  0  0  0
   -5.8753    2.8375   -0.3579 H   0  0  0  0  0  0  0  0  0  0  0  0
   -3.1092    0.0973    1.5469 H   0  0  0  0  0  0  0  0  0  0  0  0
   -3.3656    1.7277    2.1509 H   0  0  0  0  0  0  0  0  0  0  0  0
   -4.0916   -0.5701   -3.0865 H   0  0  0  0  0  0  0  0  0  0  0  0
   -5.8023   -0.6808   -2.7763 H   0  0  0  0  0  0  0  0  0  0  0  0
   -4.8122   -2.1482   -2.6849 H   0  0  0  0  0  0  0  0  0  0  0  0
   -3.2730   -2.2009    0.1450 H   0  0  0  0  0  0  0  0  0  0  0  0
   -6.6449    0.6908    3.0554 H   0  0  0  0  0  0  0  0  0  0  0  0
   -2.1110   -0.2315   -1.8985 H   0  0  0  0  0  0  0  0  0  0  0  0
    4.1840   -1.0596   -0.8387 H   0  0  0  0  0  0  0  0  0  0  0  0
    2.9068   -4.3638    0.1243 H   0  0  0  0  0  0  0  0  0  0  0  0
   -1.3930   -3.5986   -1.4098 H   0  0  0  0  0  0  0  0  0  0  0  0
    0.7702   -4.5978   -0.8502 H   0  0  0  0  0  0  0  0  0  0  0  0
    2.2922   -1.5545    2.2147 H   0  0  0  0  0  0  0  0  0  0  0  0
    2.8670    0.4775   -2.0022 H   0  0  0  0  0  0  0  0  0  0  0  0
    2.3759    1.7744    2.0956 H   0  0  0  0  0  0  0  0  0  0  0  0
   -0.8146    0.8232   -0.5939 H   0  0  0  0  0  0  0  0  0  0  0  0
    2.8816    2.8231   -2.7276 H   0  0  0  0  0  0  0  0  0  0  0  0
    2.3832    4.0554    1.3975 H   0  0  0  0  0  0  0  0  0  0  0  0
    7.0571   -0.2736    0.9551 H   0  0  0  0  0  0  0  0  0  0  0  0
    6.2745   -0.1159   -0.6218 H   0  0  0  0  0  0  0  0  0  0  0  0
    6.5579   -1.7294    0.0870 H   0  0  0  0  0  0  0  0  0  0  0  0
    3.3344    5.8930    0.5738 H   0  0  0  0  0  0  0  0  0  0  0  0
    1.5274    5.8372    0.3717 H   0  0  0  0  0  0  0  0  0  0  0  0
    2.5231    6.8850   -0.6330 H   0  0  0  0  0  0  0  0  0  0  0  0
  1  9  1  0  0  0  0
  1 10  1  0  0  0  0
  2 11  1  0  0  0  0
  2 51  1  0  0  0  0
  3 18  1  0  0  0  0
  3 57  1  0  0  0  0
  4 21  1  0  0  0  0
  4 33  1  0  0  0  0
  5 24  1  0  0  0  0
  5 60  1  0  0  0  0
  6 26  2  0  0  0  0
  7 34  1  0  0  0  0
  7 35  1  0  0  0  0
  8 23  1  0  0  0  0
  8 26  1  0  0  0  0
  8 54  1  0  0  0  0
  9 11  1  0  0  0  0
  9 14  1  0  0  0  0
  9 15  1  0  0  0  0
 10 12  1  0  0  0  0
 10 16  1  0  0  0  0
 10 17  1  0  0  0  0
 11 13  1  0  0  0  0
 11 36  1  0  0  0  0
 12 13  1  0  0  0  0
 12 37  1  0  0  0  0
 12 38  1  0  0  0  0
 13 39  1  0  0  0  0
 13 40  1  0  0  0  0
 14 41  1  0  0  0  0
 14 45  1  0  0  0  0
 14 46  1  0  0  0  0
 15 42  1  0  0  0  0
 15 43  1  0  0  0  0
 15 44  1  0  0  0  0
 16 47  1  0  0  0  0
 16 48  1  0  0  0  0
 16 49  1  0  0  0  0
 17 20  2  0  0  0  0
 17 50  1  0  0  0  0
 18 19  1  0  0  0  0
 18 21  1  0  0  0  0
 18 25  1  0  0  0  0
 19 23  2  0  0  0  0
 19 24  1  0  0  0  0
 20 22  1  0  0  0  0
 20 52  1  0  0  0  0
 21 26  1  0  0  0  0
 21 53  1  0  0  0  0
 22 24  2  0  0  0  0
 22 27  1  0  0  0  0
 23 28  1  0  0  0  0
 25 29  2  0  0  0  0
 25 30  1  0  0  0  0
 27 28  2  0  0  0  0
 27 55  1  0  0  0  0
 28 56  1  0  0  0  0
 29 31  1  0  0  0  0
 29 58  1  0  0  0  0
 30 32  2  0  0  0  0
 30 59  1  0  0  0  0
 31 34  2  0  0  0  0
 31 61  1  0  0  0  0
 32 34  1  0  0  0  0
 32 62  1  0  0  0  0
 33 63  1  0  0  0  0
 33 64  1  0  0  0  0
 33 65  1  0  0  0  0
 35 66  1  0  0  0  0
 35 67  1  0  0  0  0
 35 68  1  0  0  0  0
M  END
> <PUBCHEM_COMPOUND_CID>
101419366

> <PUBCHEM_CONFORMER_RMSD>
1

> <PUBCHEM_CONFORMER_DIVERSEORDER>
3
7
32
23
16
19
25
21
30
4
34
9
28
10
1
27
6
11
20
12
2
8
13
31
18
29
17
22
5
24
14
26
33
15

> <PUBCHEM_MMFF94_PARTIAL_CHARGES>
42
1 -0.56
10 0.42
11 0.28
17 -0.29
18 0.57
19 -0.14
2 -0.68
20 -0.18
21 0.34
22 0.03
23 0.12
24 0.08
25 -0.14
26 0.57
27 -0.15
28 -0.15
29 -0.15
3 -0.68
30 -0.15
31 -0.15
32 -0.15
33 0.28
34 0.08
35 0.28
4 -0.56
5 -0.53
50 0.15
51 0.4
52 0.15
54 0.37
55 0.15
56 0.15
57 0.4
58 0.15
59 0.15
6 -0.57
60 0.45
61 0.15
62 0.15
7 -0.36
8 -0.55
9 0.28

> <PUBCHEM_EFFECTIVE_ROTOR_COUNT>
6.8

> <PUBCHEM_PHARMACOPHORE_FEATURES>
15
1 1 acceptor
1 2 acceptor
1 2 donor
1 3 acceptor
1 3 donor
1 4 acceptor
1 5 donor
1 6 acceptor
1 7 acceptor
1 8 donor
3 9 14 15 hydrophobe
6 1 9 10 11 12 13 rings
6 19 22 23 24 27 28 rings
6 25 29 30 31 32 34 rings
6 8 18 19 21 23 26 rings

> <PUBCHEM_HEAVY_ATOM_COUNT>
35

> <PUBCHEM_ATOM_DEF_STEREO_COUNT>
4

> <PUBCHEM_ATOM_UDEF_STEREO_COUNT>
0

> <PUBCHEM_BOND_DEF_STEREO_COUNT>
1

> <PUBCHEM_BOND_UDEF_STEREO_COUNT>
0

> <PUBCHEM_ISOTOPIC_ATOM_COUNT>
0

> <PUBCHEM_COMPONENT_COUNT>
1

> <PUBCHEM_CACTVS_TAUTO_COUNT>
29

> <PUBCHEM_CONFORMER_ID>
060B896600000003

> <PUBCHEM_MMFF94_ENERGY>
136.0116

> <PUBCHEM_FEATURE_SELFOVERLAP>
76.16

> <PUBCHEM_SHAPE_FINGERPRINT>
10937287 8 17904763632750062972
11059048 146 18051979408929571605
11545043 162 16805321059632373359
12166972 35 18342452642767361386
12422481 6 18269267959259360287
13583140 156 17604133858066932223
13590594 115 18264204716977576536
13782708 43 16371004057812904770
14020679 6 18040716991368235402
14790565 3 18339923813658565284
14849402 71 18410015467878585926
14950920 106 18186807976559238147
14955137 171 18337113358948412398
15001296 14 18266745860337897861
15021287 119 18410566267285507727
15081414 286 18340202999476158350
151778 21 18411141376354452653
15475509 8 18201452341896730502
1601671 61 18339354176557374886
16993438 75 17613147482208048917
20739085 24 18268427945519435366
24771293 8 18272356604287642482
249057 25 18130782395936466055
3178227 256 18335423482448962402
338550 245 18343302548270909131
350125 39 18411979161133081366
38570 142 18194702568156054756
58083652 198 18189318114034249498
6086070 43 17899105292737447111
6201320 215 15745293314980469212
6371009 1 18270947021279468975

> <PUBCHEM_SHAPE_MULTIPOLES>
674.22
14.13
5.72
1.62
15.1
6.82
-0.04
0.25
-4.02
-8.25
1.13
1.64
0.27
-3.08

> <PUBCHEM_SHAPE_SELFOVERLAP>
1458.794

> <PUBCHEM_SHAPE_VOLUME>
368

> <PUBCHEM_COORDINATE_TYPE>
2
5
10

$$$$
