REMARK  Name = 101412352
REMARK  9 active torsions:
REMARK  status: ('A' for Active; 'I' for Inactive)
REMARK    1  A    between atoms: C_4  and  O_18
REMARK    2  A    between atoms: C_10  and  O_20
REMARK    3  A    between atoms: C_16  and  C_29
REMARK    4  A    between atoms: O_20  and  C_22
REMARK    5  A    between atoms: C_22  and  C_23
REMARK    6  A    between atoms: C_25  and  C_26
REMARK    7  A    between atoms: C_26  and  O_27
REMARK    8  A    between atoms: C_29  and  O_30
REMARK    9  A    between atoms: O_30  and  C_32
REMARK                            x       y       z     vdW  Elec       q    Type
REMARK                         _______ _______ _______ _____ _____    ______ ____
ROOT
ATOM      1  O   UNL     1       2.598   0.086  -0.290  0.00  0.00    -0.335 OA
ATOM      2  O   UNL     1      -0.214  -1.738   2.573  0.00  0.00    -0.422 OA
ATOM      3  O   UNL     1      -2.231  -2.822   2.614  0.00  0.00    -0.245 OA
ATOM      4  C   UNL     1       3.145  -1.061  -0.948  0.00  0.00    +0.184 C 
ATOM      5  C   UNL     1       2.854   0.022   1.105  0.00  0.00    +0.117 C 
ATOM      6  C   UNL     1       1.986  -1.958  -1.450  0.00  0.00    +0.055 C 
ATOM      7  C   UNL     1       4.022  -1.786   0.082  0.00  0.00    +0.059 C 
ATOM      8  C   UNL     1       4.167  -0.758   1.187  0.00  0.00    +0.037 C 
ATOM      9  C   UNL     1       0.774  -1.160  -1.991  0.00  0.00    +0.053 C 
ATOM     10  C   UNL     1      -0.098  -0.390  -0.964  0.00  0.00    +0.194 C 
ATOM     11  C   UNL     1       1.726  -0.654   1.857  0.00  0.00    +0.038 C 
ATOM     12  C   UNL     1       3.020   1.447   1.629  0.00  0.00    +0.034 C 
ATOM     13  C   UNL     1       2.469  -2.956  -2.513  0.00  0.00    +0.005 C 
ATOM     14  C   UNL     1      -0.341  -1.067   0.360  0.00  0.00    +0.057 C 
ATOM     15  C   UNL     1       0.489  -1.080   1.545  0.00  0.00    +0.146 C 
ATOM     16  C   UNL     1      -1.465  -1.745   0.626  0.00  0.00    +0.100 C 
ATOM     17  C   UNL     1      -1.379  -2.177   2.024  0.00  0.00    +0.345 C 
ENDROOT
BRANCH   4  18
ATOM     18  O   UNL     1       3.930  -0.620  -2.053  0.00  0.00    -0.364 OA
ATOM     19  H   UNL     1       3.361  -0.165  -2.693  0.00  0.00    +0.213 HD
ENDBRANCH   4  18
BRANCH  10  20
ATOM     20  O   UNL     1       0.327   0.956  -0.762  0.00  0.00    -0.445 OA
BRANCH  20  22
ATOM     21  O   UNL     1      -1.867   1.638  -0.598  0.00  0.00    -0.245 OA
ATOM     22  C   UNL     1      -0.667   1.875  -0.591  0.00  0.00    +0.337 C 
BRANCH  22  23
ATOM     23  C   UNL     1      -0.069   3.231  -0.399  0.00  0.00    +0.052 C 
ATOM     24  C   UNL     1       1.262   3.516  -1.028  0.00  0.00    +0.038 C 
ATOM     25  C   UNL     1      -0.781   4.084   0.361  0.00  0.00    +0.007 C 
BRANCH  25  26
ATOM     26  C   UNL     1      -0.427   5.497   0.707  0.00  0.00    +0.163 C 
BRANCH  26  27
ATOM     27  O   UNL     1      -1.453   6.352   0.216  0.00  0.00    -0.377 OA
ATOM     28  H   UNL     1      -1.238   7.273   0.432  0.00  0.00    +0.211 HD
ENDBRANCH  26  27
ENDBRANCH  25  26
ENDBRANCH  22  23
ENDBRANCH  20  22
ENDBRANCH  10  20
BRANCH  16  29
ATOM     29  C   UNL     1      -2.648  -2.083  -0.204  0.00  0.00    +0.241 C 
BRANCH  29  30
ATOM     30  O   UNL     1      -3.629  -1.061  -0.102  0.00  0.00    -0.443 OA
BRANCH  30  32
ATOM     31  O   UNL     1      -5.016  -2.222  -1.540  0.00  0.00    -0.250 OA
ATOM     32  C   UNL     1      -4.773  -1.258  -0.827  0.00  0.00    +0.318 C 
ATOM     33  C   UNL     1      -5.711  -0.106  -0.624  0.00  0.00    +0.121 C 
ENDBRANCH  30  32
ENDBRANCH  29  30
ENDBRANCH  16  29
TORSDOF 9
