101404442
  -OEChem-03292013293D

 62 62  0     1  0  0  0  0  0999 V2000
    5.2680    1.5866   -1.1025 O   0  0  0  0  0  0  0  0  0  0  0  0
    2.6543    2.4372   -1.2948 O   0  0  0  0  0  0  0  0  0  0  0  0
    2.5812   -1.6704   -0.8314 O   0  0  0  0  0  0  0  0  0  0  0  0
   -0.5366   -0.1057    0.1995 O   0  0  0  0  0  0  0  0  0  0  0  0
    4.4367   -0.0863    2.0221 O   0  0  0  0  0  0  0  0  0  0  0  0
    3.1220   -2.5340    1.2366 O   0  0  0  0  0  0  0  0  0  0  0  0
   -1.5108    0.7723   -1.7025 O   0  0  0  0  0  0  0  0  0  0  0  0
   -5.7411    1.9734    0.6876 O   0  0  0  0  0  0  0  0  0  0  0  0
    4.3701    1.2975   -0.0055 C   0  0  1  0  0  0  0  0  0  0  0  0
    2.9463    1.1948   -0.6314 C   0  0  1  0  0  0  0  0  0  0  0  0
    1.7586    0.8187    0.3129 C   0  0  2  0  0  0  0  0  0  0  0  0
    4.9420    0.0199    0.6911 C   0  0  2  0  0  0  0  0  0  0  0  0
    0.7417   -0.1065   -0.4402 C   0  0  1  0  0  0  0  0  0  0  0  0
    4.7832   -1.3278   -0.0651 C   0  0  2  0  0  0  0  0  0  0  0  0
    1.1818   -1.5907   -0.5186 C   0  0  1  0  0  0  0  0  0  0  0  0
    4.5072    2.5070    0.9344 C   0  0  0  0  0  0  0  0  0  0  0  0
    1.0531    2.0582    0.8908 C   0  0  0  0  0  0  0  0  0  0  0  0
    3.4230   -1.9510    0.2025 C   0  0  0  0  0  0  0  0  0  0  0  0
    5.8570   -2.3378    0.3566 C   0  0  0  0  0  0  0  0  0  0  0  0
    0.4198   -2.3414   -1.6068 C   0  0  0  0  0  0  0  0  0  0  0  0
   -1.5688    0.3614   -0.5544 C   0  0  0  0  0  0  0  0  0  0  0  0
   -2.7955    0.2850    0.2677 C   0  0  0  0  0  0  0  0  0  0  0  0
   -3.9680    0.6873   -0.2408 C   0  0  0  0  0  0  0  0  0  0  0  0
   -5.2593    0.6399    0.5291 C   0  0  2  0  0  0  0  0  0  0  0  0
   -6.3072   -0.2148   -0.1963 C   0  0  0  0  0  0  0  0  0  0  0  0
   -7.6445   -0.2429    0.5522 C   0  0  0  0  0  0  0  0  0  0  0  0
   -8.6884   -1.0612   -0.2081 C   0  0  0  0  0  0  0  0  0  0  0  0
  -10.0257   -1.0684    0.5152 C   0  0  0  0  0  0  0  0  0  0  0  0
    3.0245    0.4858   -1.4602 H   0  0  0  0  0  0  0  0  0  0  0  0
    2.1122    0.2532    1.1739 H   0  0  0  0  0  0  0  0  0  0  0  0
    6.0214    0.1876    0.8074 H   0  0  0  0  0  0  0  0  0  0  0  0
    0.6779    0.2772   -1.4667 H   0  0  0  0  0  0  0  0  0  0  0  0
    4.9075   -1.1697   -1.1433 H   0  0  0  0  0  0  0  0  0  0  0  0
    0.9586   -2.0852    0.4354 H   0  0  0  0  0  0  0  0  0  0  0  0
    4.2428    3.4421    0.4285 H   0  0  0  0  0  0  0  0  0  0  0  0
    5.5470    2.6293    1.2616 H   0  0  0  0  0  0  0  0  0  0  0  0
    3.8883    2.4081    1.8299 H   0  0  0  0  0  0  0  0  0  0  0  0
    0.4866    2.5948    0.1224 H   0  0  0  0  0  0  0  0  0  0  0  0
    1.7598    2.7593    1.3398 H   0  0  0  0  0  0  0  0  0  0  0  0
    0.3496    1.7694    1.6795 H   0  0  0  0  0  0  0  0  0  0  0  0
    6.1626    1.7134   -0.7433 H   0  0  0  0  0  0  0  0  0  0  0  0
    5.8332   -2.5246    1.4359 H   0  0  0  0  0  0  0  0  0  0  0  0
    6.8558   -1.9711    0.0982 H   0  0  0  0  0  0  0  0  0  0  0  0
    5.7085   -3.2982   -0.1494 H   0  0  0  0  0  0  0  0  0  0  0  0
    1.8381    2.3103   -1.8078 H   0  0  0  0  0  0  0  0  0  0  0  0
    0.7669   -3.3789   -1.6638 H   0  0  0  0  0  0  0  0  0  0  0  0
   -0.6572   -2.3484   -1.4167 H   0  0  0  0  0  0  0  0  0  0  0  0
    0.6013   -1.8964   -2.5913 H   0  0  0  0  0  0  0  0  0  0  0  0
    3.6317   -0.6226    2.0445 H   0  0  0  0  0  0  0  0  0  0  0  0
   -2.7207   -0.1046    1.2773 H   0  0  0  0  0  0  0  0  0  0  0  0
   -4.0211    1.0803   -1.2535 H   0  0  0  0  0  0  0  0  0  0  0  0
   -5.1007    0.2311    1.5344 H   0  0  0  0  0  0  0  0  0  0  0  0
   -5.9326   -1.2381   -0.3239 H   0  0  0  0  0  0  0  0  0  0  0  0
   -6.4835    0.1966   -1.1990 H   0  0  0  0  0  0  0  0  0  0  0  0
   -7.4963   -0.6694    1.5517 H   0  0  0  0  0  0  0  0  0  0  0  0
   -8.0200    0.7782    0.6886 H   0  0  0  0  0  0  0  0  0  0  0  0
   -8.3374   -2.0927   -0.3278 H   0  0  0  0  0  0  0  0  0  0  0  0
   -8.8275   -0.6468   -1.2134 H   0  0  0  0  0  0  0  0  0  0  0  0
   -5.0701    2.4732    1.1837 H   0  0  0  0  0  0  0  0  0  0  0  0
  -10.4207   -0.0528    0.6202 H   0  0  0  0  0  0  0  0  0  0  0  0
   -9.9287   -1.5047    1.5145 H   0  0  0  0  0  0  0  0  0  0  0  0
  -10.7562   -1.6606   -0.0447 H   0  0  0  0  0  0  0  0  0  0  0  0
  1  9  1  0  0  0  0
  1 41  1  0  0  0  0
  2 10  1  0  0  0  0
  2 45  1  0  0  0  0
  3 15  1  0  0  0  0
  3 18  1  0  0  0  0
  4 13  1  0  0  0  0
  4 21  1  0  0  0  0
  5 12  1  0  0  0  0
  5 49  1  0  0  0  0
  6 18  2  0  0  0  0
  7 21  2  0  0  0  0
  8 24  1  0  0  0  0
  8 59  1  0  0  0  0
  9 10  1  0  0  0  0
  9 12  1  0  0  0  0
  9 16  1  0  0  0  0
 10 11  1  0  0  0  0
 10 29  1  0  0  0  0
 11 13  1  0  0  0  0
 11 17  1  0  0  0  0
 11 30  1  0  0  0  0
 12 14  1  0  0  0  0
 12 31  1  0  0  0  0
 13 15  1  0  0  0  0
 13 32  1  0  0  0  0
 14 18  1  0  0  0  0
 14 19  1  0  0  0  0
 14 33  1  0  0  0  0
 15 20  1  0  0  0  0
 15 34  1  0  0  0  0
 16 35  1  0  0  0  0
 16 36  1  0  0  0  0
 16 37  1  0  0  0  0
 17 38  1  0  0  0  0
 17 39  1  0  0  0  0
 17 40  1  0  0  0  0
 19 42  1  0  0  0  0
 19 43  1  0  0  0  0
 19 44  1  0  0  0  0
 20 46  1  0  0  0  0
 20 47  1  0  0  0  0
 20 48  1  0  0  0  0
 21 22  1  0  0  0  0
 22 23  2  0  0  0  0
 22 50  1  0  0  0  0
 23 24  1  0  0  0  0
 23 51  1  0  0  0  0
 24 25  1  0  0  0  0
 24 52  1  0  0  0  0
 25 26  1  0  0  0  0
 25 53  1  0  0  0  0
 25 54  1  0  0  0  0
 26 27  1  0  0  0  0
 26 55  1  0  0  0  0
 26 56  1  0  0  0  0
 27 28  1  0  0  0  0
 27 57  1  0  0  0  0
 27 58  1  0  0  0  0
 28 60  1  0  0  0  0
 28 61  1  0  0  0  0
 28 62  1  0  0  0  0
M  END
> <PUBCHEM_COMPOUND_CID>
101404442

> <PUBCHEM_CONFORMER_RMSD>
1

> <PUBCHEM_CONFORMER_DIVERSEORDER>
1
89
83
81
107
99
25
80
54
47
9
18
101
87
93
100
49
27
91
103
95
50
97
74
98
6
67
48
108
88
32
62
77
68
33
37
51
20
105
94
65
5
79
16
36
60
76
43
34
86
84
14
13
85
69
28
66
75
46
31
29
82
19
61
24
106
64
10
35
102
42
58
26
12
72
96
38
57
40
59
70
71
3
90
4
11
21
45
73
7
15
2
55
23
104
52
8
41
56
22
39
44
17
63
78
30
53
92

> <PUBCHEM_MMFF94_PARTIAL_CHARGES>
25
1 -0.68
10 0.28
12 0.28
13 0.28
14 0.06
15 0.28
18 0.66
2 -0.68
21 0.71
22 -0.14
23 -0.29
24 0.42
3 -0.43
4 -0.43
41 0.4
45 0.4
49 0.4
5 -0.68
50 0.15
51 0.15
59 0.4
6 -0.57
7 -0.57
8 -0.68
9 0.28

> <PUBCHEM_EFFECTIVE_ROTOR_COUNT>
8.6

> <PUBCHEM_PHARMACOPHORE_FEATURES>
11
1 1 acceptor
1 1 donor
1 2 acceptor
1 2 donor
1 28 hydrophobe
1 5 acceptor
1 5 donor
1 6 acceptor
1 7 acceptor
1 8 acceptor
1 8 donor

> <PUBCHEM_HEAVY_ATOM_COUNT>
28

> <PUBCHEM_ATOM_DEF_STEREO_COUNT>
7

> <PUBCHEM_ATOM_UDEF_STEREO_COUNT>
1

> <PUBCHEM_BOND_DEF_STEREO_COUNT>
1

> <PUBCHEM_BOND_UDEF_STEREO_COUNT>
0

> <PUBCHEM_ISOTOPIC_ATOM_COUNT>
0

> <PUBCHEM_COMPONENT_COUNT>
1

> <PUBCHEM_CACTVS_TAUTO_COUNT>
2

> <PUBCHEM_CONFORMER_ID>
060B4F1A00000001

> <PUBCHEM_MMFF94_ENERGY>
82.1988

> <PUBCHEM_FEATURE_SELFOVERLAP>
55.838

> <PUBCHEM_SHAPE_FINGERPRINT>
10165383 225 18335705005245430380
10299344 5 18201441394288674043
10411042 1 18196092128438559574
11719270 70 18273495659252570999
11724838 91 18412823598990540519
12236239 1 17632290155571631757
13140716 1 18340193181745278930
13533116 47 18411136922494498368
13617811 41 15357696379748773863
13782708 43 18041279859954121515
14170010 4 18409166623305994929
14251764 18 18131070446766348467
15475509 35 17168411659465568274
15510794 2 18187367654549757683
18222031 100 12324237239865136324
19377110 9 17917720080746235163
20157964 124 18334015012232223105
20609170 109 15871909165778036378
20771845 140 17060337396615974982
21267235 1 18341896234750985526
22149856 69 17417545627185255947
23559900 14 16805904938618348318
34797466 226 17346607391286144285
4073 2 18114470058443191827
4325135 7 18411420635634310919
4340502 62 18201439194468794879
439807 62 18413109460057067641
465052 167 18337390435984490214
59521120 56 16415190248411652415

> <PUBCHEM_SHAPE_MULTIPOLES>
529.27
22.03
2.64
1.22
64.34
0.26
-0.06
4.9
5.31
-4.15
-0.01
-0.99
-0.01
-0.61

> <PUBCHEM_SHAPE_SELFOVERLAP>
1050.333

> <PUBCHEM_SHAPE_VOLUME>
311.5

> <PUBCHEM_COORDINATE_TYPE>
2
5
10

$$$$
