REMARK  Name = 101424435
REMARK  7 active torsions:
REMARK  status: ('A' for Active; 'I' for Inactive)
REMARK    1  A    between atoms: C_5  and  O_28
REMARK    2  A    between atoms: C_8  and  O_30
REMARK    3  A    between atoms: C_11  and  O_32
REMARK    4  A    between atoms: C_12  and  O_36
REMARK    5  A    between atoms: C_13  and  C_23
REMARK    6  A    between atoms: C_20  and  O_34
REMARK    7  A    between atoms: O_36  and  C_38
REMARK                            x       y       z     vdW  Elec       q    Type
REMARK                         _______ _______ _______ _____ _____    ______ ____
ROOT
ATOM      1  O   UNL     1      -1.640   0.177   2.514  0.00  0.00    -0.333 OA
ATOM      2  C   UNL     1      -1.026  -0.094   0.321  0.00  0.00    +0.040 C 
ATOM      3  C   UNL     1      -2.530  -0.438   0.345  0.00  0.00    +0.113 C 
ATOM      4  C   UNL     1      -0.102  -0.887  -0.595  0.00  0.00    +0.027 C 
ATOM      5  C   UNL     1       1.322  -0.264  -0.557  0.00  0.00    +0.089 C 
ATOM      6  C   UNL     1       1.866  -0.064   0.916  0.00  0.00    +0.029 C 
ATOM      7  C   UNL     1      -0.546  -0.292   1.737  0.00  0.00    +0.118 C 
ATOM      8  C   UNL     1      -2.793  -1.759  -0.442  0.00  0.00    +0.098 C 
ATOM      9  C   UNL     1       0.764   0.463   1.910  0.00  0.00    +0.032 C 
ATOM     10  C   UNL     1      -0.767  -1.034  -1.960  0.00  0.00    +0.005 C 
ATOM     11  C   UNL     1      -2.812  -0.414   1.895  0.00  0.00    +0.237 C 
ATOM     12  C   UNL     1      -3.349   0.714  -0.340  0.00  0.00    +0.178 C 
ATOM     13  C   UNL     1       2.955   1.036   0.731  0.00  0.00    +0.028 C 
ATOM     14  C   UNL     1      -2.151  -1.716  -1.865  0.00  0.00    +0.027 C 
ATOM     15  C   UNL     1       1.454   1.126  -1.221  0.00  0.00    +0.027 C 
ATOM     16  C   UNL     1       2.326   1.986  -0.297  0.00  0.00    +0.007 C 
ATOM     17  C   UNL     1      -4.301  -2.068  -0.530  0.00  0.00    +0.057 C 
ATOM     18  C   UNL     1       2.446  -1.365   1.515  0.00  0.00    +0.003 C 
ATOM     19  C   UNL     1      -4.846   0.399  -0.410  0.00  0.00    +0.073 C 
ATOM     20  C   UNL     1      -5.129  -0.924  -1.110  0.00  0.00    +0.116 C 
ENDROOT
BRANCH  13  23
ATOM     21  O   UNL     1       5.852  -0.043  -1.500  0.00  0.00    -0.418 OA
ATOM     22  O   UNL     1       7.949  -0.726  -0.947  0.00  0.00    -0.244 OA
ATOM     23  C   UNL     1       4.294   0.562   0.245  0.00  0.00    +0.015 C 
ATOM     24  C   UNL     1       5.312   0.261   1.217  0.00  0.00    +0.006 C 
ATOM     25  C   UNL     1       4.601   0.400  -1.046  0.00  0.00    +0.179 C 
ATOM     26  C   UNL     1       6.521  -0.164   0.837  0.00  0.00    +0.082 C 
ATOM     27  C   UNL     1       6.840  -0.336  -0.596  0.00  0.00    +0.346 C 
ENDBRANCH  13  23
BRANCH   5  28
ATOM     28  O   UNL     1       2.203  -1.153  -1.260  0.00  0.00    -0.387 OA
ATOM     29  H   UNL     1       2.147  -2.039  -0.870  0.00  0.00    +0.210 HD
ENDBRANCH   5  28
BRANCH   8  30
ATOM     30  O   UNL     1      -2.184  -2.861   0.248  0.00  0.00    -0.386 OA
ATOM     31  H   UNL     1      -1.230  -2.706   0.325  0.00  0.00    +0.210 HD
ENDBRANCH   8  30
BRANCH  11  32
ATOM     32  O   UNL     1      -3.052  -1.707   2.433  0.00  0.00    -0.360 OA
ATOM     33  H   UNL     1      -3.219  -1.635   3.386  0.00  0.00    +0.213 HD
ENDBRANCH  11  32
BRANCH  20  34
ATOM     34  O   UNL     1      -6.515  -1.235  -0.998  0.00  0.00    -0.384 OA
ATOM     35  H   UNL     1      -6.695  -2.078  -1.444  0.00  0.00    +0.210 HD
ENDBRANCH  20  34
BRANCH  12  36
ATOM     36  O   UNL     1      -3.180   1.948   0.362  0.00  0.00    -0.452 OA
BRANCH  36  38
ATOM     37  O   UNL     1      -3.457   3.118  -1.611  0.00  0.00    -0.250 OA
ATOM     38  C   UNL     1      -3.259   3.074  -0.404  0.00  0.00    +0.317 C 
ATOM     39  C   UNL     1      -3.064   4.283   0.459  0.00  0.00    +0.121 C 
ENDBRANCH  36  38
ENDBRANCH  12  36
TORSDOF 7
