REMARK  Name = 101462359
REMARK  5 active torsions:
REMARK  status: ('A' for Active; 'I' for Inactive)
REMARK    1  A    between atoms: C_6  and  O_24
REMARK    2  A    between atoms: C_11  and  O_26
REMARK    3  A    between atoms: C_16  and  O_28
REMARK    4  A    between atoms: C_19  and  C_30
REMARK    5  A    between atoms: C_30  and  O_32
REMARK                            x       y       z     vdW  Elec       q    Type
REMARK                         _______ _______ _______ _____ _____    ______ ____
ROOT
ATOM      1  O   UNL     1       3.317   0.575  -1.044  0.00  0.00    -0.351 OA
ATOM      2  O   UNL     1      -1.976   0.947   0.159  0.00  0.00    -0.450 OA
ATOM      3  O   UNL     1       1.323  -3.535   1.302  0.00  0.00    -0.296 OA
ATOM      4  O   UNL     1      -1.959   0.985  -2.147  0.00  0.00    -0.250 OA
ATOM      5  C   UNL     1       3.027   0.425   0.351  0.00  0.00    +0.145 C 
ATOM      6  C   UNL     1       2.551   1.677   1.061  0.00  0.00    +0.140 C 
ATOM      7  C   UNL     1       4.450   0.462  -0.179  0.00  0.00    +0.171 C 
ATOM      8  C   UNL     1       2.480  -0.914   0.798  0.00  0.00    +0.039 C 
ATOM      9  C   UNL     1       1.045   2.033   0.857  0.00  0.00    +0.057 C 
ATOM     10  C   UNL     1       2.078  -1.909  -0.308  0.00  0.00    +0.060 C 
ATOM     11  C   UNL     1       0.696   2.353  -0.628  0.00  0.00    +0.123 C 
ATOM     12  C   UNL     1       1.062  -2.898   0.277  0.00  0.00    +0.152 C 
ATOM     13  C   UNL     1       0.681   3.204   1.793  0.00  0.00    +0.005 C 
ATOM     14  C   UNL     1      -0.263  -3.136  -0.457  0.00  0.00    +0.085 C 
ATOM     15  C   UNL     1      -0.789   2.708  -0.898  0.00  0.00    +0.126 C 
ATOM     16  C   UNL     1      -1.093  -1.842  -0.642  0.00  0.00    +0.121 C 
ATOM     17  C   UNL     1       3.265  -2.706  -0.850  0.00  0.00    +0.008 C 
ATOM     18  C   UNL     1      -2.089  -1.507   0.510  0.00  0.00    +0.070 C 
ATOM     19  C   UNL     1      -2.870  -0.193   0.200  0.00  0.00    +0.198 C 
ATOM     20  C   UNL     1      -1.634   1.452  -1.063  0.00  0.00    +0.319 C 
ATOM     21  C   UNL     1       0.052  -3.867  -1.766  0.00  0.00    +0.010 C 
ATOM     22  C   UNL     1      -0.967   3.570  -2.159  0.00  0.00    +0.014 C 
ATOM     23  C   UNL     1      -1.411  -1.460   1.882  0.00  0.00    +0.006 C 
ENDROOT
BRANCH   6  24
ATOM     24  O   UNL     1       2.845   1.521   2.455  0.00  0.00    -0.382 OA
ATOM     25  H   UNL     1       3.783   1.300   2.564  0.00  0.00    +0.210 HD
ENDBRANCH   6  24
BRANCH  11  26
ATOM     26  O   UNL     1       1.522   3.431  -1.077  0.00  0.00    -0.384 OA
ATOM     27  H   UNL     1       2.453   3.215  -0.911  0.00  0.00    +0.210 HD
ENDBRANCH  11  26
BRANCH  16  28
ATOM     28  O   UNL     1      -1.844  -1.935  -1.859  0.00  0.00    -0.384 OA
ATOM     29  H   UNL     1      -1.246  -2.143  -2.593  0.00  0.00    +0.210 HD
ENDBRANCH  16  28
BRANCH  19  30
ATOM     30  C   UNL     1      -3.944   0.130   1.238  0.00  0.00    +0.150 C 
ATOM     31  C   UNL     1      -4.705   1.393   0.878  0.00  0.00    +0.036 C 
BRANCH  30  32
ATOM     32  O   UNL     1      -4.849  -0.963   1.318  0.00  0.00    -0.381 OA
ATOM     33  H   UNL     1      -4.361  -1.770   1.548  0.00  0.00    +0.210 HD
ENDBRANCH  30  32
ENDBRANCH  19  30
TORSDOF 5
