REMARK  Name = 101465619
REMARK  8 active torsions:
REMARK  status: ('A' for Active; 'I' for Inactive)
REMARK    1  A    between atoms: C_1  and  N_3
REMARK    2  A    between atoms: C_1  and  C_14
REMARK    3  A    between atoms: C_4  and  C_9
REMARK    4  A    between atoms: C_14  and  C_15
REMARK    5  A    between atoms: C_15  and  C_16
REMARK    6  A    between atoms: C_16  and  C_17
REMARK    7  A    between atoms: C_17  and  N_18
REMARK    8  A    between atoms: N_18  and  C_21
REMARK                            x       y       z     vdW  Elec       q    Type
REMARK                         _______ _______ _______ _____ _____    ______ ____
ROOT
ATOM      1  C   UNL     1       0.228  -3.216  -0.111  0.00  0.00    +0.094 C 
ENDROOT
BRANCH   1   3
ATOM      2  O   UNL     1      -1.213  -1.744   1.937  0.00  0.00    -0.269 OA
ATOM      3  N   UNL     1      -0.681  -2.124  -0.330  0.00  0.00    -0.273 N 
ATOM      4  C   UNL     1      -1.333  -1.474   0.742  0.00  0.00    +0.263 C 
ATOM      5  C   UNL     1      -0.897  -1.720  -1.723  0.00  0.00    +0.115 C 
BRANCH   4   9
ATOM      6 BR   UNL     1      -2.910   3.272  -1.261  0.00  0.00    -0.032 Br
ATOM      7 BR   UNL     1      -5.819   1.562   0.296  0.00  0.00    -0.047 Br
ATOM      8  N   UNL     1      -1.877   0.763  -0.251  0.00  0.00    -0.303 N 
ATOM      9  C   UNL     1      -2.255  -0.375   0.412  0.00  0.00    +0.104 C 
ATOM     10  C   UNL     1      -3.601  -0.277   0.686  0.00  0.00    +0.028 C 
ATOM     11  C   UNL     1      -2.962   1.587  -0.404  0.00  0.00    +0.090 C 
ATOM     12  C   UNL     1      -4.048   0.964   0.170  0.00  0.00    +0.056 C 
ATOM     13  H   UNL     1      -0.966   0.959  -0.569  0.00  0.00    +0.153 HD
ENDBRANCH   4   9
ENDBRANCH   1   3
BRANCH   1  14
ATOM     14  C   UNL     1       1.631  -2.923  -0.632  0.00  0.00    +0.022 C 
BRANCH  14  15
ATOM     15  C   UNL     1       2.253  -1.685   0.023  0.00  0.00    +0.004 C 
BRANCH  15  16
ATOM     16  C   UNL     1       3.636  -1.384  -0.564  0.00  0.00    +0.026 C 
BRANCH  16  17
ATOM     17  C   UNL     1       4.277  -0.148   0.057  0.00  0.00    +0.129 C 
BRANCH  17  18
ATOM     18  N   UNL     1       3.446   1.028  -0.206  0.00  0.00    -0.240 NA
BRANCH  18  21
ATOM     19  N   UNL     1       3.171   3.318   0.020  0.00  0.00    -0.370 N 
ATOM     20  N   UNL     1       5.062   2.410   0.911  0.00  0.00    -0.370 N 
ATOM     21  C   UNL     1       3.892   2.166   0.227  0.00  0.00    +0.189 C 
ATOM     22  H   UNL     1       2.311   3.282  -0.459  0.00  0.00    +0.159 HD
ATOM     23  H   UNL     1       3.514   4.180   0.351  0.00  0.00    +0.159 HD
ATOM     24  H   UNL     1       5.672   1.667   1.125  0.00  0.00    +0.159 HD
ATOM     25  H   UNL     1       5.289   3.328   1.187  0.00  0.00    +0.159 HD
ENDBRANCH  18  21
ENDBRANCH  17  18
ENDBRANCH  16  17
ENDBRANCH  15  16
ENDBRANCH  14  15
ENDBRANCH   1  14
TORSDOF 8
