101463298
  -OEChem-03292013293D

 61 65  0     1  0  0  0  0  0999 V2000
   -2.9846    2.0918    1.5783 O   0  0  0  0  0  0  0  0  0  0  0  0
   -4.6079   -2.6489    0.5458 O   0  0  0  0  0  0  0  0  0  0  0  0
   -0.1255   -1.9121    0.3542 O   0  0  0  0  0  0  0  0  0  0  0  0
    5.5985    0.8404    0.8141 O   0  0  0  0  0  0  0  0  0  0  0  0
   -4.4693    0.7225    0.4111 N   0  0  0  0  0  0  0  0  0  0  0  0
   -2.7971   -1.2249    0.9176 N   0  0  0  0  0  0  0  0  0  0  0  0
    2.0589   -1.8949   -1.1491 N   0  0  0  0  0  0  0  0  0  0  0  0
   -4.5540   -0.4280   -0.4817 C   0  0  2  0  0  0  0  0  0  0  0  0
   -2.1873    0.0445    0.4770 C   0  0  1  0  0  0  0  0  0  0  0  0
   -2.1325    0.0222   -1.0826 C   0  0  1  0  0  0  0  0  0  0  0  0
   -3.5645   -0.2456   -1.6436 C   0  0  0  0  0  0  0  0  0  0  0  0
   -6.0251   -0.4897   -0.8859 C   0  0  0  0  0  0  0  0  0  0  0  0
   -3.2316    1.0860    0.9259 C   0  0  0  0  0  0  0  0  0  0  0  0
   -5.7491    1.3605    0.6270 C   0  0  0  0  0  0  0  0  0  0  0  0
   -4.0492   -1.5705    0.3967 C   0  0  0  0  0  0  0  0  0  0  0  0
   -6.7416    0.2721    0.2378 C   0  0  0  0  0  0  0  0  0  0  0  0
   -0.8392    0.2432    1.1607 C   0  0  0  0  0  0  0  0  0  0  0  0
   -1.5440    1.2574   -1.7021 C   0  0  0  0  0  0  0  0  0  0  0  0
    0.1900   -0.7782    0.7076 C   0  0  0  0  0  0  0  0  0  0  0  0
   -0.3125    1.0575   -2.5347 C   0  0  0  0  0  0  0  0  0  0  0  0
   -2.0883    2.4698   -1.5209 C   0  0  0  0  0  0  0  0  0  0  0  0
    1.6297   -0.3842    0.6946 C   0  0  0  0  0  0  0  0  0  0  0  0
    2.5308   -0.9368   -0.2168 C   0  0  0  0  0  0  0  0  0  0  0  0
    2.0664    0.5595    1.6217 C   0  0  0  0  0  0  0  0  0  0  0  0
    3.8753   -0.5467   -0.2042 C   0  0  0  0  0  0  0  0  0  0  0  0
    3.4043    0.9514    1.6386 C   0  0  0  0  0  0  0  0  0  0  0  0
    4.3084    0.3994    0.7270 C   0  0  0  0  0  0  0  0  0  0  0  0
    4.8212   -1.1157   -1.1486 C   0  0  0  0  0  0  0  0  0  0  0  0
    6.5871    0.3123   -0.0961 C   0  0  0  0  0  0  0  0  0  0  0  0
    6.0909   -0.7087   -1.0928 C   0  0  0  0  0  0  0  0  0  0  0  0
    7.1634    1.5160   -0.8511 C   0  0  0  0  0  0  0  0  0  0  0  0
    7.6787   -0.3213    0.7745 C   0  0  0  0  0  0  0  0  0  0  0  0
   -1.5306   -0.8389   -1.4024 H   0  0  0  0  0  0  0  0  0  0  0  0
   -3.9013    0.5620   -2.3055 H   0  0  0  0  0  0  0  0  0  0  0  0
   -3.5451   -1.1559   -2.2577 H   0  0  0  0  0  0  0  0  0  0  0  0
   -6.4094   -1.5081   -0.9956 H   0  0  0  0  0  0  0  0  0  0  0  0
   -6.1921    0.0379   -1.8328 H   0  0  0  0  0  0  0  0  0  0  0  0
   -5.8109    2.2230   -0.0446 H   0  0  0  0  0  0  0  0  0  0  0  0
   -5.8472    1.7001    1.6614 H   0  0  0  0  0  0  0  0  0  0  0  0
   -7.7086    0.6764   -0.0738 H   0  0  0  0  0  0  0  0  0  0  0  0
   -6.9094   -0.4019    1.0867 H   0  0  0  0  0  0  0  0  0  0  0  0
   -2.2832   -1.8858    1.4926 H   0  0  0  0  0  0  0  0  0  0  0  0
   -0.9414    0.1534    2.2495 H   0  0  0  0  0  0  0  0  0  0  0  0
   -0.4723    1.2532    0.9452 H   0  0  0  0  0  0  0  0  0  0  0  0
    0.5054    0.6655   -1.9264 H   0  0  0  0  0  0  0  0  0  0  0  0
   -0.5130    0.3522   -3.3478 H   0  0  0  0  0  0  0  0  0  0  0  0
    0.0330    1.9928   -2.9877 H   0  0  0  0  0  0  0  0  0  0  0  0
   -1.6344    3.3451   -1.9770 H   0  0  0  0  0  0  0  0  0  0  0  0
   -3.0048    2.6529   -0.9801 H   0  0  0  0  0  0  0  0  0  0  0  0
    1.3970    0.9952    2.3577 H   0  0  0  0  0  0  0  0  0  0  0  0
    3.7378    1.6850    2.3680 H   0  0  0  0  0  0  0  0  0  0  0  0
    2.6657   -2.3267   -1.8285 H   0  0  0  0  0  0  0  0  0  0  0  0
    1.0773   -2.1350   -1.1760 H   0  0  0  0  0  0  0  0  0  0  0  0
    4.5400   -1.8502   -1.8897 H   0  0  0  0  0  0  0  0  0  0  0  0
    6.8076   -1.1280   -1.7950 H   0  0  0  0  0  0  0  0  0  0  0  0
    7.5428    2.2706   -0.1519 H   0  0  0  0  0  0  0  0  0  0  0  0
    6.3870    2.0113   -1.4467 H   0  0  0  0  0  0  0  0  0  0  0  0
    8.0670    0.4015    1.5017 H   0  0  0  0  0  0  0  0  0  0  0  0
    8.5183   -0.6920    0.1762 H   0  0  0  0  0  0  0  0  0  0  0  0
    7.2759   -1.1582    1.3577 H   0  0  0  0  0  0  0  0  0  0  0  0
    7.9799    1.2278   -1.5224 H   0  0  0  0  0  0  0  0  0  0  0  0
  1 13  2  0  0  0  0
  2 15  2  0  0  0  0
  3 19  2  0  0  0  0
  4 27  1  0  0  0  0
  4 29  1  0  0  0  0
  5  8  1  0  0  0  0
  5 13  1  0  0  0  0
  5 14  1  0  0  0  0
  6  9  1  0  0  0  0
  6 15  1  0  0  0  0
  6 42  1  0  0  0  0
  7 23  1  0  0  0  0
  7 52  1  0  0  0  0
  7 53  1  0  0  0  0
  8 11  1  0  0  0  0
  8 12  1  0  0  0  0
  8 15  1  0  0  0  0
  9 10  1  0  0  0  0
  9 13  1  0  0  0  0
  9 17  1  0  0  0  0
 10 11  1  0  0  0  0
 10 18  1  0  0  0  0
 10 33  1  0  0  0  0
 11 34  1  0  0  0  0
 11 35  1  0  0  0  0
 12 16  1  0  0  0  0
 12 36  1  0  0  0  0
 12 37  1  0  0  0  0
 14 16  1  0  0  0  0
 14 38  1  0  0  0  0
 14 39  1  0  0  0  0
 16 40  1  0  0  0  0
 16 41  1  0  0  0  0
 17 19  1  0  0  0  0
 17 43  1  0  0  0  0
 17 44  1  0  0  0  0
 18 20  1  0  0  0  0
 18 21  2  0  0  0  0
 19 22  1  0  0  0  0
 20 45  1  0  0  0  0
 20 46  1  0  0  0  0
 20 47  1  0  0  0  0
 21 48  1  0  0  0  0
 21 49  1  0  0  0  0
 22 23  2  0  0  0  0
 22 24  1  0  0  0  0
 23 25  1  0  0  0  0
 24 26  2  0  0  0  0
 24 50  1  0  0  0  0
 25 27  2  0  0  0  0
 25 28  1  0  0  0  0
 26 27  1  0  0  0  0
 26 51  1  0  0  0  0
 28 30  2  0  0  0  0
 28 54  1  0  0  0  0
 29 30  1  0  0  0  0
 29 31  1  0  0  0  0
 29 32  1  0  0  0  0
 30 55  1  0  0  0  0
 31 56  1  0  0  0  0
 31 57  1  0  0  0  0
 31 61  1  0  0  0  0
 32 58  1  0  0  0  0
 32 59  1  0  0  0  0
 32 60  1  0  0  0  0
M  END
> <PUBCHEM_COMPOUND_CID>
101463298

> <PUBCHEM_CONFORMER_RMSD>
0.8

> <PUBCHEM_CONFORMER_DIVERSEORDER>
1
53
38
31
14
60
48
35
11
41
17
15
24
62
51
44
46
18
54
36
45
19
42
55
32
7
23
8
16
61
49
10
59
33
2
52
25
30
6
56
34
37
57
12
58
50
3
39
29
20
13
5
21
40
43
27
28
26
47
22
4
9

> <PUBCHEM_MMFF94_PARTIAL_CHARGES>
36
1 -0.57
10 0.14
13 0.57
14 0.3
15 0.57
17 0.06
18 -0.28
19 0.42
2 -0.57
20 0.14
21 -0.3
22 0.09
23 0.1
24 -0.15
25 0.03
26 -0.15
27 0.08
28 -0.18
29 0.42
3 -0.57
30 -0.29
4 -0.36
42 0.37
48 0.15
49 0.15
5 -0.66
50 0.15
51 0.15
52 0.4
53 0.4
54 0.15
55 0.15
6 -0.73
7 -0.9
8 0.36
9 0.36

> <PUBCHEM_EFFECTIVE_ROTOR_COUNT>
5.6

> <PUBCHEM_PHARMACOPHORE_FEATURES>
12
1 1 acceptor
1 2 acceptor
1 3 acceptor
1 4 acceptor
1 6 donor
1 7 cation
1 7 donor
3 29 31 32 hydrophobe
5 5 8 12 14 16 rings
6 22 23 24 25 26 27 rings
6 4 25 27 28 29 30 rings
8 5 6 8 9 10 11 13 15 rings

> <PUBCHEM_HEAVY_ATOM_COUNT>
32

> <PUBCHEM_ATOM_DEF_STEREO_COUNT>
3

> <PUBCHEM_ATOM_UDEF_STEREO_COUNT>
0

> <PUBCHEM_BOND_DEF_STEREO_COUNT>
0

> <PUBCHEM_BOND_UDEF_STEREO_COUNT>
0

> <PUBCHEM_ISOTOPIC_ATOM_COUNT>
0

> <PUBCHEM_COMPONENT_COUNT>
1

> <PUBCHEM_CACTVS_TAUTO_COUNT>
22

> <PUBCHEM_CONFORMER_ID>
060C350200000001

> <PUBCHEM_MMFF94_ENERGY>
136.6102

> <PUBCHEM_FEATURE_SELFOVERLAP>
61.01

> <PUBCHEM_SHAPE_FINGERPRINT>
10 15 12324246092240788678
10165383 225 18411982446756864394
10670039 82 16950846882888360590
10673678 19 18198913702929947892
11315181 36 18334577970886284003
11578080 2 18122058698841074261
11719270 70 17846778473884215958
12107698 1 17489587861491751056
12236239 1 15985101929129641650
12516196 113 16298386868084978820
12788726 201 17240757333797412365
13533116 47 15719380712383415128
13668630 136 15339123454922746396
13782708 43 18337677421583960374
13911987 19 17095510800149454215
13914758 101 12179838390251892140
14840074 17 17676492748107228725
14856354 85 17632296821366085700
15183329 4 15554454002824516796
15361156 5 18201720695341948565
15439362 3 13610070901076935611
15575132 122 17676763193523722245
15788980 27 17131832062686455234
15849732 13 16056879139318488184
17349148 13 15430034327302129539
17686467 74 17751360814383357528
18608769 82 18272933864302532147
21033648 29 18272078440287631658
221357 26 17703789210851458376
23198884 109 18412829057809389483
23559900 14 18273209828951779425
23576562 1 17985267619874343828
249057 3 14476953519989672952
3004659 81 15697998548644602520
3383291 50 11959719495814963541
34797466 226 18186806881374102670
4073 2 18411425024564029450
4098825 35 18269558247946519724
4325135 7 18202282506939021982
46194498 28 18411698820798461492
497634 4 18413110541471337353
5265222 85 12319160885348598996
54039377 194 16988013679064367558
59755656 215 18272088288247097530
59755656 520 18410567400977870031

> <PUBCHEM_SHAPE_MULTIPOLES>
620.12
18.27
1.86
1.74
17.39
0.15
-0.14
0.92
0.14
-1.42
-0.43
0.12
0.55
0.15

> <PUBCHEM_SHAPE_SELFOVERLAP>
1371.656

> <PUBCHEM_SHAPE_VOLUME>
331

> <PUBCHEM_COORDINATE_TYPE>
2
5
10

$$$$
