REMARK  Name = 101403637
REMARK  11 active torsions:
REMARK  status: ('A' for Active; 'I' for Inactive)
REMARK    1  A    between atoms: C_3  and  O_12
REMARK    2  A    between atoms: C_4  and  C_28
REMARK    3  A    between atoms: O_12  and  C_18
REMARK    4  A    between atoms: C_14  and  O_19
REMARK    5  A    between atoms: C_15  and  O_21
REMARK    6  A    between atoms: C_16  and  O_23
REMARK    7  A    between atoms: C_17  and  C_25
REMARK    8  A    between atoms: C_25  and  O_26
REMARK    9  A    between atoms: C_28  and  C_29
REMARK   10  A    between atoms: C_30  and  C_32
REMARK   11  A    between atoms: C_32  and  O_33
REMARK                            x       y       z     vdW  Elec       q    Type
REMARK                         _______ _______ _______ _____ _____    ______ ____
ROOT
ATOM      1  O   UNL     1       3.650  -1.925  -0.607  0.00  0.00    -0.421 OA
ATOM      2  O   UNL     1       5.631  -2.390  -1.660  0.00  0.00    -0.244 OA
ATOM      3  C   UNL     1       0.767  -0.530   1.193  0.00  0.00    +0.141 C 
ATOM      4  C   UNL     1       1.220   0.762   1.472  0.00  0.00    +0.016 C 
ATOM      5  C   UNL     1       1.583  -1.420   0.499  0.00  0.00    +0.074 C 
ATOM      6  C   UNL     1       2.491   1.169   1.058  0.00  0.00    +0.002 C 
ATOM      7  C   UNL     1       2.848  -1.001   0.093  0.00  0.00    +0.152 C 
ATOM      8  C   UNL     1       3.316   0.283   0.362  0.00  0.00    +0.035 C 
ATOM      9  C   UNL     1       4.646   0.653  -0.091  0.00  0.00    +0.010 C 
ATOM     10  C   UNL     1       5.399  -0.228  -0.753  0.00  0.00    +0.082 C 
ATOM     11  C   UNL     1       4.926  -1.592  -1.051  0.00  0.00    +0.346 C 
ENDROOT
BRANCH   3  12
ATOM     12  O   UNL     1      -0.476  -0.936   1.595  0.00  0.00    -0.451 OA
BRANCH  12  18
ATOM     13  O   UNL     1      -1.596  -0.265  -0.338  0.00  0.00    -0.316 OA
ATOM     14  C   UNL     1      -3.766  -2.071   0.190  0.00  0.00    +0.173 C 
ATOM     15  C   UNL     1      -3.860  -0.961  -0.857  0.00  0.00    +0.169 C 
ATOM     16  C   UNL     1      -2.690  -1.761   1.231  0.00  0.00    +0.210 C 
ATOM     17  C   UNL     1      -2.474  -0.618  -1.409  0.00  0.00    +0.177 C 
ATOM     18  C   UNL     1      -1.378  -1.345   0.568  0.00  0.00    +0.318 C 
BRANCH  14  19
ATOM     19  O   UNL     1      -5.036  -2.178   0.836  0.00  0.00    -0.379 OA
ATOM     20  H   UNL     1      -5.719  -2.375   0.175  0.00  0.00    +0.211 HD
ENDBRANCH  14  19
BRANCH  15  21
ATOM     21  O   UNL     1      -4.699  -1.391  -1.925  0.00  0.00    -0.379 OA
ATOM     22  H   UNL     1      -5.578  -1.609  -1.578  0.00  0.00    +0.211 HD
ENDBRANCH  15  21
BRANCH  16  23
ATOM     23  O   UNL     1      -2.443  -2.926   2.019  0.00  0.00    -0.377 OA
ATOM     24  H   UNL     1      -3.266  -3.206   2.449  0.00  0.00    +0.211 HD
ENDBRANCH  16  23
BRANCH  17  25
ATOM     25  C   UNL     1      -2.527   0.567  -2.369  0.00  0.00    +0.169 C 
BRANCH  25  26
ATOM     26  O   UNL     1      -1.214   0.833  -2.829  0.00  0.00    -0.379 OA
ATOM     27  H   UNL     1      -1.232   1.585  -3.441  0.00  0.00    +0.211 HD
ENDBRANCH  25  26
ENDBRANCH  17  25
ENDBRANCH  12  18
ENDBRANCH   3  12
BRANCH   4  28
ATOM     28  C   UNL     1       0.354   1.726   2.215  0.00  0.00    +0.055 C 
BRANCH  28  29
ATOM     29  C   UNL     1      -0.756   2.292   1.365  0.00  0.00    -0.027 C 
ATOM     30  C   UNL     1      -0.728   3.384   0.576  0.00  0.00    -0.019 C 
ATOM     31  C   UNL     1       0.468   4.275   0.379  0.00  0.00    +0.029 C 
BRANCH  30  32
ATOM     32  C   UNL     1      -1.964   3.799  -0.183  0.00  0.00    +0.159 C 
BRANCH  32  33
ATOM     33  O   UNL     1      -1.692   3.795  -1.578  0.00  0.00    -0.378 OA
ATOM     34  H   UNL     1      -2.488   4.063  -2.063  0.00  0.00    +0.211 HD
ENDBRANCH  32  33
ENDBRANCH  30  32
ENDBRANCH  28  29
ENDBRANCH   4  28
TORSDOF 11
