101436
  -OEChem-03292013323D

 33 34  0     1  0  0  0  0  0999 V2000
   -1.6956   -0.5408    1.0166 O   0  0  0  0  0  0  0  0  0  0  0  0
   -1.5486    2.3542   -1.0944 O   0  0  0  0  0  0  0  0  0  0  0  0
   -3.7314    1.5503    0.3294 O   0  0  0  0  0  0  0  0  0  0  0  0
   -2.6457   -3.0697    0.2621 O   0  0  0  0  0  0  0  0  0  0  0  0
    1.2363    2.3109    0.7302 O   0  0  0  0  0  0  0  0  0  0  0  0
    0.3911    0.2115    0.2787 N   0  0  0  0  0  0  0  0  0  0  0  0
    2.7518    0.7059    0.2023 N   0  0  0  0  0  0  0  0  0  0  0  0
    4.2994   -0.9427   -0.3412 N   0  0  0  0  0  0  0  0  0  0  0  0
   -1.6770    0.9779   -0.8022 C   0  0  2  0  0  0  0  0  0  0  0  0
   -3.1102    0.5823   -0.5159 C   0  0  1  0  0  0  0  0  0  0  0  0
   -0.9782    0.5867    0.4885 C   0  0  1  0  0  0  0  0  0  0  0  0
   -2.9331   -0.6982    0.2884 C   0  0  1  0  0  0  0  0  0  0  0  0
   -2.8171   -1.9436   -0.5803 C   0  0  0  0  0  0  0  0  0  0  0  0
    0.6759   -1.0988   -0.0737 C   0  0  0  0  0  0  0  0  0  0  0  0
    1.4547    1.1385    0.4199 C   0  0  0  0  0  0  0  0  0  0  0  0
    1.9161   -1.5339   -0.2884 C   0  0  0  0  0  0  0  0  0  0  0  0
    3.0032   -0.5333   -0.1293 C   0  0  0  0  0  0  0  0  0  0  0  0
    5.4086   -0.0570   -0.1906 C   0  0  0  0  0  0  0  0  0  0  0  0
   -1.2997    0.4058   -1.6583 H   0  0  0  0  0  0  0  0  0  0  0  0
   -3.7277    0.4772   -1.4117 H   0  0  0  0  0  0  0  0  0  0  0  0
   -1.0184    1.3957    1.2274 H   0  0  0  0  0  0  0  0  0  0  0  0
   -3.7236   -0.8353    1.0351 H   0  0  0  0  0  0  0  0  0  0  0  0
   -1.9778   -1.8985   -1.2781 H   0  0  0  0  0  0  0  0  0  0  0  0
   -3.7362   -2.0861   -1.1583 H   0  0  0  0  0  0  0  0  0  0  0  0
   -0.5994    2.5471   -1.1786 H   0  0  0  0  0  0  0  0  0  0  0  0
   -3.2576    1.5816    1.1772 H   0  0  0  0  0  0  0  0  0  0  0  0
   -0.1373   -1.7997   -0.1767 H   0  0  0  0  0  0  0  0  0  0  0  0
   -2.5877   -3.8518   -0.3128 H   0  0  0  0  0  0  0  0  0  0  0  0
    2.1456   -2.5550   -0.5624 H   0  0  0  0  0  0  0  0  0  0  0  0
    4.4965   -1.9049   -0.6020 H   0  0  0  0  0  0  0  0  0  0  0  0
    6.3420   -0.5879   -0.4024 H   0  0  0  0  0  0  0  0  0  0  0  0
    5.4708    0.3296    0.8318 H   0  0  0  0  0  0  0  0  0  0  0  0
    5.3402    0.7852   -0.8866 H   0  0  0  0  0  0  0  0  0  0  0  0
  1 11  1  0  0  0  0
  1 12  1  0  0  0  0
  2  9  1  0  0  0  0
  2 25  1  0  0  0  0
  3 10  1  0  0  0  0
  3 26  1  0  0  0  0
  4 13  1  0  0  0  0
  4 28  1  0  0  0  0
  5 15  2  0  0  0  0
  6 11  1  0  0  0  0
  6 14  1  0  0  0  0
  6 15  1  0  0  0  0
  7 15  1  0  0  0  0
  7 17  2  0  0  0  0
  8 17  1  0  0  0  0
  8 18  1  0  0  0  0
  8 30  1  0  0  0  0
  9 10  1  0  0  0  0
  9 11  1  0  0  0  0
  9 19  1  0  0  0  0
 10 12  1  0  0  0  0
 10 20  1  0  0  0  0
 11 21  1  0  0  0  0
 12 13  1  0  0  0  0
 12 22  1  0  0  0  0
 13 23  1  0  0  0  0
 13 24  1  0  0  0  0
 14 16  2  0  0  0  0
 14 27  1  0  0  0  0
 16 17  1  0  0  0  0
 16 29  1  0  0  0  0
 18 31  1  0  0  0  0
 18 32  1  0  0  0  0
 18 33  1  0  0  0  0
M  END
> <PUBCHEM_COMPOUND_CID>
101436

> <PUBCHEM_CONFORMER_RMSD>
0.6

> <PUBCHEM_CONFORMER_DIVERSEORDER>
1
15
24
11
21
23
28
20
17
9
13
26
22
16
10
14
12
7
27
5
19
8
4
25
3
18
2
6

> <PUBCHEM_MMFF94_PARTIAL_CHARGES>
24
1 -0.56
10 0.28
11 0.58
12 0.28
13 0.28
14 -0.04
15 0.84
16 -0.14
17 0.49
18 0.37
2 -0.68
25 0.4
26 0.4
27 0.15
28 0.4
29 0.15
3 -0.68
30 0.4
4 -0.68
5 -0.57
6 -0.47
7 -0.66
8 -0.82
9 0.28

> <PUBCHEM_EFFECTIVE_ROTOR_COUNT>
4

> <PUBCHEM_PHARMACOPHORE_FEATURES>
12
1 1 acceptor
1 2 acceptor
1 2 donor
1 3 acceptor
1 3 donor
1 4 acceptor
1 4 donor
1 5 acceptor
1 7 donor
1 8 donor
5 1 9 10 11 12 rings
6 6 7 14 15 16 17 rings

> <PUBCHEM_HEAVY_ATOM_COUNT>
18

> <PUBCHEM_ATOM_DEF_STEREO_COUNT>
4

> <PUBCHEM_ATOM_UDEF_STEREO_COUNT>
0

> <PUBCHEM_BOND_DEF_STEREO_COUNT>
0

> <PUBCHEM_BOND_UDEF_STEREO_COUNT>
0

> <PUBCHEM_ISOTOPIC_ATOM_COUNT>
0

> <PUBCHEM_COMPONENT_COUNT>
1

> <PUBCHEM_CACTVS_TAUTO_COUNT>
3

> <PUBCHEM_CONFORMER_ID>
00018C3C00000001

> <PUBCHEM_MMFF94_ENERGY>
52.8285

> <PUBCHEM_FEATURE_SELFOVERLAP>
60.961

> <PUBCHEM_SHAPE_FINGERPRINT>
11132069 177 18413106160804960666
12032990 46 18272093794838035678
12500047 106 18409443648849353535
13760787 19 18186802444409518178
14115302 16 18337119985645347349
14790565 3 17908148680907121729
14965852 173 18412262852397306089
15196674 1 18341050800392444250
15219456 202 18411978095912860513
16945 1 18263908986998875817
19107657 46 18413389817445813582
19141452 34 18342181107025890603
200 152 17775278357219336199
20201158 50 18339923723068606482
20645477 56 18335983065068687741
21267235 1 18340495546593643175
21501502 16 18337392741901587893
221490 88 18267869569616175770
22213442 358 18413108381149974358
23402539 116 17385722491552820926
23557571 272 18341620316812927678
23559900 14 18269544091307349793
238 59 15803792165604972541
2748010 2 18266167529831997045
2871803 45 18265040513403053775
3286 77 18200591530843352972
3312278 4 18342741784440101762
34934 24 18339921511371640626
5104073 3 18342174496801905298
5493415 88 18343018930147754922
69090 78 18337948996549413111
8809292 202 18409168826518865811

> <PUBCHEM_SHAPE_MULTIPOLES>
326.14
7.78
2.37
0.84
7.64
0.46
0.04
1.32
0.73
-1.88
0.08
-0.3
-0.16
0.52

> <PUBCHEM_SHAPE_SELFOVERLAP>
682.384

> <PUBCHEM_SHAPE_VOLUME>
184.6

> <PUBCHEM_COORDINATE_TYPE>
2
5
10

$$$$
