REMARK  Name = 10148
REMARK  4 active torsions:
REMARK  status: ('A' for Active; 'I' for Inactive)
REMARK    1  A    between atoms: C_9  and  O_18
REMARK    2  A    between atoms: C_10  and  O_20
REMARK    3  A    between atoms: C_12  and  O_22
REMARK    4  A    between atoms: C_13  and  O_24
REMARK                            x       y       z     vdW  Elec       q    Type
REMARK                         _______ _______ _______ _____ _____    ______ ____
ROOT
ATOM      1  O   UNL     1      -0.003   2.615  -0.001  0.00  0.00    -0.286 OA
ATOM      2  O   UNL     1      -0.484  -2.707   0.000  0.00  0.00    -0.286 OA
ATOM      3  C   UNL     1       1.089   0.534   0.000  0.00  0.00    +0.078 C 
ATOM      4  C   UNL     1       0.962  -0.857  -0.001  0.00  0.00    +0.079 C 
ATOM      5  C   UNL     1      -1.447   0.765   0.000  0.00  0.00    +0.079 C 
ATOM      6  C   UNL     1      -1.573  -0.626   0.000  0.00  0.00    +0.079 C 
ATOM      7  C   UNL     1      -0.111   1.396  -0.001  0.00  0.00    +0.202 C 
ATOM      8  C   UNL     1      -0.373  -1.488   0.000  0.00  0.00    +0.202 C 
ATOM      9  C   UNL     1       2.361   1.120   0.000  0.00  0.00    +0.133 C 
ATOM     10  C   UNL     1       2.108  -1.662   0.000  0.00  0.00    +0.137 C 
ATOM     11  C   UNL     1       3.499   0.313   0.001  0.00  0.00    +0.015 C 
ATOM     12  C   UNL     1      -2.592   1.570   0.000  0.00  0.00    +0.137 C 
ATOM     13  C   UNL     1      -2.845  -1.212   0.000  0.00  0.00    +0.137 C 
ATOM     14  C   UNL     1       3.373  -1.074   0.000  0.00  0.00    +0.035 C 
ATOM     15  C   UNL     1      -3.858   0.982   0.001  0.00  0.00    +0.040 C 
ATOM     16  C   UNL     1      -3.984  -0.406   0.001  0.00  0.00    +0.040 C 
ATOM     17  C   UNL     1       4.867   0.915   0.001  0.00  0.00    +0.034 C 
ENDROOT
BRANCH   9  18
ATOM     18  O   UNL     1       2.540   2.473   0.001  0.00  0.00    -0.506 OA
ATOM     19  H   UNL     1       1.797   3.044   0.000  0.00  0.00    +0.292 HD
ENDBRANCH   9  18
BRANCH  10  20
ATOM     20  O   UNL     1       2.058  -3.024  -0.001  0.00  0.00    -0.505 OA
ATOM     21  H   UNL     1       1.230  -3.463  -0.001  0.00  0.00    +0.292 HD
ENDBRANCH  10  20
BRANCH  12  22
ATOM     22  O   UNL     1      -2.543   2.933   0.000  0.00  0.00    -0.505 OA
ATOM     23  H   UNL     1      -1.715   3.371  -0.001  0.00  0.00    +0.292 HD
ENDBRANCH  12  22
BRANCH  13  24
ATOM     24  O   UNL     1      -3.042  -2.561   0.001  0.00  0.00    -0.505 OA
ATOM     25  H   UNL     1      -2.307  -3.142   0.000  0.00  0.00    +0.292 HD
ENDBRANCH  13  24
TORSDOF 4
