101418
  -OEChem-03292013323D

 35 37  0     1  0  0  0  0  0999 V2000
    1.7006   -0.6545   -0.5557 O   0  0  0  0  0  0  0  0  0  0  0  0
    3.1694    1.9316   -0.3290 O   0  0  0  0  0  0  0  0  0  0  0  0
    0.8176    2.4892    0.9271 O   0  0  0  0  0  0  0  0  0  0  0  0
    5.2769   -0.4550    0.2002 O   0  0  0  0  0  0  0  0  0  0  0  0
   -0.5633   -0.2843    0.0359 N   0  0  0  0  0  0  0  0  0  0  0  0
   -2.0192   -1.8204    0.7407 N   0  0  0  0  0  0  0  0  0  0  0  0
   -2.1051    1.3891   -0.8152 N   0  0  0  0  0  0  0  0  0  0  0  0
   -4.4245    0.6835   -0.5345 N   0  0  0  0  0  0  0  0  0  0  0  0
   -5.0191   -1.4081    0.4650 N   0  0  0  0  0  0  0  0  0  0  0  0
    2.8761   -0.4139    0.2487 C   0  0  2  0  0  0  0  0  0  0  0  0
    2.7729    1.0373    0.7059 C   0  0  2  0  0  0  0  0  0  0  0  0
    1.2781    1.1533    0.9342 C   0  0  2  0  0  0  0  0  0  0  0  0
    0.7211    0.3561   -0.2399 C   0  0  1  0  0  0  0  0  0  0  0  0
    4.1113   -0.7676   -0.5584 C   0  0  2  0  0  0  0  0  0  0  0  0
    4.1432   -2.2423   -0.9350 C   0  0  0  0  0  0  0  0  0  0  0  0
   -1.8054    0.2154   -0.2389 C   0  0  0  0  0  0  0  0  0  0  0  0
   -0.7451   -1.5093    0.6231 C   0  0  0  0  0  0  0  0  0  0  0  0
   -2.6931   -0.7512    0.2059 C   0  0  0  0  0  0  0  0  0  0  0  0
   -4.0485   -0.4839    0.0412 C   0  0  0  0  0  0  0  0  0  0  0  0
   -3.4439    1.5349   -0.9212 C   0  0  0  0  0  0  0  0  0  0  0  0
    2.7994   -1.0650    1.1301 H   0  0  0  0  0  0  0  0  0  0  0  0
    3.3591    1.2632    1.6015 H   0  0  0  0  0  0  0  0  0  0  0  0
    1.0027    0.6900    1.8898 H   0  0  0  0  0  0  0  0  0  0  0  0
    0.5838    0.9763   -1.1339 H   0  0  0  0  0  0  0  0  0  0  0  0
    4.1477   -0.1868   -1.4869 H   0  0  0  0  0  0  0  0  0  0  0  0
    3.2961   -2.5175   -1.5704 H   0  0  0  0  0  0  0  0  0  0  0  0
    5.0687   -2.4767   -1.4723 H   0  0  0  0  0  0  0  0  0  0  0  0
    4.1318   -2.8769   -0.0419 H   0  0  0  0  0  0  0  0  0  0  0  0
    4.1384    1.8889   -0.3960 H   0  0  0  0  0  0  0  0  0  0  0  0
    1.2976    2.9662    1.6253 H   0  0  0  0  0  0  0  0  0  0  0  0
    0.0797   -2.1279    0.9502 H   0  0  0  0  0  0  0  0  0  0  0  0
    5.2516   -0.9822    1.0170 H   0  0  0  0  0  0  0  0  0  0  0  0
   -3.7810    2.4594   -1.3778 H   0  0  0  0  0  0  0  0  0  0  0  0
   -4.7411   -2.2797    0.8954 H   0  0  0  0  0  0  0  0  0  0  0  0
   -5.9977   -1.1907    0.3348 H   0  0  0  0  0  0  0  0  0  0  0  0
  1 10  1  0  0  0  0
  1 13  1  0  0  0  0
  2 11  1  0  0  0  0
  2 29  1  0  0  0  0
  3 12  1  0  0  0  0
  3 30  1  0  0  0  0
  4 14  1  0  0  0  0
  4 32  1  0  0  0  0
  5 13  1  0  0  0  0
  5 16  1  0  0  0  0
  5 17  1  0  0  0  0
  6 17  2  0  0  0  0
  6 18  1  0  0  0  0
  7 16  2  0  0  0  0
  7 20  1  0  0  0  0
  8 19  1  0  0  0  0
  8 20  2  0  0  0  0
  9 19  1  0  0  0  0
  9 34  1  0  0  0  0
  9 35  1  0  0  0  0
 10 11  1  0  0  0  0
 10 14  1  0  0  0  0
 10 21  1  0  0  0  0
 11 12  1  0  0  0  0
 11 22  1  0  0  0  0
 12 13  1  0  0  0  0
 12 23  1  0  0  0  0
 13 24  1  0  0  0  0
 14 15  1  0  0  0  0
 14 25  1  0  0  0  0
 15 26  1  0  0  0  0
 15 27  1  0  0  0  0
 15 28  1  0  0  0  0
 16 18  1  0  0  0  0
 17 31  1  0  0  0  0
 18 19  2  0  0  0  0
 20 33  1  0  0  0  0
M  END
> <PUBCHEM_COMPOUND_CID>
101418

> <PUBCHEM_CONFORMER_RMSD>
0.6

> <PUBCHEM_CONFORMER_DIVERSEORDER>
1
15
26
14
23
34
30
20
4
11
22
29
5
17
9
21
10
36
25
7
8
16
28
35
3
6
18
2
13
12
19
27
24
33
32
31

> <PUBCHEM_MMFF94_PARTIAL_CHARGES>
26
1 -0.56
10 0.28
11 0.28
12 0.28
13 0.54
14 0.28
16 0.11
17 0.04
18 0.23
19 0.41
2 -0.68
20 0.47
29 0.4
3 -0.68
30 0.4
31 0.15
32 0.4
33 0.15
34 0.4
35 0.4
4 -0.68
5 0.05
6 -0.57
7 -0.57
8 -0.62
9 -0.9

> <PUBCHEM_EFFECTIVE_ROTOR_COUNT>
3

> <PUBCHEM_PHARMACOPHORE_FEATURES>
15
1 1 acceptor
1 2 acceptor
1 2 donor
1 3 acceptor
1 3 donor
1 4 acceptor
1 4 donor
1 9 cation
1 9 donor
3 5 6 17 cation
3 5 7 16 cation
3 7 8 20 cation
5 1 10 11 12 13 rings
5 5 6 16 17 18 rings
6 7 8 16 18 19 20 rings

> <PUBCHEM_HEAVY_ATOM_COUNT>
20

> <PUBCHEM_ATOM_DEF_STEREO_COUNT>
5

> <PUBCHEM_ATOM_UDEF_STEREO_COUNT>
0

> <PUBCHEM_BOND_DEF_STEREO_COUNT>
0

> <PUBCHEM_BOND_UDEF_STEREO_COUNT>
0

> <PUBCHEM_ISOTOPIC_ATOM_COUNT>
0

> <PUBCHEM_COMPONENT_COUNT>
1

> <PUBCHEM_CACTVS_TAUTO_COUNT>
3

> <PUBCHEM_CONFORMER_ID>
00018C2A00000001

> <PUBCHEM_MMFF94_ENERGY>
48.0091

> <PUBCHEM_FEATURE_SELFOVERLAP>
76.74

> <PUBCHEM_SHAPE_FINGERPRINT>
10498660 4 17676756605218119437
10608611 8 18337103570322591689
12186901 62 17821725010069212407
12403259 226 18411414042611688929
12403259 415 18334851723712600709
124424 183 18341892982922386282
12507560 40 18410007779855737404
12623949 98 17912106111461395255
13134695 92 17561355188908011128
14115302 16 18187937161720410038
14386348 63 18342459236038324878
14573314 32 18335702710978097942
14866123 147 17407406836427022970
15099037 51 18412261709772799999
15196674 1 18408039637004593493
15219456 202 18412259570847288521
15375358 24 18342452634826454850
17349148 13 16559032679370994638
17804303 29 18334576849873445781
18186145 218 18335977584679797037
200 152 17561359569842789135
20510252 161 18335699468784386385
20645477 70 18202569479743228334
21065201 7 18113612370157871963
21267235 1 18335709350818312635
21279426 13 18122906430188648686
221357 26 18412821370250686565
2215653 11 18341609270178219543
23175994 123 18202004300179547185
23402539 116 18334287661188368879
23557571 272 18186518834512418572
23559900 14 18410854327064027586
3004659 81 18042126471481971698
3286 77 18202002166039594089
4214541 1 18334857207953022173
4990 188 18335139769667403830
5104073 3 18408885157040591057
5281201 14 18408888442542800916
59755656 215 18187080638290047707
633830 44 18335410266892101693
69090 78 18342451590965006551
8809292 202 18408324393009036962
9709674 26 18336265759642134595

> <PUBCHEM_SHAPE_MULTIPOLES>
363.21
9.74
2.11
0.93
0.4
0.27
-0.01
-2.75
-1.38
0.6
0.09
0.06
0.08
1.51

> <PUBCHEM_SHAPE_SELFOVERLAP>
787.432

> <PUBCHEM_SHAPE_VOLUME>
195.6

> <PUBCHEM_COORDINATE_TYPE>
2
5
10

$$$$
