REMARK  Name = 101418
REMARK  5 active torsions:
REMARK  status: ('A' for Active; 'I' for Inactive)
REMARK    1  A    between atoms: C_2  and  C_22
REMARK    2  A    between atoms: C_3  and  O_18
REMARK    3  A    between atoms: C_4  and  O_20
REMARK    4  A    between atoms: C_5  and  N_6
REMARK    5  A    between atoms: C_22  and  O_24
REMARK                            x       y       z     vdW  Elec       q    Type
REMARK                         _______ _______ _______ _____ _____    ______ ____
ROOT
ATOM      1  O   UNL     1       1.701  -0.654  -0.556  0.00  0.00    -0.333 OA
ATOM      2  C   UNL     1       2.876  -0.414   0.249  0.00  0.00    +0.173 C 
ATOM      3  C   UNL     1       2.773   1.037   0.706  0.00  0.00    +0.171 C 
ATOM      4  C   UNL     1       1.278   1.153   0.934  0.00  0.00    +0.187 C 
ATOM      5  C   UNL     1       0.721   0.356  -0.240  0.00  0.00    +0.225 C 
ENDROOT
BRANCH   5   6
ATOM      6  N   UNL     1      -0.563  -0.284   0.036  0.00  0.00    -0.247 N 
ATOM      7  N   UNL     1      -2.019  -1.820   0.741  0.00  0.00    -0.242 NA
ATOM      8  N   UNL     1      -2.105   1.389  -0.815  0.00  0.00    -0.228 NA
ATOM      9  N   UNL     1      -4.425   0.683  -0.534  0.00  0.00    -0.229 NA
ATOM     10  C   UNL     1      -1.805   0.215  -0.239  0.00  0.00    +0.152 C 
ATOM     11  C   UNL     1      -0.745  -1.509   0.623  0.00  0.00    +0.223 C 
ATOM     12  C   UNL     1      -2.693  -0.751   0.206  0.00  0.00    +0.140 C 
ATOM     13  C   UNL     1      -4.048  -0.484   0.041  0.00  0.00    +0.143 C 
ATOM     14  C   UNL     1      -3.444   1.535  -0.921  0.00  0.00    +0.253 C 
ATOM     15  N   UNL     1      -5.019  -1.408   0.465  0.00  0.00    -0.342 N 
ATOM     16  H   UNL     1      -5.975  -1.208   0.343  0.00  0.00    +0.144 HD
ATOM     17  H   UNL     1      -4.743  -2.255   0.883  0.00  0.00    +0.144 HD
ENDBRANCH   5   6
BRANCH   3  18
ATOM     18  O   UNL     1       3.169   1.932  -0.329  0.00  0.00    -0.379 OA
ATOM     19  H   UNL     1       4.126   1.856  -0.473  0.00  0.00    +0.211 HD
ENDBRANCH   3  18
BRANCH   4  20
ATOM     20  O   UNL     1       0.818   2.489   0.927  0.00  0.00    -0.378 OA
ATOM     21  H   UNL     1       1.191   2.964   1.686  0.00  0.00    +0.211 HD
ENDBRANCH   4  20
BRANCH   2  22
ATOM     22  C   UNL     1       4.111  -0.768  -0.558  0.00  0.00    +0.140 C 
ATOM     23  C   UNL     1       4.143  -2.242  -0.935  0.00  0.00    +0.034 C 
BRANCH  22  24
ATOM     24  O   UNL     1       5.277  -0.455   0.200  0.00  0.00    -0.382 OA
ATOM     25  H   UNL     1       5.262   0.484   0.443  0.00  0.00    +0.210 HD
ENDBRANCH  22  24
ENDBRANCH   2  22
TORSDOF 5
