REMARK  Name = 101496083
REMARK  6 active torsions:
REMARK  status: ('A' for Active; 'I' for Inactive)
REMARK    1  A    between atoms: C_6  and  O_26
REMARK    2  A    between atoms: C_7  and  O_22
REMARK    3  A    between atoms: C_13  and  O_24
REMARK    4  A    between atoms: C_15  and  O_30
REMARK    5  A    between atoms: O_26  and  C_28
REMARK    6  A    between atoms: O_30  and  C_32
REMARK                            x       y       z     vdW  Elec       q    Type
REMARK                         _______ _______ _______ _____ _____    ______ ____
ROOT
ATOM      1  O   UNL     1      -2.455  -0.425  -2.434  0.00  0.00    -0.291 OA
ATOM      2  C   UNL     1       0.742   1.012   0.562  0.00  0.00    +0.001 C 
ATOM      3  C   UNL     1      -0.540   1.163  -0.378  0.00  0.00    +0.015 C 
ATOM      4  C   UNL     1      -1.666   0.087  -0.152  0.00  0.00    +0.117 C 
ATOM      5  C   UNL     1       1.218  -0.488   0.477  0.00  0.00    +0.007 C 
ATOM      6  C   UNL     1      -1.095  -1.340  -0.039  0.00  0.00    +0.178 C 
ATOM      7  C   UNL     1      -2.666   0.549   0.939  0.00  0.00    +0.127 C 
ATOM      8  C   UNL     1       2.632  -0.822   1.085  0.00  0.00    +0.037 C 
ATOM      9  C   UNL     1       0.093  -1.444   0.913  0.00  0.00    +0.044 C 
ATOM     10  C   UNL     1      -1.108   2.619  -0.503  0.00  0.00    +0.030 C 
ATOM     11  C   UNL     1      -3.403   1.716   0.265  0.00  0.00    +0.079 C 
ATOM     12  C   UNL     1       1.891   1.912   0.017  0.00  0.00    +0.004 C 
ATOM     13  C   UNL     1      -2.465   2.923   0.165  0.00  0.00    +0.117 C 
ATOM     14  C   UNL     1      -2.593   0.170  -1.377  0.00  0.00    +0.174 C 
ATOM     15  C   UNL     1       3.684   0.180   0.522  0.00  0.00    +0.169 C 
ATOM     16  C   UNL     1       0.423   1.475   1.999  0.00  0.00    +0.000 C 
ATOM     17  C   UNL     1       3.259   1.640   0.653  0.00  0.00    +0.044 C 
ATOM     18  C   UNL     1      -3.684   1.147  -1.098  0.00  0.00    +0.017 C 
ATOM     19  C   UNL     1       2.671  -0.813   2.627  0.00  0.00    +0.004 C 
ATOM     20  C   UNL     1       3.051  -2.260   0.663  0.00  0.00    +0.004 C 
ATOM     21  C   UNL     1      -4.712   1.379  -1.915  0.00  0.00    -0.002 C 
ENDROOT
BRANCH   7  22
ATOM     22  O   UNL     1      -3.608  -0.456   1.302  0.00  0.00    -0.383 OA
ATOM     23  H   UNL     1      -3.144  -1.194   1.728  0.00  0.00    +0.210 HD
ENDBRANCH   7  22
BRANCH  13  24
ATOM     24  O   UNL     1      -2.238   3.452   1.470  0.00  0.00    -0.384 OA
ATOM     25  H   UNL     1      -1.645   4.217   1.410  0.00  0.00    +0.210 HD
ENDBRANCH  13  24
BRANCH   6  26
ATOM     26  O   UNL     1      -2.063  -2.301   0.371  0.00  0.00    -0.452 OA
BRANCH  26  28
ATOM     27  O   UNL     1      -0.967  -3.942  -0.829  0.00  0.00    -0.250 OA
ATOM     28  C   UNL     1      -1.876  -3.570  -0.100  0.00  0.00    +0.317 C 
ATOM     29  C   UNL     1      -2.963  -4.466   0.410  0.00  0.00    +0.121 C 
ENDBRANCH  26  28
ENDBRANCH   6  26
BRANCH  15  30
ATOM     30  O   UNL     1       3.918  -0.052  -0.872  0.00  0.00    -0.452 OA
BRANCH  30  32
ATOM     31  O   UNL     1       6.083   0.720  -0.645  0.00  0.00    -0.250 OA
ATOM     32  C   UNL     1       5.167   0.265  -1.316  0.00  0.00    +0.317 C 
ATOM     33  C   UNL     1       5.266  -0.028  -2.782  0.00  0.00    +0.121 C 
ENDBRANCH  30  32
ENDBRANCH  15  30
TORSDOF 6
