REMARK  Name = 10149453
REMARK  7 active torsions:
REMARK  status: ('A' for Active; 'I' for Inactive)
REMARK    1  A    between atoms: C_2  and  O_14
REMARK    2  A    between atoms: C_3  and  C_11
REMARK    3  A    between atoms: C_5  and  O_8
REMARK    4  A    between atoms: C_11  and  O_12
REMARK    5  A    between atoms: O_14  and  C_15
REMARK    6  A    between atoms: C_18  and  O_22
REMARK    7  A    between atoms: C_20  and  O_24
REMARK                            x       y       z     vdW  Elec       q    Type
REMARK                         _______ _______ _______ _____ _____    ______ ____
ROOT
ATOM      1  C   UNL     1      -1.905   0.345   1.018  0.00  0.00    -0.010 C 
ATOM      2  C   UNL     1      -0.394   0.537  -0.858  0.00  0.00    +0.148 C 
ATOM      3  C   UNL     1      -2.940   0.003   0.148  0.00  0.00    +0.105 C 
ATOM      4  C   UNL     1      -0.631   0.612   0.515  0.00  0.00    +0.034 C 
ATOM      5  C   UNL     1      -2.703  -0.072  -1.224  0.00  0.00    +0.143 C 
ATOM      6  C   UNL     1      -1.430   0.195  -1.727  0.00  0.00    +0.074 C 
ATOM      7  C   UNL     1      -2.129   0.433   2.492  0.00  0.00    +0.031 C 
ENDROOT
BRANCH   5   8
ATOM      8  O   UNL     1      -3.700  -0.404  -2.092  0.00  0.00    -0.505 OA
ATOM      9  H   UNL     1      -4.561  -0.586  -1.769  0.00  0.00    +0.292 HD
ENDBRANCH   5   8
BRANCH   3  11
ATOM     10  O   UNL     1      -4.683  -1.387   1.017  0.00  0.00    -0.245 OA
ATOM     11  C   UNL     1      -4.274  -0.278   0.669  0.00  0.00    +0.341 C 
BRANCH  11  12
ATOM     12  O   UNL     1      -5.047   0.839   0.736  0.00  0.00    -0.477 OA
ATOM     13  H   UNL     1      -4.701   1.665   0.461  0.00  0.00    +0.295 HD
ENDBRANCH  11  12
ENDBRANCH   3  11
BRANCH   2  14
ATOM     14  O   UNL     1       0.849   0.797  -1.349  0.00  0.00    -0.450 OA
BRANCH  14  15
ATOM     15  C   UNL     1       1.931   0.233  -0.695  0.00  0.00    +0.181 C 
ATOM     16  C   UNL     1       3.090  -1.729   0.048  0.00  0.00    -0.016 C 
ATOM     17  C   UNL     1       2.005  -1.147  -0.606  0.00  0.00    +0.037 C 
ATOM     18  C   UNL     1       2.907   1.048  -0.150  0.00  0.00    +0.203 C 
ATOM     19  C   UNL     1       4.085  -0.923   0.603  0.00  0.00    +0.036 C 
ATOM     20  C   UNL     1       3.993   0.466   0.504  0.00  0.00    +0.170 C 
ATOM     21  C   UNL     1       3.188  -3.213   0.155  0.00  0.00    +0.031 C 
BRANCH  18  22
ATOM     22  O   UNL     1       2.819   2.405  -0.250  0.00  0.00    -0.501 OA
ATOM     23  H   UNL     1       2.090   2.796  -0.689  0.00  0.00    +0.292 HD
ENDBRANCH  18  22
BRANCH  20  24
ATOM     24  O   UNL     1       4.971   1.241   1.048  0.00  0.00    -0.503 OA
ATOM     25  H   UNL     1       4.918   2.175   0.986  0.00  0.00    +0.292 HD
ENDBRANCH  20  24
ENDBRANCH  14  15
ENDBRANCH   2  14
TORSDOF 7
