REMARK  Name = 101476921
REMARK  10 active torsions:
REMARK  status: ('A' for Active; 'I' for Inactive)
REMARK    1  A    between atoms: O_1  and  C_9
REMARK    2  A    between atoms: O_1  and  C_19
REMARK    3  A    between atoms: C_4  and  C_13
REMARK    4  A    between atoms: C_13  and  C_14
REMARK    5  A    between atoms: C_14  and  C_16
REMARK    6  A    between atoms: C_20  and  O_24
REMARK    7  A    between atoms: C_21  and  O_26
REMARK    8  A    between atoms: C_22  and  C_30
REMARK    9  A    between atoms: C_23  and  O_28
REMARK   10  A    between atoms: C_30  and  O_31
REMARK                            x       y       z     vdW  Elec       q    Type
REMARK                         _______ _______ _______ _____ _____    ______ ____
ROOT
ATOM      1  O   UNL     1      -0.850  -0.416   0.721  0.00  0.00    -0.331 OA
ENDROOT
BRANCH   1   9
ATOM      2  O   UNL     1       1.735   2.079  -1.615  0.00  0.00    -0.456 OA
ATOM      3  O   UNL     1       1.460   3.953  -0.303  0.00  0.00    -0.250 OA
ATOM      4  C   UNL     1       3.029   0.849  -0.153  0.00  0.00    +0.047 C 
ATOM      5  C   UNL     1       2.182   1.819   0.681  0.00  0.00    +0.095 C 
ATOM      6  C   UNL     1       2.098   0.702  -1.356  0.00  0.00    +0.139 C 
ATOM      7  C   UNL     1       0.914   1.147   1.242  0.00  0.00    +0.040 C 
ATOM      8  C   UNL     1       0.820  -0.088  -1.011  0.00  0.00    +0.070 C 
ATOM      9  C   UNL     1       0.026   0.545   0.141  0.00  0.00    +0.122 C 
ATOM     10  C   UNL     1       1.763   2.777  -0.425  0.00  0.00    +0.316 C 
ATOM     11  C   UNL     1       2.986   2.519   1.769  0.00  0.00    +0.011 C 
ATOM     12  C   UNL     1       2.789   0.134  -2.588  0.00  0.00    +0.044 C 
BRANCH   4  13
ATOM     13  C   UNL     1       3.465  -0.441   0.530  0.00  0.00    +0.012 C 
BRANCH  13  14
ATOM     14  C   UNL     1       4.687  -1.046  -0.152  0.00  0.00    +0.065 C 
BRANCH  14  16
ATOM     15  O   UNL     1       4.585  -2.808   1.500  0.00  0.00    -0.296 OA
ATOM     16  C   UNL     1       5.159  -2.319   0.528  0.00  0.00    +0.151 C 
ATOM     17  C   UNL     1       6.384  -2.969  -0.060  0.00  0.00    +0.072 C 
ENDBRANCH  14  16
ENDBRANCH  13  14
ENDBRANCH   4  13
ENDBRANCH   1   9
BRANCH   1  19
ATOM     18  O   UNL     1      -3.004   0.479   0.655  0.00  0.00    -0.326 OA
ATOM     19  C   UNL     1      -2.108  -0.449   0.048  0.00  0.00    +0.266 C 
ATOM     20  C   UNL     1      -2.659  -1.871   0.150  0.00  0.00    +0.196 C 
ATOM     21  C   UNL     1      -4.077  -1.960  -0.416  0.00  0.00    +0.172 C 
ATOM     22  C   UNL     1      -4.278   0.514   0.011  0.00  0.00    +0.176 C 
ATOM     23  C   UNL     1      -4.966  -0.847   0.141  0.00  0.00    +0.169 C 
BRANCH  20  24
ATOM     24  O   UNL     1      -1.799  -2.738  -0.589  0.00  0.00    -0.378 OA
ATOM     25  H   UNL     1      -0.899  -2.682  -0.230  0.00  0.00    +0.211 HD
ENDBRANCH  20  24
BRANCH  21  26
ATOM     26  O   UNL     1      -4.657  -3.213  -0.051  0.00  0.00    -0.379 OA
ATOM     27  H   UNL     1      -4.108  -3.935  -0.395  0.00  0.00    +0.211 HD
ENDBRANCH  21  26
BRANCH  23  28
ATOM     28  O   UNL     1      -6.196  -0.824  -0.578  0.00  0.00    -0.379 OA
ATOM     29  H   UNL     1      -6.634  -1.686  -0.497  0.00  0.00    +0.211 HD
ENDBRANCH  23  28
BRANCH  22  30
ATOM     30  C   UNL     1      -5.095   1.624   0.665  0.00  0.00    +0.169 C 
BRANCH  30  31
ATOM     31  O   UNL     1      -4.395   2.846   0.515  0.00  0.00    -0.379 OA
ATOM     32  H   UNL     1      -4.904   3.562   0.927  0.00  0.00    +0.211 HD
ENDBRANCH  30  31
ENDBRANCH  22  30
ENDBRANCH   1  19
TORSDOF 10
