101457836
  -OEChem-03292013293D

 30 32  0     1  0  0  0  0  0999 V2000
    1.7650    0.4594    1.3188 S   0  0  0  0  0  0  0  0  0  0  0  0
    4.7352    0.6331    1.0773 S   0  0  0  0  0  0  0  0  0  0  0  0
    1.5760   -2.4494   -0.0395 O   0  0  0  0  0  0  0  0  0  0  0  0
   -4.7580    0.7587    0.0550 O   0  0  0  0  0  0  0  0  0  0  0  0
   -0.7089   -1.9293    0.0509 N   0  0  0  0  0  0  0  0  0  0  0  0
    3.0430    0.3961   -0.9634 N   0  0  0  0  0  0  0  0  0  0  0  0
    0.7894   -0.1012   -0.0899 C   0  0  1  0  0  0  0  0  0  0  0  0
   -0.6413    0.3472   -0.0664 C   0  0  0  0  0  0  0  0  0  0  0  0
    1.6015    0.3511   -1.3035 C   0  0  0  0  0  0  0  0  0  0  0  0
    0.6594   -1.6411   -0.0259 C   0  0  0  0  0  0  0  0  0  0  0  0
   -1.4732   -0.7683    0.0232 C   0  0  0  0  0  0  0  0  0  0  0  0
   -1.1885    1.6177   -0.1204 C   0  0  0  0  0  0  0  0  0  0  0  0
   -2.8501   -0.6731    0.0670 C   0  0  0  0  0  0  0  0  0  0  0  0
    3.1841    0.4955    0.3152 C   0  0  0  0  0  0  0  0  0  0  0  0
   -2.5810    1.7424   -0.0775 C   0  0  0  0  0  0  0  0  0  0  0  0
   -3.4045    0.6063    0.0160 C   0  0  0  0  0  0  0  0  0  0  0  0
    5.7929    0.5845   -0.3868 C   0  0  0  0  0  0  0  0  0  0  0  0
   -5.5410   -0.4296    0.1500 C   0  0  0  0  0  0  0  0  0  0  0  0
    1.4623   -0.3349   -2.1476 H   0  0  0  0  0  0  0  0  0  0  0  0
    1.3049    1.3482   -1.6525 H   0  0  0  0  0  0  0  0  0  0  0  0
   -1.1041   -2.8605    0.1074 H   0  0  0  0  0  0  0  0  0  0  0  0
   -0.5614    2.4998   -0.1922 H   0  0  0  0  0  0  0  0  0  0  0  0
   -3.4221   -1.5898    0.1360 H   0  0  0  0  0  0  0  0  0  0  0  0
   -3.0282    2.7327   -0.1175 H   0  0  0  0  0  0  0  0  0  0  0  0
    6.8375    0.6626   -0.0727 H   0  0  0  0  0  0  0  0  0  0  0  0
    5.5742    1.4231   -1.0537 H   0  0  0  0  0  0  0  0  0  0  0  0
    5.6691   -0.3589   -0.9259 H   0  0  0  0  0  0  0  0  0  0  0  0
   -6.5920   -0.1235    0.1712 H   0  0  0  0  0  0  0  0  0  0  0  0
   -5.3460   -0.9668    1.0844 H   0  0  0  0  0  0  0  0  0  0  0  0
   -5.4121   -1.0683   -0.7304 H   0  0  0  0  0  0  0  0  0  0  0  0
  1  7  1  0  0  0  0
  1 14  1  0  0  0  0
  2 14  1  0  0  0  0
  2 17  1  0  0  0  0
  3 10  2  0  0  0  0
  4 16  1  0  0  0  0
  4 18  1  0  0  0  0
  5 10  1  0  0  0  0
  5 11  1  0  0  0  0
  5 21  1  0  0  0  0
  6  9  1  0  0  0  0
  6 14  2  0  0  0  0
  7  8  1  0  0  0  0
  7  9  1  0  0  0  0
  7 10  1  0  0  0  0
  8 11  2  0  0  0  0
  8 12  1  0  0  0  0
  9 19  1  0  0  0  0
  9 20  1  0  0  0  0
 11 13  1  0  0  0  0
 12 15  2  0  0  0  0
 12 22  1  0  0  0  0
 13 16  2  0  0  0  0
 13 23  1  0  0  0  0
 15 16  1  0  0  0  0
 15 24  1  0  0  0  0
 17 25  1  0  0  0  0
 17 26  1  0  0  0  0
 17 27  1  0  0  0  0
 18 28  1  0  0  0  0
 18 29  1  0  0  0  0
 18 30  1  0  0  0  0
M  END
> <PUBCHEM_COMPOUND_CID>
101457836

> <PUBCHEM_CONFORMER_RMSD>
0.6

> <PUBCHEM_CONFORMER_DIVERSEORDER>
1
5
10
3
2
9
11
8
7
4
6

> <PUBCHEM_MMFF94_PARTIAL_CHARGES>
22
1 -0.37
10 0.57
11 0.12
12 -0.15
13 -0.15
14 0.73
15 -0.15
16 0.08
17 0.23
18 0.28
2 -0.37
21 0.37
22 0.15
23 0.15
24 0.15
3 -0.57
4 -0.36
5 -0.55
6 -0.7
7 0.43
8 -0.14
9 0.25

> <PUBCHEM_EFFECTIVE_ROTOR_COUNT>
2.6

> <PUBCHEM_PHARMACOPHORE_FEATURES>
8
1 17 hydrophobe
1 3 acceptor
1 4 acceptor
1 5 donor
1 6 acceptor
5 1 6 7 9 14 rings
5 5 7 8 10 11 rings
6 8 11 12 13 15 16 rings

> <PUBCHEM_HEAVY_ATOM_COUNT>
18

> <PUBCHEM_ATOM_DEF_STEREO_COUNT>
1

> <PUBCHEM_ATOM_UDEF_STEREO_COUNT>
0

> <PUBCHEM_BOND_DEF_STEREO_COUNT>
0

> <PUBCHEM_BOND_UDEF_STEREO_COUNT>
0

> <PUBCHEM_ISOTOPIC_ATOM_COUNT>
0

> <PUBCHEM_COMPONENT_COUNT>
1

> <PUBCHEM_CACTVS_TAUTO_COUNT>
5

> <PUBCHEM_CONFORMER_ID>
060C1FAC00000001

> <PUBCHEM_MMFF94_ENERGY>
55.5918

> <PUBCHEM_FEATURE_SELFOVERLAP>
40.696

> <PUBCHEM_SHAPE_FINGERPRINT>
10922049 32 18273210902767306422
11132069 177 18409450293174413741
11963148 33 18262231244199535259
12011746 2 18412258445834992761
12236239 1 17603583036784351432
12251169 10 17894346692010701416
12390115 104 18200605687224859657
12403259 415 18342448244879716360
12592029 89 18334293137530335666
12916748 109 18411140234141201592
13140716 1 18193559097806801769
13380535 76 18335422361198617379
13533116 47 17385995153420333536
13862211 1 18337105761251648363
14251764 18 18335133190568686962
15042514 8 18264773340488129683
15196674 1 18338516327105758169
15375462 478 17095239207338447948
15536298 74 18340770321252437246
15775835 57 18272649039008204803
16945 1 18409453613104966847
1813 80 16443904948000747198
18186145 218 17988936552288398240
19784866 170 18407760330743436561
200 152 14692576515771181624
20510252 161 18271244920042606841
20645477 56 18341894121236588192
20645477 70 16845302596837164044
21267235 1 18335146400912052233
21501502 16 18196095430661274625
21524375 3 18408886239245657274
23175994 123 17203614813182829432
23402539 116 18341887532424291237
23536379 177 15267349513077580297
23557571 272 18059298784836991671
23559900 14 18338802204118258742
26918003 58 15647054871757414289
2748010 2 18191872215009709559
2916195 48 17988915695663829104
347723 3 13830133892990087828
34934 24 18411975846061978463
350125 39 18194404385608505129
351380 180 18202278130547000680
3545911 37 18410013229984457318
4072396 5 18260819393388995761
474 4 16807582927187329348
474229 33 18409448111273057067
4990 188 17632582638744623117
5104073 3 18264776459187554273
53812653 166 18272085002406893825
58051976 378 18411138017763867357
59755656 215 18411986832382970302
633830 44 17917135195989034064
69090 78 17775281685687232566
7364860 26 18198904708445347966
8863177 126 11742683635886395189

> <PUBCHEM_SHAPE_MULTIPOLES>
356.43
10.08
1.71
0.96
0.94
0.71
-0.04
-2.53
-0.7
-0.43
0.01
0.9
-0.15
0.19

> <PUBCHEM_SHAPE_SELFOVERLAP>
750.719

> <PUBCHEM_SHAPE_VOLUME>
204.5

> <PUBCHEM_COORDINATE_TYPE>
2
5
10

$$$$
