REMARK  Name = 101457836
REMARK  2 active torsions:
REMARK  status: ('A' for Active; 'I' for Inactive)
REMARK    1  A    between atoms: C_12  and  S_16
REMARK    2  A    between atoms: C_14  and  O_18
REMARK                            x       y       z     vdW  Elec       q    Type
REMARK                         _______ _______ _______ _____ _____    ______ ____
ROOT
ATOM      1  S   UNL     1       1.765   0.459   1.319  0.00  0.00    -0.076 S 
ATOM      2  O   UNL     1       1.576  -2.449  -0.040  0.00  0.00    -0.273 OA
ATOM      3  N   UNL     1      -0.709  -1.929   0.051  0.00  0.00    -0.283 N 
ATOM      4  N   UNL     1       3.043   0.396  -0.963  0.00  0.00    -0.256 NA
ATOM      5  C   UNL     1       0.789  -0.101  -0.090  0.00  0.00    +0.156 C 
ATOM      6  C   UNL     1      -0.641   0.347  -0.066  0.00  0.00    +0.011 C 
ATOM      7  C   UNL     1       1.601   0.351  -1.304  0.00  0.00    +0.150 C 
ATOM      8  C   UNL     1       0.659  -1.641  -0.026  0.00  0.00    +0.241 C 
ATOM      9  C   UNL     1      -1.473  -0.768   0.023  0.00  0.00    +0.051 C 
ATOM     10  C   UNL     1      -1.188   1.618  -0.120  0.00  0.00    +0.001 C 
ATOM     11  C   UNL     1      -2.850  -0.673   0.067  0.00  0.00    +0.051 C 
ATOM     12  C   UNL     1       3.184   0.495   0.315  0.00  0.00    +0.128 C 
ATOM     13  C   UNL     1      -2.581   1.742  -0.077  0.00  0.00    +0.037 C 
ATOM     14  C   UNL     1      -3.405   0.606   0.016  0.00  0.00    +0.140 C 
ATOM     15  H   UNL     1      -1.082  -2.838   0.116  0.00  0.00    +0.155 HD
ENDROOT
BRANCH  12  16
ATOM     16  S   UNL     1       4.735   0.633   1.077  0.00  0.00    -0.088 S 
ATOM     17  C   UNL     1       5.793   0.585  -0.387  0.00  0.00    +0.076 C 
ENDBRANCH  12  16
BRANCH  14  18
ATOM     18  O   UNL     1      -4.758   0.759   0.055  0.00  0.00    -0.471 OA
ATOM     19  C   UNL     1      -5.541  -0.430   0.150  0.00  0.00    +0.252 C 
ENDBRANCH  14  18
TORSDOF 2
