REMARK  Name = 101407485
REMARK  5 active torsions:
REMARK  status: ('A' for Active; 'I' for Inactive)
REMARK    1  A    between atoms: C_8  and  O_24
REMARK    2  A    between atoms: C_10  and  O_26
REMARK    3  A    between atoms: C_19  and  C_28
REMARK    4  A    between atoms: C_28  and  C_30
REMARK    5  A    between atoms: C_31  and  C_32
REMARK                            x       y       z     vdW  Elec       q    Type
REMARK                         _______ _______ _______ _____ _____    ______ ____
ROOT
ATOM      1  O   UNL     1       4.205   2.113   2.070  0.00  0.00    -0.296 OA
ATOM      2  O   UNL     1      -0.991   0.888  -1.110  0.00  0.00    -0.452 OA
ATOM      3  O   UNL     1       2.618  -2.747   0.307  0.00  0.00    -0.445 OA
ATOM      4  O   UNL     1      -0.144   2.333  -2.699  0.00  0.00    -0.250 OA
ATOM      5  O   UNL     1       2.449  -3.125  -1.968  0.00  0.00    -0.245 OA
ATOM      6  C   UNL     1       2.615   2.384   0.239  0.00  0.00    +0.077 C 
ATOM      7  C   UNL     1       3.404   0.029   1.190  0.00  0.00    +0.085 C 
ATOM      8  C   UNL     1       4.805  -0.539   0.851  0.00  0.00    +0.121 C 
ATOM      9  C   UNL     1       3.479   1.561   1.236  0.00  0.00    +0.154 C 
ATOM     10  C   UNL     1       1.109   2.156   0.572  0.00  0.00    +0.128 C 
ATOM     11  C   UNL     1       4.803  -1.716  -0.164  0.00  0.00    +0.071 C 
ATOM     12  C   UNL     1       2.956   1.945  -1.196  0.00  0.00    +0.010 C 
ATOM     13  C   UNL     1       3.023   3.869   0.379  0.00  0.00    +0.010 C 
ATOM     14  C   UNL     1       0.093   2.842  -0.353  0.00  0.00    +0.139 C 
ATOM     15  C   UNL     1       2.817  -0.459   2.517  0.00  0.00    +0.010 C 
ATOM     16  C   UNL     1       4.040  -2.972   0.300  0.00  0.00    +0.211 C 
ATOM     17  C   UNL     1       6.245  -2.117  -0.506  0.00  0.00    +0.006 C 
ATOM     18  C   UNL     1      -0.332   2.003  -1.535  0.00  0.00    +0.319 C 
ATOM     19  C   UNL     1      -1.599   0.041  -2.113  0.00  0.00    +0.177 C 
ATOM     20  C   UNL     1      -1.543  -1.408  -1.613  0.00  0.00    +0.070 C 
ATOM     21  C   UNL     1      -0.150  -1.963  -1.725  0.00  0.00    -0.016 C 
ATOM     22  C   UNL     1       1.976  -2.799  -0.891  0.00  0.00    +0.341 C 
ATOM     23  C   UNL     1       0.597  -2.316  -0.671  0.00  0.00    +0.077 C 
ENDROOT
BRANCH   8  24
ATOM     24  O   UNL     1       5.497  -0.931   2.035  0.00  0.00    -0.384 OA
ATOM     25  H   UNL     1       5.498  -0.196   2.668  0.00  0.00    +0.210 HD
ENDBRANCH   8  24
BRANCH  10  26
ATOM     26  O   UNL     1       0.845   2.597   1.911  0.00  0.00    -0.383 OA
ATOM     27  H   UNL     1       1.474   2.178   2.519  0.00  0.00    +0.210 HD
ENDBRANCH  10  26
BRANCH  19  28
ATOM     28  C   UNL     1      -3.045   0.497  -2.288  0.00  0.00    +0.062 C 
ATOM     29  C   UNL     1      -3.097   1.937  -2.802  0.00  0.00    +0.008 C 
BRANCH  28  30
ATOM     30  C   UNL     1      -3.792   0.384  -0.981  0.00  0.00    -0.023 C 
ATOM     31  C   UNL     1      -4.868  -0.400  -0.811  0.00  0.00    -0.004 C 
BRANCH  31  32
ATOM     32  C   UNL     1      -5.622  -0.544   0.446  0.00  0.00    -0.000 C 
ATOM     33  C   UNL     1      -5.029  -0.194   1.659  0.00  0.00    -0.000 C 
ATOM     34  C   UNL     1      -6.929  -1.032   0.423  0.00  0.00    -0.000 C 
ATOM     35  C   UNL     1      -5.744  -0.331   2.849  0.00  0.00    -0.000 C 
ATOM     36  C   UNL     1      -7.643  -1.169   1.613  0.00  0.00    -0.000 C 
ATOM     37  C   UNL     1      -7.050  -0.818   2.826  0.00  0.00    -0.000 C 
ENDBRANCH  31  32
ENDBRANCH  28  30
ENDBRANCH  19  28
TORSDOF 5
