101465619
  -OEChem-03292013293D

 39 39  0     0  0  0  0  0  0999 V2000
   -2.9098    3.2715   -1.2611 Br  0  0  0  0  0  0  0  0  0  0  0  0
   -5.8193    1.5623    0.2958 Br  0  0  0  0  0  0  0  0  0  0  0  0
   -1.2129   -1.7440    1.9365 O   0  0  0  0  0  0  0  0  0  0  0  0
   -0.6811   -2.1241   -0.3296 N   0  0  0  0  0  0  0  0  0  0  0  0
   -1.8770    0.7630   -0.2512 N   0  0  0  0  0  0  0  0  0  0  0  0
    3.4461    1.0281   -0.2059 N   0  0  0  0  0  0  0  0  0  0  0  0
    3.1707    3.3184    0.0203 N   0  0  0  0  0  0  0  0  0  0  0  0
    5.0619    2.4103    0.9115 N   0  0  0  0  0  0  0  0  0  0  0  0
    1.6313   -2.9228   -0.6316 C   0  0  0  0  0  0  0  0  0  0  0  0
    2.2530   -1.6849    0.0230 C   0  0  0  0  0  0  0  0  0  0  0  0
    0.2275   -3.2160   -0.1114 C   0  0  0  0  0  0  0  0  0  0  0  0
    3.6357   -1.3843   -0.5641 C   0  0  0  0  0  0  0  0  0  0  0  0
    4.2767   -0.1481    0.0569 C   0  0  0  0  0  0  0  0  0  0  0  0
   -1.3328   -1.4739    0.7420 C   0  0  0  0  0  0  0  0  0  0  0  0
   -0.8966   -1.7202   -1.7232 C   0  0  0  0  0  0  0  0  0  0  0  0
   -2.2546   -0.3753    0.4122 C   0  0  0  0  0  0  0  0  0  0  0  0
   -3.6009   -0.2770    0.6864 C   0  0  0  0  0  0  0  0  0  0  0  0
   -2.9617    1.5866   -0.4039 C   0  0  0  0  0  0  0  0  0  0  0  0
   -4.0482    0.9643    0.1702 C   0  0  0  0  0  0  0  0  0  0  0  0
    3.8919    2.1661    0.2274 C   0  0  0  0  0  0  0  0  0  0  0  0
    2.2676   -3.7946   -0.4360 H   0  0  0  0  0  0  0  0  0  0  0  0
    1.6130   -2.7905   -1.7200 H   0  0  0  0  0  0  0  0  0  0  0  0
    2.3377   -1.8455    1.1045 H   0  0  0  0  0  0  0  0  0  0  0  0
    1.6011   -0.8172   -0.1237 H   0  0  0  0  0  0  0  0  0  0  0  0
   -0.1799   -4.1004   -0.6152 H   0  0  0  0  0  0  0  0  0  0  0  0
    0.2762   -3.4538    0.9570 H   0  0  0  0  0  0  0  0  0  0  0  0
    4.2956   -2.2457   -0.4067 H   0  0  0  0  0  0  0  0  0  0  0  0
    3.5458   -1.2397   -1.6480 H   0  0  0  0  0  0  0  0  0  0  0  0
    4.3910   -0.3036    1.1366 H   0  0  0  0  0  0  0  0  0  0  0  0
    5.2724   -0.0185   -0.3842 H   0  0  0  0  0  0  0  0  0  0  0  0
   -0.1841   -0.9304   -1.9772 H   0  0  0  0  0  0  0  0  0  0  0  0
   -1.9165   -1.3664   -1.8885 H   0  0  0  0  0  0  0  0  0  0  0  0
   -0.7400   -2.5786   -2.3842 H   0  0  0  0  0  0  0  0  0  0  0  0
   -0.9417    0.9713   -0.5727 H   0  0  0  0  0  0  0  0  0  0  0  0
   -4.1920   -1.0220    1.2023 H   0  0  0  0  0  0  0  0  0  0  0  0
    3.5017    4.2180    0.3510 H   0  0  0  0  0  0  0  0  0  0  0  0
    5.7132    1.6713    1.1509 H   0  0  0  0  0  0  0  0  0  0  0  0
    5.3104    3.3496    1.2029 H   0  0  0  0  0  0  0  0  0  0  0  0
    2.2834    3.2995   -0.4707 H   0  0  0  0  0  0  0  0  0  0  0  0
  1 18  1  0  0  0  0
  2 19  1  0  0  0  0
  3 14  2  0  0  0  0
  4 11  1  0  0  0  0
  4 14  1  0  0  0  0
  4 15  1  0  0  0  0
  5 16  1  0  0  0  0
  5 18  1  0  0  0  0
  5 34  1  0  0  0  0
  6 13  1  0  0  0  0
  6 20  2  0  0  0  0
  7 20  1  0  0  0  0
  7 36  1  0  0  0  0
  7 39  1  0  0  0  0
  8 20  1  0  0  0  0
  8 37  1  0  0  0  0
  8 38  1  0  0  0  0
  9 10  1  0  0  0  0
  9 11  1  0  0  0  0
  9 21  1  0  0  0  0
  9 22  1  0  0  0  0
 10 12  1  0  0  0  0
 10 23  1  0  0  0  0
 10 24  1  0  0  0  0
 11 25  1  0  0  0  0
 11 26  1  0  0  0  0
 12 13  1  0  0  0  0
 12 27  1  0  0  0  0
 12 28  1  0  0  0  0
 13 29  1  0  0  0  0
 13 30  1  0  0  0  0
 14 16  1  0  0  0  0
 15 31  1  0  0  0  0
 15 32  1  0  0  0  0
 15 33  1  0  0  0  0
 16 17  2  0  0  0  0
 17 19  1  0  0  0  0
 17 35  1  0  0  0  0
 18 19  2  0  0  0  0
M  END
> <PUBCHEM_COMPOUND_CID>
101465619

> <PUBCHEM_CONFORMER_RMSD>
1.2

> <PUBCHEM_CONFORMER_DIVERSEORDER>
1
87
27
15
30
66
6
32
12
96
3
136
62
125
92
132
2
122
110
127
4
104
76
37
79
86
131
57
67
11
35
52
116
98
7
10
95
14
29
19
61
78
24
13
16
9
42
34
103
113
73
59
74
72
56
80
99
107
126
112
44
138
102
18
36
22
43
89
50
130
8
81
111
75
94
60
121
118
23
139
64
31
100
25
105
68
28
85
70
49
17
41
83
39
47
84
33
91
65
117
45
114
5
20
63
26
77
120
106
40
119
129
69
38
21
58
82
90
46
93
88
71
48
123
54
137
134
115
133
101
124
55
97
135
109
51
128
108
53

> <PUBCHEM_MMFF94_PARTIAL_CHARGES>
23
1 -0.06
11 0.3
13 0.25
14 0.71
15 0.3
16 -0.24
17 -0.15
18 -0.09
19 0.06
2 -0.06
20 0.55
3 -0.57
34 0.27
35 0.15
36 0.4
37 0.4
38 0.4
39 0.4
4 -0.66
5 0.03
6 -0.7
7 -0.85
8 -0.85

> <PUBCHEM_EFFECTIVE_ROTOR_COUNT>
8

> <PUBCHEM_PHARMACOPHORE_FEATURES>
9
1 1 hydrophobe
1 2 hydrophobe
1 3 acceptor
1 5 cation
1 5 donor
1 7 donor
1 8 donor
4 6 7 8 20 cation
5 5 16 17 18 19 rings

> <PUBCHEM_HEAVY_ATOM_COUNT>
20

> <PUBCHEM_ATOM_DEF_STEREO_COUNT>
0

> <PUBCHEM_ATOM_UDEF_STEREO_COUNT>
0

> <PUBCHEM_BOND_DEF_STEREO_COUNT>
0

> <PUBCHEM_BOND_UDEF_STEREO_COUNT>
0

> <PUBCHEM_ISOTOPIC_ATOM_COUNT>
0

> <PUBCHEM_COMPONENT_COUNT>
1

> <PUBCHEM_CACTVS_TAUTO_COUNT>
8

> <PUBCHEM_CONFORMER_ID>
060C3E1300000001

> <PUBCHEM_MMFF94_ENERGY>
35.9014

> <PUBCHEM_FEATURE_SELFOVERLAP>
45.726

> <PUBCHEM_SHAPE_FINGERPRINT>
10670039 82 17904493153496584300
10871710 139 17980761863328988638
11370993 70 18411415133449116024
12100795 323 18263358256322955300
12769317 202 18268139860218297352
12925494 130 18049440340883167945
13402501 40 18263084331877203572
14123255 52 18412544340438487566
14251764 38 18268148652101274409
14251764 75 18270977837195635992
14466204 15 18264483980547335386
14468879 13 18335425719941969874
16120349 18 18268432340167947121
1768 85 18340497702999568153
17834072 32 18341051899745933482
19930381 70 18411699850925837489
20567600 299 17981596070727355276
20621476 13 18266733580910308732
21475661 188 18117271467382259885
21864079 5 18340485677207066426
23227448 37 18341331175304165655
23503958 25 18190763001304253054
23559900 14 18194404377462604819
27216 239 18191024701914189394
2838139 119 18339071584498530511
3187 122 17751929257257059011
3298306 158 18411133615174806781
43658 37 18413107242788715411
474 4 18341897338014209747
5048184 11 18268993253520438100
56616090 13 18410855438991318915
7808743 9 18194401324051392088

> <PUBCHEM_SHAPE_MULTIPOLES>
392.7
10.83
4.4
1.17
0.99
1.56
0.07
9.4
-1.36
-3.56
0.53
0.47
-0.26
1.89

> <PUBCHEM_SHAPE_SELFOVERLAP>
759.939

> <PUBCHEM_SHAPE_VOLUME>
243.1

> <PUBCHEM_COORDINATE_TYPE>
2
5
10

$$$$
