101463299
  -OEChem-03292013293D

 65 69  0     1  0  0  0  0  0999 V2000
    2.0813    2.9268   -0.3493 O   0  0  0  0  0  0  0  0  0  0  0  0
    0.8661   -2.3064   -2.1645 O   0  0  0  0  0  0  0  0  0  0  0  0
    2.9102    0.0030    2.5301 O   0  0  0  0  0  0  0  0  0  0  0  0
   -4.1438    1.6369    1.0708 O   0  0  0  0  0  0  0  0  0  0  0  0
    3.1905    1.1361   -2.6718 O   0  0  0  0  0  0  0  0  0  0  0  0
    3.5040    1.4661    0.8413 N   0  0  0  0  0  0  0  0  0  0  0  0
    2.3755   -0.1497   -0.9427 N   0  0  0  0  0  0  0  0  0  0  0  0
   -0.8789   -0.8155   -1.6819 N   0  0  0  0  0  0  0  0  0  0  0  0
    0.0557   -2.0003    0.1471 C   0  0  2  0  0  0  0  0  0  0  0  0
   -0.2866   -3.4631    0.4273 C   0  0  0  0  0  0  0  0  0  0  0  0
    1.3945   -1.6076    0.7709 C   0  0  0  0  0  0  0  0  0  0  0  0
    1.7869   -0.1866    0.3919 C   0  0  1  0  0  0  0  0  0  0  0  0
   -1.0562   -1.0719    0.5722 C   0  0  0  0  0  0  0  0  0  0  0  0
    3.2086    2.0781   -0.4467 C   0  0  2  0  0  0  0  0  0  0  0  0
    0.1043   -1.7618   -1.3792 C   0  0  0  0  0  0  0  0  0  0  0  0
    2.8037    0.3946    1.3697 C   0  0  0  0  0  0  0  0  0  0  0  0
    4.4500    2.9239   -0.7339 C   0  0  0  0  0  0  0  0  0  0  0  0
   -1.5675   -0.4030   -0.5422 C   0  0  0  0  0  0  0  0  0  0  0  0
    4.6009    2.1344    1.5214 C   0  0  0  0  0  0  0  0  0  0  0  0
    4.8902    3.3589    0.6654 C   0  0  0  0  0  0  0  0  0  0  0  0
   -1.6229   -3.8051   -0.2648 C   0  0  0  0  0  0  0  0  0  0  0  0
   -0.4661   -3.6663    1.9459 C   0  0  0  0  0  0  0  0  0  0  0  0
    2.9691    0.9848   -1.4725 C   0  0  0  0  0  0  0  0  0  0  0  0
    0.8795   -4.3327   -0.0273 C   0  0  0  0  0  0  0  0  0  0  0  0
   -1.5739   -0.8347    1.8328 C   0  0  0  0  0  0  0  0  0  0  0  0
   -2.6033    0.5173   -0.4501 C   0  0  0  0  0  0  0  0  0  0  0  0
   -3.1269    0.7550    0.8251 C   0  0  0  0  0  0  0  0  0  0  0  0
   -2.6158    0.0868    1.9550 C   0  0  0  0  0  0  0  0  0  0  0  0
   -3.1445    1.2264   -1.5956 C   0  0  0  0  0  0  0  0  0  0  0  0
    0.8700   -5.3048   -0.9480 C   0  0  0  0  0  0  0  0  0  0  0  0
   -4.7673    2.3216   -0.0362 C   0  0  0  0  0  0  0  0  0  0  0  0
   -4.1591    2.0699   -1.3949 C   0  0  0  0  0  0  0  0  0  0  0  0
   -4.6957    3.8197    0.2821 C   0  0  0  0  0  0  0  0  0  0  0  0
   -6.2324    1.8697   -0.0474 C   0  0  0  0  0  0  0  0  0  0  0  0
    2.2235   -2.2540    0.4666 H   0  0  0  0  0  0  0  0  0  0  0  0
    1.3339   -1.6677    1.8610 H   0  0  0  0  0  0  0  0  0  0  0  0
    0.9471    0.5154    0.4047 H   0  0  0  0  0  0  0  0  0  0  0  0
    4.2513    3.7872   -1.3767 H   0  0  0  0  0  0  0  0  0  0  0  0
    5.2446    2.3228   -1.1933 H   0  0  0  0  0  0  0  0  0  0  0  0
    5.4507    1.4438    1.5405 H   0  0  0  0  0  0  0  0  0  0  0  0
    4.3242    2.3825    2.5502 H   0  0  0  0  0  0  0  0  0  0  0  0
    5.9397    3.6631    0.7069 H   0  0  0  0  0  0  0  0  0  0  0  0
    4.2766    4.2040    1.0005 H   0  0  0  0  0  0  0  0  0  0  0  0
    2.2251   -0.9191   -1.5851 H   0  0  0  0  0  0  0  0  0  0  0  0
   -1.4452   -3.3444    2.3104 H   0  0  0  0  0  0  0  0  0  0  0  0
    0.3187   -3.2389    2.5725 H   0  0  0  0  0  0  0  0  0  0  0  0
   -0.4492   -4.7438    2.1670 H   0  0  0  0  0  0  0  0  0  0  0  0
   -2.4658   -3.2126    0.1062 H   0  0  0  0  0  0  0  0  0  0  0  0
   -1.5877   -3.6950   -1.3539 H   0  0  0  0  0  0  0  0  0  0  0  0
   -1.8919   -4.8513   -0.0679 H   0  0  0  0  0  0  0  0  0  0  0  0
   -1.0716   -0.4687   -2.6137 H   0  0  0  0  0  0  0  0  0  0  0  0
    1.8133   -4.2389    0.5240 H   0  0  0  0  0  0  0  0  0  0  0  0
   -1.1635   -1.2796    2.7302 H   0  0  0  0  0  0  0  0  0  0  0  0
    1.9794    3.3897   -1.1984 H   0  0  0  0  0  0  0  0  0  0  0  0
   -3.0245    0.2973    2.9408 H   0  0  0  0  0  0  0  0  0  0  0  0
   -2.7357    1.0687   -2.5856 H   0  0  0  0  0  0  0  0  0  0  0  0
    1.7673   -5.8857   -1.1351 H   0  0  0  0  0  0  0  0  0  0  0  0
   -0.0082   -5.5444   -1.5348 H   0  0  0  0  0  0  0  0  0  0  0  0
   -4.5756    2.5996   -2.2483 H   0  0  0  0  0  0  0  0  0  0  0  0
   -6.8168    2.3891   -0.8150 H   0  0  0  0  0  0  0  0  0  0  0  0
   -3.6534    4.1561    0.3391 H   0  0  0  0  0  0  0  0  0  0  0  0
   -6.3075    0.7908   -0.2299 H   0  0  0  0  0  0  0  0  0  0  0  0
   -5.2119    4.4256   -0.4707 H   0  0  0  0  0  0  0  0  0  0  0  0
   -5.1416    4.0330    1.2608 H   0  0  0  0  0  0  0  0  0  0  0  0
   -6.7047    2.0503    0.9255 H   0  0  0  0  0  0  0  0  0  0  0  0
  1 14  1  0  0  0  0
  1 54  1  0  0  0  0
  2 15  2  0  0  0  0
  3 16  2  0  0  0  0
  4 27  1  0  0  0  0
  4 31  1  0  0  0  0
  5 23  2  0  0  0  0
  6 14  1  0  0  0  0
  6 16  1  0  0  0  0
  6 19  1  0  0  0  0
  7 12  1  0  0  0  0
  7 23  1  0  0  0  0
  7 44  1  0  0  0  0
  8 15  1  0  0  0  0
  8 18  1  0  0  0  0
  8 51  1  0  0  0  0
  9 10  1  0  0  0  0
  9 11  1  0  0  0  0
  9 13  1  0  0  0  0
  9 15  1  0  0  0  0
 10 21  1  0  0  0  0
 10 22  1  0  0  0  0
 10 24  1  0  0  0  0
 11 12  1  0  0  0  0
 11 35  1  0  0  0  0
 11 36  1  0  0  0  0
 12 16  1  0  0  0  0
 12 37  1  0  0  0  0
 13 18  2  0  0  0  0
 13 25  1  0  0  0  0
 14 17  1  0  0  0  0
 14 23  1  0  0  0  0
 17 20  1  0  0  0  0
 17 38  1  0  0  0  0
 17 39  1  0  0  0  0
 18 26  1  0  0  0  0
 19 20  1  0  0  0  0
 19 40  1  0  0  0  0
 19 41  1  0  0  0  0
 20 42  1  0  0  0  0
 20 43  1  0  0  0  0
 21 48  1  0  0  0  0
 21 49  1  0  0  0  0
 21 50  1  0  0  0  0
 22 45  1  0  0  0  0
 22 46  1  0  0  0  0
 22 47  1  0  0  0  0
 24 30  2  0  0  0  0
 24 52  1  0  0  0  0
 25 28  2  0  0  0  0
 25 53  1  0  0  0  0
 26 27  2  0  0  0  0
 26 29  1  0  0  0  0
 27 28  1  0  0  0  0
 28 55  1  0  0  0  0
 29 32  2  0  0  0  0
 29 56  1  0  0  0  0
 30 57  1  0  0  0  0
 30 58  1  0  0  0  0
 31 32  1  0  0  0  0
 31 33  1  0  0  0  0
 31 34  1  0  0  0  0
 32 59  1  0  0  0  0
 33 61  1  0  0  0  0
 33 63  1  0  0  0  0
 33 64  1  0  0  0  0
 34 60  1  0  0  0  0
 34 62  1  0  0  0  0
 34 65  1  0  0  0  0
M  END
> <PUBCHEM_COMPOUND_CID>
101463299

> <PUBCHEM_CONFORMER_RMSD>
0.8

> <PUBCHEM_CONFORMER_DIVERSEORDER>
4
1
15
9
14
11
3
13
12
8
5
2
10
7
6

> <PUBCHEM_MMFF94_PARTIAL_CHARGES>
37
1 -0.68
10 0.14
12 0.36
13 -0.14
14 0.64
15 0.57
16 0.57
18 0.12
19 0.3
2 -0.57
23 0.57
24 -0.29
25 -0.15
26 0.03
27 0.08
28 -0.15
29 -0.18
3 -0.57
30 -0.3
31 0.42
32 -0.29
4 -0.36
44 0.37
5 -0.57
51 0.37
52 0.15
53 0.15
54 0.4
55 0.15
56 0.15
57 0.15
58 0.15
59 0.15
6 -0.66
7 -0.73
8 -0.55
9 0.2

> <PUBCHEM_EFFECTIVE_ROTOR_COUNT>
5.8

> <PUBCHEM_PHARMACOPHORE_FEATURES>
16
1 1 acceptor
1 1 donor
1 2 acceptor
1 3 acceptor
1 30 hydrophobe
1 4 acceptor
1 5 acceptor
1 7 donor
1 8 donor
3 10 21 22 hydrophobe
3 31 33 34 hydrophobe
5 6 14 17 19 20 rings
5 8 9 13 15 18 rings
6 13 18 25 26 27 28 rings
6 4 26 27 29 31 32 rings
6 6 7 12 14 16 23 rings

> <PUBCHEM_HEAVY_ATOM_COUNT>
34

> <PUBCHEM_ATOM_DEF_STEREO_COUNT>
2

> <PUBCHEM_ATOM_UDEF_STEREO_COUNT>
1

> <PUBCHEM_BOND_DEF_STEREO_COUNT>
0

> <PUBCHEM_BOND_UDEF_STEREO_COUNT>
0

> <PUBCHEM_ISOTOPIC_ATOM_COUNT>
0

> <PUBCHEM_COMPONENT_COUNT>
1

> <PUBCHEM_CACTVS_TAUTO_COUNT>
12

> <PUBCHEM_CONFORMER_ID>
060C350300000004

> <PUBCHEM_MMFF94_ENERGY>
138.8065

> <PUBCHEM_FEATURE_SELFOVERLAP>
81.413

> <PUBCHEM_SHAPE_FINGERPRINT>
10165383 225 17834725682400028506
10675989 125 18200593575317404353
10928967 22 12180112203435280464
10930396 42 17478307091328794026
10937287 8 18411696599503517793
11115154 58 17183634191667166845
11135609 201 18271528688600627081
11477941 20 17117485918551926140
11578080 2 17975167308318550393
11763715 3 17111011998387173230
12107183 9 18262499456701279688
12293681 4 16173958079554384975
12633257 1 16298385785774786864
12788726 201 17977086178878106411
13004483 165 17542790158405979331
13134695 92 17762619486628555175
133893 2 17984997989773441731
13590594 115 17259349864784785385
13965767 371 18113328700616715268
14294032 229 18267309918345123411
14849402 71 18194682562097883434
14856354 85 16371009659146246104
14955137 171 18047753702593146266
15163728 17 18409454669788409857
15439362 3 18340767031808479544
15513586 35 16737213143100494340
16988056 13 17760925138999051789
1813 80 17194602949499055687
21033648 29 18338527425154311804
21304303 282 17984393468736954366
21860390 5 17903913362348185999
22149856 69 17970657125166250729
23559900 14 17607261865705402855
238 59 18058181535115238447
25222932 49 12905265372503719385
35225 105 18195522829600211602
376196 1 18131067138755470100
44317340 157 18123472679743167493
469060 322 17685225258133303058
474 4 18338792308898684977
5081480 168 17621029868250517397
508180 173 17108202200686191057
6086070 43 17178546773114882725
6523845 18 18124346932081128809
7808743 9 18192435384044158944
9849439 229 18411414012341819905
9981440 41 18408885148682764745

> <PUBCHEM_SHAPE_MULTIPOLES>
655.41
9.54
6.04
2.03
5.01
6.06
-0.05
-16.13
0.73
-1.49
-0.48
-0.83
0.25
0.6

> <PUBCHEM_SHAPE_SELFOVERLAP>
1449.48

> <PUBCHEM_SHAPE_VOLUME>
351.5

> <PUBCHEM_COORDINATE_TYPE>
2
5
10

$$$$
