REMARK  Name = 101431035
REMARK  8 active torsions:
REMARK  status: ('A' for Active; 'I' for Inactive)
REMARK    1  A    between atoms: C_1  and  O_2
REMARK    2  A    between atoms: C_1  and  C_11
REMARK    3  A    between atoms: C_1  and  C_17
REMARK    4  A    between atoms: O_2  and  C_6
REMARK    5  A    between atoms: C_7  and  C_10
REMARK    6  A    between atoms: C_11  and  O_12
REMARK    7  A    between atoms: O_12  and  C_13
REMARK    8  A    between atoms: C_17  and  N_20
REMARK                            x       y       z     vdW  Elec       q    Type
REMARK                         _______ _______ _______ _____ _____    ______ ____
ROOT
ATOM      1  C   UNL     1       0.462  -0.502  -0.164  0.00  0.00    +0.220 C 
ENDROOT
BRANCH   1   2
ATOM      2  O   UNL     1      -0.654   0.166   0.434  0.00  0.00    -0.434 OA
BRANCH   2   6
ATOM      3  O   UNL     1      -1.299   0.920  -1.637  0.00  0.00    -0.226 OA
ATOM      4  O   UNL     1      -3.636   2.483  -1.466  0.00  0.00    -0.274 OA
ATOM      5  N   UNL     1      -2.501   1.444   0.287  0.00  0.00    -0.220 N 
ATOM      6  C   UNL     1      -1.468   0.850  -0.425  0.00  0.00    +0.407 C 
ATOM      7  C   UNL     1      -3.516   2.219  -0.272  0.00  0.00    +0.242 C 
ATOM      8  H   UNL     1      -2.519   1.307   1.262  0.00  0.00    +0.161 HD
BRANCH   7  10
ATOM      9 BR   UNL     1      -6.223   1.959   0.264  0.00  0.00    -0.070 Br
ATOM     10  C   UNL     1      -4.503   2.709   0.753  0.00  0.00    +0.153 C 
ENDBRANCH   7  10
ENDBRANCH   2   6
ENDBRANCH   1   2
BRANCH   1  11
ATOM     11  C   UNL     1       0.021  -1.907  -0.568  0.00  0.00    +0.187 C 
BRANCH  11  12
ATOM     12  O   UNL     1      -0.465  -2.608   0.572  0.00  0.00    -0.355 OA
BRANCH  12  13
ATOM     13  C   UNL     1      -0.885  -3.922   0.233  0.00  0.00    +0.093 C 
ATOM     14  C   UNL     1       0.309  -4.680  -0.344  0.00  0.00    +0.030 C 
ATOM     15  C   UNL     1      -1.379  -4.592   1.513  0.00  0.00    +0.030 C 
ATOM     16  C   UNL     1      -2.014  -3.822  -0.792  0.00  0.00    +0.030 C 
ENDBRANCH  12  13
ENDBRANCH  11  12
ENDBRANCH   1  11
BRANCH   1  17
ATOM     17  C   UNL     1       1.602  -0.557   0.859  0.00  0.00    +0.145 C 
BRANCH  17  20
ATOM     18  O   UNL     1       4.084   1.227  -2.087  0.00  0.00    -0.123 OA
ATOM     19  O   UNL     1       3.697  -0.702  -1.113  0.00  0.00    -0.123 OA
ATOM     20  N   UNL     1       2.350   0.751   0.953  0.00  0.00    -0.247 N 
ATOM     21  N   UNL     1       3.744   2.404   0.447  0.00  0.00    -0.207 NA
ATOM     22  N   UNL     1       3.702   0.562  -1.081  0.00  0.00    +0.091 N 
ATOM     23  C   UNL     1       3.283   1.231   0.075  0.00  0.00    +0.284 C 
ATOM     24  C   UNL     1       2.208   1.678   1.946  0.00  0.00    +0.089 C 
ATOM     25  C   UNL     1       3.079   2.689   1.612  0.00  0.00    +0.118 C 
ENDBRANCH  17  20
ENDBRANCH   1  17
TORSDOF 8
