REMARK  Name = 10140
REMARK  10 active torsions:
REMARK  status: ('A' for Active; 'I' for Inactive)
REMARK    1  A    between atoms: C_6  and  C_26
REMARK    2  A    between atoms: C_7  and  O_20
REMARK    3  A    between atoms: C_11  and  O_22
REMARK    4  A    between atoms: C_19  and  O_24
REMARK    5  A    between atoms: C_26  and  C_28
REMARK    6  A    between atoms: C_28  and  C_29
REMARK    7  A    between atoms: C_29  and  C_32
REMARK    8  A    between atoms: N_31  and  C_34
REMARK    9  A    between atoms: C_34  and  C_36
REMARK   10  A    between atoms: C_36  and  O_37
REMARK                            x       y       z     vdW  Elec       q    Type
REMARK                         _______ _______ _______ _____ _____    ______ ____
ROOT
ATOM      1  C   UNL     1      -0.188  -0.720   0.849  0.00  0.00    +0.025 C 
ATOM      2  C   UNL     1      -0.963  -0.956  -0.469  0.00  0.00    +0.005 C 
ATOM      3  C   UNL     1      -2.453  -1.260  -0.247  0.00  0.00    +0.027 C 
ATOM      4  C   UNL     1      -3.110  -0.053   0.505  0.00  0.00    +0.005 C 
ATOM      5  C   UNL     1      -4.646  -0.298   0.769  0.00  0.00    +0.000 C 
ATOM      6  C   UNL     1       1.235  -0.533   0.260  0.00  0.00    +0.002 C 
ATOM      7  C   UNL     1      -0.790   0.504   1.569  0.00  0.00    +0.110 C 
ATOM      8  C   UNL     1      -2.311   0.346   1.781  0.00  0.00    +0.029 C 
ATOM      9  C   UNL     1      -5.364  -0.590  -0.591  0.00  0.00    +0.005 C 
ATOM     10  C   UNL     1      -0.112  -1.988  -1.208  0.00  0.00    +0.000 C 
ATOM     11  C   UNL     1      -3.184  -1.585  -1.564  0.00  0.00    +0.110 C 
ATOM     12  C   UNL     1       1.335  -1.636  -0.819  0.00  0.00    +0.000 C 
ATOM     13  C   UNL     1      -4.696  -1.739  -1.373  0.00  0.00    +0.029 C 
ATOM     14  C   UNL     1      -5.340   0.920   1.447  0.00  0.00    +0.002 C 
ATOM     15  C   UNL     1      -0.230  -1.935   1.816  0.00  0.00    +0.002 C 
ATOM     16  C   UNL     1      -5.519   0.668  -1.471  0.00  0.00    +0.029 C 
ATOM     17  C   UNL     1      -4.867  -1.497   1.730  0.00  0.00    +0.000 C 
ATOM     18  C   UNL     1      -5.448   2.150   0.556  0.00  0.00    +0.029 C 
ATOM     19  C   UNL     1      -6.193   1.819  -0.730  0.00  0.00    +0.111 C 
ENDROOT
BRANCH   7  20
ATOM     20  O   UNL     1      -0.535   1.720   0.866  0.00  0.00    -0.384 OA
ATOM     21  H   UNL     1       0.420   1.821   0.731  0.00  0.00    +0.210 HD
ENDBRANCH   7  20
BRANCH  11  22
ATOM     22  O   UNL     1      -2.911  -0.587  -2.543  0.00  0.00    -0.384 OA
ATOM     23  H   UNL     1      -1.952  -0.498  -2.656  0.00  0.00    +0.210 HD
ENDBRANCH  11  22
BRANCH  19  24
ATOM     24  O   UNL     1      -6.207   2.978  -1.557  0.00  0.00    -0.384 OA
ATOM     25  H   UNL     1      -6.679   2.781  -2.381  0.00  0.00    +0.210 HD
ENDBRANCH  19  24
BRANCH   6  26
ATOM     26  C   UNL     1       2.388  -0.569   1.253  0.00  0.00    +0.001 C 
ATOM     27  C   UNL     1       2.190   0.507   2.326  0.00  0.00    +0.000 C 
BRANCH  26  28
ATOM     28  C   UNL     1       3.761  -0.372   0.579  0.00  0.00    +0.010 C 
BRANCH  28  29
ATOM     29  C   UNL     1       3.914   0.990  -0.099  0.00  0.00    +0.085 C 
BRANCH  29  32
ATOM     30  O   UNL     1       5.492   1.398  -1.889  0.00  0.00    -0.275 OA
ATOM     31  N   UNL     1       6.285   1.110   0.276  0.00  0.00    -0.295 N 
ATOM     32  C   UNL     1       5.297   1.188  -0.695  0.00  0.00    +0.223 C 
ATOM     33  H   UNL     1       6.015   0.937   1.207  0.00  0.00    +0.150 HD
BRANCH  31  34
ATOM     34  C   UNL     1       7.692   1.269  -0.014  0.00  0.00    +0.200 C 
BRANCH  34  36
ATOM     35  O   UNL     1       9.565  -0.115  -0.623  0.00  0.00    -0.248 OA
ATOM     36  C   UNL     1       8.372  -0.032  -0.354  0.00  0.00    +0.334 C 
BRANCH  36  37
ATOM     37  O   UNL     1       7.540  -1.099  -0.336  0.00  0.00    -0.479 OA
ATOM     38  H   UNL     1       6.635  -0.983  -0.124  0.00  0.00    +0.295 HD
ENDBRANCH  36  37
ENDBRANCH  34  36
ENDBRANCH  31  34
ENDBRANCH  29  32
ENDBRANCH  28  29
ENDBRANCH  26  28
ENDBRANCH   6  26
TORSDOF 10
