REMARK  Name = 101430
REMARK  6 active torsions:
REMARK  status: ('A' for Active; 'I' for Inactive)
REMARK    1  A    between atoms: N_1  and  C1*_12
REMARK    2  A    between atoms: C2*_11  and  O2*_15
REMARK    3  A    between atoms: C3*_13  and  O3*_17
REMARK    4  A    between atoms: C4*_14  and  C5*_19
REMARK    5  A    between atoms: C5*_19  and  O5*_20
REMARK    6  A    between atoms: N_22  and  C_24
REMARK                            x       y       z     vdW  Elec       q    Type
REMARK                         _______ _______ _______ _____ _____    ______ ____
ROOT
ATOM      1  N   UNL     1       1.527  -0.050   0.242  0.00  0.00    -0.247 N 
ATOM      2  N   UNL     1      -0.063   1.460  -0.174  0.00  0.00    -0.242 NA
ATOM      3  N   UNL     1       0.145  -2.008   0.641  0.00  0.00    -0.228 NA
ATOM      4  N   UNL     1      -2.227  -1.480   0.420  0.00  0.00    -0.228 NA
ATOM      5  C   UNL     1       0.336  -0.713   0.348  0.00  0.00    +0.152 C 
ATOM      6  C   UNL     1       1.234   1.252  -0.072  0.00  0.00    +0.223 C 
ATOM      7  C   UNL     1      -0.636   0.240   0.086  0.00  0.00    +0.140 C 
ATOM      8  C   UNL     1      -1.960  -0.184   0.130  0.00  0.00    +0.150 C 
ATOM      9  C   UNL     1      -1.174  -2.299   0.655  0.00  0.00    +0.253 C 
ATOM     10  N   UNL     1      -3.010   0.715  -0.125  0.00  0.00    -0.297 N 
ATOM     11  H   UNL     1      -2.706   1.629  -0.327  0.00  0.00    +0.154 HD
ENDROOT
BRANCH  10  12
ATOM     12  C   UNL     1      -4.414   0.567  -0.148  0.00  0.00    +0.049 C 
ATOM     13  C   UNL     1      -5.184   1.370  -0.988  0.00  0.00    +0.015 C 
ATOM     14  C   UNL     1      -5.028  -0.382   0.668  0.00  0.00    +0.015 C 
ATOM     15  C   UNL     1      -6.571   1.224  -1.012  0.00  0.00    +0.001 C 
ATOM     16  C   UNL     1      -6.415  -0.528   0.644  0.00  0.00    +0.001 C 
ATOM     17  C   UNL     1      -7.187   0.275  -0.196  0.00  0.00    +0.000 C 
ENDBRANCH  10  12
BRANCH   1  20
ATOM     18  O4* UNL     1       3.730   0.387   1.011  0.00  0.00    -0.333 OA
ATOM     19  C2* UNL     1       3.518  -1.085  -0.872  0.00  0.00    +0.187 C 
ATOM     20  C1* UNL     1       2.866  -0.612   0.428  0.00  0.00    +0.225 C 
ATOM     21  C3* UNL     1       4.511   0.021  -1.174  0.00  0.00    +0.171 C 
ATOM     22  C4* UNL     1       4.925   0.471   0.217  0.00  0.00    +0.175 C 
BRANCH  19  23
ATOM     23  O2* UNL     1       4.182  -2.326  -0.640  0.00  0.00    -0.378 OA
ATOM     24  H2* UNL     1       3.525  -3.014  -0.451  0.00  0.00    +0.211 HD
ENDBRANCH  19  23
BRANCH  21  25
ATOM     25  O3* UNL     1       5.614  -0.407  -1.944  0.00  0.00    -0.379 OA
ATOM     26  H3* UNL     1       5.307  -0.684  -2.821  0.00  0.00    +0.211 HD
ENDBRANCH  21  25
BRANCH  22  27
ATOM     27  C5* UNL     1       5.470   1.887   0.258  0.00  0.00    +0.169 C 
BRANCH  27  28
ATOM     28  O5* UNL     1       5.812   2.204   1.596  0.00  0.00    -0.379 OA
ATOM     29  H5* UNL     1       6.162   3.107   1.635  0.00  0.00    +0.211 HD
ENDBRANCH  27  28
ENDBRANCH  22  27
ENDBRANCH   1  20
TORSDOF 6
