REMARK  Name = 101405582
REMARK  6 active torsions:
REMARK  status: ('A' for Active; 'I' for Inactive)
REMARK    1  A    between atoms: C_5  and  O_13
REMARK    2  A    between atoms: C_9  and  O_22
REMARK    3  A    between atoms: O_13  and  C_15
REMARK    4  A    between atoms: C_15  and  C_16
REMARK    5  A    between atoms: O_22  and  C_24
REMARK    6  A    between atoms: C_24  and  C_25
REMARK                            x       y       z     vdW  Elec       q    Type
REMARK                         _______ _______ _______ _____ _____    ______ ____
ROOT
ATOM      1  O   UNL     1      -0.501   1.147  -1.686  0.00  0.00    -0.323 OA
ATOM      2  O   UNL     1      -0.902   3.708   0.343  0.00  0.00    -0.392 OA
ATOM      3  O   UNL     1      -2.739   2.531   1.024  0.00  0.00    -0.249 OA
ATOM      4  O   UNL     1       1.177   4.291  -0.409  0.00  0.00    -0.250 OA
ATOM      5  C   UNL     1      -0.984   0.419  -0.531  0.00  0.00    +0.246 C 
ATOM      6  C   UNL     1       0.868   1.303  -1.229  0.00  0.00    +0.170 C 
ATOM      7  C   UNL     1      -0.642   1.390   0.606  0.00  0.00    +0.176 C 
ATOM      8  C   UNL     1       0.671   1.986   0.128  0.00  0.00    +0.147 C 
ATOM      9  C   UNL     1       1.266  -0.165  -1.063  0.00  0.00    +0.203 C 
ATOM     10  C   UNL     1      -0.022  -0.781  -0.506  0.00  0.00    +0.117 C 
ATOM     11  C   UNL     1      -1.563   2.572   0.693  0.00  0.00    +0.330 C 
ATOM     12  C   UNL     1       0.383   3.449  -0.017  0.00  0.00    +0.326 C 
ENDROOT
BRANCH   5  13
ATOM     13  O   UNL     1      -2.320  -0.013  -0.594  0.00  0.00    -0.427 OA
BRANCH  13  15
ATOM     14  O   UNL     1      -2.091  -1.148   1.395  0.00  0.00    -0.245 OA
ATOM     15  C   UNL     1      -2.761  -0.798   0.436  0.00  0.00    +0.343 C 
BRANCH  15  16
ATOM     16  C   UNL     1      -4.182  -1.187   0.251  0.00  0.00    +0.076 C 
ATOM     17  C   UNL     1      -4.646  -2.400   0.759  0.00  0.00    +0.006 C 
ATOM     18  C   UNL     1      -5.053  -0.337  -0.430  0.00  0.00    +0.006 C 
ATOM     19  C   UNL     1      -5.981  -2.763   0.586  0.00  0.00    +0.000 C 
ATOM     20  C   UNL     1      -6.389  -0.700  -0.603  0.00  0.00    +0.000 C 
ATOM     21  C   UNL     1      -6.853  -1.913  -0.096  0.00  0.00    +0.000 C 
ENDBRANCH  15  16
ENDBRANCH  13  15
ENDBRANCH   5  13
BRANCH   9  22
ATOM     22  O   UNL     1       2.358  -0.350  -0.189  0.00  0.00    -0.446 OA
BRANCH  22  24
ATOM     23  O   UNL     1       2.701  -2.534  -0.831  0.00  0.00    -0.245 OA
ATOM     24  C   UNL     1       3.111  -1.474  -0.386  0.00  0.00    +0.341 C 
BRANCH  24  25
ATOM     25  C   UNL     1       4.522  -1.250   0.015  0.00  0.00    +0.076 C 
ATOM     26  C   UNL     1       5.549  -1.943  -0.626  0.00  0.00    +0.006 C 
ATOM     27  C   UNL     1       4.823  -0.345   1.034  0.00  0.00    +0.006 C 
ATOM     28  C   UNL     1       6.875  -1.732  -0.250  0.00  0.00    +0.000 C 
ATOM     29  C   UNL     1       6.149  -0.134   1.410  0.00  0.00    +0.000 C 
ATOM     30  C   UNL     1       7.175  -0.827   0.768  0.00  0.00    +0.000 C 
ENDBRANCH  24  25
ENDBRANCH  22  24
ENDBRANCH   9  22
TORSDOF 6
