REMARK  Name = 101489518
REMARK  19 active torsions:
REMARK  status: ('A' for Active; 'I' for Inactive)
REMARK    1  A    between atoms: C_3  and  C_5
REMARK    2  A    between atoms: C_3  and  C_6
REMARK    3  A    between atoms: C_4  and  C_7
REMARK    4  A    between atoms: C_5  and  C_11
REMARK    5  A    between atoms: C_6  and  C_7
REMARK    6  A    between atoms: N_10  and  C_17
REMARK    7  A    between atoms: C_13  and  O_15
REMARK    8  A    between atoms: C_17  and  C_19
REMARK    9  A    between atoms: C_17  and  C_22
REMARK   10  A    between atoms: C_19  and  O_20
REMARK   11  A    between atoms: C_23  and  C_24
REMARK   12  A    between atoms: C_24  and  C_25
REMARK   13  A    between atoms: C_25  and  N_26
REMARK   14  A    between atoms: C_31  and  C_32
REMARK   15  A    between atoms: C_32  and  C_33
REMARK   16  A    between atoms: C_33  and  C_34
REMARK   17  A    between atoms: C_34  and  N_35
REMARK   18  A    between atoms: C_34  and  C_40
REMARK   19  A    between atoms: C_40  and  O_41
REMARK                            x       y       z     vdW  Elec       q    Type
REMARK                         _______ _______ _______ _____ _____    ______ ____
ROOT
ATOM      1  N   UNK     1       1.624   1.932   0.131  0.00  0.00    -0.275 N 
ATOM      2  C   UNK     1       1.786   1.003   1.125  0.00  0.00    +0.063 C 
ATOM      3  C   UNK     1       2.296   3.080   0.460  0.00  0.00    +0.069 C 
ATOM      4  C   UNK     1       2.574   1.567   2.104  0.00  0.00    +0.144 C 
ATOM      5  C   UNK     1       2.897   2.881   1.683  0.00  0.00    +0.054 C 
ENDROOT
BRANCH   4   6
ATOM      6  O   UNK     1       2.948   0.958   3.239  0.00  0.00    -0.505 OA
ATOM      7  H   UNK     1       2.672   0.080   3.413  0.00  0.00    +0.292 HD
ENDBRANCH   4   6
BRANCH   2   8
ATOM      8  C   UNK     1       1.146  -0.318   0.992  0.00  0.00    +0.048 C 
BRANCH   8   9
ATOM      9  C   UNK     1       1.699  -1.403   0.444  0.00  0.00    +0.081 C 
BRANCH   9  11
ATOM     10  O   UNK     1       3.840  -0.414  -0.159  0.00  0.00    -0.296 OA
ATOM     11  C   UNK     1       3.084  -1.364  -0.109  0.00  0.00    +0.147 C 
BRANCH  11  12
ATOM     12  C   UNK     1       3.382  -2.731  -0.593  0.00  0.00    +0.064 C 
BRANCH  12  13
ATOM     13  C   UNK     1       2.271  -3.446  -0.340  0.00  0.00    +0.008 C 
ATOM     14  C   UNK     1       2.118  -4.898  -0.641  0.00  0.00    +0.000 C 
ENDBRANCH  12  13
ENDBRANCH  11  12
ENDBRANCH   9  11
ENDBRANCH   8   9
ENDBRANCH   2   8
BRANCH   1  15
ATOM     15  C   UNK     1       0.867   1.767  -1.094  0.00  0.00    +0.199 C 
BRANCH  15  17
ATOM     16  O   UNK     1       2.981   2.051  -2.295  0.00  0.00    -0.248 OA
ATOM     17  C   UNK     1       1.778   1.825  -2.316  0.00  0.00    +0.337 C 
BRANCH  17  18
ATOM     18  O   UNK     1       1.099   1.594  -3.471  0.00  0.00    -0.479 OA
ATOM     19  H   UNK     1       0.178   1.425  -3.448  0.00  0.00    +0.295 HD
ENDBRANCH  17  18
ENDBRANCH  15  17
BRANCH  15  20
ATOM     20  C   UNK     1      -0.283   2.784  -1.260  0.00  0.00    +0.000 C 
ATOM     21  C   UNK     1      -1.320   2.791  -0.128  0.00  0.00    -0.031 C 
BRANCH  21  22
ATOM     22  C   UNK     1      -2.513   3.733  -0.320  0.00  0.00    +0.002 C 
BRANCH  22  23
ATOM     23  C   UNK     1      -3.495   3.712   0.851  0.00  0.00    -0.081 C 
BRANCH  23  24
ATOM     24  N   UNK     1      -4.591   4.644   0.606  0.00  0.00    +0.381 N 
ATOM     25  H   UNK     1      -5.239   4.621   1.394  0.00  0.00    -0.089 HD
ATOM     26  H   UNK     1      -5.082   4.375  -0.246  0.00  0.00    -0.089 HD
ATOM     27  H   UNK     1      -4.217   5.587   0.501  0.00  0.00    -0.089 HD
ENDBRANCH  23  24
ENDBRANCH  22  23
ENDBRANCH  21  22
ENDBRANCH  15  20
ENDBRANCH   1  15
TORSDOF 13
REMARK  Name = 101489518
REMARK  19 active torsions:
REMARK  status: ('A' for Active; 'I' for Inactive)
REMARK    1  A    between atoms: C_3  and  C_5
REMARK    2  A    between atoms: C_3  and  C_6
REMARK    3  A    between atoms: C_4  and  C_7
REMARK    4  A    between atoms: C_5  and  C_11
REMARK    5  A    between atoms: C_6  and  C_7
REMARK    6  A    between atoms: N_10  and  C_17
REMARK    7  A    between atoms: C_13  and  O_15
REMARK    8  A    between atoms: C_17  and  C_19
REMARK    9  A    between atoms: C_17  and  C_22
REMARK   10  A    between atoms: C_19  and  O_20
REMARK   11  A    between atoms: C_23  and  C_24
REMARK   12  A    between atoms: C_24  and  C_25
REMARK   13  A    between atoms: C_25  and  N_26
REMARK   14  A    between atoms: C_31  and  C_32
REMARK   15  A    between atoms: C_32  and  C_33
REMARK   16  A    between atoms: C_33  and  C_34
REMARK   17  A    between atoms: C_34  and  N_35
REMARK   18  A    between atoms: C_34  and  C_40
REMARK   19  A    between atoms: C_40  and  O_41
REMARK                            x       y       z     vdW  Elec       q    Type
REMARK                         _______ _______ _______ _____ _____    ______ ____
ROOT
ATOM      1  N   UNK     1       1.246  -2.699   0.256  0.00  0.00    +0.000 NA
ENDROOT
TORSDOF 0
REMARK  Name = 101489518
REMARK  19 active torsions:
REMARK  status: ('A' for Active; 'I' for Inactive)
REMARK    1  A    between atoms: C_3  and  C_5
REMARK    2  A    between atoms: C_3  and  C_6
REMARK    3  A    between atoms: C_4  and  C_7
REMARK    4  A    between atoms: C_5  and  C_11
REMARK    5  A    between atoms: C_6  and  C_7
REMARK    6  A    between atoms: N_10  and  C_17
REMARK    7  A    between atoms: C_13  and  O_15
REMARK    8  A    between atoms: C_17  and  C_19
REMARK    9  A    between atoms: C_17  and  C_22
REMARK   10  A    between atoms: C_19  and  O_20
REMARK   11  A    between atoms: C_23  and  C_24
REMARK   12  A    between atoms: C_24  and  C_25
REMARK   13  A    between atoms: C_25  and  N_26
REMARK   14  A    between atoms: C_31  and  C_32
REMARK   15  A    between atoms: C_32  and  C_33
REMARK   16  A    between atoms: C_33  and  C_34
REMARK   17  A    between atoms: C_34  and  N_35
REMARK   18  A    between atoms: C_34  and  C_40
REMARK   19  A    between atoms: C_40  and  O_41
REMARK                            x       y       z     vdW  Elec       q    Type
REMARK                         _______ _______ _______ _____ _____    ______ ____
ROOT
ATOM      1  C   UNK     1      -3.385  -1.453   0.652  0.00  0.00    +0.036 C 
ENDROOT
BRANCH   1   2
ATOM      2  N   UNK     1      -4.075  -0.750   1.737  0.00  0.00    +0.389 N 
ATOM      3  H   UNK     1      -3.517  -0.806   2.588  0.00  0.00    -0.088 HD
ATOM      4  H   UNK     1      -4.985  -1.183   1.897  0.00  0.00    -0.088 HD
ATOM      5  H   UNK     1      -4.206   0.228   1.479  0.00  0.00    -0.088 HD
ENDBRANCH   1   2
BRANCH   1   7
ATOM      6  O   UNK     1      -5.380  -1.810  -0.700  0.00  0.00    -0.253 OA
ATOM      7  C   UNK     1      -4.256  -1.339  -0.586  0.00  0.00    +0.293 C 
BRANCH   7   8
ATOM      8  O   UNK     1      -3.637  -0.667  -1.592  0.00  0.00    -0.482 OA
ATOM      9  H   UNK     1      -2.775  -0.322  -1.463  0.00  0.00    +0.295 HD
ENDBRANCH   7   8
ENDBRANCH   1   7
BRANCH   1  10
ATOM     10  C   UNK     1      -3.170  -2.918   1.054  0.00  0.00    -0.011 C 
BRANCH  10  11
ATOM     11  C   UNK     1      -2.443  -3.727  -0.026  0.00  0.00    -0.002 C 
BRANCH  11  13
ATOM     12  C   UNK     1      -0.023  -3.217   0.704  0.00  0.00    -0.000 C 
ATOM     13  C   UNK     1      -1.066  -3.168  -0.410  0.00  0.00    -0.000 C 
ENDBRANCH  11  13
ENDBRANCH  10  11
ENDBRANCH   1  10
TORSDOF 6
