REMARK  Name = 101418621
REMARK  4 active torsions:
REMARK  status: ('A' for Active; 'I' for Inactive)
REMARK    1  A    between atoms: C_9  and  O_19
REMARK    2  A    between atoms: C_11  and  O_21
REMARK    3  A    between atoms: C_15  and  C_23
REMARK    4  A    between atoms: C_23  and  O_24
REMARK                            x       y       z     vdW  Elec       q    Type
REMARK                         _______ _______ _______ _____ _____    ______ ____
ROOT
ATOM      1  O   UNL     1      -0.423   0.236  -1.220  0.00  0.00    -0.319 OA
ATOM      2  O   UNL     1       1.083  -1.498  -0.701  0.00  0.00    -0.424 OA
ATOM      3  O   UNL     1      -2.526   2.064   0.961  0.00  0.00    -0.294 OA
ATOM      4  O   UNL     1       3.298  -2.093  -0.573  0.00  0.00    -0.245 OA
ATOM      5  C   UNL     1       0.272  -0.431  -0.169  0.00  0.00    +0.253 C 
ATOM      6  C   UNL     1      -1.066   1.461  -0.878  0.00  0.00    +0.150 C 
ATOM      7  C   UNL     1      -0.661  -1.062   0.893  0.00  0.00    +0.101 C 
ATOM      8  C   UNL     1       1.293   0.495   0.397  0.00  0.00    +0.050 C 
ATOM      9  C   UNL     1      -1.833  -1.912   0.343  0.00  0.00    +0.095 C 
ATOM     10  C   UNL     1      -0.024   2.458  -0.295  0.00  0.00    +0.068 C 
ATOM     11  C   UNL     1       0.867   1.864   0.808  0.00  0.00    +0.137 C 
ATOM     12  C   UNL     1      -2.749  -1.193  -0.670  0.00  0.00    +0.035 C 
ATOM     13  C   UNL     1      -2.290   1.273   0.043  0.00  0.00    +0.175 C 
ATOM     14  C   UNL     1      -3.299   0.169  -0.254  0.00  0.00    +0.069 C 
ATOM     15  C   UNL     1       2.523  -0.014   0.325  0.00  0.00    +0.083 C 
ATOM     16  C   UNL     1      -1.605   2.045  -2.194  0.00  0.00    +0.037 C 
ATOM     17  C   UNL     1      -2.660  -2.449   1.521  0.00  0.00    +0.030 C 
ATOM     18  C   UNL     1       2.387  -1.316  -0.344  0.00  0.00    +0.341 C 
ENDROOT
BRANCH   9  19
ATOM     19  O   UNL     1      -1.295  -3.052  -0.342  0.00  0.00    -0.387 OA
ATOM     20  H   UNL     1      -0.764  -2.754  -1.097  0.00  0.00    +0.210 HD
ENDBRANCH   9  19
BRANCH  11  21
ATOM     21  O   UNL     1       0.168   1.795   2.043  0.00  0.00    -0.380 OA
ATOM     22  H   UNL     1       0.748   1.419   2.723  0.00  0.00    +0.211 HD
ENDBRANCH  11  21
BRANCH  15  23
ATOM     23  C   UNL     1       3.839   0.538   0.718  0.00  0.00    +0.170 C 
BRANCH  23  24
ATOM     24  O   UNL     1       4.700   0.622  -0.411  0.00  0.00    -0.377 OA
ATOM     25  H   UNL     1       5.557   0.985  -0.138  0.00  0.00    +0.211 HD
ENDBRANCH  23  24
ENDBRANCH  15  23
TORSDOF 4
