REMARK  Name = 101412231
REMARK  11 active torsions:
REMARK  status: ('A' for Active; 'I' for Inactive)
REMARK    1  A    between atoms: O_1  and  C_7
REMARK    2  A    between atoms: O_1  and  C_17
REMARK    3  A    between atoms: C_3  and  O_8
REMARK    4  A    between atoms: C_4  and  O_10
REMARK    5  A    between atoms: C_5  and  O_12
REMARK    6  A    between atoms: C_6  and  C_14
REMARK    7  A    between atoms: C_14  and  O_15
REMARK    8  A    between atoms: C_17  and  C_20
REMARK    9  A    between atoms: C_19  and  C_23
REMARK   10  A    between atoms: C_25  and  C_30
REMARK   11  A    between atoms: C_30  and  O_31
REMARK                            x       y       z     vdW  Elec       q    Type
REMARK                         _______ _______ _______ _____ _____    ______ ____
ROOT
ATOM      1  O   UNL     1       1.626   1.779   1.107  0.00  0.00    -0.327 OA
ENDROOT
BRANCH   1   7
ATOM      2  O   UNL     1       2.639  -0.323   1.105  0.00  0.00    -0.326 OA
ATOM      3  C   UNL     1       4.041   0.260  -1.332  0.00  0.00    +0.172 C 
ATOM      4  C   UNL     1       4.393  -0.938  -0.451  0.00  0.00    +0.169 C 
ATOM      5  C   UNL     1       3.309   1.339  -0.534  0.00  0.00    +0.196 C 
ATOM      6  C   UNL     1       3.170  -1.407   0.341  0.00  0.00    +0.176 C 
ATOM      7  C   UNL     1       2.165   0.743   0.286  0.00  0.00    +0.266 C 
BRANCH   3   8
ATOM      8  O   UNL     1       5.258   0.798  -1.853  0.00  0.00    -0.379 OA
ATOM      9  H   UNL     1       5.723   0.114  -2.360  0.00  0.00    +0.211 HD
ENDBRANCH   3   8
BRANCH   4  10
ATOM     10  O   UNL     1       4.861  -2.005  -1.271  0.00  0.00    -0.379 OA
ATOM     11  H   UNL     1       5.636  -1.711  -1.774  0.00  0.00    +0.211 HD
ENDBRANCH   4  10
BRANCH   5  12
ATOM     12  O   UNL     1       2.760   2.303  -1.432  0.00  0.00    -0.378 OA
ATOM     13  H   UNL     1       3.473   2.693  -1.963  0.00  0.00    +0.211 HD
ENDBRANCH   5  12
BRANCH   6  14
ATOM     14  C   UNL     1       3.523  -2.526   1.315  0.00  0.00    +0.169 C 
BRANCH  14  15
ATOM     15  O   UNL     1       2.352  -2.900   2.017  0.00  0.00    -0.379 OA
ATOM     16  H   UNL     1       2.562  -3.612   2.641  0.00  0.00    +0.211 HD
ENDBRANCH  14  15
ENDBRANCH   6  14
ENDBRANCH   1   7
BRANCH   1  17
ATOM     17  C   UNL     1       0.544   1.303   1.902  0.00  0.00    +0.140 C 
ATOM     18  C   UNL     1       0.509   2.078   3.213  0.00  0.00    +0.037 C 
BRANCH  17  20
ATOM     19  C   UNL     1      -1.518   0.486   0.736  0.00  0.00    -0.024 C 
ATOM     20  C   UNL     1      -0.723   1.494   1.123  0.00  0.00    -0.001 C 
BRANCH  19  23
ATOM     21  O   UNL     1      -4.337  -3.086  -0.937  0.00  0.00    -0.291 OA
ATOM     22  C   UNL     1      -4.071   0.184   0.707  0.00  0.00    +0.015 C 
ATOM     23  C   UNL     1      -2.791   0.674  -0.046  0.00  0.00    +0.043 C 
ATOM     24  C   UNL     1      -4.128  -1.357   0.709  0.00  0.00    +0.070 C 
ATOM     25  C   UNL     1      -2.647   0.010  -1.405  0.00  0.00    -0.009 C 
ATOM     26  C   UNL     1      -5.338   0.747   0.013  0.00  0.00    +0.001 C 
ATOM     27  C   UNL     1      -4.101   0.691   2.165  0.00  0.00    +0.001 C 
ATOM     28  C   UNL     1      -3.925  -1.959  -0.665  0.00  0.00    +0.173 C 
ATOM     29  C   UNL     1      -3.171  -1.193  -1.687  0.00  0.00    +0.032 C 
BRANCH  25  30
ATOM     30  C   UNL     1      -1.884   0.780  -2.449  0.00  0.00    +0.160 C 
BRANCH  30  31
ATOM     31  O   UNL     1      -2.517   2.024  -2.676  0.00  0.00    -0.378 OA
ATOM     32  H   UNL     1      -2.025   2.520  -3.349  0.00  0.00    +0.211 HD
ENDBRANCH  30  31
ENDBRANCH  25  30
ENDBRANCH  19  23
ENDBRANCH  17  20
ENDBRANCH   1  17
TORSDOF 11
