REMARK  Name = 101458287
REMARK  10 active torsions:
REMARK  status: ('A' for Active; 'I' for Inactive)
REMARK    1  A    between atoms: C_7  and  O_19
REMARK    2  A    between atoms: C_8  and  O_21
REMARK    3  A    between atoms: C_10  and  O_36
REMARK    4  A    between atoms: O_21  and  C_23
REMARK    5  A    between atoms: C_23  and  C_24
REMARK    6  A    between atoms: C_24  and  C_25
REMARK    7  A    between atoms: C_25  and  C_26
REMARK    8  A    between atoms: C_29  and  O_32
REMARK    9  A    between atoms: C_31  and  O_34
REMARK   10  A    between atoms: O_36  and  C_38
REMARK                            x       y       z     vdW  Elec       q    Type
REMARK                         _______ _______ _______ _____ _____    ______ ____
ROOT
ATOM      1  N   UNL     1      -4.194  -0.156  -1.265  0.00  0.00    +0.392 N 
ATOM      2  C   UNL     1      -3.129   0.080  -0.266  0.00  0.00    -0.024 C 
ATOM      3  C   UNL     1      -3.080  -1.090   0.829  0.00  0.00    +0.017 C 
ATOM      4  C   UNL     1      -0.832   0.484   0.269  0.00  0.00    +0.099 C 
ATOM      5  C   UNL     1      -1.747  -0.013  -0.806  0.00  0.00    -0.060 C 
ATOM      6  C   UNL     1      -3.249   1.604   0.222  0.00  0.00    -0.012 C 
ATOM      7  C   UNL     1      -1.828  -1.158   1.819  0.00  0.00    +0.149 C 
ATOM      8  C   UNL     1      -0.450  -0.657   1.192  0.00  0.00    +0.202 C 
ATOM      9  C   UNL     1      -2.026   2.599  -0.171  0.00  0.00    +0.039 C 
ATOM     10  C   UNL     1      -0.567   1.941  -0.033  0.00  0.00    +0.176 C 
ATOM     11  C   UNL     1      -4.437  -1.194   1.527  0.00  0.00    -0.001 C 
ATOM     12  C   UNL     1      -5.505  -0.375  -0.632  0.00  0.00    -0.077 C 
ATOM     13  C   UNL     1      -5.528  -1.428   0.481  0.00  0.00    -0.023 C 
ATOM     14  C   UNL     1      -3.858  -1.203  -2.239  0.00  0.00    -0.072 C 
ATOM     15  C   UNL     1      -1.446  -0.447  -2.035  0.00  0.00    -0.038 C 
ATOM     16  C   UNL     1      -2.531  -0.908  -2.960  0.00  0.00    +0.003 C 
ATOM     17  C   UNL     1      -2.231   3.160  -1.582  0.00  0.00    +0.004 C 
ATOM     18  H   UNL     1      -4.267   0.705  -1.808  0.00  0.00    -0.079 HD
ENDROOT
BRANCH   7  19
ATOM     19  O   UNL     1      -2.123  -0.376   2.980  0.00  0.00    -0.381 OA
ATOM     20  H   UNL     1      -2.960  -0.675   3.368  0.00  0.00    +0.210 HD
ENDBRANCH   7  19
BRANCH   8  21
ATOM     21  O   UNL     1       0.162  -1.704   0.453  0.00  0.00    -0.449 OA
BRANCH  21  23
ATOM     22  O   UNL     1       1.352  -2.346   2.323  0.00  0.00    -0.250 OA
ATOM     23  C   UNL     1       1.053  -2.484   1.145  0.00  0.00    +0.317 C 
BRANCH  23  24
ATOM     24  C   UNL     1       1.609  -3.545   0.222  0.00  0.00    +0.114 C 
BRANCH  24  25
ATOM     25  C   UNL     1       3.131  -3.462   0.109  0.00  0.00    +0.038 C 
BRANCH  25  26
ATOM     26  C   UNL     1       3.579  -2.132  -0.437  0.00  0.00    -0.018 C 
ATOM     27  C   UNL     1       3.845  -1.075   0.434  0.00  0.00    +0.036 C 
ATOM     28  C   UNL     1       3.728  -1.957  -1.813  0.00  0.00    -0.001 C 
ATOM     29  C   UNL     1       4.261   0.157  -0.072  0.00  0.00    +0.172 C 
ATOM     30  C   UNL     1       4.143  -0.725  -2.318  0.00  0.00    +0.039 C 
ATOM     31  C   UNL     1       4.410   0.332  -1.448  0.00  0.00    +0.168 C 
BRANCH  29  32
ATOM     32  O   UNL     1       4.521   1.181   0.789  0.00  0.00    -0.468 OA
ATOM     33  C   UNL     1       4.344   0.919   2.179  0.00  0.00    +0.253 C 
ENDBRANCH  29  32
BRANCH  31  34
ATOM     34  O   UNL     1       4.816   1.530  -1.953  0.00  0.00    -0.503 OA
ATOM     35  H   UNL     1       4.997   2.245  -1.375  0.00  0.00    +0.292 HD
ENDBRANCH  31  34
ENDBRANCH  25  26
ENDBRANCH  24  25
ENDBRANCH  23  24
ENDBRANCH  21  23
ENDBRANCH   8  21
BRANCH  10  36
ATOM     36  O   UNL     1       0.161   2.565   1.020  0.00  0.00    -0.452 OA
BRANCH  36  38
ATOM     37  O   UNL     1       1.063   4.076  -0.476  0.00  0.00    -0.250 OA
ATOM     38  C   UNL     1       0.940   3.627   0.655  0.00  0.00    +0.317 C 
ATOM     39  C   UNL     1       1.643   4.179   1.858  0.00  0.00    +0.121 C 
ENDBRANCH  36  38
ENDBRANCH  10  36
TORSDOF 10
