101462359
  -OEChem-03292013293D

 65 66  0     1  0  0  0  0  0999 V2000
    3.3171    0.5745   -1.0436 O   0  0  0  0  0  0  0  0  0  0  0  0
    2.8447    1.5208    2.4547 O   0  0  0  0  0  0  0  0  0  0  0  0
    1.5221    3.4306   -1.0772 O   0  0  0  0  0  0  0  0  0  0  0  0
   -1.9761    0.9467    0.1589 O   0  0  0  0  0  0  0  0  0  0  0  0
    1.3230   -3.5351    1.3022 O   0  0  0  0  0  0  0  0  0  0  0  0
   -1.8444   -1.9352   -1.8589 O   0  0  0  0  0  0  0  0  0  0  0  0
   -1.9593    0.9845   -2.1471 O   0  0  0  0  0  0  0  0  0  0  0  0
   -4.8486   -0.9633    1.3183 O   0  0  0  0  0  0  0  0  0  0  0  0
    3.0269    0.4251    0.3515 C   0  0  2  0  0  0  0  0  0  0  0  0
    2.5506    1.6775    1.0607 C   0  0  1  0  0  0  0  0  0  0  0  0
    4.4502    0.4617   -0.1794 C   0  0  0  0  0  0  0  0  0  0  0  0
    2.4798   -0.9144    0.7976 C   0  0  0  0  0  0  0  0  0  0  0  0
    1.0452    2.0329    0.8567 C   0  0  2  0  0  0  0  0  0  0  0  0
    2.0783   -1.9085   -0.3079 C   0  0  2  0  0  0  0  0  0  0  0  0
    0.6963    2.3534   -0.6277 C   0  0  1  0  0  0  0  0  0  0  0  0
    1.0619   -2.8982    0.2771 C   0  0  0  0  0  0  0  0  0  0  0  0
    0.6808    3.2042    1.7928 C   0  0  0  0  0  0  0  0  0  0  0  0
   -0.2633   -3.1365   -0.4565 C   0  0  1  0  0  0  0  0  0  0  0  0
   -0.7895    2.7081   -0.8983 C   0  0  2  0  0  0  0  0  0  0  0  0
   -1.0932   -1.8416   -0.6424 C   0  0  2  0  0  0  0  0  0  0  0  0
    3.2647   -2.7061   -0.8499 C   0  0  0  0  0  0  0  0  0  0  0  0
   -2.0887   -1.5069    0.5096 C   0  0  2  0  0  0  0  0  0  0  0  0
   -2.8705   -0.1927    0.2003 C   0  0  1  0  0  0  0  0  0  0  0  0
   -1.6340    1.4516   -1.0625 C   0  0  0  0  0  0  0  0  0  0  0  0
    0.0525   -3.8672   -1.7664 C   0  0  0  0  0  0  0  0  0  0  0  0
   -0.9666    3.5703   -2.1593 C   0  0  0  0  0  0  0  0  0  0  0  0
   -3.9444    0.1302    1.2375 C   0  0  1  0  0  0  0  0  0  0  0  0
   -1.4105   -1.4599    1.8816 C   0  0  0  0  0  0  0  0  0  0  0  0
   -4.7047    1.3935    0.8777 C   0  0  0  0  0  0  0  0  0  0  0  0
    3.1450    2.5383    0.7283 H   0  0  0  0  0  0  0  0  0  0  0  0
    5.0497    1.3503   -0.0243 H   0  0  0  0  0  0  0  0  0  0  0  0
    5.0266   -0.4534   -0.2041 H   0  0  0  0  0  0  0  0  0  0  0  0
    1.6048   -0.7298    1.4300 H   0  0  0  0  0  0  0  0  0  0  0  0
    3.2125   -1.3807    1.4701 H   0  0  0  0  0  0  0  0  0  0  0  0
    0.4413    1.1795    1.1778 H   0  0  0  0  0  0  0  0  0  0  0  0
    1.6144   -1.3743   -1.1416 H   0  0  0  0  0  0  0  0  0  0  0  0
    0.9540    1.4859   -1.2447 H   0  0  0  0  0  0  0  0  0  0  0  0
   -0.8463   -3.8367    0.1566 H   0  0  0  0  0  0  0  0  0  0  0  0
    0.8923    2.9509    2.8374 H   0  0  0  0  0  0  0  0  0  0  0  0
   -0.3838    3.4452    1.7603 H   0  0  0  0  0  0  0  0  0  0  0  0
    1.2489    4.1083    1.5534 H   0  0  0  0  0  0  0  0  0  0  0  0
   -1.2295    3.2970   -0.0893 H   0  0  0  0  0  0  0  0  0  0  0  0
   -0.4208   -0.9904   -0.7679 H   0  0  0  0  0  0  0  0  0  0  0  0
    2.9315   -3.5128   -1.5108 H   0  0  0  0  0  0  0  0  0  0  0  0
    3.8397   -3.1685   -0.0401 H   0  0  0  0  0  0  0  0  0  0  0  0
    3.9398   -2.0730   -1.4311 H   0  0  0  0  0  0  0  0  0  0  0  0
    3.8060    1.4005    2.5398 H   0  0  0  0  0  0  0  0  0  0  0  0
   -2.8267   -2.3203    0.5379 H   0  0  0  0  0  0  0  0  0  0  0  0
   -3.3799   -0.3168   -0.7643 H   0  0  0  0  0  0  0  0  0  0  0  0
    0.5379   -3.2041   -2.4905 H   0  0  0  0  0  0  0  0  0  0  0  0
   -0.8581   -4.2660   -2.2254 H   0  0  0  0  0  0  0  0  0  0  0  0
    0.7240   -4.7149   -1.5895 H   0  0  0  0  0  0  0  0  0  0  0  0
   -0.4884    3.1070   -3.0296 H   0  0  0  0  0  0  0  0  0  0  0  0
   -0.5401    4.5693   -2.0225 H   0  0  0  0  0  0  0  0  0  0  0  0
   -2.0287    3.7017   -2.3967 H   0  0  0  0  0  0  0  0  0  0  0  0
    1.2535    4.2370   -0.6064 H   0  0  0  0  0  0  0  0  0  0  0  0
   -3.5014    0.2890    2.2260 H   0  0  0  0  0  0  0  0  0  0  0  0
   -0.6657   -0.6639    1.9365 H   0  0  0  0  0  0  0  0  0  0  0  0
   -0.9213   -2.4077    2.1182 H   0  0  0  0  0  0  0  0  0  0  0  0
   -2.1351   -1.2991    2.6846 H   0  0  0  0  0  0  0  0  0  0  0  0
   -2.5046   -2.6403   -1.7451 H   0  0  0  0  0  0  0  0  0  0  0  0
   -5.1846    1.2973   -0.1026 H   0  0  0  0  0  0  0  0  0  0  0  0
   -4.0578    2.2757    0.8659 H   0  0  0  0  0  0  0  0  0  0  0  0
   -5.5093    1.5736    1.5994 H   0  0  0  0  0  0  0  0  0  0  0  0
   -5.5142   -0.7465    1.9932 H   0  0  0  0  0  0  0  0  0  0  0  0
  1  9  1  0  0  0  0
  1 11  1  0  0  0  0
  2 10  1  0  0  0  0
  2 47  1  0  0  0  0
  3 15  1  0  0  0  0
  3 56  1  0  0  0  0
  4 23  1  0  0  0  0
  4 24  1  0  0  0  0
  5 16  2  0  0  0  0
  6 20  1  0  0  0  0
  6 61  1  0  0  0  0
  7 24  2  0  0  0  0
  8 27  1  0  0  0  0
  8 65  1  0  0  0  0
  9 10  1  0  0  0  0
  9 11  1  0  0  0  0
  9 12  1  0  0  0  0
 10 13  1  0  0  0  0
 10 30  1  0  0  0  0
 11 31  1  0  0  0  0
 11 32  1  0  0  0  0
 12 14  1  0  0  0  0
 12 33  1  0  0  0  0
 12 34  1  0  0  0  0
 13 15  1  0  0  0  0
 13 17  1  0  0  0  0
 13 35  1  0  0  0  0
 14 16  1  0  0  0  0
 14 21  1  0  0  0  0
 14 36  1  0  0  0  0
 15 19  1  0  0  0  0
 15 37  1  0  0  0  0
 16 18  1  0  0  0  0
 17 39  1  0  0  0  0
 17 40  1  0  0  0  0
 17 41  1  0  0  0  0
 18 20  1  0  0  0  0
 18 25  1  0  0  0  0
 18 38  1  0  0  0  0
 19 24  1  0  0  0  0
 19 26  1  0  0  0  0
 19 42  1  0  0  0  0
 20 22  1  0  0  0  0
 20 43  1  0  0  0  0
 21 44  1  0  0  0  0
 21 45  1  0  0  0  0
 21 46  1  0  0  0  0
 22 23  1  0  0  0  0
 22 28  1  0  0  0  0
 22 48  1  0  0  0  0
 23 27  1  0  0  0  0
 23 49  1  0  0  0  0
 25 50  1  0  0  0  0
 25 51  1  0  0  0  0
 25 52  1  0  0  0  0
 26 53  1  0  0  0  0
 26 54  1  0  0  0  0
 26 55  1  0  0  0  0
 27 29  1  0  0  0  0
 27 57  1  0  0  0  0
 28 58  1  0  0  0  0
 28 59  1  0  0  0  0
 28 60  1  0  0  0  0
 29 62  1  0  0  0  0
 29 63  1  0  0  0  0
 29 64  1  0  0  0  0
M  END
> <PUBCHEM_COMPOUND_CID>
101462359

> <PUBCHEM_CONFORMER_RMSD>
0.8

> <PUBCHEM_CONFORMER_DIVERSEORDER>
1
8
4
7
2
9
3
5
6

> <PUBCHEM_MMFF94_PARTIAL_CHARGES>
27
1 -0.3
10 0.38
11 -0.05
12 0.09
14 0.06
15 0.28
16 0.45
18 0.06
19 0.06
2 -0.68
20 0.28
23 0.28
24 0.66
27 0.28
3 -0.68
31 0.1
32 0.1
4 -0.43
47 0.4
5 -0.57
56 0.4
6 -0.68
61 0.4
65 0.4
7 -0.57
8 -0.68
9 -0.04

> <PUBCHEM_EFFECTIVE_ROTOR_COUNT>
3.6

> <PUBCHEM_PHARMACOPHORE_FEATURES>
11
1 1 acceptor
1 2 acceptor
1 2 donor
1 3 acceptor
1 3 donor
1 5 acceptor
1 6 acceptor
1 6 donor
1 7 acceptor
1 8 acceptor
1 8 donor

> <PUBCHEM_HEAVY_ATOM_COUNT>
29

> <PUBCHEM_ATOM_DEF_STEREO_COUNT>
11

> <PUBCHEM_ATOM_UDEF_STEREO_COUNT>
0

> <PUBCHEM_BOND_DEF_STEREO_COUNT>
0

> <PUBCHEM_BOND_UDEF_STEREO_COUNT>
0

> <PUBCHEM_ISOTOPIC_ATOM_COUNT>
0

> <PUBCHEM_COMPONENT_COUNT>
1

> <PUBCHEM_CACTVS_TAUTO_COUNT>
6

> <PUBCHEM_CONFORMER_ID>
060C315700000001

> <PUBCHEM_MMFF94_ENERGY>
79.0569

> <PUBCHEM_FEATURE_SELFOVERLAP>
55.831

> <PUBCHEM_SHAPE_FINGERPRINT>
10064457 181 18129101293458673856
10675989 125 16682585128119343935
11578080 2 17023738988919232255
12156800 1 13344641518467550254
12422481 6 18338782421678138242
12553582 1 18187638162992723612
12633257 1 18201144546922417432
13122387 1 18267013050089604950
13140716 1 18193835066371746872
13402501 40 18337116674373170546
13965767 371 18270383001752519482
14114211 80 18198087878563671526
14178342 30 18127115605565632584
14790565 3 18191322652348894620
15420108 30 18272937081686366831
19930381 70 18200597995091003931
20691752 17 18191853720796279690
20764821 26 18192127473537915092
20775438 99 17545827808865810655
20905425 154 18118123567440165547
23419403 2 18046061567504251117
23558518 356 17908139133273515194
238 59 17978471365759551437
35225 105 16977912735341720731
3524813 1 18337394829403484326
5283178 26 18272376390431932852
57527585 103 16969717585722458343
6287921 2 18195818589764781595
81228 2 17761474182159461978

> <PUBCHEM_SHAPE_MULTIPOLES>
549.85
6.55
5.22
2
2.8
0.54
-0.11
0.08
2.01
-1.63
-1.46
0.48
-0.69
1.25

> <PUBCHEM_SHAPE_SELFOVERLAP>
1103.513

> <PUBCHEM_SHAPE_VOLUME>
320.5

> <PUBCHEM_COORDINATE_TYPE>
2
5
10

$$$$
