REMARK  Name = 101489526
REMARK  10 active torsions:
REMARK  status: ('A' for Active; 'I' for Inactive)
REMARK    1  A    between atoms: C_2  and  O_7
REMARK    2  A    between atoms: C_3  and  O_9
REMARK    3  A    between atoms: C_4  and  O_11
REMARK    4  A    between atoms: C_5  and  C_27
REMARK    5  A    between atoms: C_6  and  O_13
REMARK    6  A    between atoms: O_13  and  C_14
REMARK    7  A    between atoms: C_15  and  C_20
REMARK    8  A    between atoms: C_18  and  O_25
REMARK    9  A    between atoms: C_20  and  C_23
REMARK   10  A    between atoms: C_27  and  O_28
REMARK                            x       y       z     vdW  Elec       q    Type
REMARK                         _______ _______ _______ _____ _____    ______ ____
ROOT
ATOM      1  O   UNL     1       1.005   0.317  -0.579  0.00  0.00    -0.316 OA
ATOM      2  C   UNL     1       3.393   0.110   1.003  0.00  0.00    +0.173 C 
ATOM      3  C   UNL     1       3.426   0.223  -0.521  0.00  0.00    +0.169 C 
ATOM      4  C   UNL     1       2.044  -0.418   1.490  0.00  0.00    +0.210 C 
ATOM      5  C   UNL     1       2.192   0.966  -1.038  0.00  0.00    +0.177 C 
ATOM      6  C   UNL     1       0.884   0.338   0.842  0.00  0.00    +0.318 C 
ENDROOT
BRANCH   2   7
ATOM      7  O   UNL     1       4.428  -0.790   1.402  0.00  0.00    -0.379 OA
ATOM      8  H   UNL     1       5.285  -0.455   1.093  0.00  0.00    +0.211 HD
ENDBRANCH   2   7
BRANCH   3   9
ATOM      9  O   UNL     1       4.600   0.928  -0.917  0.00  0.00    -0.379 OA
ATOM     10  H   UNL     1       5.384   0.459  -0.591  0.00  0.00    +0.211 HD
ENDBRANCH   3   9
BRANCH   4  11
ATOM     11  O   UNL     1       1.952  -0.251   2.904  0.00  0.00    -0.377 OA
ATOM     12  H   UNL     1       2.682  -0.724   3.334  0.00  0.00    +0.211 HD
ENDBRANCH   4  11
BRANCH   6  13
ATOM     13  O   UNL     1      -0.330  -0.301   1.232  0.00  0.00    -0.451 OA
BRANCH  13  14
ATOM     14  C   UNL     1      -1.490   0.241   0.752  0.00  0.00    +0.141 C 
ATOM     15  C   UNL     1      -2.354  -0.512  -0.043  0.00  0.00    +0.015 C 
ATOM     16  C   UNL     1      -1.806   1.564   1.064  0.00  0.00    +0.073 C 
ATOM     17  C   UNL     1      -3.533   0.057  -0.525  0.00  0.00    +0.002 C 
ATOM     18  C   UNL     1      -2.985   2.132   0.583  0.00  0.00    +0.137 C 
ATOM     19  C   UNL     1      -3.849   1.379  -0.212  0.00  0.00    +0.037 C 
BRANCH  15  20
ATOM     20  C   UNL     1      -2.034  -1.929  -0.388  0.00  0.00    +0.040 C 
ATOM     21  C   UNL     1      -3.064  -2.636  -1.335  0.00  0.00    +0.009 C 
ATOM     22  C   UNL     1      -2.024  -2.803   0.909  0.00  0.00    +0.009 C 
BRANCH  20  23
ATOM     23  C   UNL     1      -0.697  -2.023  -1.161  0.00  0.00    -0.023 C 
ATOM     24  C   UNL     1       0.417  -2.683  -0.822  0.00  0.00    -0.005 C 
ENDBRANCH  20  23
ENDBRANCH  15  20
BRANCH  18  25
ATOM     25  O   UNL     1      -3.292   3.423   0.887  0.00  0.00    -0.505 OA
ATOM     26  H   UNL     1      -2.712   3.929   1.421  0.00  0.00    +0.292 HD
ENDBRANCH  18  25
ENDBRANCH  13  14
ENDBRANCH   6  13
BRANCH   5  27
ATOM     27  C   UNL     1       2.143   0.988  -2.562  0.00  0.00    +0.169 C 
BRANCH  27  28
ATOM     28  O   UNL     1       0.974   1.679  -2.966  0.00  0.00    -0.379 OA
ATOM     29  H   UNL     1       0.930   1.701  -3.934  0.00  0.00    +0.211 HD
ENDBRANCH  27  28
ENDBRANCH   5  27
TORSDOF 10
