REMARK  Name = 101447372
REMARK  4 active torsions:
REMARK  status: ('A' for Active; 'I' for Inactive)
REMARK    1  A    between atoms: C_5  and  O_17
REMARK    2  A    between atoms: C_8  and  C_21
REMARK    3  A    between atoms: C_15  and  O_19
REMARK    4  A    between atoms: C_21  and  C_24
REMARK                            x       y       z     vdW  Elec       q    Type
REMARK                         _______ _______ _______ _____ _____    ______ ____
ROOT
ATOM      1  O   UNL     1       0.638   1.255  -0.297  0.00  0.00    -0.452 OA
ATOM      2  O   UNL     1      -1.925   1.847  -0.680  0.00  0.00    -0.289 OA
ATOM      3  O   UNL     1       1.679  -2.706  -0.013  0.00  0.00    -0.291 OA
ATOM      4  C   UNL     1      -0.044  -1.076  -0.502  0.00  0.00    +0.133 C 
ATOM      5  C   UNL     1      -0.294   0.281   0.168  0.00  0.00    +0.285 C 
ATOM      6  C   UNL     1      -1.100  -2.113  -0.106  0.00  0.00    +0.015 C 
ATOM      7  C   UNL     1      -2.499  -1.629  -0.493  0.00  0.00    +0.013 C 
ATOM      8  C   UNL     1      -2.826  -0.264   0.119  0.00  0.00    +0.089 C 
ATOM      9  C   UNL     1      -1.710   0.734  -0.201  0.00  0.00    +0.217 C 
ATOM     10  C   UNL     1       1.360  -1.532  -0.152  0.00  0.00    +0.182 C 
ATOM     11  C   UNL     1       2.366  -0.453  -0.058  0.00  0.00    +0.072 C 
ATOM     12  C   UNL     1       1.949   0.878  -0.159  0.00  0.00    +0.144 C 
ATOM     13  C   UNL     1       3.721  -0.758   0.096  0.00  0.00    +0.042 C 
ATOM     14  C   UNL     1       2.895   1.904  -0.141  0.00  0.00    +0.040 C 
ATOM     15  C   UNL     1       4.660   0.273   0.131  0.00  0.00    +0.134 C 
ATOM     16  C   UNL     1       4.249   1.601   0.008  0.00  0.00    +0.040 C 
ENDROOT
BRANCH   5  17
ATOM     17  O   UNL     1      -0.274   0.157   1.588  0.00  0.00    -0.349 OA
ATOM     18  H   UNL     1       0.607  -0.130   1.875  0.00  0.00    +0.214 HD
ENDBRANCH   5  17
BRANCH  15  19
ATOM     19  O   UNL     1       5.983  -0.017   0.276  0.00  0.00    -0.506 OA
ATOM     20  H   UNL     1       6.261  -0.908   0.359  0.00  0.00    +0.292 HD
ENDBRANCH  15  19
BRANCH   8  21
ATOM     21  C   UNL     1      -4.140   0.251  -0.371  0.00  0.00    +0.027 C 
ATOM     22  C   UNL     1      -4.426   0.481  -1.659  0.00  0.00    -0.001 C 
BRANCH  21  24
ATOM     23  O   UNL     1      -5.057   0.356   1.825  0.00  0.00    -0.283 OA
ATOM     24  C   UNL     1      -5.206   0.530   0.621  0.00  0.00    +0.230 C 
ENDBRANCH  21  24
ENDBRANCH   8  21
TORSDOF 4
