REMARK  Name = 101485571
REMARK  7 active torsions:
REMARK  status: ('A' for Active; 'I' for Inactive)
REMARK    1  A    between atoms: C_9  and  O_22
REMARK    2  A    between atoms: C_10  and  O_24
REMARK    3  A    between atoms: C_12  and  C_27
REMARK    4  A    between atoms: C_13  and  C_18
REMARK    5  A    between atoms: C_15  and  O_30
REMARK    6  A    between atoms: C_27  and  O_28
REMARK    7  A    between atoms: O_30  and  C_32
REMARK                            x       y       z     vdW  Elec       q    Type
REMARK                         _______ _______ _______ _____ _____    ______ ____
ROOT
ATOM      1  O   UNL     1      -3.380   1.855   0.396  0.00  0.00    -0.329 OA
ATOM      2  C   UNL     1      -0.832   0.780  -0.672  0.00  0.00    +0.010 C 
ATOM      3  C   UNL     1       0.553   0.167  -0.219  0.00  0.00    +0.035 C 
ATOM      4  C   UNL     1       1.821   1.104  -0.412  0.00  0.00    +0.027 C 
ATOM      5  C   UNL     1      -0.988   2.123   0.110  0.00  0.00    +0.056 C 
ATOM      6  C   UNL     1       1.509   2.464   0.275  0.00  0.00    +0.004 C 
ATOM      7  C   UNL     1       0.172   3.089  -0.148  0.00  0.00    +0.005 C 
ATOM      8  C   UNL     1      -2.015  -0.118  -0.198  0.00  0.00    +0.035 C 
ATOM      9  C   UNL     1       0.835  -1.299  -0.632  0.00  0.00    +0.155 C 
ATOM     10  C   UNL     1      -2.372   2.765  -0.055  0.00  0.00    +0.232 C 
ATOM     11  C   UNL     1      -0.954   0.935  -2.205  0.00  0.00    +0.000 C 
ATOM     12  C   UNL     1       3.029   0.409   0.231  0.00  0.00    +0.052 C 
ATOM     13  C   UNL     1      -3.385   0.591  -0.274  0.00  0.00    +0.143 C 
ATOM     14  C   UNL     1       2.253   1.386  -1.870  0.00  0.00    +0.005 C 
ATOM     15  C   UNL     1       1.966  -1.867   0.247  0.00  0.00    +0.217 C 
ATOM     16  C   UNL     1       3.090  -0.905   0.507  0.00  0.00    +0.021 C 
ENDROOT
BRANCH  13  18
ATOM     17  O   UNL     1      -6.074  -1.800   0.514  0.00  0.00    -0.448 OA
ATOM     18  C   UNL     1      -4.441  -0.268   0.315  0.00  0.00    +0.045 C 
ATOM     19  C   UNL     1      -4.863  -0.296   1.665  0.00  0.00    +0.042 C 
ATOM     20  C   UNL     1      -5.208  -1.201  -0.345  0.00  0.00    +0.178 C 
ATOM     21  C   UNL     1      -5.857  -1.244   1.735  0.00  0.00    +0.179 C 
ENDBRANCH  13  18
BRANCH   9  22
ATOM     22  O   UNL     1       1.178  -1.403  -2.006  0.00  0.00    -0.380 OA
ATOM     23  H   UNL     1       0.458  -1.042  -2.547  0.00  0.00    +0.211 HD
ENDBRANCH   9  22
BRANCH  10  24
ATOM     24  O   UNL     1      -2.593   3.228  -1.379  0.00  0.00    -0.360 OA
ATOM     25  H   UNL     1      -3.476   3.625  -1.439  0.00  0.00    +0.213 HD
ENDBRANCH  10  24
BRANCH  12  27
ATOM     26  O   UNL     1       5.167   1.333  -0.205  0.00  0.00    -0.245 OA
ATOM     27  C   UNL     1       4.243   1.166   0.570  0.00  0.00    +0.337 C 
BRANCH  27  28
ATOM     28  O   UNL     1       4.129   1.611   1.845  0.00  0.00    -0.442 OA
ATOM     29  C   UNL     1       5.242   2.372   2.326  0.00  0.00    +0.256 C 
ENDBRANCH  27  28
ENDBRANCH  12  27
BRANCH  15  30
ATOM     30  O   UNL     1       2.489  -3.061  -0.325  0.00  0.00    -0.445 OA
BRANCH  30  32
ATOM     31  O   UNL     1       0.907  -4.312   0.801  0.00  0.00    -0.250 OA
ATOM     32  C   UNL     1       1.861  -4.218   0.041  0.00  0.00    +0.318 C 
ATOM     33  C   UNL     1       2.515  -5.386  -0.633  0.00  0.00    +0.121 C 
ENDBRANCH  30  32
ENDBRANCH  15  30
TORSDOF 7
