10149453
  -OEChem-03292013303D

 35 36  0     0  0  0  0  0  0999 V2000
    0.8486    0.7975   -1.3488 O   0  0  0  0  0  0  0  0  0  0  0  0
   -3.7002   -0.4041   -2.0921 O   0  0  0  0  0  0  0  0  0  0  0  0
    2.8191    2.4047   -0.2501 O   0  0  0  0  0  0  0  0  0  0  0  0
    4.9710    1.2413    1.0481 O   0  0  0  0  0  0  0  0  0  0  0  0
   -5.0472    0.8387    0.7355 O   0  0  0  0  0  0  0  0  0  0  0  0
   -4.6831   -1.3871    1.0172 O   0  0  0  0  0  0  0  0  0  0  0  0
   -1.9046    0.3447    1.0177 C   0  0  0  0  0  0  0  0  0  0  0  0
   -0.3938    0.5368   -0.8578 C   0  0  0  0  0  0  0  0  0  0  0  0
   -2.9404    0.0028    0.1482 C   0  0  0  0  0  0  0  0  0  0  0  0
   -0.6314    0.6116    0.5147 C   0  0  0  0  0  0  0  0  0  0  0  0
    1.9306    0.2326   -0.6948 C   0  0  0  0  0  0  0  0  0  0  0  0
   -2.7029   -0.0720   -1.2242 C   0  0  0  0  0  0  0  0  0  0  0  0
    3.0904   -1.7289    0.0480 C   0  0  0  0  0  0  0  0  0  0  0  0
   -1.4297    0.1951   -1.7272 C   0  0  0  0  0  0  0  0  0  0  0  0
    2.0046   -1.1466   -0.6061 C   0  0  0  0  0  0  0  0  0  0  0  0
    2.9070    1.0478   -0.1505 C   0  0  0  0  0  0  0  0  0  0  0  0
   -2.1292    0.4333    2.4924 C   0  0  0  0  0  0  0  0  0  0  0  0
    4.0845   -0.9229    0.6029 C   0  0  0  0  0  0  0  0  0  0  0  0
    3.9927    0.4655    0.5036 C   0  0  0  0  0  0  0  0  0  0  0  0
    3.1881   -3.2132    0.1547 C   0  0  0  0  0  0  0  0  0  0  0  0
   -4.2741   -0.2776    0.6686 C   0  0  0  0  0  0  0  0  0  0  0  0
    0.1633    0.8961    1.1999 H   0  0  0  0  0  0  0  0  0  0  0  0
   -1.2435    0.1367   -2.7967 H   0  0  0  0  0  0  0  0  0  0  0  0
    1.2375   -1.7762   -1.0492 H   0  0  0  0  0  0  0  0  0  0  0  0
   -2.8661    1.2098    2.7221 H   0  0  0  0  0  0  0  0  0  0  0  0
   -2.4789   -0.5268    2.8861 H   0  0  0  0  0  0  0  0  0  0  0  0
   -1.2099    0.6875    3.0313 H   0  0  0  0  0  0  0  0  0  0  0  0
    4.9342   -1.3711    1.1123 H   0  0  0  0  0  0  0  0  0  0  0  0
    3.7302   -3.5107    1.0587 H   0  0  0  0  0  0  0  0  0  0  0  0
    2.1944   -3.6705    0.2126 H   0  0  0  0  0  0  0  0  0  0  0  0
    3.7113   -3.6188   -0.7169 H   0  0  0  0  0  0  0  0  0  0  0  0
   -4.5303   -0.5623   -1.6145 H   0  0  0  0  0  0  0  0  0  0  0  0
    3.7029    2.7969   -0.1637 H   0  0  0  0  0  0  0  0  0  0  0  0
    4.6220    2.1298    1.2255 H   0  0  0  0  0  0  0  0  0  0  0  0
   -5.9417    0.6429    1.0873 H   0  0  0  0  0  0  0  0  0  0  0  0
  1  8  1  0  0  0  0
  1 11  1  0  0  0  0
  2 12  1  0  0  0  0
  2 32  1  0  0  0  0
  3 16  1  0  0  0  0
  3 33  1  0  0  0  0
  4 19  1  0  0  0  0
  4 34  1  0  0  0  0
  5 21  1  0  0  0  0
  5 35  1  0  0  0  0
  6 21  2  0  0  0  0
  7  9  1  0  0  0  0
  7 10  2  0  0  0  0
  7 17  1  0  0  0  0
  8 10  1  0  0  0  0
  8 14  2  0  0  0  0
  9 12  2  0  0  0  0
  9 21  1  0  0  0  0
 10 22  1  0  0  0  0
 11 15  2  0  0  0  0
 11 16  1  0  0  0  0
 12 14  1  0  0  0  0
 13 15  1  0  0  0  0
 13 18  2  0  0  0  0
 13 20  1  0  0  0  0
 14 23  1  0  0  0  0
 15 24  1  0  0  0  0
 16 19  2  0  0  0  0
 17 25  1  0  0  0  0
 17 26  1  0  0  0  0
 17 27  1  0  0  0  0
 18 19  1  0  0  0  0
 18 28  1  0  0  0  0
 20 29  1  0  0  0  0
 20 30  1  0  0  0  0
 20 31  1  0  0  0  0
M  END
> <PUBCHEM_COMPOUND_CID>
10149453

> <PUBCHEM_CONFORMER_RMSD>
0.6

> <PUBCHEM_CONFORMER_DIVERSEORDER>
2
21
20
13
33
34
29
17
27
14
25
19
30
6
31
18
28
7
15
22
16
5
8
24
4
1
32
26
10
23
3
12
9
11

> <PUBCHEM_MMFF94_PARTIAL_CHARGES>
29
1 -0.17
10 -0.15
11 0.08
12 0.08
13 -0.14
14 -0.15
15 -0.15
16 0.08
17 0.14
18 -0.15
19 0.08
2 -0.53
20 0.14
21 0.63
22 0.15
23 0.15
24 0.15
28 0.15
3 -0.53
32 0.45
33 0.45
34 0.45
35 0.5
4 -0.53
5 -0.65
6 -0.57
7 -0.14
8 0.08
9 0.09

> <PUBCHEM_EFFECTIVE_ROTOR_COUNT>
3

> <PUBCHEM_PHARMACOPHORE_FEATURES>
9
1 1 acceptor
1 2 donor
1 3 donor
1 4 donor
1 5 acceptor
1 6 acceptor
3 5 6 21 anion
6 11 13 15 16 18 19 rings
6 7 8 9 10 12 14 rings

> <PUBCHEM_HEAVY_ATOM_COUNT>
21

> <PUBCHEM_ATOM_DEF_STEREO_COUNT>
0

> <PUBCHEM_ATOM_UDEF_STEREO_COUNT>
0

> <PUBCHEM_BOND_DEF_STEREO_COUNT>
0

> <PUBCHEM_BOND_UDEF_STEREO_COUNT>
0

> <PUBCHEM_ISOTOPIC_ATOM_COUNT>
0

> <PUBCHEM_COMPONENT_COUNT>
1

> <PUBCHEM_CACTVS_TAUTO_COUNT>
234

> <PUBCHEM_CONFORMER_ID>
009ADE4D00000002

> <PUBCHEM_MMFF94_ENERGY>
75.1171

> <PUBCHEM_FEATURE_SELFOVERLAP>
45.733

> <PUBCHEM_SHAPE_FINGERPRINT>
10366900 7 18114757009265788624
10498660 4 15626506102945268953
114674 6 18041283154036412778
11578080 2 17485889074206114209
11582403 64 15948154022300665788
11595378 159 17417816119012361561
12236239 1 17846779615453368812
12363563 72 16877949334147760076
12403814 3 18060417998155045841
12596602 18 17917433158880970747
12670546 56 18340210679062104945
12892183 10 18341620308518353001
13296908 3 17603585209784362046
13533116 47 18339932519499518475
13583140 156 18272933851744307985
13631057 29 17841697810138731934
13675066 3 18409731725291161437
13862211 1 15502382270563182017
13965767 371 17199702608866454352
14251764 30 17840040546296547054
14252887 29 18186802457193874850
14341114 328 17489586779212577242
14386348 63 17530970163583383506
15375358 24 17603576422650474412
15375462 189 17989484134363485947
15484559 13 13494689679951037779
15635459 17 17822014177264142410
15848702 151 18041003942696519595
16752209 62 14923937955748170433
1813 80 17842293467085640406
19050596 39 17632291280948047798
19141452 34 17822299007032239187
200 152 18340757195847971229
20645477 70 18113902662982029026
20715895 44 17269770018450172721
22224240 67 18338228375803694680
23557571 272 17094958848873853797
23559900 14 15719684254854463636
26918003 58 18408885131223053945
341906 21 15769488755537463851
4072396 5 17274266029054056665
4340502 62 18341339976145653907
474 4 18200873006368949944
7097593 13 17200519511625014974
7808743 9 15267052688325474056
81228 2 17315348129579657116
90316 7 17060052610583033897
9709674 26 17022908964217650443

> <PUBCHEM_SHAPE_MULTIPOLES>
396.95
9.98
1.91
1.68
2.21
1.05
0.07
1.16
2.78
-2.94
0.18
1.77
-0.16
-0.09

> <PUBCHEM_SHAPE_SELFOVERLAP>
864.611

> <PUBCHEM_SHAPE_VOLUME>
217.4

> <PUBCHEM_COORDINATE_TYPE>
2
5
10

$$$$
