REMARK  Name = 101463298
REMARK  5 active torsions:
REMARK  status: ('A' for Active; 'I' for Inactive)
REMARK    1  A    between atoms: C_1  and  C_7
REMARK    2  A    between atoms: C_1  and  C_20
REMARK    3  A    between atoms: C_8  and  C_16
REMARK    4  A    between atoms: C_20  and  C_22
REMARK    5  A    between atoms: C_23  and  N_33
REMARK                            x       y       z     vdW  Elec       q    Type
REMARK                         _______ _______ _______ _____ _____    ______ ____
ROOT
ATOM      1  C   UNL     1      -0.839   0.243   1.161  0.00  0.00    +0.096 C 
ENDROOT
BRANCH   1   7
ATOM      2  O   UNL     1      -2.985   2.092   1.578  0.00  0.00    -0.273 OA
ATOM      3  O   UNL     1      -4.608  -2.649   0.546  0.00  0.00    -0.273 OA
ATOM      4  N   UNL     1      -4.469   0.723   0.411  0.00  0.00    -0.273 N 
ATOM      5  N   UNL     1      -2.797  -1.225   0.918  0.00  0.00    -0.298 N 
ATOM      6  C   UNL     1      -4.554  -0.428  -0.482  0.00  0.00    +0.129 C 
ATOM      7  C   UNL     1      -2.187   0.044   0.477  0.00  0.00    +0.137 C 
ATOM      8  C   UNL     1      -2.132   0.022  -1.083  0.00  0.00    +0.046 C 
ATOM      9  C   UNL     1      -3.564  -0.246  -1.644  0.00  0.00    +0.033 C 
ATOM     10  C   UNL     1      -6.025  -0.490  -0.886  0.00  0.00    +0.029 C 
ATOM     11  C   UNL     1      -3.232   1.086   0.926  0.00  0.00    +0.242 C 
ATOM     12  C   UNL     1      -5.749   1.361   0.627  0.00  0.00    +0.094 C 
ATOM     13  C   UNL     1      -4.049  -1.571   0.397  0.00  0.00    +0.239 C 
ATOM     14  C   UNL     1      -6.742   0.272   0.238  0.00  0.00    +0.024 C 
ATOM     15  H   UNL     1      -2.336  -1.812   1.560  0.00  0.00    +0.150 HD
BRANCH   8  16
ATOM     16  C   UNL     1      -1.544   1.257  -1.702  0.00  0.00    -0.042 C 
ATOM     17  C   UNL     1      -0.313   1.058  -2.535  0.00  0.00    +0.026 C 
ATOM     18  C   UNL     1      -2.088   2.470  -1.521  0.00  0.00    -0.009 C 
ENDBRANCH   8  16
ENDBRANCH   1   7
BRANCH   1  20
ATOM     19  O   UNL     1      -0.126  -1.912   0.354  0.00  0.00    -0.291 OA
ATOM     20  C   UNL     1       0.190  -0.778   0.708  0.00  0.00    +0.176 C 
BRANCH  20  22
ATOM     21  O   UNL     1       5.598   0.840   0.814  0.00  0.00    -0.479 OA
ATOM     22  C   UNL     1       1.630  -0.384   0.695  0.00  0.00    +0.048 C 
ATOM     23  C   UNL     1       2.531  -0.937  -0.217  0.00  0.00    +0.047 C 
ATOM     24  C   UNL     1       2.066   0.559   1.622  0.00  0.00    +0.007 C 
ATOM     25  C   UNL     1       3.875  -0.547  -0.204  0.00  0.00    +0.047 C 
ATOM     26  C   UNL     1       3.404   0.951   1.639  0.00  0.00    +0.037 C 
ATOM     27  C   UNL     1       4.308   0.399   0.727  0.00  0.00    +0.140 C 
ATOM     28  C   UNL     1       4.821  -1.116  -1.149  0.00  0.00    +0.003 C 
ATOM     29  C   UNL     1       6.587   0.312  -0.096  0.00  0.00    +0.152 C 
ATOM     30  C   UNL     1       6.091  -0.709  -1.093  0.00  0.00    +0.013 C 
ATOM     31  C   UNL     1       7.163   1.516  -0.851  0.00  0.00    +0.048 C 
ATOM     32  C   UNL     1       7.679  -0.321   0.774  0.00  0.00    +0.048 C 
BRANCH  23  33
ATOM     33  N   UNL     1       2.059  -1.895  -1.149  0.00  0.00    -0.357 N 
ATOM     34  H   UNL     1       1.111  -2.159  -1.146  0.00  0.00    +0.142 HD
ATOM     35  H   UNL     1       2.680  -2.296  -1.800  0.00  0.00    +0.142 HD
ENDBRANCH  23  33
ENDBRANCH  20  22
ENDBRANCH   1  20
TORSDOF 5
