101489518
  -OEChem-03292013293D

 64 65  0     1  0  0  0  0  0999 V2000
    2.9481    0.9580    3.2392 O   0  0  0  0  0  0  0  0  0  0  0  0
    1.0992    1.5939   -3.4714 O   0  0  0  0  0  0  0  0  0  0  0  0
    3.8396   -0.4139   -0.1594 O   0  0  0  0  0  0  0  0  0  0  0  0
    2.9811    2.0508   -2.2950 O   0  0  0  0  0  0  0  0  0  0  0  0
   -3.6366   -0.6670   -1.5916 O   0  0  0  0  0  0  0  0  0  0  0  0
   -5.3805   -1.8098   -0.6997 O   0  0  0  0  0  0  0  0  0  0  0  0
    1.6236    1.9323    0.1305 N   0  0  0  0  0  0  0  0  0  0  0  0
    1.2459   -2.6986    0.2557 N   0  0  0  0  0  0  0  0  0  0  0  0
   -4.0755   -0.7503    1.7367 N   0  0  0  0  0  0  0  0  0  0  0  0
   -4.5906    4.6442    0.6063 N   0  0  0  0  0  0  0  0  0  0  0  0
    0.8671    1.7674   -1.0938 C   0  0  1  0  0  0  0  0  0  0  0  0
   -0.2826    2.7840   -1.2596 C   0  0  0  0  0  0  0  0  0  0  0  0
   -0.0226   -3.2173    0.7043 C   0  0  0  0  0  0  0  0  0  0  0  0
   -1.0658   -3.1685   -0.4097 C   0  0  0  0  0  0  0  0  0  0  0  0
   -1.3196    2.7908   -0.1275 C   0  0  0  0  0  0  0  0  0  0  0  0
    1.7857    1.0034    1.1248 C   0  0  0  0  0  0  0  0  0  0  0  0
    1.6986   -1.4030    0.4440 C   0  0  0  0  0  0  0  0  0  0  0  0
   -2.4428   -3.7267   -0.0262 C   0  0  0  0  0  0  0  0  0  0  0  0
    2.2711   -3.4457   -0.3396 C   0  0  0  0  0  0  0  0  0  0  0  0
    1.1462   -0.3180    0.9921 C   0  0  0  0  0  0  0  0  0  0  0  0
   -3.1697   -2.9183    1.0535 C   0  0  0  0  0  0  0  0  0  0  0  0
   -2.5132    3.7328   -0.3195 C   0  0  0  0  0  0  0  0  0  0  0  0
    2.2960    3.0802    0.4603 C   0  0  0  0  0  0  0  0  0  0  0  0
    2.5740    1.5667    2.1039 C   0  0  0  0  0  0  0  0  0  0  0  0
    3.0839   -1.3641   -0.1089 C   0  0  0  0  0  0  0  0  0  0  0  0
    3.3816   -2.7314   -0.5928 C   0  0  0  0  0  0  0  0  0  0  0  0
    1.7782    1.8249   -2.3160 C   0  0  0  0  0  0  0  0  0  0  0  0
   -3.3845   -1.4529    0.6525 C   0  0  1  0  0  0  0  0  0  0  0  0
    2.8970    2.8805    1.6834 C   0  0  0  0  0  0  0  0  0  0  0  0
   -3.4952    3.7121    0.8510 C   0  0  0  0  0  0  0  0  0  0  0  0
    2.1179   -4.8976   -0.6412 C   0  0  0  0  0  0  0  0  0  0  0  0
   -4.2557   -1.3389   -0.5864 C   0  0  0  0  0  0  0  0  0  0  0  0
    0.4291    0.7642   -1.1002 H   0  0  0  0  0  0  0  0  0  0  0  0
   -0.8152    2.5795   -2.1973 H   0  0  0  0  0  0  0  0  0  0  0  0
    0.1265    3.7970   -1.3688 H   0  0  0  0  0  0  0  0  0  0  0  0
    0.0849   -4.2484    1.0621 H   0  0  0  0  0  0  0  0  0  0  0  0
   -0.3748   -2.6497    1.5728 H   0  0  0  0  0  0  0  0  0  0  0  0
   -1.1549   -2.1489   -0.8002 H   0  0  0  0  0  0  0  0  0  0  0  0
   -0.7011   -3.7623   -1.2577 H   0  0  0  0  0  0  0  0  0  0  0  0
   -0.8218    3.0569    0.8127 H   0  0  0  0  0  0  0  0  0  0  0  0
   -1.6999    1.7694    0.0019 H   0  0  0  0  0  0  0  0  0  0  0  0
   -2.3257   -4.7588    0.3264 H   0  0  0  0  0  0  0  0  0  0  0  0
   -3.0640   -3.7811   -0.9281 H   0  0  0  0  0  0  0  0  0  0  0  0
    0.1352   -0.3749    1.3873 H   0  0  0  0  0  0  0  0  0  0  0  0
   -4.1369   -3.4024    1.2441 H   0  0  0  0  0  0  0  0  0  0  0  0
   -2.6087   -2.9725    1.9943 H   0  0  0  0  0  0  0  0  0  0  0  0
   -3.0357    3.4558   -1.2442 H   0  0  0  0  0  0  0  0  0  0  0  0
   -2.1360    4.7535   -0.4634 H   0  0  0  0  0  0  0  0  0  0  0  0
    2.2978    3.9443   -0.1906 H   0  0  0  0  0  0  0  0  0  0  0  0
    4.3081   -3.0502   -1.0370 H   0  0  0  0  0  0  0  0  0  0  0  0
   -2.4294   -0.9464    0.4848 H   0  0  0  0  0  0  0  0  0  0  0  0
    3.5007    3.6050    2.2120 H   0  0  0  0  0  0  0  0  0  0  0  0
   -3.8981    2.7029    0.9875 H   0  0  0  0  0  0  0  0  0  0  0  0
   -2.9830    3.9959    1.7764 H   0  0  0  0  0  0  0  0  0  0  0  0
    1.9478   -5.4692    0.2765 H   0  0  0  0  0  0  0  0  0  0  0  0
    3.0170   -5.3034   -1.1177 H   0  0  0  0  0  0  0  0  0  0  0  0
    1.2806   -5.0694   -1.3238 H   0  0  0  0  0  0  0  0  0  0  0  0
   -4.1450    0.2413    1.5101 H   0  0  0  0  0  0  0  0  0  0  0  0
   -3.5191   -0.8069    2.5891 H   0  0  0  0  0  0  0  0  0  0  0  0
    3.5009    1.5559    3.7724 H   0  0  0  0  0  0  0  0  0  0  0  0
    1.6883    1.6327   -4.2548 H   0  0  0  0  0  0  0  0  0  0  0  0
   -5.2633    4.5820    1.3693 H   0  0  0  0  0  0  0  0  0  0  0  0
   -5.0911    4.3712   -0.2386 H   0  0  0  0  0  0  0  0  0  0  0  0
   -4.1995   -0.6075   -2.3927 H   0  0  0  0  0  0  0  0  0  0  0  0
  1 24  1  0  0  0  0
  1 60  1  0  0  0  0
  2 27  1  0  0  0  0
  2 61  1  0  0  0  0
  3 25  2  0  0  0  0
  4 27  2  0  0  0  0
  5 32  1  0  0  0  0
  5 64  1  0  0  0  0
  6 32  2  0  0  0  0
  7 11  1  0  0  0  0
  7 16  1  0  0  0  0
  7 23  1  0  0  0  0
  8 13  1  0  0  0  0
  8 17  1  0  0  0  0
  8 19  1  0  0  0  0
  9 28  1  0  0  0  0
  9 58  1  0  0  0  0
  9 59  1  0  0  0  0
 10 30  1  0  0  0  0
 10 62  1  0  0  0  0
 10 63  1  0  0  0  0
 11 12  1  0  0  0  0
 11 27  1  0  0  0  0
 11 33  1  0  0  0  0
 12 15  1  0  0  0  0
 12 34  1  0  0  0  0
 12 35  1  0  0  0  0
 13 14  1  0  0  0  0
 13 36  1  0  0  0  0
 13 37  1  0  0  0  0
 14 18  1  0  0  0  0
 14 38  1  0  0  0  0
 14 39  1  0  0  0  0
 15 22  1  0  0  0  0
 15 40  1  0  0  0  0
 15 41  1  0  0  0  0
 16 20  1  0  0  0  0
 16 24  2  0  0  0  0
 17 20  2  0  0  0  0
 17 25  1  0  0  0  0
 18 21  1  0  0  0  0
 18 42  1  0  0  0  0
 18 43  1  0  0  0  0
 19 26  2  0  0  0  0
 19 31  1  0  0  0  0
 20 44  1  0  0  0  0
 21 28  1  0  0  0  0
 21 45  1  0  0  0  0
 21 46  1  0  0  0  0
 22 30  1  0  0  0  0
 22 47  1  0  0  0  0
 22 48  1  0  0  0  0
 23 29  2  0  0  0  0
 23 49  1  0  0  0  0
 24 29  1  0  0  0  0
 25 26  1  0  0  0  0
 26 50  1  0  0  0  0
 28 32  1  0  0  0  0
 28 51  1  0  0  0  0
 29 52  1  0  0  0  0
 30 53  1  0  0  0  0
 30 54  1  0  0  0  0
 31 55  1  0  0  0  0
 31 56  1  0  0  0  0
 31 57  1  0  0  0  0
M  END
> <PUBCHEM_COMPOUND_CID>
101489518

> <PUBCHEM_CONFORMER_RMSD>
1.2

> <PUBCHEM_CONFORMER_DIVERSEORDER>
1
46
73
54
98
95
75
76
99
84
33
34
63
90
83
28
27
23
22
92
42
91
7
101
77
45
2
35
86
43
57
66
36
48
20
3
13
102
29
79
71
39
78
85
70
31
67
68
94
50
80
97
32
37
44
5
59
56
55
25
81
72
62
47
87
38
49
93
30
17
61
82
24
14
6
15
16
60
100
88
65
52
10
53
64
11
74
41
12
96
40
26
89
18
51
69
58
8
4
21
19
9

> <PUBCHEM_MMFF94_PARTIAL_CHARGES>
37
1 -0.51
10 -0.99
11 0.32
13 0.37
16 -0.2
17 0.11
19 -0.04
2 -0.65
20 -0.11
23 -0.3
24 0.06
25 0.54
26 -0.14
27 0.66
28 0.33
29 -0.15
3 -0.57
30 0.27
31 0.14
32 0.66
4 -0.57
44 0.15
49 0.15
5 -0.65
50 0.15
52 0.15
58 0.36
59 0.36
6 -0.57
60 0.45
61 0.5
62 0.36
63 0.36
64 0.5
7 0.05
8 -0.57
9 -0.99

> <PUBCHEM_EFFECTIVE_ROTOR_COUNT>
13.2

> <PUBCHEM_PHARMACOPHORE_FEATURES>
16
1 1 donor
1 10 cation
1 10 donor
1 2 acceptor
1 3 acceptor
1 4 acceptor
1 5 acceptor
1 6 acceptor
1 7 cation
1 8 cation
1 9 cation
1 9 donor
3 2 4 27 anion
3 5 6 32 anion
5 7 16 23 24 29 rings
5 8 17 19 25 26 rings

> <PUBCHEM_HEAVY_ATOM_COUNT>
32

> <PUBCHEM_ATOM_DEF_STEREO_COUNT>
2

> <PUBCHEM_ATOM_UDEF_STEREO_COUNT>
0

> <PUBCHEM_BOND_DEF_STEREO_COUNT>
1

> <PUBCHEM_BOND_UDEF_STEREO_COUNT>
0

> <PUBCHEM_ISOTOPIC_ATOM_COUNT>
0

> <PUBCHEM_COMPONENT_COUNT>
1

> <PUBCHEM_CACTVS_TAUTO_COUNT>
5

> <PUBCHEM_CONFORMER_ID>
060C9B6E00000001

> <PUBCHEM_MMFF94_ENERGY>
51.1908

> <PUBCHEM_FEATURE_SELFOVERLAP>
81.316

> <PUBCHEM_SHAPE_FINGERPRINT>
11513181 2 18201433658303774311
11582403 64 15694618838980088130
11725454 13 16051542333537342722
12156800 1 17908458794735760415
12422481 6 17973413763323734744
14863182 85 18264483064975119532
17974551 9 17843097235211776009
20764821 26 18120940761307492311
338550 245 18191316987756100573
463206 1 17764302847615059943
513532 50 17986398990836045415
550186 7 16185803796994320560
581034 39 18338526329979550696

> <PUBCHEM_SHAPE_MULTIPOLES>
603.41
7.93
7.34
2.19
9.09
1.41
-0.51
0.44
0.9
2.64
-0.1
-1.51
-1.98
0.56

> <PUBCHEM_SHAPE_SELFOVERLAP>
1242.837

> <PUBCHEM_SHAPE_VOLUME>
345.9

> <PUBCHEM_COORDINATE_TYPE>
2
5
10

$$$$
