REMARK  Name = 101412351
REMARK  9 active torsions:
REMARK  status: ('A' for Active; 'I' for Inactive)
REMARK    1  A    between atoms: C_4  and  O_18
REMARK    2  A    between atoms: C_10  and  O_20
REMARK    3  A    between atoms: C_16  and  C_29
REMARK    4  A    between atoms: O_20  and  C_22
REMARK    5  A    between atoms: C_22  and  C_23
REMARK    6  A    between atoms: C_23  and  C_26
REMARK    7  A    between atoms: C_23  and  O_27
REMARK    8  A    between atoms: C_29  and  O_30
REMARK    9  A    between atoms: O_30  and  C_32
REMARK                            x       y       z     vdW  Elec       q    Type
REMARK                         _______ _______ _______ _____ _____    ______ ____
ROOT
ATOM      1  O   UNL     1      -2.245   0.698  -0.099  0.00  0.00    -0.335 OA
ATOM      2  O   UNL     1       1.256   2.337   2.018  0.00  0.00    -0.422 OA
ATOM      3  O   UNL     1       3.526   2.525   1.785  0.00  0.00    -0.245 OA
ATOM      4  C   UNL     1      -2.383   1.602  -1.200  0.00  0.00    +0.184 C 
ATOM      5  C   UNL     1      -2.349   1.400   1.131  0.00  0.00    +0.117 C 
ATOM      6  C   UNL     1      -1.020   1.732  -1.923  0.00  0.00    +0.055 C 
ATOM      7  C   UNL     1      -2.848   2.943  -0.616  0.00  0.00    +0.059 C 
ATOM      8  C   UNL     1      -3.273   2.571   0.791  0.00  0.00    +0.037 C 
ATOM      9  C   UNL     1      -0.232   0.401  -2.003  0.00  0.00    +0.053 C 
ATOM     10  C   UNL     1       0.375  -0.159  -0.689  0.00  0.00    +0.194 C 
ATOM     11  C   UNL     1      -0.997   1.854   1.639  0.00  0.00    +0.038 C 
ATOM     12  C   UNL     1      -2.985   0.470   2.163  0.00  0.00    +0.034 C 
ATOM     13  C   UNL     1      -1.184   2.326  -3.330  0.00  0.00    +0.005 C 
ATOM     14  C   UNL     1       0.953   0.847   0.272  0.00  0.00    +0.057 C 
ATOM     15  C   UNL     1       0.282   1.634   1.284  0.00  0.00    +0.146 C 
ATOM     16  C   UNL     1       2.264   1.111   0.335  0.00  0.00    +0.100 C 
ATOM     17  C   UNL     1       2.454   2.061   1.435  0.00  0.00    +0.345 C 
ENDROOT
BRANCH   4  18
ATOM     18  O   UNL     1      -3.360   1.080  -2.097  0.00  0.00    -0.364 OA
ATOM     19  H   UNL     1      -3.050   0.234  -2.456  0.00  0.00    +0.213 HD
ENDBRANCH   4  18
BRANCH  10  20
ATOM     20  O   UNL     1      -0.497  -1.055  -0.004  0.00  0.00    -0.446 OA
BRANCH  20  22
ATOM     21  O   UNL     1       0.181  -2.772  -1.381  0.00  0.00    -0.247 OA
ATOM     22  C   UNL     1      -0.498  -2.347  -0.455  0.00  0.00    +0.343 C 
BRANCH  22  23
ATOM     23  C   UNL     1      -1.468  -3.199   0.362  0.00  0.00    +0.192 C 
ATOM     24  C   UNL     1      -1.062  -3.196   1.836  0.00  0.00    +0.042 C 
BRANCH  23  26
ATOM     25 CL   UNL     1      -4.114  -3.636   1.042  0.00  0.00    -0.111 Cl
ATOM     26  C   UNL     1      -2.902  -2.718   0.108  0.00  0.00    +0.133 C 
ENDBRANCH  23  26
BRANCH  23  27
ATOM     27  O   UNL     1      -1.354  -4.527  -0.146  0.00  0.00    -0.375 OA
ATOM     28  H   UNL     1      -1.610  -4.539  -1.082  0.00  0.00    +0.211 HD
ENDBRANCH  23  27
ENDBRANCH  22  23
ENDBRANCH  20  22
ENDBRANCH  10  20
BRANCH  16  29
ATOM     29  C   UNL     1       3.420   0.631  -0.464  0.00  0.00    +0.241 C 
BRANCH  29  30
ATOM     30  O   UNL     1       3.962  -0.549   0.113  0.00  0.00    -0.443 OA
BRANCH  30  32
ATOM     31  O   UNL     1       5.560  -0.652  -1.552  0.00  0.00    -0.250 OA
ATOM     32  C   UNL     1       5.037  -1.091  -0.536  0.00  0.00    +0.318 C 
ATOM     33  C   UNL     1       5.499  -2.323   0.181  0.00  0.00    +0.121 C 
ENDBRANCH  30  32
ENDBRANCH  29  30
ENDBRANCH  16  29
TORSDOF 9
