REMARK  Name = 101463299
REMARK  5 active torsions:
REMARK  status: ('A' for Active; 'I' for Inactive)
REMARK    1  A    between atoms: C_4  and  C_18
REMARK    2  A    between atoms: C_4  and  C_23
REMARK    3  A    between atoms: C_18  and  C_21
REMARK    4  A    between atoms: C_23  and  C_28
REMARK    5  A    between atoms: C_29  and  O_36
REMARK                            x       y       z     vdW  Elec       q    Type
REMARK                         _______ _______ _______ _____ _____    ______ ____
ROOT
ATOM      1  O   UNL     1       0.866  -2.306  -2.164  0.00  0.00    -0.274 OA
ATOM      2  O   UNL     1      -4.144   1.637   1.071  0.00  0.00    -0.479 OA
ATOM      3  N   UNL     1      -0.879  -0.816  -1.682  0.00  0.00    -0.284 N 
ATOM      4  C   UNL     1       0.056  -2.000   0.147  0.00  0.00    +0.094 C 
ATOM      5  C   UNL     1      -1.056  -1.072   0.572  0.00  0.00    -0.001 C 
ATOM      6  C   UNL     1       0.104  -1.762  -1.379  0.00  0.00    +0.229 C 
ATOM      7  C   UNL     1      -1.567  -0.403  -0.542  0.00  0.00    +0.050 C 
ATOM      8  C   UNL     1      -1.574  -0.835   1.833  0.00  0.00    +0.001 C 
ATOM      9  C   UNL     1      -2.603   0.517  -0.450  0.00  0.00    +0.047 C 
ATOM     10  C   UNL     1      -3.127   0.755   0.825  0.00  0.00    +0.140 C 
ATOM     11  C   UNL     1      -2.616   0.087   1.955  0.00  0.00    +0.037 C 
ATOM     12  C   UNL     1      -3.144   1.226  -1.596  0.00  0.00    +0.003 C 
ATOM     13  C   UNL     1      -4.767   2.322  -0.036  0.00  0.00    +0.152 C 
ATOM     14  C   UNL     1      -4.159   2.070  -1.395  0.00  0.00    +0.013 C 
ATOM     15  C   UNL     1      -4.696   3.820   0.282  0.00  0.00    +0.048 C 
ATOM     16  C   UNL     1      -6.232   1.870  -0.047  0.00  0.00    +0.048 C 
ATOM     17  H   UNL     1      -1.063  -0.481  -2.589  0.00  0.00    +0.155 HD
ENDROOT
BRANCH   4  18
ATOM     18  C   UNL     1      -0.287  -3.463   0.427  0.00  0.00    +0.030 C 
ATOM     19  C   UNL     1      -1.623  -3.805  -0.265  0.00  0.00    +0.005 C 
ATOM     20  C   UNL     1      -0.466  -3.666   1.946  0.00  0.00    +0.005 C 
BRANCH  18  21
ATOM     21  C   UNL     1       0.879  -4.333  -0.027  0.00  0.00    -0.026 C 
ATOM     22  C   UNL     1       0.870  -5.305  -0.948  0.00  0.00    -0.005 C 
ENDBRANCH  18  21
ENDBRANCH   4  18
BRANCH   4  23
ATOM     23  C   UNL     1       1.395  -1.608   0.771  0.00  0.00    +0.042 C 
BRANCH  23  28
ATOM     24  O   UNL     1       2.910   0.003   2.530  0.00  0.00    -0.273 OA
ATOM     25  O   UNL     1       3.191   1.136  -2.672  0.00  0.00    -0.271 OA
ATOM     26  N   UNL     1       3.504   1.466   0.841  0.00  0.00    -0.253 N 
ATOM     27  N   UNL     1       2.376  -0.150  -0.943  0.00  0.00    -0.295 N 
ATOM     28  C   UNL     1       1.787  -0.187   0.392  0.00  0.00    +0.150 C 
ATOM     29  C   UNL     1       3.209   2.078  -0.447  0.00  0.00    +0.222 C 
ATOM     30  C   UNL     1       2.804   0.395   1.370  0.00  0.00    +0.245 C 
ATOM     31  C   UNL     1       4.450   2.924  -0.734  0.00  0.00    +0.058 C 
ATOM     32  C   UNL     1       4.601   2.134   1.521  0.00  0.00    +0.096 C 
ATOM     33  C   UNL     1       4.890   3.359   0.665  0.00  0.00    +0.026 C 
ATOM     34  C   UNL     1       2.969   0.985  -1.472  0.00  0.00    +0.265 C 
ATOM     35  H   UNL     1       2.350  -0.967  -1.491  0.00  0.00    +0.150 HD
BRANCH  29  36
ATOM     36  O   UNL     1       2.081   2.927  -0.349  0.00  0.00    -0.364 OA
ATOM     37  H   UNL     1       2.253   3.618   0.310  0.00  0.00    +0.213 HD
ENDBRANCH  29  36
ENDBRANCH  23  28
ENDBRANCH   4  23
TORSDOF 5
