REMARK  Name = 101523275
REMARK  6 active torsions:
REMARK  status: ('A' for Active; 'I' for Inactive)
REMARK    1  A    between atoms: C_7  and  N_24
REMARK    2  A    between atoms: C_15  and  N_29
REMARK    3  A    between atoms: C_16  and  N_23
REMARK    4  A    between atoms: N_24  and  O_27
REMARK    5  A    between atoms: N_29  and  O_30
REMARK    6  A    between atoms: N_29  and  O_32
REMARK                            x       y       z     vdW  Elec       q    Type
REMARK                         _______ _______ _______ _____ _____    ______ ____
ROOT
ATOM      1  O   UNL     1      -1.712   3.984   0.036  0.00  0.00    -0.209 OA
ATOM      2  O   UNL     1      -5.356  -1.075   0.023  0.00  0.00    -0.285 OA
ATOM      3  O   UNL     1       2.731  -3.656  -0.038  0.00  0.00    -0.285 OA
ATOM      4  N   UNL     1       0.606   3.657   0.023  0.00  0.00    -0.315 NA
ATOM      5  C   UNL     1       0.606   1.326   0.006  0.00  0.00    +0.059 C 
ATOM      6  C   UNL     1      -0.753   1.767   0.016  0.00  0.00    +0.099 C 
ATOM      7  C   UNL     1       1.358   2.591   0.012  0.00  0.00    +0.205 C 
ATOM      8  C   UNL     1       1.138   0.103  -0.005  0.00  0.00    +0.007 C 
ATOM      9  C   UNL     1      -1.893   1.056   0.017  0.00  0.00    +0.014 C 
ATOM     10  C   UNL     1      -0.729   3.260   0.026  0.00  0.00    +0.206 C 
ATOM     11  C   UNL     1       2.586  -0.067  -0.013  0.00  0.00    +0.028 C 
ATOM     12  C   UNL     1      -1.851  -0.397   0.006  0.00  0.00    +0.026 C 
ATOM     13  C   UNL     1       0.274  -1.072  -0.009  0.00  0.00    +0.004 C 
ATOM     14  C   UNL     1      -3.175   1.736   0.027  0.00  0.00    +0.004 C 
ATOM     15  C   UNL     1      -2.968  -1.144   0.007  0.00  0.00    +0.150 C 
ATOM     16  C   UNL     1       3.089  -1.305  -0.024  0.00  0.00    +0.182 C 
ATOM     17  C   UNL     1       0.780  -2.313  -0.020  0.00  0.00    +0.044 C 
ATOM     18  C   UNL     1      -4.318   1.040   0.029  0.00  0.00    +0.044 C 
ATOM     19  C   UNL     1      -4.300  -0.448   0.020  0.00  0.00    +0.216 C 
ATOM     20  C   UNL     1       2.255  -2.527  -0.028  0.00  0.00    +0.218 C 
ENDROOT
BRANCH  16  23
ATOM     21  O   UNL     1       5.111  -0.905  -0.985  0.00  0.00    -0.126 OA
ATOM     22  O   UNL     1       5.033  -2.017   0.915  0.00  0.00    -0.126 OA
ATOM     23  N   UNL     1       4.504  -1.416  -0.032  0.00  0.00    +0.061 N 
ENDBRANCH  16  23
BRANCH   7  24
ATOM     24  N   UNL     1       2.796   2.687   0.005  0.00  0.00    -0.330 NA
ATOM     25  H   UNL     1       3.410   1.918  -0.007  0.00  0.00    +0.167 HD
ATOM     26  H   UNL     1       3.663   2.908   0.417  0.00  0.00    +0.167 HD
BRANCH  24  27
ATOM     27  O   UNL     1       3.201   4.048   0.020  0.00  0.00    -0.308 OA
ATOM     28  H   UNL     1       4.170   4.097   0.015  0.00  0.00    +0.242 HD
ENDBRANCH  24  27
ENDBRANCH   7  24
BRANCH  15  29
ATOM     29  N   UNL     1      -2.999  -2.507  -0.001  0.00  0.00    -0.124 N 
BRANCH  29  30
ATOM     30  O   UNL     1      -4.032  -3.176  -0.617  0.00  0.00    -0.262 OA
ATOM     31  H   UNL     1      -3.896  -4.133  -0.528  0.00  0.00    +0.247 HD
ENDBRANCH  29  30
BRANCH  29  32
ATOM     32  O   UNL     1      -1.983  -3.229   0.582  0.00  0.00    -0.262 OA
ATOM     33  H   UNL     1      -2.164  -4.178   0.485  0.00  0.00    +0.247 HD
ENDBRANCH  29  32
ENDBRANCH  15  29
TORSDOF 6
