REMARK  Name = 101515731
REMARK  7 active torsions:
REMARK  status: ('A' for Active; 'I' for Inactive)
REMARK    1  A    between atoms: C_9  and  C_29
REMARK    2  A    between atoms: C_11  and  O_27
REMARK    3  A    between atoms: C_14  and  C_17
REMARK    4  A    between atoms: C_20  and  O_23
REMARK    5  A    between atoms: C_22  and  O_25
REMARK    6  A    between atoms: C_29  and  C_30
REMARK    7  A    between atoms: C_30  and  O_32
REMARK                            x       y       z     vdW  Elec       q    Type
REMARK                         _______ _______ _______ _____ _____    ______ ____
ROOT
ATOM      1  O   UNL     1       3.793  -0.071   0.428  0.00  0.00    -0.457 OA
ATOM      2  O   UNL     1      -1.015  -0.136  -0.014  0.00  0.00    -0.453 OA
ATOM      3  O   UNL     1       0.360   2.097   0.119  0.00  0.00    -0.286 OA
ATOM      4  O   UNL     1      -1.017  -4.201  -0.008  0.00  0.00    -0.286 OA
ATOM      5  C   UNL     1       1.364  -0.060   0.205  0.00  0.00    +0.108 C 
ATOM      6  C   UNL     1       0.179  -0.804   0.095  0.00  0.00    +0.157 C 
ATOM      7  C   UNL     1       2.589  -0.724   0.317  0.00  0.00    +0.154 C 
ATOM      8  C   UNL     1       0.241  -2.201   0.100  0.00  0.00    +0.107 C 
ATOM      9  C   UNL     1       3.797   1.311   0.431  0.00  0.00    +0.128 C 
ATOM     10  C   UNL     1       1.374   1.420   0.209  0.00  0.00    +0.204 C 
ATOM     11  C   UNL     1       1.467  -2.861   0.212  0.00  0.00    +0.143 C 
ATOM     12  C   UNL     1       2.641  -2.119   0.320  0.00  0.00    +0.074 C 
ATOM     13  C   UNL     1       2.695   2.067   0.331  0.00  0.00    +0.075 C 
ATOM     14  C   UNL     1      -2.189  -0.860  -0.128  0.00  0.00    +0.149 C 
ATOM     15  C   UNL     1      -1.005  -2.977  -0.011  0.00  0.00    +0.205 C 
ATOM     16  C   UNL     1      -2.253  -2.200  -0.127  0.00  0.00    +0.080 C 
ENDROOT
BRANCH  14  17
ATOM     17  C   UNL     1      -3.401  -0.022  -0.232  0.00  0.00    +0.038 C 
ATOM     18  C   UNL     1      -3.717   0.875   0.788  0.00  0.00    +0.043 C 
ATOM     19  C   UNL     1      -4.230  -0.129  -1.349  0.00  0.00    +0.006 C 
ATOM     20  C   UNL     1      -4.862   1.667   0.691  0.00  0.00    +0.168 C 
ATOM     21  C   UNL     1      -5.375   0.663  -1.445  0.00  0.00    +0.040 C 
ATOM     22  C   UNL     1      -5.691   1.560  -0.426  0.00  0.00    +0.167 C 
BRANCH  20  23
ATOM     23  O   UNL     1      -5.160   2.540   1.694  0.00  0.00    -0.503 OA
ATOM     24  H   UNL     1      -4.598   2.605   2.441  0.00  0.00    +0.292 HD
ENDBRANCH  20  23
BRANCH  22  25
ATOM     25  O   UNL     1      -6.811   2.327  -0.532  0.00  0.00    -0.503 OA
ATOM     26  H   UNL     1      -7.031   2.933   0.148  0.00  0.00    +0.292 HD
ENDBRANCH  22  25
ENDBRANCH  14  17
BRANCH  11  27
ATOM     27  O   UNL     1       1.574  -4.219   0.221  0.00  0.00    -0.505 OA
ATOM     28  H   UNL     1       0.805  -4.750   0.150  0.00  0.00    +0.292 HD
ENDBRANCH  11  27
BRANCH   9  29
ATOM     29  C   UNL     1       5.164   1.905   0.558  0.00  0.00    +0.094 C 
BRANCH  29  30
ATOM     30  C   UNL     1       5.935   1.834  -0.760  0.00  0.00    +0.118 C 
ATOM     31  C   UNL     1       7.109   2.806  -0.758  0.00  0.00    +0.032 C 
BRANCH  30  32
ATOM     32  O   UNL     1       6.444   0.512  -0.928  0.00  0.00    -0.384 OA
ATOM     33  H   UNL     1       5.707  -0.119  -0.932  0.00  0.00    +0.210 HD
ENDBRANCH  30  32
ENDBRANCH  29  30
ENDBRANCH   9  29
TORSDOF 7
