REMARK  Name = 101588726
REMARK  8 active torsions:
REMARK  status: ('A' for Active; 'I' for Inactive)
REMARK    1  A    between atoms: C_3  and  O_27
REMARK    2  A    between atoms: C_6  and  O_21
REMARK    3  A    between atoms: C_7  and  O_23
REMARK    4  A    between atoms: C_13  and  O_25
REMARK    5  A    between atoms: C_15  and  C_31
REMARK    6  A    between atoms: O_27  and  C_29
REMARK    7  A    between atoms: C_31  and  O_32
REMARK    8  A    between atoms: O_32  and  C_34
REMARK                            x       y       z     vdW  Elec       q    Type
REMARK                         _______ _______ _______ _____ _____    ______ ____
ROOT
ATOM      1  O   UNL     1       3.428   3.123  -1.174  0.00  0.00    -0.289 OA
ATOM      2  C   UNL     1      -1.495  -1.468   0.206  0.00  0.00    +0.049 C 
ATOM      3  C   UNL     1      -2.865  -0.857   0.028  0.00  0.00    +0.161 C 
ATOM      4  C   UNL     1      -2.352  -1.877  -0.991  0.00  0.00    +0.040 C 
ATOM      5  C   UNL     1      -0.249  -0.610   0.070  0.00  0.00    +0.050 C 
ATOM      6  C   UNL     1      -2.991   0.629  -0.187  0.00  0.00    +0.149 C 
ATOM      7  C   UNL     1      -0.534   0.848   0.595  0.00  0.00    +0.101 C 
ATOM      8  C   UNL     1      -1.667   1.431  -0.324  0.00  0.00    +0.056 C 
ATOM      9  C   UNL     1      -2.021  -1.445  -2.398  0.00  0.00    +0.004 C 
ATOM     10  C   UNL     1      -2.915  -3.283  -0.953  0.00  0.00    +0.004 C 
ATOM     11  C   UNL     1       0.808   1.634   0.729  0.00  0.00    +0.079 C 
ATOM     12  C   UNL     1       0.989  -1.291   0.630  0.00  0.00    -0.029 C 
ATOM     13  C   UNL     1       1.785   1.479  -0.454  0.00  0.00    +0.152 C 
ATOM     14  C   UNL     1      -2.012   2.915  -0.111  0.00  0.00    +0.005 C 
ATOM     15  C   UNL     1       2.275  -0.931   0.438  0.00  0.00    -0.002 C 
ATOM     16  C   UNL     1       2.778   0.324  -0.261  0.00  0.00    +0.060 C 
ATOM     17  C   UNL     1       0.798   3.114   0.992  0.00  0.00    -0.023 C 
ATOM     18  C   UNL     1       2.450   2.838  -0.499  0.00  0.00    +0.193 C 
ATOM     19  C   UNL     1       1.729   3.814   0.339  0.00  0.00    +0.011 C 
ATOM     20  C   UNL     1       2.057   5.254   0.402  0.00  0.00    +0.034 C 
ENDROOT
BRANCH   6  21
ATOM     21  O   UNL     1      -3.817   0.875  -1.327  0.00  0.00    -0.381 OA
ATOM     22  H   UNL     1      -4.644   0.374  -1.241  0.00  0.00    +0.210 HD
ENDBRANCH   6  21
BRANCH   7  23
ATOM     23  O   UNL     1      -1.052   0.728   1.934  0.00  0.00    -0.386 OA
ATOM     24  H   UNL     1      -1.892   0.244   1.914  0.00  0.00    +0.210 HD
ENDBRANCH   7  23
BRANCH  13  25
ATOM     25  O   UNL     1       1.137   1.402  -1.714  0.00  0.00    -0.379 OA
ATOM     26  H   UNL     1       0.673   0.554  -1.788  0.00  0.00    +0.211 HD
ENDBRANCH  13  25
BRANCH   3  27
ATOM     27  O   UNL     1      -3.880  -1.351   0.933  0.00  0.00    -0.453 OA
BRANCH  27  29
ATOM     28  O   UNL     1      -5.607  -1.121  -0.580  0.00  0.00    -0.250 OA
ATOM     29  C   UNL     1      -5.184  -1.168   0.567  0.00  0.00    +0.317 C 
ATOM     30  C   UNL     1      -6.043  -1.035   1.788  0.00  0.00    +0.121 C 
ENDBRANCH  27  29
ENDBRANCH   3  27
BRANCH  15  31
ATOM     31  C   UNL     1       3.380  -1.808   0.975  0.00  0.00    +0.231 C 
BRANCH  31  32
ATOM     32  O   UNL     1       4.197  -2.240  -0.093  0.00  0.00    -0.444 OA
BRANCH  32  34
ATOM     33  O   UNL     1       5.577  -3.444   1.310  0.00  0.00    -0.250 OA
ATOM     34  C   UNL     1       5.274  -3.059   0.189  0.00  0.00    +0.318 C 
ATOM     35  C   UNL     1       6.023  -3.420  -1.057  0.00  0.00    +0.121 C 
ENDBRANCH  32  34
ENDBRANCH  31  32
ENDBRANCH  15  31
TORSDOF 8
