10154381
  -OEChem-03292013303D

 44 46  0     1  0  0  0  0  0999 V2000
   -0.8812   -0.9656   -1.5931 O   0  0  0  0  0  0  0  0  0  0  0  0
    0.5680    2.0185    1.0333 O   0  0  0  0  0  0  0  0  0  0  0  0
   -0.8999    3.4923    0.1484 O   0  0  0  0  0  0  0  0  0  0  0  0
   -0.9031   -0.0851    0.5517 N   0  0  0  0  0  0  0  0  0  0  0  0
    4.2035   -0.9585    1.3352 N   0  0  0  0  0  0  0  0  0  0  0  0
   -0.8108   -3.4188   -0.0035 N   0  0  0  0  0  0  0  0  0  0  0  0
   -3.9090   -0.7927    0.2743 N   0  0  0  0  0  0  0  0  0  0  0  0
   -5.8925   -0.1820   -0.5159 N   0  0  0  0  0  0  0  0  0  0  0  0
    1.4388   -2.5157   -0.4713 C   0  0  0  0  0  0  0  0  0  0  0  0
    0.0795   -2.2752    0.2047 C   0  0  1  0  0  0  0  0  0  0  0  0
    2.5372   -1.6551    0.0886 C   0  0  0  0  0  0  0  0  0  0  0  0
   -1.5417    1.1603    0.1994 C   0  0  1  0  0  0  0  0  0  0  0  0
    2.8964   -0.3762   -0.3763 C   0  0  0  0  0  0  0  0  0  0  0  0
   -0.6225   -1.0601   -0.3942 C   0  0  0  0  0  0  0  0  0  0  0  0
   -2.8557    1.3548    0.9684 C   0  0  0  0  0  0  0  0  0  0  0  0
    3.9559    0.0476    0.4287 C   0  0  0  0  0  0  0  0  0  0  0  0
    3.3396   -2.0009    1.1316 C   0  0  0  0  0  0  0  0  0  0  0  0
   -3.9913    0.5448    0.3871 C   0  0  0  0  0  0  0  0  0  0  0  0
    2.4378    0.4778   -1.3989 C   0  0  0  0  0  0  0  0  0  0  0  0
    4.5824    1.2877    0.2615 C   0  0  0  0  0  0  0  0  0  0  0  0
   -0.6124    2.3389    0.4511 C   0  0  0  0  0  0  0  0  0  0  0  0
    3.0549    1.7213   -1.5779 C   0  0  0  0  0  0  0  0  0  0  0  0
    4.1105    2.1180   -0.7592 C   0  0  0  0  0  0  0  0  0  0  0  0
   -5.1939    0.9205   -0.0918 C   0  0  0  0  0  0  0  0  0  0  0  0
   -5.0906   -1.1969   -0.2819 C   0  0  0  0  0  0  0  0  0  0  0  0
    1.7399   -3.5636   -0.3301 H   0  0  0  0  0  0  0  0  0  0  0  0
    1.3724   -2.3703   -1.5574 H   0  0  0  0  0  0  0  0  0  0  0  0
    0.2157   -2.1491    1.2851 H   0  0  0  0  0  0  0  0  0  0  0  0
   -1.7325    1.1685   -0.8812 H   0  0  0  0  0  0  0  0  0  0  0  0
   -2.7291    1.0862    2.0254 H   0  0  0  0  0  0  0  0  0  0  0  0
   -3.1533    2.4114    0.9525 H   0  0  0  0  0  0  0  0  0  0  0  0
   -0.6157   -0.2177    1.5167 H   0  0  0  0  0  0  0  0  0  0  0  0
    3.3857   -2.8837    1.7538 H   0  0  0  0  0  0  0  0  0  0  0  0
    4.9196   -0.9307    2.0478 H   0  0  0  0  0  0  0  0  0  0  0  0
    1.6214    0.1854   -2.0519 H   0  0  0  0  0  0  0  0  0  0  0  0
   -0.3809   -4.2607    0.3781 H   0  0  0  0  0  0  0  0  0  0  0  0
   -1.6736   -3.2799    0.5216 H   0  0  0  0  0  0  0  0  0  0  0  0
    5.4041    1.5975    0.8985 H   0  0  0  0  0  0  0  0  0  0  0  0
    2.7056    2.3839   -2.3653 H   0  0  0  0  0  0  0  0  0  0  0  0
    4.5750    3.0883   -0.9157 H   0  0  0  0  0  0  0  0  0  0  0  0
   -3.1443   -1.3922    0.5551 H   0  0  0  0  0  0  0  0  0  0  0  0
   -5.6154    1.9124   -0.1643 H   0  0  0  0  0  0  0  0  0  0  0  0
   -5.3027   -2.2366   -0.4867 H   0  0  0  0  0  0  0  0  0  0  0  0
    1.1371    2.8059    1.1687 H   0  0  0  0  0  0  0  0  0  0  0  0
  1 14  2  0  0  0  0
  2 21  1  0  0  0  0
  2 44  1  0  0  0  0
  3 21  2  0  0  0  0
  4 12  1  0  0  0  0
  4 14  1  0  0  0  0
  4 32  1  0  0  0  0
  5 16  1  0  0  0  0
  5 17  1  0  0  0  0
  5 34  1  0  0  0  0
  6 10  1  0  0  0  0
  6 36  1  0  0  0  0
  6 37  1  0  0  0  0
  7 18  1  0  0  0  0
  7 25  1  0  0  0  0
  7 41  1  0  0  0  0
  8 24  1  0  0  0  0
  8 25  2  0  0  0  0
  9 10  1  0  0  0  0
  9 11  1  0  0  0  0
  9 26  1  0  0  0  0
  9 27  1  0  0  0  0
 10 14  1  0  0  0  0
 10 28  1  0  0  0  0
 11 13  1  0  0  0  0
 11 17  2  0  0  0  0
 12 15  1  0  0  0  0
 12 21  1  0  0  0  0
 12 29  1  0  0  0  0
 13 16  1  0  0  0  0
 13 19  2  0  0  0  0
 15 18  1  0  0  0  0
 15 30  1  0  0  0  0
 15 31  1  0  0  0  0
 16 20  2  0  0  0  0
 17 33  1  0  0  0  0
 18 24  2  0  0  0  0
 19 22  1  0  0  0  0
 19 35  1  0  0  0  0
 20 23  1  0  0  0  0
 20 38  1  0  0  0  0
 22 23  2  0  0  0  0
 22 39  1  0  0  0  0
 23 40  1  0  0  0  0
 24 42  1  0  0  0  0
 25 43  1  0  0  0  0
M  END
> <PUBCHEM_COMPOUND_CID>
10154381

> <PUBCHEM_CONFORMER_RMSD>
1

> <PUBCHEM_CONFORMER_DIVERSEORDER>
1
123
463
14
392
241
126
180
268
174
213
59
260
19
398
10
519
45
34
353
119
289
49
90
449
386
459
127
372
63
217
246
333
323
318
29
23
230
146
287
533
252
343
33
404
212
309
575
428
581
195
574
182
13
133
114
584
233
159
284
51
495
481
419
439
588
198
24
145
262
67
516
18
535
523
91
122
106
55
207
435
366
96
328
560
118
175
391
92
48
437
42
457
36
47
86
564
124
83
565
444
593
298
111
409
547
209
62
295
39
117
296
5
73
150
158
557
579
379
491
17
69
184
389
50
98
451
165
40
99
489
72
236
397
7
79
155
35
222
417
218
189
406
32
476
16
388
77
161
164
520
430
359
197
191
109
251
31
250
278
76
199
356
8
518
407
266
522
4
240
85
294
151
238
2
321
147
210
132
60
3
113
21
216
187
41
46
78
190
452
30
112
203
103
181
80
20

> <PUBCHEM_MMFF94_PARTIAL_CHARGES>
37
1 -0.57
10 0.33
11 -0.18
12 0.36
14 0.57
15 0.18
16 -0.15
17 -0.3
18 -0.33
19 -0.15
2 -0.65
20 -0.15
21 0.66
22 -0.15
23 -0.15
24 0.08
25 0.04
3 -0.57
32 0.37
33 0.15
34 0.27
35 0.15
36 0.36
37 0.36
38 0.15
39 0.15
4 -0.73
40 0.15
41 0.27
42 0.15
43 0.15
44 0.5
5 0.03
6 -0.99
7 0.03
8 -0.57
9 0.18

> <PUBCHEM_EFFECTIVE_ROTOR_COUNT>
8

> <PUBCHEM_PHARMACOPHORE_FEATURES>
14
1 1 acceptor
1 2 acceptor
1 3 acceptor
1 4 donor
1 5 cation
1 5 donor
1 6 cation
1 6 donor
1 7 donor
3 2 3 21 anion
3 7 8 25 cation
5 5 11 13 16 17 rings
5 7 8 18 24 25 rings
6 13 16 19 20 22 23 rings

> <PUBCHEM_HEAVY_ATOM_COUNT>
25

> <PUBCHEM_ATOM_DEF_STEREO_COUNT>
2

> <PUBCHEM_ATOM_UDEF_STEREO_COUNT>
0

> <PUBCHEM_BOND_DEF_STEREO_COUNT>
0

> <PUBCHEM_BOND_UDEF_STEREO_COUNT>
0

> <PUBCHEM_ISOTOPIC_ATOM_COUNT>
0

> <PUBCHEM_COMPONENT_COUNT>
1

> <PUBCHEM_CACTVS_TAUTO_COUNT>
4

> <PUBCHEM_CONFORMER_ID>
009AF18D00000001

> <PUBCHEM_MMFF94_ENERGY>
35.2406

> <PUBCHEM_FEATURE_SELFOVERLAP>
71.2

> <PUBCHEM_SHAPE_FINGERPRINT>
10090160 65 18335417937667145587
10498660 4 18268724955371243462
10906281 52 18130519527032154169
12403260 363 18265051336546072882
12788726 201 18131080341311228544
12838862 33 18267285681971947696
13140716 1 18335977679580852730
13224815 77 18272092639069768489
13583140 156 17168437050642074675
14178342 30 17907011777646721664
14341114 328 18343025471578170799
14787075 74 18410290328790608387
14790565 3 18413393142019675481
17349148 13 18260271806765746147
17492 54 18337681909133148641
17492 89 18194401095764374371
20028762 73 18270676468115214774
20691752 17 18125974248029390864
20715895 44 17973998458517753645
22149856 69 18130801044890538251
23559900 14 18052257289409214319
3004659 81 18261393316941751160
34797466 226 15769770286796973571
350125 39 18338518526276856310
3680242 22 18337116666067968955
44154327 71 18411139151751095866
474 4 18333734615171354690
5283173 99 17897717674893515477
5312544 6 18334860519367591046
59755656 215 18341624715729812294
6034566 193 16664889449999320508

> <PUBCHEM_SHAPE_MULTIPOLES>
471.98
10.64
3.31
1.15
9.56
0.19
-0.18
-1.36
-0.06
-1.08
0.15
-0.79
-0.13
-1.38

> <PUBCHEM_SHAPE_SELFOVERLAP>
1019.763

> <PUBCHEM_SHAPE_VOLUME>
260.8

> <PUBCHEM_COORDINATE_TYPE>
2
5
10

$$$$
