101532554
  -OEChem-03292013293D

 67 68  0     1  0  0  0  0  0999 V2000
    3.1459    1.2860    1.0468 O   0  0  0  0  0  0  0  0  0  0  0  0
    0.1837    1.7099    0.2325 O   0  0  0  0  0  0  0  0  0  0  0  0
   -1.9133   -0.1708    0.0310 O   0  0  0  0  0  0  0  0  0  0  0  0
    4.1564   -1.0846    2.2830 O   0  0  0  0  0  0  0  0  0  0  0  0
    3.9796    2.9671   -0.2835 O   0  0  0  0  0  0  0  0  0  0  0  0
   -1.8370   -3.2855   -1.5262 O   0  0  0  0  0  0  0  0  0  0  0  0
   -0.7011    2.6623   -1.6726 O   0  0  0  0  0  0  0  0  0  0  0  0
   -0.6058   -1.6936   -2.6706 O   0  0  0  0  0  0  0  0  0  0  0  0
   -2.4558   -1.0610    2.0822 O   0  0  0  0  0  0  0  0  0  0  0  0
   -3.6669    2.3336    0.4014 O   0  0  0  0  0  0  0  0  0  0  0  0
    1.8514    0.0788   -0.5308 C   0  0  1  0  0  0  0  0  0  0  0  0
    2.5422   -0.0175    0.8346 C   0  0  1  0  0  0  0  0  0  0  0  0
    0.3529    0.4706   -0.4677 C   0  0  1  0  0  0  0  0  0  0  0  0
    3.6669   -1.0709    0.9367 C   0  0  2  0  0  0  0  0  0  0  0  0
   -0.5505   -0.5839    0.2097 C   0  0  2  0  0  0  0  0  0  0  0  0
    2.6758    1.1434   -1.1758 C   0  0  0  0  0  0  0  0  0  0  0  0
    3.2855   -2.4890    0.5544 C   0  0  0  0  0  0  0  0  0  0  0  0
    3.3602    1.9299   -0.1352 C   0  0  0  0  0  0  0  0  0  0  0  0
   -0.3785   -1.9815   -0.3292 C   0  0  0  0  0  0  0  0  0  0  0  0
    2.4496   -3.3375    1.4953 C   0  0  0  0  0  0  0  0  0  0  0  0
    0.9596   -2.9815    1.5962 C   0  0  0  0  0  0  0  0  0  0  0  0
    0.2530   -3.0077    0.2682 C   0  0  0  0  0  0  0  0  0  0  0  0
    2.8486    1.3787   -2.4783 C   0  0  0  0  0  0  0  0  0  0  0  0
   -0.3586    2.7267   -0.4992 C   0  0  0  0  0  0  0  0  0  0  0  0
    3.7546   -3.0227   -0.5877 C   0  0  0  0  0  0  0  0  0  0  0  0
   -0.9366   -2.2821   -1.6584 C   0  0  0  0  0  0  0  0  0  0  0  0
   -0.4636    3.9691    0.3678 C   0  0  0  0  0  0  0  0  0  0  0  0
   -2.7585   -0.4767    1.0513 C   0  0  0  0  0  0  0  0  0  0  0  0
    0.9198    4.3638    0.8708 C   0  0  0  0  0  0  0  0  0  0  0  0
   -1.1118    5.1150   -0.4047 C   0  0  0  0  0  0  0  0  0  0  0  0
   -4.1323    0.0175    0.7271 C   0  0  0  0  0  0  0  0  0  0  0  0
   -4.2840    1.1980   -0.1890 C   0  0  0  0  0  0  0  0  0  0  0  0
   -2.4720   -3.6945   -2.7421 C   0  0  0  0  0  0  0  0  0  0  0  0
   -5.1482   -0.6907    1.2560 C   0  0  0  0  0  0  0  0  0  0  0  0
   -6.6115   -0.4183    1.1058 C   0  0  0  0  0  0  0  0  0  0  0  0
    1.9430   -0.8510   -1.0989 H   0  0  0  0  0  0  0  0  0  0  0  0
    1.8362   -0.1479    1.6578 H   0  0  0  0  0  0  0  0  0  0  0  0
    0.0088    0.5669   -1.5054 H   0  0  0  0  0  0  0  0  0  0  0  0
    4.5160   -0.7338    0.3278 H   0  0  0  0  0  0  0  0  0  0  0  0
   -0.3287   -0.5423    1.2801 H   0  0  0  0  0  0  0  0  0  0  0  0
    2.5248   -4.3937    1.1996 H   0  0  0  0  0  0  0  0  0  0  0  0
    2.8889   -3.2987    2.4999 H   0  0  0  0  0  0  0  0  0  0  0  0
    0.8451   -2.0307    2.1184 H   0  0  0  0  0  0  0  0  0  0  0  0
    0.4744   -3.7245    2.2423 H   0  0  0  0  0  0  0  0  0  0  0  0
    0.3049   -3.9697   -0.2415 H   0  0  0  0  0  0  0  0  0  0  0  0
    2.3435    0.7700   -3.2209 H   0  0  0  0  0  0  0  0  0  0  0  0
    3.4906    2.1764   -2.8357 H   0  0  0  0  0  0  0  0  0  0  0  0
    4.9126   -1.6956    2.3167 H   0  0  0  0  0  0  0  0  0  0  0  0
    4.3766   -2.4487   -1.2666 H   0  0  0  0  0  0  0  0  0  0  0  0
    3.5217   -4.0426   -0.8752 H   0  0  0  0  0  0  0  0  0  0  0  0
   -1.1109    3.7234    1.2183 H   0  0  0  0  0  0  0  0  0  0  0  0
    1.6103    4.5341    0.0378 H   0  0  0  0  0  0  0  0  0  0  0  0
    1.3509    3.5876    1.5111 H   0  0  0  0  0  0  0  0  0  0  0  0
    0.8695    5.2840    1.4625 H   0  0  0  0  0  0  0  0  0  0  0  0
   -0.5106    5.3999   -1.2754 H   0  0  0  0  0  0  0  0  0  0  0  0
   -1.2266    5.9979    0.2327 H   0  0  0  0  0  0  0  0  0  0  0  0
   -2.1053    4.8308   -0.7676 H   0  0  0  0  0  0  0  0  0  0  0  0
   -5.3228    1.4564   -0.4001 H   0  0  0  0  0  0  0  0  0  0  0  0
   -3.8025    0.9998   -1.1529 H   0  0  0  0  0  0  0  0  0  0  0  0
   -3.0349   -2.8613   -3.1738 H   0  0  0  0  0  0  0  0  0  0  0  0
   -1.7272   -4.0673   -3.4518 H   0  0  0  0  0  0  0  0  0  0  0  0
   -3.1682   -4.5037   -2.5064 H   0  0  0  0  0  0  0  0  0  0  0  0
   -4.9273   -1.5581    1.8762 H   0  0  0  0  0  0  0  0  0  0  0  0
   -7.0776   -1.2171    0.5208 H   0  0  0  0  0  0  0  0  0  0  0  0
   -6.8443    0.5356    0.6307 H   0  0  0  0  0  0  0  0  0  0  0  0
   -7.0803   -0.4074    2.0954 H   0  0  0  0  0  0  0  0  0  0  0  0
   -3.7595    3.0688   -0.2282 H   0  0  0  0  0  0  0  0  0  0  0  0
  1 12  1  0  0  0  0
  1 18  1  0  0  0  0
  2 13  1  0  0  0  0
  2 24  1  0  0  0  0
  3 15  1  0  0  0  0
  3 28  1  0  0  0  0
  4 14  1  0  0  0  0
  4 48  1  0  0  0  0
  5 18  2  0  0  0  0
  6 26  1  0  0  0  0
  6 33  1  0  0  0  0
  7 24  2  0  0  0  0
  8 26  2  0  0  0  0
  9 28  2  0  0  0  0
 10 32  1  0  0  0  0
 10 67  1  0  0  0  0
 11 12  1  0  0  0  0
 11 13  1  0  0  0  0
 11 16  1  0  0  0  0
 11 36  1  0  0  0  0
 12 14  1  0  0  0  0
 12 37  1  0  0  0  0
 13 15  1  0  0  0  0
 13 38  1  0  0  0  0
 14 17  1  0  0  0  0
 14 39  1  0  0  0  0
 15 19  1  0  0  0  0
 15 40  1  0  0  0  0
 16 18  1  0  0  0  0
 16 23  2  0  0  0  0
 17 20  1  0  0  0  0
 17 25  2  0  0  0  0
 19 22  2  0  0  0  0
 19 26  1  0  0  0  0
 20 21  1  0  0  0  0
 20 41  1  0  0  0  0
 20 42  1  0  0  0  0
 21 22  1  0  0  0  0
 21 43  1  0  0  0  0
 21 44  1  0  0  0  0
 22 45  1  0  0  0  0
 23 46  1  0  0  0  0
 23 47  1  0  0  0  0
 24 27  1  0  0  0  0
 25 49  1  0  0  0  0
 25 50  1  0  0  0  0
 27 29  1  0  0  0  0
 27 30  1  0  0  0  0
 27 51  1  0  0  0  0
 28 31  1  0  0  0  0
 29 52  1  0  0  0  0
 29 53  1  0  0  0  0
 29 54  1  0  0  0  0
 30 55  1  0  0  0  0
 30 56  1  0  0  0  0
 30 57  1  0  0  0  0
 31 32  1  0  0  0  0
 31 34  2  0  0  0  0
 32 58  1  0  0  0  0
 32 59  1  0  0  0  0
 33 60  1  0  0  0  0
 33 61  1  0  0  0  0
 33 62  1  0  0  0  0
 34 35  1  0  0  0  0
 34 63  1  0  0  0  0
 35 64  1  0  0  0  0
 35 65  1  0  0  0  0
 35 66  1  0  0  0  0
M  END
> <PUBCHEM_COMPOUND_CID>
101532554

> <PUBCHEM_CONFORMER_RMSD>
1

> <PUBCHEM_CONFORMER_DIVERSEORDER>
1
8
10
13
7
11
4
12
2
5
6
9
3

> <PUBCHEM_MMFF94_PARTIAL_CHARGES>
41
1 -0.43
10 -0.68
11 0.14
12 0.28
13 0.28
14 0.42
15 0.42
16 -0.12
17 -0.28
18 0.71
19 -0.12
2 -0.43
20 0.14
21 0.14
22 -0.29
23 -0.3
24 0.66
25 -0.3
26 0.71
27 0.06
28 0.71
3 -0.43
31 -0.12
32 0.42
33 0.28
34 -0.29
35 0.14
4 -0.68
45 0.15
46 0.15
47 0.15
48 0.4
49 0.15
5 -0.57
50 0.15
6 -0.43
63 0.15
67 0.4
7 -0.57
8 -0.57
9 -0.57

> <PUBCHEM_EFFECTIVE_ROTOR_COUNT>
10.2

> <PUBCHEM_PHARMACOPHORE_FEATURES>
11
1 10 acceptor
1 10 donor
1 35 hydrophobe
1 4 acceptor
1 4 donor
1 5 acceptor
1 7 acceptor
1 8 acceptor
1 9 acceptor
3 27 29 30 hydrophobe
5 1 11 12 16 18 rings

> <PUBCHEM_HEAVY_ATOM_COUNT>
35

> <PUBCHEM_ATOM_DEF_STEREO_COUNT>
5

> <PUBCHEM_ATOM_UDEF_STEREO_COUNT>
0

> <PUBCHEM_BOND_DEF_STEREO_COUNT>
2

> <PUBCHEM_BOND_UDEF_STEREO_COUNT>
0

> <PUBCHEM_ISOTOPIC_ATOM_COUNT>
0

> <PUBCHEM_COMPONENT_COUNT>
1

> <PUBCHEM_CACTVS_TAUTO_COUNT>
2

> <PUBCHEM_CONFORMER_ID>
060D438A00000001

> <PUBCHEM_MMFF94_ENERGY>
73.9988

> <PUBCHEM_FEATURE_SELFOVERLAP>
55.825

> <PUBCHEM_SHAPE_FINGERPRINT>
10006869 2 18410295800278419017
1100329 8 17977392951265087528
12422481 6 18052831247548178985
12788726 201 18335427816308080992
13140716 1 18334010631624583658
13583140 156 18118412980038711555
13692114 37 17908411464850655549
140371 6 17762622785448131965
14790565 3 17973455578762279868
15324884 4 17265522557323248335
15420108 30 18202004300807093449
19319366 153 18116164444109981772
20764821 26 18049426342998772033
20905425 154 18193565458579377489
21033648 29 17555705752325228578
23559900 14 18188771617693935265
3380486 145 18192966383355765101
34934 24 18267876162354051836
350125 39 18263932046968672228
70251023 43 18193291714227802218

> <PUBCHEM_SHAPE_MULTIPOLES>
661.59
8.54
6.07
2.08
9
4.48
1.02
-1.99
-3.57
-1.08
1.12
-0.08
-1.68
-1.61

> <PUBCHEM_SHAPE_SELFOVERLAP>
1367.739

> <PUBCHEM_SHAPE_VOLUME>
376.4

> <PUBCHEM_COORDINATE_TYPE>
2
5
10

$$$$
