REMARK  Name = 101573172
REMARK  3 active torsions:
REMARK  status: ('A' for Active; 'I' for Inactive)
REMARK    1  A    between atoms: C_10  and  O_25
REMARK    2  A    between atoms: C_12  and  C_27
REMARK    3  A    between atoms: C_27  and  C_31
REMARK                            x       y       z     vdW  Elec       q    Type
REMARK                         _______ _______ _______ _____ _____    ______ ____
ROOT
ATOM      1  O   UNL     1      -1.520  -0.995   1.103  0.00  0.00    -0.327 OA
ATOM      2  O   UNL     1      -3.410  -2.407   0.850  0.00  0.00    -0.430 OA
ATOM      3  O   UNL     1       5.741  -0.259  -0.170  0.00  0.00    -0.456 OA
ATOM      4  O   UNL     1      -3.544  -4.658   1.246  0.00  0.00    -0.250 OA
ATOM      5  O   UNL     1       5.221   0.207  -2.345  0.00  0.00    -0.250 OA
ATOM      6  C   UNL     1      -0.330  -1.805  -0.823  0.00  0.00    +0.036 C 
ATOM      7  C   UNL     1      -1.735  -2.393  -0.818  0.00  0.00    +0.072 C 
ATOM      8  C   UNL     1      -0.204  -1.130   0.546  0.00  0.00    +0.121 C 
ATOM      9  C   UNL     1       0.407   0.264   0.303  0.00  0.00    +0.052 C 
ATOM     10  C   UNL     1       1.028   0.182  -1.103  0.00  0.00    +0.091 C 
ATOM     11  C   UNL     1       0.001  -0.703  -1.831  0.00  0.00    +0.030 C 
ATOM     12  C   UNL     1      -2.495  -1.523   0.184  0.00  0.00    +0.235 C 
ATOM     13  C   UNL     1       2.445  -0.417  -1.199  0.00  0.00    +0.038 C 
ATOM     14  C   UNL     1       1.287   0.777   1.450  0.00  0.00    +0.005 C 
ATOM     15  C   UNL     1      -1.751  -3.756  -0.104  0.00  0.00    +0.116 C 
ATOM     16  C   UNL     1       3.538   0.480  -0.614  0.00  0.00    +0.105 C 
ATOM     17  C   UNL     1       3.753   0.402   0.894  0.00  0.00    +0.047 C 
ATOM     18  C   UNL     1       2.555  -0.026   1.742  0.00  0.00    +0.004 C 
ATOM     19  C   UNL     1      -2.376  -2.540  -2.199  0.00  0.00    +0.007 C 
ATOM     20  C   UNL     1       5.017  -0.459   1.056  0.00  0.00    +0.137 C 
ATOM     21  C   UNL     1      -2.995  -3.699   0.727  0.00  0.00    +0.319 C 
ATOM     22  C   UNL     1       4.898   0.132  -1.168  0.00  0.00    +0.316 C 
ATOM     23  C   UNL     1       5.893   0.039   2.207  0.00  0.00    +0.044 C 
ATOM     24  C   UNL     1       4.790  -1.967   1.206  0.00  0.00    +0.044 C 
ENDROOT
BRANCH  10  25
ATOM     25  O   UNL     1       1.048   1.470  -1.715  0.00  0.00    -0.387 OA
ATOM     26  H   UNL     1       0.164   1.866  -1.665  0.00  0.00    +0.210 HD
ENDBRANCH  10  25
BRANCH  12  27
ATOM     27  C   UNL     1      -3.304  -0.355  -0.366  0.00  0.00    +0.089 C 
ATOM     28  C   UNL     1      -4.718  -0.806  -0.737  0.00  0.00    +0.011 C 
BRANCH  27  31
ATOM     29  O   UNL     1      -2.280   2.370  -0.764  0.00  0.00    -0.422 OA
ATOM     30  O   UNL     1      -1.380   4.384  -1.411  0.00  0.00    -0.245 OA
ATOM     31  C   UNL     1      -3.365   0.764   0.643  0.00  0.00    +0.017 C 
ATOM     32  C   UNL     1      -2.888   1.995   0.426  0.00  0.00    +0.145 C 
ATOM     33  C   UNL     1      -2.914   3.089   1.331  0.00  0.00    +0.039 C 
ATOM     34  C   UNL     1      -2.346   4.143   0.758  0.00  0.00    +0.057 C 
ATOM     35  C   UNL     1      -1.940   3.687  -0.580  0.00  0.00    +0.342 C 
ATOM     36  C   UNL     1      -2.126   5.510   1.273  0.00  0.00    +0.038 C 
ENDBRANCH  27  31
ENDBRANCH  12  27
TORSDOF 3
