REMARK  Name = 101511558
REMARK  13 active torsions:
REMARK  status: ('A' for Active; 'I' for Inactive)
REMARK    1  A    between atoms: C_1  and  O_7
REMARK    2  A    between atoms: C_4  and  C_23
REMARK    3  A    between atoms: O_7  and  C_13
REMARK    4  A    between atoms: C_9  and  O_14
REMARK    5  A    between atoms: C_10  and  O_16
REMARK    6  A    between atoms: C_11  and  C_20
REMARK    7  A    between atoms: C_12  and  O_18
REMARK    8  A    between atoms: C_20  and  O_21
REMARK    9  A    between atoms: C_23  and  O_24
REMARK   10  A    between atoms: O_24  and  C_26
REMARK   11  A    between atoms: C_26  and  C_27
REMARK   12  A    between atoms: C_30  and  O_35
REMARK   13  A    between atoms: C_31  and  O_33
REMARK                            x       y       z     vdW  Elec       q    Type
REMARK                         _______ _______ _______ _____ _____    ______ ____
ROOT
ATOM      1  C   UNL     1       2.433   1.951   0.401  0.00  0.00    +0.141 C 
ATOM      2  C   UNL     1       1.563   1.994   1.490  0.00  0.00    +0.037 C 
ATOM      3  C   UNL     1       1.961   2.233  -0.881  0.00  0.00    +0.037 C 
ATOM      4  C   UNL     1      -0.252   2.601   0.015  0.00  0.00    +0.021 C 
ATOM      5  C   UNL     1       0.220   2.320   1.297  0.00  0.00    +0.002 C 
ATOM      6  C   UNL     1       0.619   2.558  -1.074  0.00  0.00    +0.002 C 
ENDROOT
BRANCH   1   7
ATOM      7  O   UNL     1       3.750   1.632   0.591  0.00  0.00    -0.451 OA
BRANCH   7  13
ATOM      8  O   UNL     1       3.493  -0.670   0.316  0.00  0.00    -0.316 OA
ATOM      9  C   UNL     1       5.366  -2.176   0.003  0.00  0.00    +0.169 C 
ATOM     10  C   UNL     1       6.274  -0.991  -0.325  0.00  0.00    +0.173 C 
ATOM     11  C   UNL     1       3.911  -1.861  -0.354  0.00  0.00    +0.177 C 
ATOM     12  C   UNL     1       5.713   0.311   0.249  0.00  0.00    +0.210 C 
ATOM     13  C   UNL     1       4.233   0.477  -0.094  0.00  0.00    +0.318 C 
BRANCH   9  14
ATOM     14  O   UNL     1       5.795  -3.317  -0.736  0.00  0.00    -0.379 OA
ATOM     15  H   UNL     1       6.717  -3.519  -0.512  0.00  0.00    +0.211 HD
ENDBRANCH   9  14
BRANCH  10  16
ATOM     16  O   UNL     1       7.558  -1.248   0.246  0.00  0.00    -0.379 OA
ATOM     17  H   UNL     1       7.914  -2.073  -0.118  0.00  0.00    +0.211 HD
ENDBRANCH  10  16
BRANCH  12  18
ATOM     18  O   UNL     1       6.427   1.417  -0.302  0.00  0.00    -0.377 OA
ATOM     19  H   UNL     1       7.370   1.329  -0.094  0.00  0.00    +0.211 HD
ENDBRANCH  12  18
BRANCH  11  20
ATOM     20  C   UNL     1       2.970  -2.983   0.071  0.00  0.00    +0.169 C 
BRANCH  20  21
ATOM     21  O   UNL     1       1.647  -2.618  -0.278  0.00  0.00    -0.379 OA
ATOM     22  H   UNL     1       1.036  -3.324  -0.013  0.00  0.00    +0.211 HD
ENDBRANCH  20  21
ENDBRANCH  11  20
ENDBRANCH   7  13
ENDBRANCH   1   7
BRANCH   4  23
ATOM     23  C   UNL     1      -1.687   2.950  -0.191  0.00  0.00    +0.235 C 
BRANCH  23  24
ATOM     24  O   UNL     1      -2.478   1.772  -0.090  0.00  0.00    -0.440 OA
BRANCH  24  26
ATOM     25  O   UNL     1      -4.390   2.994  -0.484  0.00  0.00    -0.245 OA
ATOM     26  C   UNL     1      -3.819   1.938  -0.258  0.00  0.00    +0.342 C 
BRANCH  26  27
ATOM     27  C   UNL     1      -4.529   0.640  -0.130  0.00  0.00    +0.079 C 
ATOM     28  C   UNL     1      -5.916   0.587  -0.268  0.00  0.00    +0.046 C 
ATOM     29  C   UNL     1      -3.809  -0.526   0.129  0.00  0.00    +0.010 C 
ATOM     30  C   UNL     1      -6.583  -0.633  -0.147  0.00  0.00    +0.168 C 
ATOM     31  C   UNL     1      -5.863  -1.799   0.112  0.00  0.00    +0.172 C 
ATOM     32  C   UNL     1      -4.476  -1.746   0.249  0.00  0.00    +0.040 C 
BRANCH  31  33
ATOM     33  O   UNL     1      -6.502  -2.996   0.231  0.00  0.00    -0.468 OA
ATOM     34  C   UNL     1      -5.692  -4.140   0.495  0.00  0.00    +0.253 C 
ENDBRANCH  31  33
BRANCH  30  35
ATOM     35  O   UNL     1      -7.938  -0.672  -0.284  0.00  0.00    -0.503 OA
ATOM     36  H   UNL     1      -8.414   0.116  -0.458  0.00  0.00    +0.292 HD
ENDBRANCH  30  35
ENDBRANCH  26  27
ENDBRANCH  24  26
ENDBRANCH  23  24
ENDBRANCH   4  23
TORSDOF 13
