101563230
  -OEChem-03292013293D

 48 51  0     1  0  0  0  0  0999 V2000
    2.4006   -0.0287   -0.5769 O   0  0  0  0  0  0  0  0  0  0  0  0
    2.9561   -2.1340    0.1704 O   0  0  0  0  0  0  0  0  0  0  0  0
    3.3839    1.1915    1.8328 O   0  0  0  0  0  0  0  0  0  0  0  0
   -7.0842    0.3669    1.4442 O   0  0  0  0  0  0  0  0  0  0  0  0
   -6.0862    1.7030   -0.1004 O   0  0  0  0  0  0  0  0  0  0  0  0
   -1.6030   -0.9451   -0.3170 N   0  0  0  0  0  0  0  0  0  0  0  0
   -3.4114    1.1238   -0.1303 N   0  0  0  0  0  0  0  0  0  0  0  0
    0.1099    0.6004   -0.8814 C   0  0  0  0  0  0  0  0  0  0  0  0
    1.1154   -0.5031   -0.9889 C   0  0  1  0  0  0  0  0  0  0  0  0
   -1.2130    0.3188   -0.5464 C   0  0  0  0  0  0  0  0  0  0  0  0
   -2.1314    1.3695   -0.4516 C   0  0  0  0  0  0  0  0  0  0  0  0
    0.5338    1.9057   -1.1232 C   0  0  0  0  0  0  0  0  0  0  0  0
    1.2268   -1.0597   -2.4092 C   0  0  0  0  0  0  0  0  0  0  0  0
   -3.8013   -0.1401    0.0992 C   0  0  0  0  0  0  0  0  0  0  0  0
   -2.8829   -1.1907    0.0043 C   0  0  0  0  0  0  0  0  0  0  0  0
   -1.7015    2.6723   -0.6947 C   0  0  0  0  0  0  0  0  0  0  0  0
   -0.3768    2.9474   -1.0295 C   0  0  0  0  0  0  0  0  0  0  0  0
   -5.1242   -0.4214    0.4345 C   0  0  0  0  0  0  0  0  0  0  0  0
   -3.3131   -2.4937    0.2470 C   0  0  0  0  0  0  0  0  0  0  0  0
    4.5134   -0.3395    0.3692 C   0  0  0  0  0  0  0  0  0  0  0  0
    3.2174   -0.9552   -0.0127 C   0  0  0  0  0  0  0  0  0  0  0  0
    5.7050   -0.8114   -0.1812 C   0  0  0  0  0  0  0  0  0  0  0  0
   -5.5481   -1.7268    0.6763 C   0  0  0  0  0  0  0  0  0  0  0  0
   -4.6376   -2.7686    0.5819 C   0  0  0  0  0  0  0  0  0  0  0  0
    4.5362    0.7144    1.2827 C   0  0  0  0  0  0  0  0  0  0  0  0
    6.9197   -0.2294    0.1818 C   0  0  0  0  0  0  0  0  0  0  0  0
   -6.1081    0.6500    0.5408 C   0  0  0  0  0  0  0  0  0  0  0  0
    5.7115   -1.9378   -1.1628 C   0  0  0  0  0  0  0  0  0  0  0  0
    5.7508    1.2965    1.6458 C   0  0  0  0  0  0  0  0  0  0  0  0
    6.9425    0.8247    1.0952 C   0  0  0  0  0  0  0  0  0  0  0  0
    0.8113   -1.3138   -0.3153 H   0  0  0  0  0  0  0  0  0  0  0  0
    1.5594    2.1341   -1.3982 H   0  0  0  0  0  0  0  0  0  0  0  0
    1.5799   -0.2905   -3.1058 H   0  0  0  0  0  0  0  0  0  0  0  0
    0.2629   -1.4325   -2.7706 H   0  0  0  0  0  0  0  0  0  0  0  0
    1.9527   -1.8785   -2.4527 H   0  0  0  0  0  0  0  0  0  0  0  0
   -2.4071    3.4977   -0.6247 H   0  0  0  0  0  0  0  0  0  0  0  0
   -0.0627    3.9693   -1.2180 H   0  0  0  0  0  0  0  0  0  0  0  0
   -2.6078   -3.3193    0.1751 H   0  0  0  0  0  0  0  0  0  0  0  0
   -6.5792   -1.9628    0.9242 H   0  0  0  0  0  0  0  0  0  0  0  0
   -4.9533   -3.7913    0.7639 H   0  0  0  0  0  0  0  0  0  0  0  0
    7.8574   -0.5854   -0.2365 H   0  0  0  0  0  0  0  0  0  0  0  0
    5.4619   -2.8801   -0.6647 H   0  0  0  0  0  0  0  0  0  0  0  0
    6.6952   -2.0615   -1.6293 H   0  0  0  0  0  0  0  0  0  0  0  0
    4.9991   -1.7540   -1.9741 H   0  0  0  0  0  0  0  0  0  0  0  0
    5.7758    2.1178    2.3569 H   0  0  0  0  0  0  0  0  0  0  0  0
    7.8882    1.2779    1.3781 H   0  0  0  0  0  0  0  0  0  0  0  0
    2.6169    0.6970    1.5025 H   0  0  0  0  0  0  0  0  0  0  0  0
   -7.7424    1.0914    1.5099 H   0  0  0  0  0  0  0  0  0  0  0  0
  1  9  1  0  0  0  0
  1 21  1  0  0  0  0
  2 21  2  0  0  0  0
  3 25  1  0  0  0  0
  3 47  1  0  0  0  0
  4 27  1  0  0  0  0
  4 48  1  0  0  0  0
  5 27  2  0  0  0  0
  6 10  1  0  0  0  0
  6 15  2  0  0  0  0
  7 11  1  0  0  0  0
  7 14  2  0  0  0  0
  8  9  1  0  0  0  0
  8 10  2  0  0  0  0
  8 12  1  0  0  0  0
  9 13  1  0  0  0  0
  9 31  1  0  0  0  0
 10 11  1  0  0  0  0
 11 16  2  0  0  0  0
 12 17  2  0  0  0  0
 12 32  1  0  0  0  0
 13 33  1  0  0  0  0
 13 34  1  0  0  0  0
 13 35  1  0  0  0  0
 14 15  1  0  0  0  0
 14 18  1  0  0  0  0
 15 19  1  0  0  0  0
 16 17  1  0  0  0  0
 16 36  1  0  0  0  0
 17 37  1  0  0  0  0
 18 23  2  0  0  0  0
 18 27  1  0  0  0  0
 19 24  2  0  0  0  0
 19 38  1  0  0  0  0
 20 21  1  0  0  0  0
 20 22  2  0  0  0  0
 20 25  1  0  0  0  0
 22 26  1  0  0  0  0
 22 28  1  0  0  0  0
 23 24  1  0  0  0  0
 23 39  1  0  0  0  0
 24 40  1  0  0  0  0
 25 29  2  0  0  0  0
 26 30  2  0  0  0  0
 26 41  1  0  0  0  0
 28 42  1  0  0  0  0
 28 43  1  0  0  0  0
 28 44  1  0  0  0  0
 29 30  1  0  0  0  0
 29 45  1  0  0  0  0
 30 46  1  0  0  0  0
M  END
> <PUBCHEM_COMPOUND_CID>
101563230

> <PUBCHEM_CONFORMER_RMSD>
0.8

> <PUBCHEM_CONFORMER_DIVERSEORDER>
1
34
90
49
50
66
73
60
27
39
40
18
25
84
24
5
17
88
76
87
78
57
53
28
33
72
61
29
3
48
81
59
83
77
69
20
82
15
55
22
38
11
91
85
43
86
44
64
14
65
19
13
63
21
35
45
80
51
67
74
31
68
56
7
8
70
46
10
62
58
16
6
75
37
32
71
89
42
52
2
30
41
26
23
54
79
36
12
4
47
9

> <PUBCHEM_MMFF94_PARTIAL_CHARGES>
40
1 -0.43
10 0.31
11 0.31
12 -0.15
14 0.31
15 0.31
16 -0.15
17 -0.15
18 0.09
19 -0.15
2 -0.57
20 0.09
21 0.63
22 -0.14
23 -0.15
24 -0.15
25 0.08
26 -0.15
27 0.63
28 0.14
29 -0.15
3 -0.53
30 -0.15
32 0.15
36 0.15
37 0.15
38 0.15
39 0.15
4 -0.65
40 0.15
41 0.15
45 0.15
46 0.15
47 0.45
48 0.5
5 -0.57
6 -0.62
7 -0.62
8 -0.14
9 0.42

> <PUBCHEM_EFFECTIVE_ROTOR_COUNT>
5

> <PUBCHEM_PHARMACOPHORE_FEATURES>
11
1 2 acceptor
1 3 donor
1 4 acceptor
1 5 acceptor
1 6 acceptor
1 7 acceptor
3 4 5 27 anion
6 14 15 18 19 23 24 rings
6 20 22 25 26 29 30 rings
6 6 7 10 11 14 15 rings
6 8 10 11 12 16 17 rings

> <PUBCHEM_HEAVY_ATOM_COUNT>
30

> <PUBCHEM_ATOM_DEF_STEREO_COUNT>
1

> <PUBCHEM_ATOM_UDEF_STEREO_COUNT>
0

> <PUBCHEM_BOND_DEF_STEREO_COUNT>
0

> <PUBCHEM_BOND_UDEF_STEREO_COUNT>
0

> <PUBCHEM_ISOTOPIC_ATOM_COUNT>
0

> <PUBCHEM_COMPONENT_COUNT>
1

> <PUBCHEM_CACTVS_TAUTO_COUNT>
13

> <PUBCHEM_CONFORMER_ID>
060DBB5E00000001

> <PUBCHEM_MMFF94_ENERGY>
101.741

> <PUBCHEM_FEATURE_SELFOVERLAP>
55.963

> <PUBCHEM_SHAPE_FINGERPRINT>
10 15 18341604945995283512
10290309 65 18115581522865089083
10319926 262 18411141367822488251
11045977 3 18273493481118115178
11578080 2 13181644057116336859
11991303 11 14117506667025904501
12035758 1 18337123302325197433
12236239 1 17095246908103747622
12422481 6 18272932764589970493
12516196 113 18333450967072677846
12596602 18 17989489640591168331
12838862 33 18260817178077460061
13402501 40 18413669119416856002
13540713 5 18047485692992204957
13668630 136 14345790531195946448
13782708 43 18342175515121156278
14341114 176 18343584027843462368
14394314 77 18187364303478169745
14931854 50 9006784142601022387
15021287 119 16515694321135816493
15131766 46 16485262149860924256
15183329 4 10087647000628302924
15348495 7 18271805777987862682
15461852 350 17560797775731404231
15537594 2 17676202459667937235
16110190 28 18410295856244414623
17349148 13 17095245817540919254
17492 89 17901677282716665227
1813 80 17312819390089706420
18608769 82 18411698812350457614
20567600 247 14707209950474811681
21033648 29 17988629835694145498
2132832 1 17240206534126890236
21756936 100 14476957921898810086
21792934 111 18408325471827128021
21792961 116 18059858308688132710
21859007 373 17895743008092700213
22122407 14 16415203403131166595
23559900 14 18409727374183478213
23576562 1 12534761916725269106
23845131 108 17547294397894592105
2838139 119 14045745932284008755
3004659 81 17603876610398923398
335352 9 18333735707089612765
3383291 50 18114188592299698019
3882209 13 17405689858679322887
392239 28 18261107504448875176
397830 11 18200311142567143458
4073 2 18408887373497338698
4461854 278 18126299755101809511
5104073 3 18267294345110134802
7226269 152 18186518787689472549
9953998 17 18341043090752068520

> <PUBCHEM_SHAPE_MULTIPOLES>
578.08
18.35
2.68
1.43
5.78
0.25
-0.15
-3.04
8.44
-2.13
-0.43
1.35
0.16
2.03

> <PUBCHEM_SHAPE_SELFOVERLAP>
1295.686

> <PUBCHEM_SHAPE_VOLUME>
304.2

> <PUBCHEM_COORDINATE_TYPE>
2
5
10

$$$$
