REMARK  Name = 10154381
REMARK  9 active torsions:
REMARK  status: ('A' for Active; 'I' for Inactive)
REMARK    1  A    between atoms: N_2  and  CA_21
REMARK    2  A    between atoms: C_3  and  CA_5
REMARK    3  A    between atoms: CA_5  and  N_6
REMARK    4  A    between atoms: CA_5  and  CB_10
REMARK    5  A    between atoms: CB_10  and  CG_12
REMARK    6  A    between atoms: CA_21  and  C_23
REMARK    7  A    between atoms: CA_21  and  CB_26
REMARK    8  A    between atoms: C_23  and  O_24
REMARK    9  A    between atoms: CB_26  and  CG_29
REMARK                            x       y       z     vdW  Elec       q    Type
REMARK                         _______ _______ _______ _____ _____    ______ ____
ROOT
ATOM      1  O   TRP A   1      -0.881  -0.966  -1.593  0.00  0.00    -0.277 OA
ATOM      2  N   HIS A   2      -0.903  -0.085   0.552  0.00  0.00    -0.298 N 
ATOM      3  C   TRP A   1      -0.623  -1.060  -0.394  0.00  0.00    +0.203 C 
ATOM      4  H   HIS A   2      -0.659  -0.248   1.492  0.00  0.00    +0.150 HD
ENDROOT
BRANCH   3   5
ATOM      5  CA  TRP A   1       0.080  -2.275   0.205  0.00  0.00    +0.017 C 
BRANCH   5   6
ATOM      6  N   TRP A   1      -0.811  -3.419  -0.004  0.00  0.00    +0.388 N 
ATOM      7  H1  TRP A   1      -0.381  -4.259   0.383  0.00  0.00    -0.089 HD
ATOM      8  H2  TRP A   1      -0.971  -3.548  -1.003  0.00  0.00    -0.089 HD
ATOM      9  H3  TRP A   1      -1.701  -3.246   0.464  0.00  0.00    -0.089 HD
ENDBRANCH   5   6
BRANCH   5  10
ATOM     10  CB  TRP A   1       1.439  -2.516  -0.471  0.00  0.00    +0.015 C 
BRANCH  10  12
ATOM     11  NE1 TRP A   1       4.204  -0.959   1.335  0.00  0.00    -0.312 N 
ATOM     12  CG  TRP A   1       2.537  -1.655   0.089  0.00  0.00    -0.008 C 
ATOM     13  CD2 TRP A   1       2.896  -0.376  -0.376  0.00  0.00    +0.011 C 
ATOM     14  CE2 TRP A   1       3.956   0.048   0.429  0.00  0.00    +0.048 C 
ATOM     15  CD1 TRP A   1       3.340  -2.001   1.132  0.00  0.00    +0.058 C 
ATOM     16  CE3 TRP A   1       2.438   0.478  -1.399  0.00  0.00    +0.001 C 
ATOM     17  CZ2 TRP A   1       4.582   1.288   0.262  0.00  0.00    +0.015 C 
ATOM     18  CZ3 TRP A   1       3.055   1.721  -1.578  0.00  0.00    +0.000 C 
ATOM     19  CH2 TRP A   1       4.111   2.118  -0.759  0.00  0.00    +0.001 C 
ATOM     20  HE1 TRP A   1       4.901  -0.932   2.030  0.00  0.00    +0.152 HD
ENDBRANCH  10  12
ENDBRANCH   5  10
ENDBRANCH   3   5
BRANCH   2  21
ATOM     21  CA  HIS A   2      -1.542   1.160   0.199  0.00  0.00    +0.177 C 
BRANCH  21  23
ATOM     22  OXT HIS A   2      -0.900   3.492   0.148  0.00  0.00    -0.248 OA
ATOM     23  C   HIS A   2      -0.612   2.339   0.451  0.00  0.00    +0.332 C 
BRANCH  23  24
ATOM     24  O   HIS A   2       0.568   2.018   1.033  0.00  0.00    -0.479 OA
ATOM     25  H   HIS A   2       0.756   1.127   1.252  0.00  0.00    +0.295 HD
ENDBRANCH  23  24
ENDBRANCH  21  23
BRANCH  21  26
ATOM     26  CB  HIS A   2      -2.856   1.355   0.968  0.00  0.00    +0.073 C 
BRANCH  26  29
ATOM     27  ND1 HIS A   2      -3.909  -0.793   0.274  0.00  0.00    -0.319 N 
ATOM     28  NE2 HIS A   2      -5.893  -0.182  -0.516  0.00  0.00    -0.315 N 
ATOM     29  CG  HIS A   2      -3.991   0.545   0.387  0.00  0.00    +0.040 C 
ATOM     30  CD2 HIS A   2      -5.194   0.920  -0.092  0.00  0.00    +0.069 C 
ATOM     31  CE1 HIS A   2      -5.091  -1.197  -0.282  0.00  0.00    +0.182 C 
ATOM     32  HD1 HIS A   2      -3.152  -1.364   0.538  0.00  0.00    +0.148 HD
ATOM     33  HE2 HIS A   2      -6.795  -0.207  -0.909  0.00  0.00    +0.148 HD
ENDBRANCH  26  29
ENDBRANCH  21  26
ENDBRANCH   2  21
TORSDOF 9
