REMARK  Name = 101558920
REMARK  5 active torsions:
REMARK  status: ('A' for Active; 'I' for Inactive)
REMARK    1  A    between atoms: C_6  and  O_23
REMARK    2  A    between atoms: C_12  and  C_28
REMARK    3  A    between atoms: C_13  and  C_19
REMARK    4  A    between atoms: C_14  and  O_25
REMARK    5  A    between atoms: C_28  and  O_29
REMARK                            x       y       z     vdW  Elec       q    Type
REMARK                         _______ _______ _______ _____ _____    ______ ____
ROOT
ATOM      1  O   UNL     1      -2.649  -1.580  -0.307  0.00  0.00    -0.446 OA
ATOM      2  O   UNL     1      -1.349  -3.400  -0.601  0.00  0.00    -0.247 OA
ATOM      3  C   UNL     1      -0.375  -0.064   0.287  0.00  0.00    +0.041 C 
ATOM      4  C   UNL     1       0.769   0.625   1.140  0.00  0.00    +0.014 C 
ATOM      5  C   UNL     1       2.191  -0.052   0.970  0.00  0.00    +0.043 C 
ATOM      6  C   UNL     1      -0.443  -1.562   0.715  0.00  0.00    +0.196 C 
ATOM      7  C   UNL     1      -1.751   0.580   0.594  0.00  0.00    +0.052 C 
ATOM      8  C   UNL     1       0.864   2.163   1.033  0.00  0.00    +0.035 C 
ATOM      9  C   UNL     1      -0.128   0.054  -1.244  0.00  0.00    +0.003 C 
ATOM     10  C   UNL     1       2.057  -1.553   0.731  0.00  0.00    -0.024 C 
ATOM     11  C   UNL     1       0.901  -2.225   0.630  0.00  0.00    +0.006 C 
ATOM     12  C   UNL     1       3.012   0.627  -0.123  0.00  0.00    +0.055 C 
ATOM     13  C   UNL     1      -2.936  -0.396   0.472  0.00  0.00    +0.194 C 
ATOM     14  C   UNL     1       1.591   2.691  -0.202  0.00  0.00    +0.132 C 
ATOM     15  C   UNL     1       2.979   0.115   2.295  0.00  0.00    +0.009 C 
ATOM     16  C   UNL     1      -1.499  -2.283  -0.116  0.00  0.00    +0.345 C 
ATOM     17  C   UNL     1       2.739   1.837  -0.639  0.00  0.00    +0.005 C 
ENDROOT
BRANCH  13  19
ATOM     18  O   UNL     1      -6.087   1.422  -0.278  0.00  0.00    -0.448 OA
ATOM     19  C   UNL     1      -4.157   0.281  -0.115  0.00  0.00    +0.058 C 
ATOM     20  C   UNL     1      -4.506   0.373  -1.484  0.00  0.00    +0.043 C 
ATOM     21  C   UNL     1      -5.150   0.935   0.577  0.00  0.00    +0.179 C 
ATOM     22  C   UNL     1      -5.687   1.076  -1.530  0.00  0.00    +0.180 C 
ENDBRANCH  13  19
BRANCH   6  23
ATOM     23  O   UNL     1      -0.886  -1.695   2.068  0.00  0.00    -0.373 OA
ATOM     24  H   UNL     1      -0.256  -1.254   2.660  0.00  0.00    +0.211 HD
ENDBRANCH   6  23
BRANCH  14  25
ATOM     25  O   UNL     1       2.067   4.004   0.102  0.00  0.00    -0.380 OA
ATOM     26  H   UNL     1       1.324   4.559   0.386  0.00  0.00    +0.211 HD
ENDBRANCH  14  25
BRANCH  12  28
ATOM     27  O   UNL     1       5.335   0.159  -0.173  0.00  0.00    -0.245 OA
ATOM     28  C   UNL     1       4.231   0.004  -0.662  0.00  0.00    +0.337 C 
BRANCH  28  29
ATOM     29  O   UNL     1       3.891  -0.731  -1.749  0.00  0.00    -0.442 OA
ATOM     30  C   UNL     1       4.978  -1.404  -2.391  0.00  0.00    +0.256 C 
ENDBRANCH  28  29
ENDBRANCH  12  28
TORSDOF 5
