REMARK  Name = 101545712
REMARK  6 active torsions:
REMARK  status: ('A' for Active; 'I' for Inactive)
REMARK    1  A    between atoms: N_2  and  CA_9
REMARK    2  A    between atoms: C_3  and  C_17
REMARK    3  A    between atoms: CA_10  and  C_14
REMARK    4  A    between atoms: C_14  and  O_15
REMARK    5  A    between atoms: C_17  and  O_18
REMARK    6  A    between atoms: O_18  and  C_19
REMARK                            x       y       z     vdW  Elec       q    Type
REMARK                         _______ _______ _______ _____ _____    ______ ____
ROOT
ATOM      1  O   UNK A   0      -0.862   2.235  -0.221  0.00  0.00    -0.271 OA
ATOM      2  N   CYS A   1       0.344   0.711   1.055  0.00  0.00    -0.293 N 
ATOM      3  C   UNK A   0      -0.826   1.248   0.508  0.00  0.00    +0.267 C 
ATOM      4  H   CYS A   1       0.270  -0.085   1.629  0.00  0.00    +0.150 HD
ENDROOT
BRANCH   2   9
ATOM      5  SG  CYS A   1       2.617  -1.375   1.548  0.00  0.00    -0.117 S 
ATOM      6  O   CYS A   1       1.755   1.356  -1.735  0.00  0.00    -0.273 OA
ATOM      7  N   CYS A   1       3.300   0.469  -0.187  0.00  0.00    -0.260 N 
ATOM      8  C   CYS A   1       2.881   0.415   1.220  0.00  0.00    +0.151 C 
ATOM      9  CA  CYS A   1       1.665   1.273   0.816  0.00  0.00    +0.178 C 
ATOM     10  CA  CYS A   1       3.860  -0.719  -0.780  0.00  0.00    +0.186 C 
ATOM     11  C   CYS A   1       2.182   1.118  -0.627  0.00  0.00    +0.247 C 
ATOM     12  CB  CYS A   1       3.125  -1.891  -0.143  0.00  0.00    +0.090 C 
BRANCH  10  14
ATOM     13  OXT CYS A   1       5.894   0.154   0.186  0.00  0.00    -0.248 OA
ATOM     14  C   CYS A   1       5.322  -0.709  -0.463  0.00  0.00    +0.333 C 
BRANCH  14  15
ATOM     15  O   CYS A   1       5.935  -1.793  -0.998  0.00  0.00    -0.479 OA
ATOM     16  H   CYS A   1       5.437  -2.419  -1.487  0.00  0.00    +0.295 HD
ENDBRANCH  14  15
ENDBRANCH  10  14
ENDBRANCH   2   9
BRANCH   3  17
ATOM     17  C   UNK A   0      -2.063   0.476   0.914  0.00  0.00    +0.289 C 
BRANCH  17  18
ATOM     18  O   UNK A   0      -3.216   1.044   0.329  0.00  0.00    -0.466 OA
BRANCH  18  19
ATOM     19  C   UNK A   0      -4.260   0.194   0.048  0.00  0.00    +0.139 C 
ATOM     20  C   UNK A   0      -4.465  -0.942   0.832  0.00  0.00    +0.037 C 
ATOM     21  C   UNK A   0      -5.113   0.467  -1.021  0.00  0.00    +0.037 C 
ATOM     22  C   UNK A   0      -5.524  -1.804   0.547  0.00  0.00    +0.003 C 
ATOM     23  C   UNK A   0      -6.172  -0.395  -1.306  0.00  0.00    +0.003 C 
ATOM     24  C   UNK A   0      -6.377  -1.531  -0.522  0.00  0.00    +0.000 C 
ENDBRANCH  18  19
ENDBRANCH  17  18
ENDBRANCH   3  17
TORSDOF 6
