REMARK  Name = 101519296
REMARK  10 active torsions:
REMARK  status: ('A' for Active; 'I' for Inactive)
REMARK    1  A    between atoms: O_1  and  C_3
REMARK    2  A    between atoms: O_1  and  C_17
REMARK    3  A    between atoms: C_4  and  O_8
REMARK    4  A    between atoms: C_5  and  O_10
REMARK    5  A    between atoms: C_6  and  O_12
REMARK    6  A    between atoms: C_7  and  C_14
REMARK    7  A    between atoms: C_14  and  O_15
REMARK    8  A    between atoms: C_17  and  C_20
REMARK    9  A    between atoms: C_19  and  C_22
REMARK   10  A    between atoms: C_24  and  O_31
REMARK                            x       y       z     vdW  Elec       q    Type
REMARK                         _______ _______ _______ _____ _____    ______ ____
ROOT
ATOM      1  O   UNL     1      -1.503   1.974  -0.107  0.00  0.00    -0.327 OA
ENDROOT
BRANCH   1   3
ATOM      2  O   UNL     1      -2.005  -0.235   0.450  0.00  0.00    -0.326 OA
ATOM      3  C   UNL     1      -2.538   1.077   0.293  0.00  0.00    +0.266 C 
ATOM      4  C   UNL     1      -3.618   1.091  -0.789  0.00  0.00    +0.196 C 
ATOM      5  C   UNL     1      -4.696   0.044  -0.513  0.00  0.00    +0.172 C 
ATOM      6  C   UNL     1      -4.077  -1.317  -0.192  0.00  0.00    +0.169 C 
ATOM      7  C   UNL     1      -2.989  -1.180   0.876  0.00  0.00    +0.176 C 
BRANCH   4   8
ATOM      8  O   UNL     1      -4.212   2.389  -0.812  0.00  0.00    -0.378 OA
ATOM      9  H   UNL     1      -3.528   3.054  -0.987  0.00  0.00    +0.211 HD
ENDBRANCH   4   8
BRANCH   5  10
ATOM     10  O   UNL     1      -5.520  -0.108  -1.670  0.00  0.00    -0.379 OA
ATOM     11  H   UNL     1      -5.924   0.745  -1.893  0.00  0.00    +0.211 HD
ENDBRANCH   5  10
BRANCH   6  12
ATOM     12  O   UNL     1      -5.093  -2.197   0.282  0.00  0.00    -0.379 OA
ATOM     13  H   UNL     1      -5.785  -2.285  -0.393  0.00  0.00    +0.211 HD
ENDBRANCH   6  12
BRANCH   7  14
ATOM     14  C   UNL     1      -2.276  -2.504   1.129  0.00  0.00    +0.169 C 
BRANCH  14  15
ATOM     15  O   UNL     1      -1.281  -2.300   2.115  0.00  0.00    -0.379 OA
ATOM     16  H   UNL     1      -0.819  -3.135   2.286  0.00  0.00    +0.211 HD
ENDBRANCH  14  15
ENDBRANCH   7  14
ENDBRANCH   1   3
BRANCH   1  17
ATOM     17  C   UNL     1      -0.456   2.023   0.859  0.00  0.00    +0.140 C 
ATOM     18  C   UNL     1      -0.335   3.444   1.393  0.00  0.00    +0.037 C 
BRANCH  17  20
ATOM     19  C   UNL     1       1.512   0.500   0.556  0.00  0.00    +0.000 C 
ATOM     20  C   UNL     1       0.813   1.584   0.189  0.00  0.00    +0.001 C 
BRANCH  19  22
ATOM     21  O   UNL     1       3.244   1.062  -1.060  0.00  0.00    -0.355 OA
ATOM     22  C   UNL     1       2.774   0.060  -0.107  0.00  0.00    +0.133 C 
ATOM     23  C   UNL     1       4.031   0.001   0.833  0.00  0.00    +0.031 C 
ATOM     24  C   UNL     1       2.598  -1.137  -1.091  0.00  0.00    +0.117 C 
ATOM     25  C   UNL     1       4.422   0.346  -1.506  0.00  0.00    +0.118 C 
ATOM     26  C   UNL     1       5.179   0.123  -0.197  0.00  0.00    +0.032 C 
ATOM     27  C   UNL     1       3.830  -0.975  -1.999  0.00  0.00    +0.059 C 
ATOM     28  C   UNL     1       4.151  -1.373   1.540  0.00  0.00    +0.003 C 
ATOM     29  C   UNL     1       4.112   1.079   1.917  0.00  0.00    +0.003 C 
ATOM     30  C   UNL     1       1.318  -1.073  -1.940  0.00  0.00    +0.032 C 
BRANCH  24  31
ATOM     31  O   UNL     1       2.615  -2.400  -0.450  0.00  0.00    -0.384 OA
ATOM     32  H   UNL     1       3.413  -2.474   0.097  0.00  0.00    +0.210 HD
ENDBRANCH  24  31
ENDBRANCH  19  22
ENDBRANCH  17  20
ENDBRANCH   1  17
TORSDOF 10
