REMARK  Name = 101543
REMARK  8 active torsions:
REMARK  status: ('A' for Active; 'I' for Inactive)
REMARK    1  A    between atoms: C_2  and  O_17
REMARK    2  A    between atoms: C_3  and  O_15
REMARK    3  A    between atoms: C_4  and  C_24
REMARK    4  A    between atoms: C_5  and  N_8
REMARK    5  A    between atoms: O_17  and  P_18
REMARK    6  A    between atoms: P_18  and  O_20
REMARK    7  A    between atoms: P_18  and  O_22
REMARK    8  A    between atoms: C_24  and  O_25
REMARK                            x       y       z     vdW  Elec       q    Type
REMARK                         _______ _______ _______ _____ _____    ______ ____
ROOT
ATOM      1  O   UNL     1      -0.063  -1.786  -0.989  0.00  0.00    -0.333 OA
ATOM      2  C   UNL     1       1.478  -0.378   0.107  0.00  0.00    +0.186 C 
ATOM      3  C   UNL     1       0.782   0.443  -0.960  0.00  0.00    +0.188 C 
ATOM      4  C   UNL     1       1.237  -1.798  -0.374  0.00  0.00    +0.176 C 
ATOM      5  C   UNL     1      -0.424  -0.426  -1.294  0.00  0.00    +0.229 C 
ENDROOT
BRANCH   5   8
ATOM      6  O   UNL     1      -2.458   1.338  -2.153  0.00  0.00    -0.252 OA
ATOM      7  O   UNL     1      -4.817   0.829   1.774  0.00  0.00    -0.270 OA
ATOM      8  N   UNL     1      -1.583  -0.080  -0.515  0.00  0.00    -0.217 N 
ATOM      9  N   UNL     1      -3.631   1.084  -0.197  0.00  0.00    -0.236 N 
ATOM     10  C   UNL     1      -2.544   0.816  -1.040  0.00  0.00    +0.315 C 
ATOM     11  C   UNL     1      -1.756  -0.626   0.751  0.00  0.00    +0.076 C 
ATOM     12  C   UNL     1      -2.798  -0.362   1.543  0.00  0.00    +0.074 C 
ATOM     13  C   UNL     1      -3.846   0.565   1.070  0.00  0.00    +0.254 C 
ATOM     14  H   UNL     1      -4.312   1.705  -0.540  0.00  0.00    +0.159 HD
ENDBRANCH   5   8
BRANCH   3  15
ATOM     15  O   UNL     1       1.600   0.587  -2.119  0.00  0.00    -0.378 OA
ATOM     16  H   UNL     1       2.368   1.140  -1.907  0.00  0.00    +0.211 HD
ENDBRANCH   3  15
BRANCH   2  17
ATOM     17  O   UNL     1       2.853  -0.086   0.232  0.00  0.00    -0.271 OA
BRANCH  17  18
ATOM     18  P   UNL     1       3.280   1.423   0.617  0.00  0.00    +0.473 P 
ATOM     19  O   UNL     1       2.839   2.478  -0.355  0.00  0.00    -0.227 OA
BRANCH  18  20
ATOM     20  O   UNL     1       4.877   1.325   0.853  0.00  0.00    -0.303 OA
ATOM     21  H   UNL     1       5.067   0.620   1.492  0.00  0.00    +0.222 HD
ENDBRANCH  18  20
BRANCH  18  22
ATOM     22  O   UNL     1       2.692   1.585   2.115  0.00  0.00    -0.303 OA
ATOM     23  H   UNL     1       3.026   0.865   2.672  0.00  0.00    +0.222 HD
ENDBRANCH  18  22
ENDBRANCH  17  18
ENDBRANCH   2  17
BRANCH   4  24
ATOM     24  C   UNL     1       1.263  -2.825   0.744  0.00  0.00    +0.169 C 
BRANCH  24  25
ATOM     25  O   UNL     1       1.018  -4.106   0.190  0.00  0.00    -0.379 OA
ATOM     26  H   UNL     1       1.032  -4.772   0.895  0.00  0.00    +0.211 HD
ENDBRANCH  24  25
ENDBRANCH   4  24
TORSDOF 8
