REMARK  Name = 101529308
REMARK  6 active torsions:
REMARK  status: ('A' for Active; 'I' for Inactive)
REMARK    1  A    between atoms: C_3  and  C_23
REMARK    2  A    between atoms: C_4  and  O_8
REMARK    3  A    between atoms: C_5  and  O_12
REMARK    4  A    between atoms: C_6  and  O_10
REMARK    5  A    between atoms: O_12  and  C_14
REMARK    6  A    between atoms: C_23  and  O_24
REMARK                            x       y       z     vdW  Elec       q    Type
REMARK                         _______ _______ _______ _____ _____    ______ ____
ROOT
ATOM      1  O   UNL     1      -1.180  -0.577  -0.354  0.00  0.00    -0.315 OA
ATOM      2  O   UNL     1      -4.483   1.585   0.363  0.00  0.00    -0.291 OA
ATOM      3  C   UNL     1      -2.425  -1.225  -0.071  0.00  0.00    +0.182 C 
ATOM      4  C   UNL     1      -3.583  -0.411  -0.651  0.00  0.00    +0.200 C 
ATOM      5  C   UNL     1      -1.072   0.695   0.291  0.00  0.00    +0.323 C 
ATOM      6  C   UNL     1      -2.142   1.659  -0.217  0.00  0.00    +0.241 C 
ATOM      7  C   UNL     1      -3.505   1.000  -0.096  0.00  0.00    +0.213 C 
ENDROOT
BRANCH   4   8
ATOM      8  O   UNL     1      -4.817  -1.002  -0.303  0.00  0.00    -0.375 OA
ATOM      9  H   UNL     1      -4.857  -1.903  -0.662  0.00  0.00    +0.211 HD
ENDBRANCH   4   8
BRANCH   6  10
ATOM     10  O   UNL     1      -2.106   2.848   0.548  0.00  0.00    -0.372 OA
ATOM     11  H   UNL     1      -1.232   3.260   0.463  0.00  0.00    +0.211 HD
ENDBRANCH   6  10
BRANCH   5  12
ATOM     12  O   UNL     1       0.225   1.243   0.060  0.00  0.00    -0.449 OA
BRANCH  12  14
ATOM     13  N   UNL     1       2.501  -0.960   1.636  0.00  0.00    -0.309 N 
ATOM     14  C   UNL     1       1.290   0.487   0.467  0.00  0.00    +0.157 C 
ATOM     15  C   UNL     1       2.596   0.441  -0.098  0.00  0.00    +0.049 C 
ATOM     16  C   UNL     1       3.336  -0.474   0.655  0.00  0.00    +0.051 C 
ATOM     17  C   UNL     1       1.263  -0.385   1.530  0.00  0.00    +0.099 C 
ATOM     18  C   UNL     1       3.221   1.092  -1.179  0.00  0.00    +0.004 C 
ATOM     19  C   UNL     1       4.675  -0.772   0.378  0.00  0.00    +0.015 C 
ATOM     20  C   UNL     1       4.560   0.805  -1.468  0.00  0.00    +0.000 C 
ATOM     21  C   UNL     1       5.274  -0.113  -0.700  0.00  0.00    +0.001 C 
ATOM     22  H   UNL     1       2.758  -1.625   2.315  0.00  0.00    +0.152 HD
ENDBRANCH  12  14
ENDBRANCH   5  12
BRANCH   3  23
ATOM     23  C   UNL     1      -2.363  -2.622  -0.681  0.00  0.00    +0.170 C 
BRANCH  23  24
ATOM     24  O   UNL     1      -1.267  -3.314  -0.110  0.00  0.00    -0.379 OA
ATOM     25  H   UNL     1      -1.215  -4.205  -0.489  0.00  0.00    +0.211 HD
ENDBRANCH  23  24
ENDBRANCH   3  23
TORSDOF 6
