REMARK  Name = 101512
REMARK  3 active torsions:
REMARK  status: ('A' for Active; 'I' for Inactive)
REMARK    1  A    between atoms: N_1  and  N_2
REMARK    2  A    between atoms: N_1  and  C_9
REMARK    3  A    between atoms: N_2  and  C_20
REMARK                            x       y       z     vdW  Elec       q    Type
REMARK                         _______ _______ _______ _____ _____    ______ ____
ROOT
ATOM      1  N   UNL     1      -0.458   0.338  -0.266  0.00  0.00    -0.111 NA
ENDROOT
BRANCH   1   8
ATOM      2  N   UNL     1      -3.191   1.710  -0.079  0.00  0.00    -0.270 NA
ATOM      3  N   UNL     1      -5.120   0.608   0.100  0.00  0.00    -0.307 N 
ATOM      4  N   UNL     1      -4.171  -1.630   0.073  0.00  0.00    -0.232 NA
ATOM      5  N   UNL     1      -1.739  -1.669  -0.120  0.00  0.00    -0.229 NA
ATOM      6  C   UNL     1      -2.861   0.385  -0.076  0.00  0.00    +0.168 C 
ATOM      7  C   UNL     1      -4.076  -0.279   0.036  0.00  0.00    +0.125 C 
ATOM      8  C   UNL     1      -1.676  -0.319  -0.155  0.00  0.00    +0.166 C 
ATOM      9  C   UNL     1      -4.554   1.794   0.028  0.00  0.00    +0.163 C 
ATOM     10  C   UNL     1      -2.966  -2.233  -0.010  0.00  0.00    +0.253 C 
ATOM     11  H   UNL     1      -2.564   2.466  -0.146  0.00  0.00    +0.126 HD
ATOM     12  H   UNL     1      -6.080   0.403   0.181  0.00  0.00    +0.149 HD
ENDBRANCH   1   8
BRANCH   1  13
ATOM     13  N   UNL     1       0.457  -0.339   0.267  0.00  0.00    -0.111 NA
BRANCH  13  20
ATOM     14  N   UNL     1       3.190  -1.711   0.079  0.00  0.00    -0.270 NA
ATOM     15  N   UNL     1       5.119  -0.608  -0.099  0.00  0.00    -0.307 N 
ATOM     16  N   UNL     1       4.169   1.629  -0.073  0.00  0.00    -0.232 NA
ATOM     17  N   UNL     1       1.738   1.668   0.120  0.00  0.00    -0.229 NA
ATOM     18  C   UNL     1       2.860  -0.385   0.076  0.00  0.00    +0.168 C 
ATOM     19  C   UNL     1       4.074   0.279  -0.036  0.00  0.00    +0.125 C 
ATOM     20  C   UNL     1       1.690   0.326   0.153  0.00  0.00    +0.166 C 
ATOM     21  C   UNL     1       4.553  -1.794  -0.028  0.00  0.00    +0.163 C 
ATOM     22  C   UNL     1       2.964   2.232   0.010  0.00  0.00    +0.253 C 
ATOM     23  H   UNL     1       2.563  -2.467   0.145  0.00  0.00    +0.126 HD
ATOM     24  H   UNL     1       6.078  -0.403  -0.180  0.00  0.00    +0.149 HD
ENDBRANCH  13  20
ENDBRANCH   1  13
TORSDOF 3
