101542782
  -OEChem-03292013293D

 60 61  0     1  0  0  0  0  0999 V2000
    0.3309   -1.8130    1.8632 O   0  0  0  0  0  0  0  0  0  0  0  0
    2.7368   -1.7954    0.2498 O   0  0  0  0  0  0  0  0  0  0  0  0
   -2.1110   -2.6831    0.7740 O   0  0  0  0  0  0  0  0  0  0  0  0
    3.0288   -3.5393   -1.8465 O   0  0  0  0  0  0  0  0  0  0  0  0
   -4.6202    0.4976   -1.7482 O   0  0  0  0  0  0  0  0  0  0  0  0
    3.5634    1.8220    1.7784 O   0  0  0  0  0  0  0  0  0  0  0  0
    3.9014    3.3334   -0.5295 O   0  0  0  0  0  0  0  0  0  0  0  0
   -5.1325    1.6331    0.7365 O   0  0  0  0  0  0  0  0  0  0  0  0
    0.2806   -2.0726    0.4539 C   0  0  2  0  0  0  0  0  0  0  0  0
    1.6699   -2.7301    0.0265 C   0  0  1  0  0  0  0  0  0  0  0  0
   -0.0711   -0.7275   -0.3345 C   0  0  0  0  0  0  0  0  0  0  0  0
   -0.8548   -3.1262    0.2739 C   0  0  0  0  0  0  0  0  0  0  0  0
    1.7280   -3.0862   -1.4739 C   0  0  0  0  0  0  0  0  0  0  0  0
   -1.4377   -0.0904   -0.0490 C   0  0  0  0  0  0  0  0  0  0  0  0
    1.0000    0.3671   -0.3837 C   0  0  0  0  0  0  0  0  0  0  0  0
    2.0320   -3.9714    0.8705 C   0  0  0  0  0  0  0  0  0  0  0  0
   -2.4229   -0.0810   -1.0363 C   0  0  0  0  0  0  0  0  0  0  0  0
    1.8055    0.6052    0.7300 C   0  0  0  0  0  0  0  0  0  0  0  0
    1.1701    1.1249   -1.5423 C   0  0  0  0  0  0  0  0  0  0  0  0
   -1.6949    0.4784    1.1984 C   0  0  0  0  0  0  0  0  0  0  0  0
    2.7814    1.6009    0.6849 C   0  0  0  0  0  0  0  0  0  0  0  0
   -3.6654    0.4970   -0.7764 C   0  0  0  0  0  0  0  0  0  0  0  0
    2.1458    2.1208   -1.5872 C   0  0  0  0  0  0  0  0  0  0  0  0
   -2.9374    1.0568    1.4582 C   0  0  0  0  0  0  0  0  0  0  0  0
    2.9515    2.3588   -0.4736 C   0  0  0  0  0  0  0  0  0  0  0  0
   -3.9227    1.0660    0.4709 C   0  0  0  0  0  0  0  0  0  0  0  0
    3.3245    1.0036    2.9218 C   0  0  0  0  0  0  0  0  0  0  0  0
   -4.2762   -0.1043   -2.9947 C   0  0  0  0  0  0  0  0  0  0  0  0
    4.0107    4.0624   -1.7508 C   0  0  0  0  0  0  0  0  0  0  0  0
   -5.3144    2.1925    2.0359 C   0  0  0  0  0  0  0  0  0  0  0  0
   -0.1393   -1.0727   -1.3765 H   0  0  0  0  0  0  0  0  0  0  0  0
   -0.9912   -3.3722   -0.7837 H   0  0  0  0  0  0  0  0  0  0  0  0
   -0.6329   -4.0475    0.8186 H   0  0  0  0  0  0  0  0  0  0  0  0
    1.0118   -3.8725   -1.7293 H   0  0  0  0  0  0  0  0  0  0  0  0
    1.5305   -2.2102   -2.0966 H   0  0  0  0  0  0  0  0  0  0  0  0
    2.0169   -3.7556    1.9435 H   0  0  0  0  0  0  0  0  0  0  0  0
    3.0575   -4.2974    0.6571 H   0  0  0  0  0  0  0  0  0  0  0  0
    1.3713   -4.8192    0.6708 H   0  0  0  0  0  0  0  0  0  0  0  0
    0.2470   -2.6522    2.3449 H   0  0  0  0  0  0  0  0  0  0  0  0
    2.9075   -1.7629    1.2065 H   0  0  0  0  0  0  0  0  0  0  0  0
   -2.1717   -0.5378   -1.9872 H   0  0  0  0  0  0  0  0  0  0  0  0
    1.6116    0.0515    1.6349 H   0  0  0  0  0  0  0  0  0  0  0  0
   -0.9430    0.4857    1.9817 H   0  0  0  0  0  0  0  0  0  0  0  0
    0.5496    0.9502   -2.4173 H   0  0  0  0  0  0  0  0  0  0  0  0
   -2.7543   -3.3919    0.6031 H   0  0  0  0  0  0  0  0  0  0  0  0
    2.9972   -3.7461   -2.7962 H   0  0  0  0  0  0  0  0  0  0  0  0
   -3.0662    1.4799    2.4484 H   0  0  0  0  0  0  0  0  0  0  0  0
    2.2213    2.6694   -2.5197 H   0  0  0  0  0  0  0  0  0  0  0  0
   -5.1504   -0.0132   -3.6479 H   0  0  0  0  0  0  0  0  0  0  0  0
    4.0408    1.3115    3.6909 H   0  0  0  0  0  0  0  0  0  0  0  0
    3.5218   -0.0532    2.7141 H   0  0  0  0  0  0  0  0  0  0  0  0
    2.3252    1.1713    3.3381 H   0  0  0  0  0  0  0  0  0  0  0  0
   -4.0738   -1.1751   -2.8840 H   0  0  0  0  0  0  0  0  0  0  0  0
   -3.4556    0.4280   -3.4878 H   0  0  0  0  0  0  0  0  0  0  0  0
   -4.6310    3.0298    2.2141 H   0  0  0  0  0  0  0  0  0  0  0  0
    4.8136    4.7950   -1.6179 H   0  0  0  0  0  0  0  0  0  0  0  0
   -5.2497    1.4277    2.8173 H   0  0  0  0  0  0  0  0  0  0  0  0
   -6.3306    2.5987    2.0724 H   0  0  0  0  0  0  0  0  0  0  0  0
    4.3065    3.4141   -2.5826 H   0  0  0  0  0  0  0  0  0  0  0  0
    3.0975    4.6274   -1.9666 H   0  0  0  0  0  0  0  0  0  0  0  0
  1  9  1  0  0  0  0
  1 39  1  0  0  0  0
  2 10  1  0  0  0  0
  2 40  1  0  0  0  0
  3 12  1  0  0  0  0
  3 45  1  0  0  0  0
  4 13  1  0  0  0  0
  4 46  1  0  0  0  0
  5 22  1  0  0  0  0
  5 28  1  0  0  0  0
  6 21  1  0  0  0  0
  6 27  1  0  0  0  0
  7 25  1  0  0  0  0
  7 29  1  0  0  0  0
  8 26  1  0  0  0  0
  8 30  1  0  0  0  0
  9 10  1  0  0  0  0
  9 11  1  0  0  0  0
  9 12  1  0  0  0  0
 10 13  1  0  0  0  0
 10 16  1  0  0  0  0
 11 14  1  0  0  0  0
 11 15  1  0  0  0  0
 11 31  1  0  0  0  0
 12 32  1  0  0  0  0
 12 33  1  0  0  0  0
 13 34  1  0  0  0  0
 13 35  1  0  0  0  0
 14 17  2  0  0  0  0
 14 20  1  0  0  0  0
 15 18  2  0  0  0  0
 15 19  1  0  0  0  0
 16 36  1  0  0  0  0
 16 37  1  0  0  0  0
 16 38  1  0  0  0  0
 17 22  1  0  0  0  0
 17 41  1  0  0  0  0
 18 21  1  0  0  0  0
 18 42  1  0  0  0  0
 19 23  2  0  0  0  0
 19 44  1  0  0  0  0
 20 24  2  0  0  0  0
 20 43  1  0  0  0  0
 21 25  2  0  0  0  0
 22 26  2  0  0  0  0
 23 25  1  0  0  0  0
 23 48  1  0  0  0  0
 24 26  1  0  0  0  0
 24 47  1  0  0  0  0
 27 50  1  0  0  0  0
 27 51  1  0  0  0  0
 27 52  1  0  0  0  0
 28 49  1  0  0  0  0
 28 53  1  0  0  0  0
 28 54  1  0  0  0  0
 29 56  1  0  0  0  0
 29 59  1  0  0  0  0
 29 60  1  0  0  0  0
 30 55  1  0  0  0  0
 30 57  1  0  0  0  0
 30 58  1  0  0  0  0
M  END
> <PUBCHEM_COMPOUND_CID>
101542782

> <PUBCHEM_CONFORMER_RMSD>
1

> <PUBCHEM_CONFORMER_DIVERSEORDER>
1
46
22
19
51
40
49
42
34
27
7
48
33
16
37
43
53
25
17
3
54
50
44
26
45
47
10
5
30
21
23
55
4
41
38
12
35
2
31
6
8
18
56
52
28
15
20
39
32
24
13
29
14
11
36
9

> <PUBCHEM_MMFF94_PARTIAL_CHARGES>
39
1 -0.68
10 0.28
11 0.29
12 0.28
13 0.28
14 -0.14
15 -0.14
17 -0.15
18 -0.15
19 -0.15
2 -0.68
20 -0.15
21 0.08
22 0.08
23 -0.15
24 -0.15
25 0.08
26 0.08
27 0.28
28 0.28
29 0.28
3 -0.68
30 0.28
39 0.4
4 -0.68
40 0.4
41 0.15
42 0.15
43 0.15
44 0.15
45 0.4
46 0.4
47 0.15
48 0.15
5 -0.36
6 -0.36
7 -0.36
8 -0.36
9 0.28

> <PUBCHEM_EFFECTIVE_ROTOR_COUNT>
10

> <PUBCHEM_PHARMACOPHORE_FEATURES>
14
1 1 acceptor
1 1 donor
1 2 acceptor
1 2 donor
1 3 acceptor
1 3 donor
1 4 acceptor
1 4 donor
1 5 acceptor
1 6 acceptor
1 7 acceptor
1 8 acceptor
6 14 17 20 22 24 26 rings
6 15 18 19 21 23 25 rings

> <PUBCHEM_HEAVY_ATOM_COUNT>
30

> <PUBCHEM_ATOM_DEF_STEREO_COUNT>
0

> <PUBCHEM_ATOM_UDEF_STEREO_COUNT>
2

> <PUBCHEM_BOND_DEF_STEREO_COUNT>
0

> <PUBCHEM_BOND_UDEF_STEREO_COUNT>
0

> <PUBCHEM_ISOTOPIC_ATOM_COUNT>
0

> <PUBCHEM_COMPONENT_COUNT>
1

> <PUBCHEM_CACTVS_TAUTO_COUNT>
3

> <PUBCHEM_CONFORMER_ID>
060D6B7E00000001

> <PUBCHEM_MMFF94_ENERGY>
146.094

> <PUBCHEM_FEATURE_SELFOVERLAP>
71.084

> <PUBCHEM_SHAPE_FINGERPRINT>
10764073 3 14856614742482928761
11582403 64 15767488860330581538
12160290 23 17691397933865624086
12553582 1 17977386032183485007
12788726 201 17254572499805626278
13134695 92 17972035834045223295
13140716 1 18334585671720720466
13149001 5 18191612790031989454
133893 2 18338514140619400807
13590594 115 17835254349887803889
13726171 33 15504653697876153261
13965767 371 18040999591468115076
14955137 171 17768830671006127627
15163728 17 18265912421675743820
15775530 1 18337689605683661266
15842332 3 18059565855226309397
16752209 62 17834101319020452062
17980427 23 17844226454927936891
1813 80 17838623257815655759
18785283 64 18334869272473984875
21033648 29 13409002209183522829
22393880 68 16271655571445470573
22907989 373 17688870156342989860
23419403 2 14858581717425273987
23558518 356 18337672026514218699
23559900 14 18341334474582528964
23598288 3 17610609088142949690
283562 15 17904771325005114211
350125 39 18263662803499839962
474 4 18410008840649310649
57527295 17 17417550093434246588
6034566 193 18043536220854666749
633830 44 18341907298112168541
9981440 41 17915440882445112682

> <PUBCHEM_SHAPE_MULTIPOLES>
570.43
8.84
4.85
2.4
9.04
2.62
-0.08
-8.2
0
-6.37
-0.88
0.48
-0.8
-1.36

> <PUBCHEM_SHAPE_SELFOVERLAP>
1196.04

> <PUBCHEM_SHAPE_VOLUME>
322

> <PUBCHEM_COORDINATE_TYPE>
2
5
10

$$$$
