REMARK  Name = 101526090
REMARK  12 active torsions:
REMARK  status: ('A' for Active; 'I' for Inactive)
REMARK    1  A    between atoms: C_2  and  S_3
REMARK    2  A    between atoms: C_2  and  C_15
REMARK    3  A    between atoms: S_3  and  C_4
REMARK    4  A    between atoms: C_4  and  C_5
REMARK    5  A    between atoms: C_5  and  N_7
REMARK    6  A    between atoms: C_5  and  C_12
REMARK    7  A    between atoms: C_12  and  O_13
REMARK    8  A    between atoms: C_15  and  C_16
REMARK    9  A    between atoms: C_15  and  C_19
REMARK   10  A    between atoms: C_19  and  O_20
REMARK   11  A    between atoms: C_19  and  C_23
REMARK   12  A    between atoms: C_23  and  O_24
REMARK                            x       y       z     vdW  Elec       q    Type
REMARK                         _______ _______ _______ _____ _____    ______ ____
ROOT
ATOM      1  O   UNK A   1       0.982  -1.383  -1.477  0.00  0.00    -0.284 OA
ATOM      2  C   UNK A   1       1.072  -0.934  -0.340  0.00  0.00    +0.201 C 
ENDROOT
BRANCH   2   3
ATOM      3  S   UNK A   1      -0.344  -0.409   0.584  0.00  0.00    -0.075 S 
BRANCH   3   4
ATOM      4  C   UNK A   1      -1.428   0.130  -0.756  0.00  0.00    +0.096 C 
BRANCH   4   5
ATOM      5  C   UNK A   1      -2.798   0.620  -0.282  0.00  0.00    +0.183 C 
BRANCH   5   7
ATOM      6  O   UNK A   0      -4.570  -1.205  -1.681  0.00  0.00    -0.275 OA
ATOM      7  N   UNK A   1      -3.574  -0.454   0.285  0.00  0.00    -0.296 N 
ATOM      8  C   UNK A   0      -4.397  -1.278  -0.467  0.00  0.00    +0.223 C 
ATOM      9  C   UNK A   0      -5.072  -2.331   0.370  0.00  0.00    +0.095 C 
ATOM     10  H   UNK A   1      -3.517  -0.610   1.256  0.00  0.00    +0.150 HD
ENDBRANCH   5   7
BRANCH   5  12
ATOM     11  O   UNK A   1      -2.165   2.873   0.352  0.00  0.00    -0.248 OA
ATOM     12  C   UNK A   1      -2.694   1.811   0.657  0.00  0.00    +0.333 C 
BRANCH  12  13
ATOM     13  O   UNK A   1      -3.233   1.579   1.877  0.00  0.00    -0.479 OA
ATOM     14  H   UNK A   1      -3.628   0.751   2.066  0.00  0.00    +0.295 HD
ENDBRANCH  12  13
ENDBRANCH   5  12
ENDBRANCH   4   5
ENDBRANCH   3   4
ENDBRANCH   2   3
BRANCH   2  15
ATOM     15  C   UNK A   1       2.405  -0.779   0.401  0.00  0.00    +0.106 C 
BRANCH  15  16
ATOM     16  C   UNK A   1       3.051  -2.184   0.589  0.00  0.00    +0.011 C 
ATOM     17  C   UNK A   1       2.156  -3.132   1.395  0.00  0.00    +0.001 C 
ATOM     18  C   UNK A   1       4.413  -2.079   1.291  0.00  0.00    +0.001 C 
ENDBRANCH  15  16
BRANCH  15  19
ATOM     19  C   UNK A   1       3.303   0.216  -0.369  0.00  0.00    +0.217 C 
BRANCH  19  20
ATOM     20  O   UNK A   1       3.604  -0.297  -1.659  0.00  0.00    -0.374 OA
ATOM     21  H   UNK A   1       4.013  -1.172  -1.572  0.00  0.00    +0.211 HD
ENDBRANCH  19  20
BRANCH  19  23
ATOM     22  O   UNK A   1       2.386   2.095  -1.613  0.00  0.00    -0.247 OA
ATOM     23  C   UNK A   1       2.664   1.585  -0.535  0.00  0.00    +0.345 C 
BRANCH  23  24
ATOM     24  O   UNK A   1       2.432   2.134   0.693  0.00  0.00    -0.443 OA
ATOM     25  C   UNK A   1       1.806   3.421   0.684  0.00  0.00    +0.256 C 
ENDBRANCH  23  24
ENDBRANCH  19  23
ENDBRANCH  15  19
ENDBRANCH   2  15
TORSDOF 12
