101573051
  -OEChem-03292013293D

 70 72  0     1  0  0  0  0  0999 V2000
    3.8370   -1.6590    1.4057 O   0  0  0  0  0  0  0  0  0  0  0  0
    6.1397   -2.5965    0.3138 O   0  0  0  0  0  0  0  0  0  0  0  0
    6.5398   -0.1475    1.7532 O   0  0  0  0  0  0  0  0  0  0  0  0
    7.2411    2.0662   -0.0630 O   0  0  0  0  0  0  0  0  0  0  0  0
   -3.7867   -3.8894   -1.2726 O   0  0  0  0  0  0  0  0  0  0  0  0
   -4.8850   -0.6457   -1.3475 O   0  0  0  0  0  0  0  0  0  0  0  0
   -6.4685   -0.4896    0.3483 N   0  0  0  0  0  0  0  0  0  0  0  0
    3.1789   -0.6592   -0.7534 C   0  0  2  0  0  0  0  0  0  0  0  0
    3.2224    0.8959   -1.0467 C   0  0  1  0  0  0  0  0  0  0  0  0
    1.6939    0.7754   -1.3072 C   0  0  1  0  0  0  0  0  0  0  0  0
    1.7033   -0.4342   -0.3014 C   0  0  1  0  0  0  0  0  0  0  0  0
    4.1733   -1.2574    0.2858 C   0  0  0  0  0  0  0  0  0  0  0  0
    0.7673    1.9459   -1.0898 C   0  0  0  0  0  0  0  0  0  0  0  0
    3.6653    1.7417    0.0962 C   0  0  0  0  0  0  0  0  0  0  0  0
    0.6907   -1.4796   -0.6503 C   0  0  0  0  0  0  0  0  0  0  0  0
    5.6285   -1.3566   -0.1597 C   0  0  1  0  0  0  0  0  0  0  0  0
    6.5144   -0.2038    0.3246 C   0  0  1  0  0  0  0  0  0  0  0  0
    4.9550    1.8253    0.4512 C   0  0  0  0  0  0  0  0  0  0  0  0
    6.1291    1.1782   -0.2322 C   0  0  1  0  0  0  0  0  0  0  0  0
    0.9631    3.1143   -2.0125 C   0  0  0  0  0  0  0  0  0  0  0  0
   -0.2336   -1.9181    0.2317 C   0  0  0  0  0  0  0  0  0  0  0  0
   -0.2671    1.7866   -0.2444 C   0  0  0  0  0  0  0  0  0  0  0  0
   -0.1574   -1.7043    1.7233 C   0  0  0  0  0  0  0  0  0  0  0  0
   -1.4376   -2.5745   -0.2861 C   0  0  0  0  0  0  0  0  0  0  0  0
   -1.4921    2.5531   -0.1348 C   0  0  0  0  0  0  0  0  0  0  0  0
   -2.6280   -2.5681    0.3355 C   0  0  0  0  0  0  0  0  0  0  0  0
   -2.4911    2.0630    0.6178 C   0  0  0  0  0  0  0  0  0  0  0  0
   -3.8496   -3.0856   -0.3460 C   0  0  0  0  0  0  0  0  0  0  0  0
   -3.8667    2.5039    0.5816 C   0  0  0  0  0  0  0  0  0  0  0  0
   -5.1740   -2.5221    0.1340 C   0  0  0  0  0  0  0  0  0  0  0  0
   -4.8191    1.7652    1.1740 C   0  0  0  0  0  0  0  0  0  0  0  0
   -6.3188    1.9099    1.0728 C   0  0  2  0  0  0  0  0  0  0  0  0
   -6.8964    0.8789    0.0765 C   0  0  0  0  0  0  0  0  0  0  0  0
   -5.4737   -1.1286   -0.3825 C   0  0  0  0  0  0  0  0  0  0  0  0
   -6.7974    3.3161    0.7039 C   0  0  0  0  0  0  0  0  0  0  0  0
    3.2380   -1.2375   -1.6903 H   0  0  0  0  0  0  0  0  0  0  0  0
    3.7680    1.1535   -1.9635 H   0  0  0  0  0  0  0  0  0  0  0  0
    1.5242    0.4315   -2.3436 H   0  0  0  0  0  0  0  0  0  0  0  0
    1.6570   -0.1102    0.7460 H   0  0  0  0  0  0  0  0  0  0  0  0
    2.9247    2.2697    0.6889 H   0  0  0  0  0  0  0  0  0  0  0  0
    0.5751   -1.6969   -1.7104 H   0  0  0  0  0  0  0  0  0  0  0  0
    5.6501   -1.4119   -1.2532 H   0  0  0  0  0  0  0  0  0  0  0  0
    7.5470   -0.4308    0.0289 H   0  0  0  0  0  0  0  0  0  0  0  0
    5.1817    2.4262    1.3311 H   0  0  0  0  0  0  0  0  0  0  0  0
    5.9726    1.1012   -1.3134 H   0  0  0  0  0  0  0  0  0  0  0  0
    1.9725    3.5219   -1.8952 H   0  0  0  0  0  0  0  0  0  0  0  0
    0.2646    3.9328   -1.8203 H   0  0  0  0  0  0  0  0  0  0  0  0
    0.8393    2.8013   -3.0542 H   0  0  0  0  0  0  0  0  0  0  0  0
   -0.2912    0.8970    0.3733 H   0  0  0  0  0  0  0  0  0  0  0  0
    6.2160   -2.5349    1.2815 H   0  0  0  0  0  0  0  0  0  0  0  0
   -0.4939   -2.5992    2.2601 H   0  0  0  0  0  0  0  0  0  0  0  0
    0.8644   -1.5263    2.0707 H   0  0  0  0  0  0  0  0  0  0  0  0
   -0.7803   -0.8592    2.0326 H   0  0  0  0  0  0  0  0  0  0  0  0
    7.1511    0.5654    2.0063 H   0  0  0  0  0  0  0  0  0  0  0  0
   -1.3644   -2.9851   -1.2914 H   0  0  0  0  0  0  0  0  0  0  0  0
   -1.6489    3.4073   -0.7833 H   0  0  0  0  0  0  0  0  0  0  0  0
    7.0175    2.9069   -0.4985 H   0  0  0  0  0  0  0  0  0  0  0  0
   -2.7791   -2.0927    1.2985 H   0  0  0  0  0  0  0  0  0  0  0  0
   -2.3075    1.1727    1.2197 H   0  0  0  0  0  0  0  0  0  0  0  0
   -4.1151    3.3599   -0.0358 H   0  0  0  0  0  0  0  0  0  0  0  0
   -5.9755   -3.1924   -0.1974 H   0  0  0  0  0  0  0  0  0  0  0  0
   -5.1839   -2.5292    1.2300 H   0  0  0  0  0  0  0  0  0  0  0  0
   -4.5065    0.8945    1.7524 H   0  0  0  0  0  0  0  0  0  0  0  0
   -6.7188    1.6838    2.0707 H   0  0  0  0  0  0  0  0  0  0  0  0
   -7.9907    0.8802    0.1332 H   0  0  0  0  0  0  0  0  0  0  0  0
   -6.6170    1.1411   -0.9509 H   0  0  0  0  0  0  0  0  0  0  0  0
   -6.9147   -0.9797    1.1179 H   0  0  0  0  0  0  0  0  0  0  0  0
   -6.5001    3.5940   -0.3132 H   0  0  0  0  0  0  0  0  0  0  0  0
   -6.3932    4.0637    1.3952 H   0  0  0  0  0  0  0  0  0  0  0  0
   -7.8903    3.3737    0.7556 H   0  0  0  0  0  0  0  0  0  0  0  0
  1 12  2  0  0  0  0
  2 16  1  0  0  0  0
  2 50  1  0  0  0  0
  3 17  1  0  0  0  0
  3 54  1  0  0  0  0
  4 19  1  0  0  0  0
  4 57  1  0  0  0  0
  5 28  2  0  0  0  0
  6 34  2  0  0  0  0
  7 33  1  0  0  0  0
  7 34  1  0  0  0  0
  7 67  1  0  0  0  0
  8  9  1  0  0  0  0
  8 11  1  0  0  0  0
  8 12  1  0  0  0  0
  8 36  1  0  0  0  0
  9 10  1  0  0  0  0
  9 14  1  0  0  0  0
  9 37  1  0  0  0  0
 10 11  1  0  0  0  0
 10 13  1  0  0  0  0
 10 38  1  0  0  0  0
 11 15  1  0  0  0  0
 11 39  1  0  0  0  0
 12 16  1  0  0  0  0
 13 20  1  0  0  0  0
 13 22  2  0  0  0  0
 14 18  2  0  0  0  0
 14 40  1  0  0  0  0
 15 21  2  0  0  0  0
 15 41  1  0  0  0  0
 16 17  1  0  0  0  0
 16 42  1  0  0  0  0
 17 19  1  0  0  0  0
 17 43  1  0  0  0  0
 18 19  1  0  0  0  0
 18 44  1  0  0  0  0
 19 45  1  0  0  0  0
 20 46  1  0  0  0  0
 20 47  1  0  0  0  0
 20 48  1  0  0  0  0
 21 23  1  0  0  0  0
 21 24  1  0  0  0  0
 22 25  1  0  0  0  0
 22 49  1  0  0  0  0
 23 51  1  0  0  0  0
 23 52  1  0  0  0  0
 23 53  1  0  0  0  0
 24 26  2  0  0  0  0
 24 55  1  0  0  0  0
 25 27  2  0  0  0  0
 25 56  1  0  0  0  0
 26 28  1  0  0  0  0
 26 58  1  0  0  0  0
 27 29  1  0  0  0  0
 27 59  1  0  0  0  0
 28 30  1  0  0  0  0
 29 31  2  0  0  0  0
 29 60  1  0  0  0  0
 30 34  1  0  0  0  0
 30 61  1  0  0  0  0
 30 62  1  0  0  0  0
 31 32  1  0  0  0  0
 31 63  1  0  0  0  0
 32 33  1  0  0  0  0
 32 35  1  0  0  0  0
 32 64  1  0  0  0  0
 33 65  1  0  0  0  0
 33 66  1  0  0  0  0
 35 68  1  0  0  0  0
 35 69  1  0  0  0  0
 35 70  1  0  0  0  0
M  END
> <PUBCHEM_COMPOUND_CID>
101573051

> <PUBCHEM_CONFORMER_RMSD>
0.8

> <PUBCHEM_CONFORMER_DIVERSEORDER>
1

> <PUBCHEM_MMFF94_PARTIAL_CHARGES>
48
1 -0.57
10 0.12
11 0.12
12 0.46
13 -0.25
14 -0.27
15 -0.27
16 0.34
17 0.28
18 -0.29
19 0.42
2 -0.68
20 0.14
21 -0.14
22 -0.15
23 0.14
24 -0.15
25 -0.15
26 -0.14
27 -0.15
28 0.49
29 -0.15
3 -0.68
30 0.12
31 -0.29
32 0.14
33 0.3
34 0.57
4 -0.68
40 0.15
41 0.15
44 0.15
49 0.15
5 -0.57
50 0.4
54 0.4
55 0.15
56 0.15
57 0.4
58 0.15
59 0.15
6 -0.57
60 0.15
63 0.15
67 0.37
7 -0.73
8 0.05
9 0.12

> <PUBCHEM_EFFECTIVE_ROTOR_COUNT>
1.4

> <PUBCHEM_PHARMACOPHORE_FEATURES>
12
1 1 acceptor
1 2 acceptor
1 2 donor
1 3 acceptor
1 3 donor
1 30 anion
1 4 acceptor
1 4 donor
1 5 acceptor
1 6 acceptor
1 7 donor
4 8 9 10 11 rings

> <PUBCHEM_HEAVY_ATOM_COUNT>
35

> <PUBCHEM_ATOM_DEF_STEREO_COUNT>
8

> <PUBCHEM_ATOM_UDEF_STEREO_COUNT>
0

> <PUBCHEM_BOND_DEF_STEREO_COUNT>
6

> <PUBCHEM_BOND_UDEF_STEREO_COUNT>
0

> <PUBCHEM_ISOTOPIC_ATOM_COUNT>
0

> <PUBCHEM_COMPONENT_COUNT>
1

> <PUBCHEM_CACTVS_TAUTO_COUNT>
1001

> <PUBCHEM_CONFORMER_ID>
060DE1BB00000001

> <PUBCHEM_MMFF94_ENERGY>
86.3051

> <PUBCHEM_FEATURE_SELFOVERLAP>
60.914

> <PUBCHEM_SHAPE_FINGERPRINT>
10815517 723 18334012778859935093
10864689 126 17979929202678433173
10906281 52 18041853912556460102
10939801 23 18340208621572167092
11513181 2 17987806199128724991
12422481 6 18412548699476897702
12498461 61 18263919940099989266
12838862 33 18339069399273182833
13383665 225 18189352289832680340
13811026 1 18411982460121807775
14040222 383 18273215280004068417
14117953 113 18192717748553496917
14295345 954 18410579482841744762
14394314 77 18339647746505467345
15001296 14 18334577979829990585
15021287 119 17240766211578943285
15183329 4 18187637050522477494
15297060 5 18059859407835991355
15420108 30 17976259028316780761
15728490 51 18410575102539702756
16112460 7 18408888429737091521
16993438 75 17460583741727116213
20028762 73 18340489963020159599
20511986 3 18187642462850904153
21033648 29 17631994413526304922
21236236 1 18341895203256954519
338550 245 18335431188036957845
3388396 114 17407950451134055933
3680242 22 18333739000807334323
392239 28 18202010893192048857
4144715 1 18335995258471110275
463206 1 18337120016543873305
5104073 3 18339628007056450720
6299153 45 18337391543495352203

> <PUBCHEM_SHAPE_MULTIPOLES>
680.09
19.38
4.4
1.3
1.05
0.89
0.04
-3.87
-4.69
-5.05
0.44
0.21
-0.21
-2.53

> <PUBCHEM_SHAPE_SELFOVERLAP>
1404.801

> <PUBCHEM_SHAPE_VOLUME>
383.5

> <PUBCHEM_COORDINATE_TYPE>
2
5
10

$$$$
