REMARK  Name = 10159630
REMARK  13 active torsions:
REMARK  status: ('A' for Active; 'I' for Inactive)
REMARK    1  A    between atoms: C_1  and  C_4
REMARK    2  A    between atoms: C_1  and  N_19
REMARK    3  A    between atoms: C_1  and  C_30
REMARK    4  A    between atoms: N_3  and  C_6
REMARK    5  A    between atoms: C_6  and  C_8
REMARK    6  A    between atoms: C_6  and  C_11
REMARK    7  A    between atoms: C_8  and  O_9
REMARK    8  A    between atoms: C_11  and  C_12
REMARK    9  A    between atoms: C_20  and  O_22
REMARK   10  A    between atoms: O_22  and  C_23
REMARK   11  A    between atoms: C_23  and  C_24
REMARK   12  A    between atoms: C_30  and  C_32
REMARK   13  A    between atoms: C_32  and  O_33
REMARK                            x       y       z     vdW  Elec       q    Type
REMARK                         _______ _______ _______ _____ _____    ______ ____
ROOT
ATOM      1  C   UNL     1       0.018   1.833  -0.035  0.00  0.00    +0.162 C 
ENDROOT
BRANCH   1   4
ATOM      2  O   UNL     1       0.473   1.007   2.197  0.00  0.00    -0.273 OA
ATOM      3  N   UNL     1       2.133   0.842   0.584  0.00  0.00    -0.295 N 
ATOM      4  C   UNL     1       0.878   1.203   1.053  0.00  0.00    +0.241 C 
ATOM      5  H   UNL     1       2.364   1.043  -0.352  0.00  0.00    +0.150 HD
BRANCH   3   6
ATOM      6  C   UNL     1       3.115   0.183   1.413  0.00  0.00    +0.176 C 
BRANCH   6   8
ATOM      7  O   UNL     1       4.801   1.361   0.142  0.00  0.00    -0.248 OA
ATOM      8  C   UNL     1       4.538   0.615   1.081  0.00  0.00    +0.335 C 
BRANCH   8   9
ATOM      9  O   UNL     1       5.453   0.065   1.927  0.00  0.00    -0.443 OA
ATOM     10  C   UNL     1       6.819   0.406   1.671  0.00  0.00    +0.256 C 
ENDBRANCH   8   9
ENDBRANCH   6   8
BRANCH   6  11
ATOM     11  C   UNL     1       2.952  -1.343   1.367  0.00  0.00    +0.057 C 
BRANCH  11  12
ATOM     12  C   UNL     1       3.194  -1.964   0.010  0.00  0.00    -0.020 C 
ATOM     13  C   UNL     1       4.476  -2.384  -0.347  0.00  0.00    -0.004 C 
ATOM     14  C   UNL     1       2.136  -2.116  -0.886  0.00  0.00    -0.004 C 
ATOM     15  C   UNL     1       4.699  -2.956  -1.599  0.00  0.00    -0.000 C 
ATOM     16  C   UNL     1       2.360  -2.689  -2.139  0.00  0.00    -0.000 C 
ATOM     17  C   UNL     1       3.641  -3.108  -2.495  0.00  0.00    -0.000 C 
ENDBRANCH  11  12
ENDBRANCH   6  11
ENDBRANCH   3   6
ENDBRANCH   1   4
BRANCH   1  19
ATOM     18  O   UNL     1      -1.222  -0.594  -1.040  0.00  0.00    -0.226 OA
ATOM     19  N   UNL     1      -1.338   1.387   0.163  0.00  0.00    -0.264 N 
ATOM     20  C   UNL     1      -1.845   0.212  -0.356  0.00  0.00    +0.402 C 
ATOM     21  H   UNL     1      -1.938   1.954   0.699  0.00  0.00    +0.153 HD
BRANCH  20  22
ATOM     22  O   UNL     1      -3.155   0.072   0.006  0.00  0.00    -0.430 OA
BRANCH  22  23
ATOM     23  C   UNL     1      -3.811  -1.109  -0.466  0.00  0.00    +0.237 C 
BRANCH  23  24
ATOM     24  C   UNL     1      -5.232  -1.107   0.017  0.00  0.00    +0.021 C 
ATOM     25  C   UNL     1      -5.553  -1.693   1.241  0.00  0.00    -0.001 C 
ATOM     26  C   UNL     1      -6.231  -0.519  -0.759  0.00  0.00    -0.001 C 
ATOM     27  C   UNL     1      -6.874  -1.691   1.690  0.00  0.00    -0.000 C 
ATOM     28  C   UNL     1      -7.552  -0.516  -0.309  0.00  0.00    -0.000 C 
ATOM     29  C   UNL     1      -7.873  -1.102   0.915  0.00  0.00    -0.000 C 
ENDBRANCH  23  24
ENDBRANCH  22  23
ENDBRANCH  20  22
ENDBRANCH   1  19
BRANCH   1  30
ATOM     30  C   UNL     1       0.129   3.355  -0.001  0.00  0.00    +0.138 C 
BRANCH  30  32
ATOM     31  O   UNL     1      -1.475   4.326  -1.526  0.00  0.00    -0.250 OA
ATOM     32  C   UNL     1      -0.326   3.966  -1.304  0.00  0.00    +0.316 C 
BRANCH  32  33
ATOM     33  O   UNL     1       0.675   4.059  -2.214  0.00  0.00    -0.480 OA
ATOM     34  H   UNL     1       1.538   3.768  -1.992  0.00  0.00    +0.295 HD
ENDBRANCH  32  33
ENDBRANCH  30  32
ENDBRANCH   1  30
TORSDOF 13
