101529308
  -OEChem-03292013293D

 36 38  0     1  0  0  0  0  0999 V2000
   -1.1796   -0.5768   -0.3542 O   0  0  0  0  0  0  0  0  0  0  0  0
    0.2253    1.2429    0.0601 O   0  0  0  0  0  0  0  0  0  0  0  0
   -4.8170   -1.0025   -0.3028 O   0  0  0  0  0  0  0  0  0  0  0  0
   -2.1058    2.8480    0.5477 O   0  0  0  0  0  0  0  0  0  0  0  0
   -4.4826    1.5855    0.3632 O   0  0  0  0  0  0  0  0  0  0  0  0
   -1.2670   -3.3141   -0.1102 O   0  0  0  0  0  0  0  0  0  0  0  0
    2.5012   -0.9602    1.6360 N   0  0  0  0  0  0  0  0  0  0  0  0
   -2.4251   -1.2248   -0.0715 C   0  0  1  0  0  0  0  0  0  0  0  0
   -3.5826   -0.4106   -0.6514 C   0  0  2  0  0  0  0  0  0  0  0  0
   -1.0724    0.6946    0.2913 C   0  0  1  0  0  0  0  0  0  0  0  0
   -2.1422    1.6590   -0.2175 C   0  0  1  0  0  0  0  0  0  0  0  0
   -3.5045    1.0005   -0.0962 C   0  0  0  0  0  0  0  0  0  0  0  0
   -2.3626   -2.6216   -0.6808 C   0  0  0  0  0  0  0  0  0  0  0  0
    1.2903    0.4867    0.4667 C   0  0  0  0  0  0  0  0  0  0  0  0
    2.5959    0.4409   -0.0975 C   0  0  0  0  0  0  0  0  0  0  0  0
    3.3355   -0.4742    0.6547 C   0  0  0  0  0  0  0  0  0  0  0  0
    1.2630   -0.3854    1.5305 C   0  0  0  0  0  0  0  0  0  0  0  0
    3.2213    1.0924   -1.1791 C   0  0  0  0  0  0  0  0  0  0  0  0
    4.6747   -0.7717    0.3781 C   0  0  0  0  0  0  0  0  0  0  0  0
    4.5604    0.8047   -1.4675 C   0  0  0  0  0  0  0  0  0  0  0  0
    5.2739   -0.1133   -0.6995 C   0  0  0  0  0  0  0  0  0  0  0  0
   -2.5221   -1.3304    1.0178 H   0  0  0  0  0  0  0  0  0  0  0  0
   -3.5098   -0.3421   -1.7432 H   0  0  0  0  0  0  0  0  0  0  0  0
   -1.2095    0.5734    1.3752 H   0  0  0  0  0  0  0  0  0  0  0  0
   -1.9695    1.9129   -1.2694 H   0  0  0  0  0  0  0  0  0  0  0  0
   -2.1966   -2.5684   -1.7620 H   0  0  0  0  0  0  0  0  0  0  0  0
   -3.2778   -3.1875   -0.4824 H   0  0  0  0  0  0  0  0  0  0  0  0
   -5.5196   -0.5002   -0.7498 H   0  0  0  0  0  0  0  0  0  0  0  0
   -2.7409    3.4697    0.1530 H   0  0  0  0  0  0  0  0  0  0  0  0
    0.4879   -0.6566    2.2333 H   0  0  0  0  0  0  0  0  0  0  0  0
    2.7657   -1.6418    2.3338 H   0  0  0  0  0  0  0  0  0  0  0  0
    2.6771    1.8101   -1.7863 H   0  0  0  0  0  0  0  0  0  0  0  0
   -1.2435   -4.1977   -0.5153 H   0  0  0  0  0  0  0  0  0  0  0  0
    5.2310   -1.4862    0.9754 H   0  0  0  0  0  0  0  0  0  0  0  0
    5.0479    1.3040   -2.3007 H   0  0  0  0  0  0  0  0  0  0  0  0
    6.3131   -0.3217   -0.9412 H   0  0  0  0  0  0  0  0  0  0  0  0
  1  8  1  0  0  0  0
  1 10  1  0  0  0  0
  2 10  1  0  0  0  0
  2 14  1  0  0  0  0
  3  9  1  0  0  0  0
  3 28  1  0  0  0  0
  4 11  1  0  0  0  0
  4 29  1  0  0  0  0
  5 12  2  0  0  0  0
  6 13  1  0  0  0  0
  6 33  1  0  0  0  0
  7 16  1  0  0  0  0
  7 17  1  0  0  0  0
  7 31  1  0  0  0  0
  8  9  1  0  0  0  0
  8 13  1  0  0  0  0
  8 22  1  0  0  0  0
  9 12  1  0  0  0  0
  9 23  1  0  0  0  0
 10 11  1  0  0  0  0
 10 24  1  0  0  0  0
 11 12  1  0  0  0  0
 11 25  1  0  0  0  0
 13 26  1  0  0  0  0
 13 27  1  0  0  0  0
 14 15  1  0  0  0  0
 14 17  2  0  0  0  0
 15 16  1  0  0  0  0
 15 18  2  0  0  0  0
 16 19  2  0  0  0  0
 17 30  1  0  0  0  0
 18 20  1  0  0  0  0
 18 32  1  0  0  0  0
 19 21  1  0  0  0  0
 19 34  1  0  0  0  0
 20 21  2  0  0  0  0
 20 35  1  0  0  0  0
 21 36  1  0  0  0  0
M  END
> <PUBCHEM_COMPOUND_CID>
101529308

> <PUBCHEM_CONFORMER_RMSD>
0.6

> <PUBCHEM_CONFORMER_DIVERSEORDER>
1
109
110
94
136
7
44
60
86
96
97
64
130
147
19
45
127
48
112
146
77
125
15
8
58
122
103
140
137
37
28
142
124
70
90
138
144
25
145
100
91
49
10
12
47
106
17
108
119
26
51
9
30
65
21
88
93
14
99
24
131
16
20
71
128
52
2
117
116
143
31
29
95
46
3
132
76
105
75
50
55
18
113
41
133
83
11
121
36
102
63
5
56
40
27
80
141
78
115
101
38
74
33
62
85
139
73
35
13
104
43
114
129
126
123
39
6
59
87
81
4
67
32
34
57
134
98
22
84
54
68
53
23
61
135
42
66
79
72
89
82
69
107
111
92
120
118

> <PUBCHEM_MMFF94_PARTIAL_CHARGES>
29
1 -0.56
10 0.56
11 0.34
12 0.45
13 0.28
14 0.06
16 -0.15
17 -0.3
18 -0.15
19 -0.15
2 -0.34
20 -0.15
21 -0.15
28 0.4
29 0.4
3 -0.68
30 0.15
31 0.27
32 0.15
33 0.4
34 0.15
35 0.15
36 0.15
4 -0.68
5 -0.57
6 -0.68
7 0.03
8 0.28
9 0.34

> <PUBCHEM_EFFECTIVE_ROTOR_COUNT>
4

> <PUBCHEM_PHARMACOPHORE_FEATURES>
14
1 1 acceptor
1 2 acceptor
1 3 acceptor
1 3 donor
1 4 acceptor
1 4 donor
1 5 acceptor
1 6 acceptor
1 6 donor
1 7 cation
1 7 donor
5 7 14 15 16 17 rings
6 1 8 9 10 11 12 rings
6 15 16 18 19 20 21 rings

> <PUBCHEM_HEAVY_ATOM_COUNT>
21

> <PUBCHEM_ATOM_DEF_STEREO_COUNT>
4

> <PUBCHEM_ATOM_UDEF_STEREO_COUNT>
0

> <PUBCHEM_BOND_DEF_STEREO_COUNT>
0

> <PUBCHEM_BOND_UDEF_STEREO_COUNT>
0

> <PUBCHEM_ISOTOPIC_ATOM_COUNT>
0

> <PUBCHEM_COMPONENT_COUNT>
1

> <PUBCHEM_CACTVS_TAUTO_COUNT>
5

> <PUBCHEM_CONFORMER_ID>
060D36DC00000001

> <PUBCHEM_MMFF94_ENERGY>
40.8335

> <PUBCHEM_FEATURE_SELFOVERLAP>
71.205

> <PUBCHEM_SHAPE_FINGERPRINT>
10616163 171 18411138060592688574
10759866 29 18259702285533857298
11796584 16 17917153806430689190
12166972 35 11815596572460289489
12173636 292 18339632335497638197
12236239 1 18186802452572093776
12553582 1 18339633559689723051
12788726 201 18411980243776161025
13167823 11 18333452032382809852
14251757 5 18341057396977115630
14386348 63 16917069962501849982
15415430 112 18410012169095834759
16752209 62 18340472409868154467
17804303 29 18273492390444582121
1813 80 14045479864151502336
18186145 218 16660644072712015776
18785283 64 16970840187269043457
19862831 5 18113335327798329252
200 152 18113337509341340624
20645476 183 18260547822860272095
20645477 70 15574984032393423168
20681677 155 18411982459689102736
20871999 31 18341334469622735078
21267235 1 18409735088324478459
21634736 98 18190179173208805396
22907989 373 18115569458270131493
23175994 123 16702303468481512977
23366157 5 17829892036417485619
23402539 116 18342732997016453917
23402655 69 18186525423482360812
23557571 272 18059852879258945304
23559900 14 18201996655755049424
23598291 2 17896311416299954210
26918003 58 13254790244115486597
3004659 81 18338237064523060390
3082319 5 18186519916965145424
474 4 17168432670255785988
559249 180 18336541604270083034
59755656 215 17988920059988762575
602551 16 18273208712255078642
633830 44 17313392231832630318
67856867 119 18262796393518420932
90525 40 18335977567441840683
9709674 26 17985817357706028209

> <PUBCHEM_SHAPE_MULTIPOLES>
391.97
10.29
2.38
1.15
3.94
0.93
-0.12
-0.24
2.37
-2.88
0.14
1.1
0.06
-1.38

> <PUBCHEM_SHAPE_SELFOVERLAP>
851.018

> <PUBCHEM_SHAPE_VOLUME>
213.1

> <PUBCHEM_COORDINATE_TYPE>
2
5
10

$$$$
