REMARK  Name = 10150497
REMARK  5 active torsions:
REMARK  status: ('A' for Active; 'I' for Inactive)
REMARK    1  A    between atoms: N_1  and  S_10
REMARK    2  A    between atoms: C_3  and  C_22
REMARK    3  A    between atoms: S_10  and  C_17
REMARK    4  A    between atoms: C_22  and  C_23
REMARK    5  A    between atoms: C_23  and  N_24
REMARK                            x       y       z     vdW  Elec       q    Type
REMARK                         _______ _______ _______ _____ _____    ______ ____
ROOT
ATOM      1  N   UNL     1      -0.768   0.302  -0.898  0.00  0.00    -0.170 N 
ATOM      2  C   UNL     1      -1.158  -0.934  -0.435  0.00  0.00    +0.073 C 
ATOM      3  C   UNL     1      -2.955   0.445  -0.542  0.00  0.00    -0.007 C 
ATOM      4  C   UNL     1      -2.534  -0.871  -0.203  0.00  0.00    +0.013 C 
ATOM      5  C   UNL     1      -1.847   1.143  -0.966  0.00  0.00    +0.084 C 
ATOM      6  C   UNL     1      -0.406  -2.092  -0.206  0.00  0.00    +0.017 C 
ATOM      7  C   UNL     1      -3.193  -2.019   0.281  0.00  0.00    +0.001 C 
ATOM      8  C   UNL     1      -1.081  -3.218   0.273  0.00  0.00    +0.001 C 
ATOM      9  C   UNL     1      -2.453  -3.184   0.514  0.00  0.00    +0.000 C 
ENDROOT
BRANCH   1  10
ATOM     10  S   UNL     1       0.782   0.741  -1.324  0.00  0.00    +0.085 S 
ATOM     11  O   UNL     1       0.779   2.175  -1.607  0.00  0.00    -0.152 OA
ATOM     12  O   UNL     1       1.214  -0.235  -2.321  0.00  0.00    -0.152 OA
BRANCH  10  17
ATOM     13 CL   UNL     1       0.267   1.053   2.221  0.00  0.00    -0.049 Cl
ATOM     14  S   UNL     1       5.451  -0.128   1.060  0.00  0.00    -0.038 S 
ATOM     15  N   UNL     1       3.208   0.288  -0.112  0.00  0.00    -0.230 N 
ATOM     16  N   UNL     1       2.905   0.478   2.093  0.00  0.00    -0.370 NA
ATOM     17  C   UNL     1       1.911   0.577   0.067  0.00  0.00    +0.294 C 
ATOM     18  C   UNL     1       1.722   0.693   1.409  0.00  0.00    +0.212 C 
ATOM     19  C   UNL     1       3.756   0.241   1.134  0.00  0.00    +0.221 C 
ATOM     20  C   UNL     1       4.074   0.043  -1.151  0.00  0.00    +0.077 C 
ATOM     21  C   UNL     1       5.319  -0.199  -0.706  0.00  0.00    +0.055 C 
ENDBRANCH  10  17
ENDBRANCH   1  10
BRANCH   3  22
ATOM     22  C   UNL     1      -4.330   0.977  -0.459  0.00  0.00    +0.004 C 
BRANCH  22  23
ATOM     23  C   UNL     1      -4.646   1.616   0.906  0.00  0.00    -0.081 C 
BRANCH  23  24
ATOM     24  N   UNL     1      -6.018   2.107   0.973  0.00  0.00    +0.381 N 
ATOM     25  H   UNL     1      -6.186   2.521   1.889  0.00  0.00    -0.089 HD
ATOM     26  H   UNL     1      -6.664   1.332   0.826  0.00  0.00    -0.089 HD
ATOM     27  H   UNL     1      -6.162   2.812   0.249  0.00  0.00    -0.089 HD
ENDBRANCH  23  24
ENDBRANCH  22  23
ENDBRANCH   3  22
TORSDOF 5
