REMARK  Name = 101516
REMARK  6 active torsions:
REMARK  status: ('A' for Active; 'I' for Inactive)
REMARK    1  A    between atoms: N_1  and  C1*_12
REMARK    2  A    between atoms: C2*_11  and  O2*_15
REMARK    3  A    between atoms: C3*_13  and  O3*_17
REMARK    4  A    between atoms: C4*_14  and  C5*_19
REMARK    5  A    between atoms: C5*_19  and  O5*_20
REMARK    6  A    between atoms: N_22  and  O_24
REMARK                            x       y       z     vdW  Elec       q    Type
REMARK                         _______ _______ _______ _____ _____    ______ ____
ROOT
ATOM      1  N   UNL     1       0.312   0.003  -0.210  0.00  0.00    -0.247 N 
ATOM      2  N   UNL     1      -1.223  -1.473   0.457  0.00  0.00    -0.242 NA
ATOM      3  N   UNL     1      -1.134   1.858  -0.819  0.00  0.00    -0.228 NA
ATOM      4  N   UNL     1      -3.484   1.311  -0.449  0.00  0.00    -0.225 NA
ATOM      5  C   UNL     1      -0.899   0.619  -0.362  0.00  0.00    +0.153 C 
ATOM      6  C   UNL     1       0.064  -1.252   0.284  0.00  0.00    +0.223 C 
ATOM      7  C   UNL     1      -1.836  -0.312   0.057  0.00  0.00    +0.144 C 
ATOM      8  C   UNL     1      -3.172   0.072   0.003  0.00  0.00    +0.177 C 
ATOM      9  C   UNL     1      -2.461   2.115  -0.826  0.00  0.00    +0.253 C 
ATOM     10  N   UNL     1      -4.190  -0.808   0.410  0.00  0.00    -0.246 N 
ATOM     11  H   UNL     1      -3.941  -1.627   0.897  0.00  0.00    +0.196 HD
ENDROOT
BRANCH   1  14
ATOM     12  O4* UNL     1       2.501  -0.483  -0.989  0.00  0.00    -0.333 OA
ATOM     13  C2* UNL     1       2.307   1.223   0.688  0.00  0.00    +0.187 C 
ATOM     14  C1* UNL     1       1.629   0.565  -0.515  0.00  0.00    +0.225 C 
ATOM     15  C3* UNL     1       3.339   0.190   1.100  0.00  0.00    +0.171 C 
ATOM     16  C4* UNL     1       3.721  -0.433  -0.232  0.00  0.00    +0.175 C 
BRANCH  13  17
ATOM     17  O2* UNL     1       2.930   2.437   0.270  0.00  0.00    -0.378 OA
ATOM     18  H2* UNL     1       2.249   3.078   0.013  0.00  0.00    +0.211 HD
ENDBRANCH  13  17
BRANCH  15  19
ATOM     19  O3* UNL     1       4.453   0.742   1.768  0.00  0.00    -0.379 OA
ATOM     20  H3* UNL     1       4.166   1.128   2.611  0.00  0.00    +0.211 HD
ENDBRANCH  15  19
BRANCH  16  21
ATOM     21  C5* UNL     1       4.304  -1.829  -0.102  0.00  0.00    +0.169 C 
BRANCH  21  22
ATOM     22  O5* UNL     1       4.612  -2.314  -1.397  0.00  0.00    -0.379 OA
ATOM     23  H5* UNL     1       4.986  -3.206  -1.328  0.00  0.00    +0.211 HD
ENDBRANCH  21  22
ENDBRANCH  16  21
ENDBRANCH   1  14
BRANCH  10  24
ATOM     24  O   UNL     1      -5.527  -0.567   0.153  0.00  0.00    -0.256 OA
ATOM     25  C   UNL     1      -6.245  -1.662   0.710  0.00  0.00    +0.208 C 
ENDBRANCH  10  24
TORSDOF 6
