REMARK  Name = 101573051
REMARK  3 active torsions:
REMARK  status: ('A' for Active; 'I' for Inactive)
REMARK    1  A    between atoms: C_13  and  O_34
REMARK    2  A    between atoms: C_14  and  O_36
REMARK    3  A    between atoms: C_16  and  O_38
REMARK                            x       y       z     vdW  Elec       q    Type
REMARK                         _______ _______ _______ _____ _____    ______ ____
ROOT
ATOM      1  O   UNL     1       3.837  -1.659   1.406  0.00  0.00    -0.293 OA
ATOM      2  O   UNL     1      -3.787  -3.889  -1.273  0.00  0.00    -0.291 OA
ATOM      3  O   UNL     1      -4.885  -0.646  -1.347  0.00  0.00    -0.275 OA
ATOM      4  N   UNL     1      -6.468  -0.490   0.348  0.00  0.00    -0.304 N 
ATOM      5  C   UNL     1       3.179  -0.659  -0.753  0.00  0.00    +0.065 C 
ATOM      6  C   UNL     1       3.222   0.896  -1.047  0.00  0.00    +0.032 C 
ATOM      7  C   UNL     1       1.694   0.775  -1.307  0.00  0.00    +0.023 C 
ATOM      8  C   UNL     1       1.703  -0.434  -0.301  0.00  0.00    +0.012 C 
ATOM      9  C   UNL     1       4.173  -1.257   0.286  0.00  0.00    +0.180 C 
ATOM     10  C   UNL     1       0.767   1.946  -1.090  0.00  0.00    -0.044 C 
ATOM     11  C   UNL     1       3.665   1.742   0.096  0.00  0.00    -0.028 C 
ATOM     12  C   UNL     1       0.691  -1.480  -0.650  0.00  0.00    +0.005 C 
ATOM     13  C   UNL     1       5.628  -1.357  -0.160  0.00  0.00    +0.197 C 
ATOM     14  C   UNL     1       6.514  -0.204   0.325  0.00  0.00    +0.175 C 
ATOM     15  C   UNL     1       4.955   1.825   0.451  0.00  0.00    +0.001 C 
ATOM     16  C   UNL     1       6.129   1.178  -0.232  0.00  0.00    +0.162 C 
ATOM     17  C   UNL     1       0.963   3.114  -2.013  0.00  0.00    +0.026 C 
ATOM     18  C   UNL     1      -0.234  -1.918   0.232  0.00  0.00    +0.022 C 
ATOM     19  C   UNL     1      -0.267   1.787  -0.244  0.00  0.00    -0.008 C 
ATOM     20  C   UNL     1      -0.157  -1.704   1.723  0.00  0.00    +0.005 C 
ATOM     21  C   UNL     1      -1.438  -2.575  -0.286  0.00  0.00    -0.024 C 
ATOM     22  C   UNL     1      -1.492   2.553  -0.135  0.00  0.00    -0.001 C 
ATOM     23  C   UNL     1      -2.628  -2.568   0.336  0.00  0.00    +0.033 C 
ATOM     24  C   UNL     1      -2.491   2.063   0.618  0.00  0.00    -0.000 C 
ATOM     25  C   UNL     1      -3.850  -3.086  -0.346  0.00  0.00    +0.182 C 
ATOM     26  C   UNL     1      -3.867   2.504   0.582  0.00  0.00    -0.005 C 
ATOM     27  C   UNL     1      -5.174  -2.522   0.134  0.00  0.00    +0.154 C 
ATOM     28  C   UNL     1      -4.819   1.765   1.174  0.00  0.00    -0.025 C 
ATOM     29  C   UNL     1      -6.319   1.910   1.073  0.00  0.00    +0.042 C 
ATOM     30  C   UNL     1      -6.896   0.879   0.076  0.00  0.00    +0.094 C 
ATOM     31  C   UNL     1      -5.474  -1.129  -0.383  0.00  0.00    +0.230 C 
ATOM     32  C   UNL     1      -6.797   3.316   0.704  0.00  0.00    +0.006 C 
ATOM     33  H   UNL     1      -6.904  -0.982   1.082  0.00  0.00    +0.149 HD
ENDROOT
BRANCH  13  34
ATOM     34  O   UNL     1       6.140  -2.596   0.314  0.00  0.00    -0.375 OA
ATOM     35  H   UNL     1       5.573  -3.320   0.003  0.00  0.00    +0.211 HD
ENDBRANCH  13  34
BRANCH  14  36
ATOM     36  O   UNL     1       6.540  -0.147   1.753  0.00  0.00    -0.379 OA
ATOM     37  H   UNL     1       6.782  -1.018   2.107  0.00  0.00    +0.211 HD
ENDBRANCH  14  36
BRANCH  16  38
ATOM     38  O   UNL     1       7.241   2.066  -0.063  0.00  0.00    -0.377 OA
ATOM     39  H   UNL     1       8.025   1.687  -0.490  0.00  0.00    +0.211 HD
ENDBRANCH  16  38
TORSDOF 3
