REMARK  Name = 101535589
REMARK  7 active torsions:
REMARK  status: ('A' for Active; 'I' for Inactive)
REMARK    1  A    between atoms: C_1  and  C_4
REMARK    2  A    between atoms: C_1  and  O_17
REMARK    3  A    between atoms: C_10  and  O_12
REMARK    4  A    between atoms: O_12  and  C_13
REMARK    5  A    between atoms: O_17  and  N_18
REMARK    6  A    between atoms: C_19  and  C_24
REMARK    7  A    between atoms: C_19  and  C_26
REMARK                            x       y       z     vdW  Elec       q    Type
REMARK                         _______ _______ _______ _____ _____    ______ ____
ROOT
ATOM      1  C   UNL     1       0.238  -0.068  -1.843  0.00  0.00    +0.297 C 
ENDROOT
BRANCH   1   4
ATOM      2  N   UNL     1      -2.031  -0.518  -1.128  0.00  0.00    -0.391 NA
ATOM      3  C   UNL     1      -3.062  -1.381  -0.986  0.00  0.00    +0.169 C 
ATOM      4  C   UNL     1      -0.903  -1.016  -1.682  0.00  0.00    +0.157 C 
ATOM      5  C   UNL     1      -3.018  -2.712  -1.369  0.00  0.00    +0.101 C 
ATOM      6  C   UNL     1      -0.758  -2.330  -2.097  0.00  0.00    +0.027 C 
ATOM      7  C   UNL     1      -1.841  -3.188  -1.935  0.00  0.00    -0.015 C 
ATOM      8  O   UNL     1      -3.806   1.344   0.040  0.00  0.00    -0.226 OA
ATOM      9  N   UNL     1      -4.264  -0.907  -0.412  0.00  0.00    -0.228 N 
ATOM     10  C   UNL     1      -4.545   0.367   0.043  0.00  0.00    +0.407 C 
ATOM     11  H   UNL     1      -4.990  -1.566  -0.326  0.00  0.00    +0.160 HD
BRANCH  10  12
ATOM     12  O   UNL     1      -5.829   0.393   0.523  0.00  0.00    -0.442 OA
BRANCH  12  13
ATOM     13  C   UNL     1      -6.284   1.645   1.037  0.00  0.00    +0.138 C 
ATOM     14  C   UNL     1      -6.217   2.683  -0.082  0.00  0.00    +0.044 C 
ATOM     15  C   UNL     1      -7.725   1.453   1.507  0.00  0.00    +0.044 C 
ATOM     16  C   UNL     1      -5.387   2.047   2.207  0.00  0.00    +0.044 C 
ENDBRANCH  12  13
ENDBRANCH  10  12
ENDBRANCH   1   4
BRANCH   1  17
ATOM     17  O   UNL     1       1.223  -0.344  -0.856  0.00  0.00    -0.369 OA
BRANCH  17  18
ATOM     18  N   UNL     1       2.278   0.561  -1.032  0.00  0.00    -0.079 NA
ATOM     19  C   UNL     1       3.232   0.378  -0.165  0.00  0.00    +0.156 C 
BRANCH  19  24
ATOM     20  N   UNL     1       4.798   2.235  -0.943  0.00  0.00    -0.210 N 
ATOM     21  N   UNL     1       5.427   1.036   0.751  0.00  0.00    -0.106 NA
ATOM     22  N   UNL     1       5.993   2.728  -0.586  0.00  0.00    -0.043 NA
ATOM     23  N   UNL     1       6.372   1.990   0.450  0.00  0.00    -0.023 NA
ATOM     24  C   UNL     1       4.462   1.205  -0.123  0.00  0.00    +0.205 A 
ATOM     25  C   UNL     1       4.063   2.794  -2.047  0.00  0.00    +0.157 C 
ENDBRANCH  19  24
BRANCH  19  26
ATOM     26  C   UNL     1       3.076  -0.714   0.847  0.00  0.00    +0.024 C 
ATOM     27  C   UNL     1       2.459  -0.451   2.069  0.00  0.00    +0.002 C 
ATOM     28  C   UNL     1       3.547  -1.996   0.565  0.00  0.00    +0.002 C 
ATOM     29  C   UNL     1       2.313  -1.469   3.011  0.00  0.00    +0.000 C 
ATOM     30  C   UNL     1       3.402  -3.015   1.506  0.00  0.00    +0.000 C 
ATOM     31  C   UNL     1       2.785  -2.752   2.729  0.00  0.00    +0.000 C 
ENDBRANCH  19  26
ENDBRANCH  17  18
ENDBRANCH   1  17
TORSDOF 7
