REMARK  Name = 101507
REMARK  4 active torsions:
REMARK  status: ('A' for Active; 'I' for Inactive)
REMARK    1  A    between atoms: C_3  and  O_17
REMARK    2  A    between atoms: C_5  and  C_19
REMARK    3  A    between atoms: C_6  and  N_8
REMARK    4  A    between atoms: C_19  and  O_20
REMARK                            x       y       z     vdW  Elec       q    Type
REMARK                         _______ _______ _______ _____ _____    ______ ____
ROOT
ATOM      1  F   UNL     1      -2.044   2.395   0.026  0.00  0.00    -0.230 F 
ATOM      2  O   UNL     1      -1.321  -0.307   1.110  0.00  0.00    -0.332 OA
ATOM      3  C   UNL     1      -2.006   0.316  -1.052  0.00  0.00    +0.177 C 
ATOM      4  C   UNL     1      -1.197   1.453  -0.477  0.00  0.00    +0.237 C 
ATOM      5  C   UNL     1      -2.441  -0.404   0.212  0.00  0.00    +0.176 C 
ATOM      6  C   UNL     1      -0.489   0.791   0.690  0.00  0.00    +0.242 C 
ENDROOT
BRANCH   6   8
ATOM      7  O   UNL     1       1.958   2.150   1.004  0.00  0.00    -0.193 OA
ATOM      8  N   UNL     1       0.800   0.271   0.330  0.00  0.00    -0.178 N 
ATOM      9  N   UNL     1       3.199   0.453   0.148  0.00  0.00    -0.306 NA
ATOM     10  N   UNL     1       4.465  -1.289  -0.730  0.00  0.00    -0.332 N 
ATOM     11  C   UNL     1       0.876  -0.999  -0.220  0.00  0.00    +0.083 C 
ATOM     12  C   UNL     1       1.991   1.018   0.519  0.00  0.00    +0.276 C 
ATOM     13  C   UNL     1       2.028  -1.559  -0.584  0.00  0.00    +0.065 C 
ATOM     14  C   UNL     1       3.253  -0.746  -0.369  0.00  0.00    +0.193 C 
ATOM     15  H   UNL     1       5.293  -0.774  -0.599  0.00  0.00    +0.145 HD
ATOM     16  H   UNL     1       4.503  -2.192  -1.120  0.00  0.00    +0.145 HD
ENDBRANCH   6   8
BRANCH   3  17
ATOM     17  O   UNL     1      -3.105   0.761  -1.816  0.00  0.00    -0.379 OA
ATOM     18  H   UNL     1      -2.784   1.213  -2.612  0.00  0.00    +0.211 HD
ENDBRANCH   3  17
BRANCH   5  19
ATOM     19  C   UNL     1      -2.794  -1.863  -0.014  0.00  0.00    +0.169 C 
BRANCH  19  20
ATOM     20  O   UNL     1      -3.173  -2.439   1.225  0.00  0.00    -0.379 OA
ATOM     21  H   UNL     1      -3.401  -3.373   1.091  0.00  0.00    +0.211 HD
ENDBRANCH  19  20
ENDBRANCH   5  19
TORSDOF 4
