10159630
  -OEChem-03292013303D

 55 56  0     1  0  0  0  0  0999 V2000
    5.4529    0.0651    1.9272 O   0  0  0  0  0  0  0  0  0  0  0  0
    0.4730    1.0072    2.1972 O   0  0  0  0  0  0  0  0  0  0  0  0
   -3.1553    0.0725    0.0059 O   0  0  0  0  0  0  0  0  0  0  0  0
    4.8008    1.3605    0.1425 O   0  0  0  0  0  0  0  0  0  0  0  0
    0.6748    4.0586   -2.2136 O   0  0  0  0  0  0  0  0  0  0  0  0
   -1.4750    4.3257   -1.5263 O   0  0  0  0  0  0  0  0  0  0  0  0
   -1.2224   -0.5938   -1.0405 O   0  0  0  0  0  0  0  0  0  0  0  0
    2.1333    0.8420    0.5839 N   0  0  0  0  0  0  0  0  0  0  0  0
   -1.3377    1.3873    0.1625 N   0  0  0  0  0  0  0  0  0  0  0  0
    3.1155    0.1833    1.4129 C   0  0  1  0  0  0  0  0  0  0  0  0
    2.9518   -1.3431    1.3670 C   0  0  0  0  0  0  0  0  0  0  0  0
    0.0178    1.8328   -0.0351 C   0  0  2  0  0  0  0  0  0  0  0  0
    0.8781    1.2029    1.0531 C   0  0  0  0  0  0  0  0  0  0  0  0
    3.1942   -1.9638    0.0097 C   0  0  0  0  0  0  0  0  0  0  0  0
    0.1286    3.3548   -0.0012 C   0  0  0  0  0  0  0  0  0  0  0  0
    4.5378    0.6151    1.0807 C   0  0  0  0  0  0  0  0  0  0  0  0
    4.4758   -2.3838   -0.3466 C   0  0  0  0  0  0  0  0  0  0  0  0
    2.1361   -2.1161   -0.8865 C   0  0  0  0  0  0  0  0  0  0  0  0
   -0.3263    3.9659   -1.3037 C   0  0  0  0  0  0  0  0  0  0  0  0
   -1.8450    0.2118   -0.3564 C   0  0  0  0  0  0  0  0  0  0  0  0
    4.6991   -2.9561   -1.5990 C   0  0  0  0  0  0  0  0  0  0  0  0
    2.3595   -2.6886   -2.1387 C   0  0  0  0  0  0  0  0  0  0  0  0
    3.6409   -3.1084   -2.4950 C   0  0  0  0  0  0  0  0  0  0  0  0
   -3.8113   -1.1095   -0.4662 C   0  0  0  0  0  0  0  0  0  0  0  0
   -5.2320   -1.1071    0.0166 C   0  0  0  0  0  0  0  0  0  0  0  0
    6.8192    0.4058    1.6715 C   0  0  0  0  0  0  0  0  0  0  0  0
   -5.5535   -1.6930    1.2411 C   0  0  0  0  0  0  0  0  0  0  0  0
   -6.2314   -0.5187   -0.7587 C   0  0  0  0  0  0  0  0  0  0  0  0
   -6.8740   -1.6906    1.6901 C   0  0  0  0  0  0  0  0  0  0  0  0
   -7.5520   -0.5163   -0.3094 C   0  0  0  0  0  0  0  0  0  0  0  0
   -7.8732   -1.1023    0.9150 C   0  0  0  0  0  0  0  0  0  0  0  0
    2.9377    0.5158    2.4442 H   0  0  0  0  0  0  0  0  0  0  0  0
    3.6279   -1.8147    2.0926 H   0  0  0  0  0  0  0  0  0  0  0  0
    1.9412   -1.6150    1.7012 H   0  0  0  0  0  0  0  0  0  0  0  0
    0.3482    1.4538   -1.0106 H   0  0  0  0  0  0  0  0  0  0  0  0
    2.3805    1.0365   -0.3822 H   0  0  0  0  0  0  0  0  0  0  0  0
   -0.4649    3.7915    0.8112 H   0  0  0  0  0  0  0  0  0  0  0  0
    1.1628    3.6747    0.1780 H   0  0  0  0  0  0  0  0  0  0  0  0
   -1.9484    1.9398    0.7573 H   0  0  0  0  0  0  0  0  0  0  0  0
    5.3092   -2.2792    0.3424 H   0  0  0  0  0  0  0  0  0  0  0  0
    1.1334   -1.7985   -0.6181 H   0  0  0  0  0  0  0  0  0  0  0  0
    5.6965   -3.2846   -1.8759 H   0  0  0  0  0  0  0  0  0  0  0  0
    1.5352   -2.8084   -2.8357 H   0  0  0  0  0  0  0  0  0  0  0  0
    3.8146   -3.5547   -3.4697 H   0  0  0  0  0  0  0  0  0  0  0  0
   -3.2865   -1.9980   -0.0937 H   0  0  0  0  0  0  0  0  0  0  0  0
   -3.7843   -1.1350   -1.5627 H   0  0  0  0  0  0  0  0  0  0  0  0
    7.1146    0.0639    0.6750 H   0  0  0  0  0  0  0  0  0  0  0  0
    6.9649    1.4858    1.7695 H   0  0  0  0  0  0  0  0  0  0  0  0
    7.4405   -0.1011    2.4146 H   0  0  0  0  0  0  0  0  0  0  0  0
    0.3664    4.4490   -3.0590 H   0  0  0  0  0  0  0  0  0  0  0  0
   -4.7835   -2.1525    1.8551 H   0  0  0  0  0  0  0  0  0  0  0  0
   -5.9933   -0.0572   -1.7133 H   0  0  0  0  0  0  0  0  0  0  0  0
   -7.1242   -2.1463    2.6438 H   0  0  0  0  0  0  0  0  0  0  0  0
   -8.3301   -0.0577   -0.9126 H   0  0  0  0  0  0  0  0  0  0  0  0
   -8.9014   -1.1003    1.2648 H   0  0  0  0  0  0  0  0  0  0  0  0
  1 16  1  0  0  0  0
  1 26  1  0  0  0  0
  2 13  2  0  0  0  0
  3 20  1  0  0  0  0
  3 24  1  0  0  0  0
  4 16  2  0  0  0  0
  5 19  1  0  0  0  0
  5 50  1  0  0  0  0
  6 19  2  0  0  0  0
  7 20  2  0  0  0  0
  8 10  1  0  0  0  0
  8 13  1  0  0  0  0
  8 36  1  0  0  0  0
  9 12  1  0  0  0  0
  9 20  1  0  0  0  0
  9 39  1  0  0  0  0
 10 11  1  0  0  0  0
 10 16  1  0  0  0  0
 10 32  1  0  0  0  0
 11 14  1  0  0  0  0
 11 33  1  0  0  0  0
 11 34  1  0  0  0  0
 12 13  1  0  0  0  0
 12 15  1  0  0  0  0
 12 35  1  0  0  0  0
 14 17  2  0  0  0  0
 14 18  1  0  0  0  0
 15 19  1  0  0  0  0
 15 37  1  0  0  0  0
 15 38  1  0  0  0  0
 17 21  1  0  0  0  0
 17 40  1  0  0  0  0
 18 22  2  0  0  0  0
 18 41  1  0  0  0  0
 21 23  2  0  0  0  0
 21 42  1  0  0  0  0
 22 23  1  0  0  0  0
 22 43  1  0  0  0  0
 23 44  1  0  0  0  0
 24 25  1  0  0  0  0
 24 45  1  0  0  0  0
 24 46  1  0  0  0  0
 25 27  2  0  0  0  0
 25 28  1  0  0  0  0
 26 47  1  0  0  0  0
 26 48  1  0  0  0  0
 26 49  1  0  0  0  0
 27 29  1  0  0  0  0
 27 51  1  0  0  0  0
 28 30  2  0  0  0  0
 28 52  1  0  0  0  0
 29 31  2  0  0  0  0
 29 53  1  0  0  0  0
 30 31  1  0  0  0  0
 30 54  1  0  0  0  0
 31 55  1  0  0  0  0
M  END
> <PUBCHEM_COMPOUND_CID>
10159630

> <PUBCHEM_CONFORMER_RMSD>
1.2

> <PUBCHEM_CONFORMER_DIVERSEORDER>
1
27
67
21
3
59
69
31
6
16
24
46
64
40
19
13
55
14
49
48
51
50
68
22
62
44
41
54
12
60
36
45
5
70
47
56
66
25
17
28
2
42
15
39
20
71
58
72
10
61
43
7
32
57
23
29
9
34
4
8
37
30
52
26
53
35
65
63
33
18
11
38

> <PUBCHEM_MMFF94_PARTIAL_CHARGES>
44
1 -0.43
10 0.36
11 0.14
12 0.36
13 0.57
14 -0.14
15 0.06
16 0.66
17 -0.15
18 -0.15
19 0.66
2 -0.57
20 0.78
21 -0.15
22 -0.15
23 -0.15
24 0.42
25 -0.14
26 0.28
27 -0.15
28 -0.15
29 -0.15
3 -0.43
30 -0.15
31 -0.15
36 0.37
39 0.37
4 -0.57
40 0.15
41 0.15
42 0.15
43 0.15
44 0.15
5 -0.65
50 0.5
51 0.15
52 0.15
53 0.15
54 0.15
55 0.15
6 -0.57
7 -0.57
8 -0.73
9 -0.73

> <PUBCHEM_EFFECTIVE_ROTOR_COUNT>
14

> <PUBCHEM_PHARMACOPHORE_FEATURES>
10
1 2 acceptor
1 4 acceptor
1 5 acceptor
1 6 acceptor
1 7 acceptor
1 8 donor
1 9 donor
3 5 6 19 anion
6 14 17 18 21 22 23 rings
6 25 27 28 29 30 31 rings

> <PUBCHEM_HEAVY_ATOM_COUNT>
31

> <PUBCHEM_ATOM_DEF_STEREO_COUNT>
2

> <PUBCHEM_ATOM_UDEF_STEREO_COUNT>
0

> <PUBCHEM_BOND_DEF_STEREO_COUNT>
0

> <PUBCHEM_BOND_UDEF_STEREO_COUNT>
0

> <PUBCHEM_ISOTOPIC_ATOM_COUNT>
0

> <PUBCHEM_COMPONENT_COUNT>
1

> <PUBCHEM_CACTVS_TAUTO_COUNT>
4

> <PUBCHEM_CONFORMER_ID>
009B060E00000001

> <PUBCHEM_MMFF94_ENERGY>
68.0162

> <PUBCHEM_FEATURE_SELFOVERLAP>
50.805

> <PUBCHEM_SHAPE_FINGERPRINT>
10165383 225 17775279517662392298
10258939 38 18334845100883554400
10721379 63 16806182071288281877
12623949 98 18131360674000263542
13383668 254 16629088093227081208
13533116 47 17489871522828647131
13540713 4 18055624032941982980
13673619 4 17916315943788767758
14725015 67 18268149760345696894
15219462 58 17416668169261256848
15664445 248 18336276742206125740
15721738 202 17775006752431588850
1813 80 18335990804742069429
19301679 30 18342181042553460513
1979834 28 18201716284289261866
20554085 129 11167944649549774053
21285901 2 18411976932013406110
21623969 137 18412822499658546827
2260408 40 18201450194043602961
25222932 49 18042390482103708338
3178227 256 18131342056044828200
394071 54 18343585174573525755
4144715 1 18187089507776978065
6695519 79 17343464987175098304

> <PUBCHEM_SHAPE_MULTIPOLES>
586.92
17.98
4.55
2.11
29.21
4.17
0.3
-13.05
-7.2
-3.33
4.04
-1.92
-0.02
3.92

> <PUBCHEM_SHAPE_SELFOVERLAP>
1220.854

> <PUBCHEM_SHAPE_VOLUME>
331.2

> <PUBCHEM_COORDINATE_TYPE>
2
5
10

$$$$
