REMARK  Name = 101516508
REMARK  9 active torsions:
REMARK  status: ('A' for Active; 'I' for Inactive)
REMARK    1  A    between atoms: C_5  and  C_22
REMARK    2  A    between atoms: C_6  and  O_16
REMARK    3  A    between atoms: C_6  and  C_31
REMARK    4  A    between atoms: C_7  and  O_18
REMARK    5  A    between atoms: C_12  and  O_20
REMARK    6  A    between atoms: C_22  and  C_23
REMARK    7  A    between atoms: C_23  and  C_25
REMARK    8  A    between atoms: C_23  and  O_29
REMARK    9  A    between atoms: C_31  and  O_32
REMARK                            x       y       z     vdW  Elec       q    Type
REMARK                         _______ _______ _______ _____ _____    ______ ____
ROOT
ATOM      1  O   UNL     1       0.173   1.846  -1.109  0.00  0.00    -0.448 OA
ATOM      2  O   UNL     1       1.342   2.869   0.635  0.00  0.00    -0.250 OA
ATOM      3  C   UNL     1      -1.385  -0.189  -0.455  0.00  0.00    +0.093 C 
ATOM      4  C   UNL     1      -1.055   0.620   0.753  0.00  0.00    +0.018 C 
ATOM      5  C   UNL     1       0.585   0.566   0.805  0.00  0.00    +0.093 C 
ATOM      6  C   UNL     1      -2.947  -0.270  -0.692  0.00  0.00    +0.145 C 
ATOM      7  C   UNL     1      -0.661  -1.594  -0.104  0.00  0.00    +0.116 C 
ATOM      8  C   UNL     1       0.650  -0.362   2.004  0.00  0.00    +0.013 C 
ATOM      9  C   UNL     1      -1.801   1.985   0.919  0.00  0.00    +0.003 C 
ATOM     10  C   UNL     1      -0.043  -1.706   1.413  0.00  0.00    +0.030 C 
ATOM     11  C   UNL     1      -0.655   0.661  -1.592  0.00  0.00    +0.213 C 
ATOM     12  C   UNL     1      -3.580   1.153  -0.650  0.00  0.00    +0.137 C 
ATOM     13  C   UNL     1      -3.300   1.849   0.681  0.00  0.00    +0.032 C 
ATOM     14  C   UNL     1       0.761   1.902   0.173  0.00  0.00    +0.316 C 
ATOM     15  C   UNL     1       2.002  -0.635   2.664  0.00  0.00    +0.001 C 
ENDROOT
BRANCH   6  16
ATOM     16  O   UNL     1      -3.156  -0.807  -2.005  0.00  0.00    -0.382 OA
ATOM     17  H   UNL     1      -2.692  -0.257  -2.657  0.00  0.00    +0.210 HD
ENDBRANCH   6  16
BRANCH   7  18
ATOM     18  O   UNL     1      -1.480  -2.733  -0.335  0.00  0.00    -0.384 OA
ATOM     19  H   UNL     1      -1.856  -2.686  -1.228  0.00  0.00    +0.210 HD
ENDBRANCH   7  18
BRANCH  12  20
ATOM     20  O   UNL     1      -4.993   1.079  -0.848  0.00  0.00    -0.382 OA
ATOM     21  H   UNL     1      -5.179   0.638  -1.692  0.00  0.00    +0.210 HD
ENDBRANCH  12  20
BRANCH   5  22
ATOM     22  C   UNL     1       1.754  -0.080  -0.105  0.00  0.00    +0.044 C 
BRANCH  22  23
ATOM     23  C   UNL     1       3.070   0.565   0.218  0.00  0.00    +0.136 C 
BRANCH  23  25
ATOM     24  O   UNL     1       6.273  -1.266  -0.181  0.00  0.00    -0.448 OA
ATOM     25  C   UNL     1       4.291  -0.206  -0.226  0.00  0.00    +0.045 C 
ATOM     26  C   UNL     1       4.569  -0.686  -1.528  0.00  0.00    +0.042 C 
ATOM     27  C   UNL     1       5.358  -0.584   0.556  0.00  0.00    +0.178 C 
ATOM     28  C   UNL     1       5.786  -1.324  -1.448  0.00  0.00    +0.179 C 
ENDBRANCH  23  25
BRANCH  23  29
ATOM     29  O   UNL     1       3.063   1.817  -0.469  0.00  0.00    -0.380 OA
ATOM     30  H   UNL     1       2.286   2.330  -0.199  0.00  0.00    +0.211 HD
ENDBRANCH  23  29
ENDBRANCH  22  23
ENDBRANCH   5  22
BRANCH   6  31
ATOM     31  C   UNL     1      -3.710  -1.191   0.294  0.00  0.00    +0.171 C 
BRANCH  31  32
ATOM     32  O   UNL     1      -5.059  -1.227  -0.110  0.00  0.00    -0.349 OA
ATOM     33  C   UNL     1      -5.850  -2.054   0.741  0.00  0.00    +0.174 C 
ENDBRANCH  31  32
ENDBRANCH   6  31
TORSDOF 9
