101588726
  -OEChem-03292013293D

 64 67  0     1  0  0  0  0  0999 V2000
   -3.8804   -1.3505    0.9326 O   0  0  0  0  0  0  0  0  0  0  0  0
   -3.8175    0.8750   -1.3265 O   0  0  0  0  0  0  0  0  0  0  0  0
   -1.0515    0.7276    1.9343 O   0  0  0  0  0  0  0  0  0  0  0  0
    1.1366    1.4021   -1.7143 O   0  0  0  0  0  0  0  0  0  0  0  0
    3.4278    3.1229   -1.1742 O   0  0  0  0  0  0  0  0  0  0  0  0
   -5.6068   -1.1208   -0.5799 O   0  0  0  0  0  0  0  0  0  0  0  0
    4.1968   -2.2396   -0.0935 O   0  0  0  0  0  0  0  0  0  0  0  0
    5.5769   -3.4441    1.3103 O   0  0  0  0  0  0  0  0  0  0  0  0
   -1.4952   -1.4684    0.2056 C   0  0  1  0  0  0  0  0  0  0  0  0
   -2.8648   -0.8565    0.0281 C   0  0  1  0  0  0  0  0  0  0  0  0
   -2.3517   -1.8770   -0.9914 C   0  0  0  0  0  0  0  0  0  0  0  0
   -0.2490   -0.6103    0.0697 C   0  0  1  0  0  0  0  0  0  0  0  0
   -2.9914    0.6286   -0.1872 C   0  0  1  0  0  0  0  0  0  0  0  0
   -0.5341    0.8481    0.5953 C   0  0  1  0  0  0  0  0  0  0  0  0
   -1.6671    1.4313   -0.3241 C   0  0  2  0  0  0  0  0  0  0  0  0
   -2.0206   -1.4450   -2.3978 C   0  0  0  0  0  0  0  0  0  0  0  0
   -2.9147   -3.2826   -0.9534 C   0  0  0  0  0  0  0  0  0  0  0  0
    0.8085    1.6338    0.7289 C   0  0  1  0  0  0  0  0  0  0  0  0
    0.9889   -1.2909    0.6298 C   0  0  0  0  0  0  0  0  0  0  0  0
    1.7854    1.4787   -0.4535 C   0  0  1  0  0  0  0  0  0  0  0  0
   -2.0116    2.9150   -0.1111 C   0  0  0  0  0  0  0  0  0  0  0  0
    2.2752   -0.9315    0.4377 C   0  0  0  0  0  0  0  0  0  0  0  0
    2.7782    0.3238   -0.2606 C   0  0  0  0  0  0  0  0  0  0  0  0
    0.7977    3.1140    0.9919 C   0  0  0  0  0  0  0  0  0  0  0  0
    2.4496    2.8377   -0.4986 C   0  0  0  0  0  0  0  0  0  0  0  0
   -5.1843   -1.1680    0.5672 C   0  0  0  0  0  0  0  0  0  0  0  0
    1.7294    3.8145    0.3386 C   0  0  0  0  0  0  0  0  0  0  0  0
    3.3797   -1.8084    0.9745 C   0  0  0  0  0  0  0  0  0  0  0  0
   -6.0434   -1.0347    1.7875 C   0  0  0  0  0  0  0  0  0  0  0  0
    2.0568    5.2540    0.4015 C   0  0  0  0  0  0  0  0  0  0  0  0
    5.2736   -3.0589    0.1894 C   0  0  0  0  0  0  0  0  0  0  0  0
    6.0230   -3.4199   -1.0568 C   0  0  0  0  0  0  0  0  0  0  0  0
   -1.4156   -2.1649    1.0364 H   0  0  0  0  0  0  0  0  0  0  0  0
   -0.0397   -0.5489   -1.0031 H   0  0  0  0  0  0  0  0  0  0  0  0
   -3.5231    1.0470    0.6789 H   0  0  0  0  0  0  0  0  0  0  0  0
   -1.3369    1.3721   -1.3668 H   0  0  0  0  0  0  0  0  0  0  0  0
   -3.8696   -3.3250   -1.4874 H   0  0  0  0  0  0  0  0  0  0  0  0
   -3.0807   -3.6427    0.0674 H   0  0  0  0  0  0  0  0  0  0  0  0
   -2.2213   -3.9799   -1.4357 H   0  0  0  0  0  0  0  0  0  0  0  0
   -2.9041   -1.5457   -3.0378 H   0  0  0  0  0  0  0  0  0  0  0  0
   -1.2314   -2.0832   -2.8097 H   0  0  0  0  0  0  0  0  0  0  0  0
   -1.6832   -0.4124   -2.4816 H   0  0  0  0  0  0  0  0  0  0  0  0
    1.2974    1.2572    1.6432 H   0  0  0  0  0  0  0  0  0  0  0  0
    0.8067   -2.2140    1.1783 H   0  0  0  0  0  0  0  0  0  0  0  0
   -2.1907    3.1456    0.9432 H   0  0  0  0  0  0  0  0  0  0  0  0
   -2.9154    3.1951   -0.6642 H   0  0  0  0  0  0  0  0  0  0  0  0
   -1.2217    3.5648   -0.4948 H   0  0  0  0  0  0  0  0  0  0  0  0
   -4.7299    0.6337   -1.0990 H   0  0  0  0  0  0  0  0  0  0  0  0
   -1.2416    1.6210    2.2654 H   0  0  0  0  0  0  0  0  0  0  0  0
    3.6173    0.7063    0.3377 H   0  0  0  0  0  0  0  0  0  0  0  0
    3.2005    0.0288   -1.2298 H   0  0  0  0  0  0  0  0  0  0  0  0
    0.1389    3.5627    1.7246 H   0  0  0  0  0  0  0  0  0  0  0  0
    1.8158    1.3073   -2.4037 H   0  0  0  0  0  0  0  0  0  0  0  0
    2.9801   -2.6869    1.4952 H   0  0  0  0  0  0  0  0  0  0  0  0
    3.9812   -1.2388    1.6935 H   0  0  0  0  0  0  0  0  0  0  0  0
   -5.9844   -1.9487    2.3836 H   0  0  0  0  0  0  0  0  0  0  0  0
   -7.0830   -0.8818    1.4842 H   0  0  0  0  0  0  0  0  0  0  0  0
   -5.7213   -0.1705    2.3739 H   0  0  0  0  0  0  0  0  0  0  0  0
    3.0904    5.3990    0.7307 H   0  0  0  0  0  0  0  0  0  0  0  0
    1.4025    5.7827    1.1021 H   0  0  0  0  0  0  0  0  0  0  0  0
    1.9394    5.7166   -0.5834 H   0  0  0  0  0  0  0  0  0  0  0  0
    6.3978   -2.5128   -1.5374 H   0  0  0  0  0  0  0  0  0  0  0  0
    5.3671   -3.9717   -1.7345 H   0  0  0  0  0  0  0  0  0  0  0  0
    6.8747   -4.0554   -0.7980 H   0  0  0  0  0  0  0  0  0  0  0  0
  1 10  1  0  0  0  0
  1 26  1  0  0  0  0
  2 13  1  0  0  0  0
  2 48  1  0  0  0  0
  3 14  1  0  0  0  0
  3 49  1  0  0  0  0
  4 20  1  0  0  0  0
  4 53  1  0  0  0  0
  5 25  2  0  0  0  0
  6 26  2  0  0  0  0
  7 28  1  0  0  0  0
  7 31  1  0  0  0  0
  8 31  2  0  0  0  0
  9 10  1  0  0  0  0
  9 11  1  0  0  0  0
  9 12  1  0  0  0  0
  9 33  1  0  0  0  0
 10 11  1  0  0  0  0
 10 13  1  0  0  0  0
 11 16  1  0  0  0  0
 11 17  1  0  0  0  0
 12 14  1  0  0  0  0
 12 19  1  0  0  0  0
 12 34  1  0  0  0  0
 13 15  1  0  0  0  0
 13 35  1  0  0  0  0
 14 15  1  0  0  0  0
 14 18  1  0  0  0  0
 15 21  1  0  0  0  0
 15 36  1  0  0  0  0
 16 40  1  0  0  0  0
 16 41  1  0  0  0  0
 16 42  1  0  0  0  0
 17 37  1  0  0  0  0
 17 38  1  0  0  0  0
 17 39  1  0  0  0  0
 18 20  1  0  0  0  0
 18 24  1  0  0  0  0
 18 43  1  0  0  0  0
 19 22  2  0  0  0  0
 19 44  1  0  0  0  0
 20 23  1  0  0  0  0
 20 25  1  0  0  0  0
 21 45  1  0  0  0  0
 21 46  1  0  0  0  0
 21 47  1  0  0  0  0
 22 23  1  0  0  0  0
 22 28  1  0  0  0  0
 23 50  1  0  0  0  0
 23 51  1  0  0  0  0
 24 27  2  0  0  0  0
 24 52  1  0  0  0  0
 25 27  1  0  0  0  0
 26 29  1  0  0  0  0
 27 30  1  0  0  0  0
 28 54  1  0  0  0  0
 28 55  1  0  0  0  0
 29 56  1  0  0  0  0
 29 57  1  0  0  0  0
 29 58  1  0  0  0  0
 30 59  1  0  0  0  0
 30 60  1  0  0  0  0
 30 61  1  0  0  0  0
 31 32  1  0  0  0  0
 32 62  1  0  0  0  0
 32 63  1  0  0  0  0
 32 64  1  0  0  0  0
M  END
> <PUBCHEM_COMPOUND_CID>
101588726

> <PUBCHEM_CONFORMER_RMSD>
0.8

> <PUBCHEM_CONFORMER_DIVERSEORDER>
1
25
22
15
19
10
21
3
24
17
16
20
7
11
13
12
23
6
4
5
18
8
14
9
2

> <PUBCHEM_MMFF94_PARTIAL_CHARGES>
36
1 -0.3
10 0.05
11 -0.19
12 0.23
13 0.38
14 0.28
16 0.09
17 0.09
18 0.14
19 -0.29
2 -0.68
20 0.34
22 -0.28
23 0.14
24 -0.29
25 0.49
26 0.66
27 -0.12
28 0.42
29 0.06
3 -0.68
30 0.14
31 0.66
32 0.06
33 0.1
4 -0.68
44 0.15
48 0.4
49 0.4
5 -0.57
52 0.15
53 0.4
6 -0.57
7 -0.43
8 -0.57
9 -0.19

> <PUBCHEM_EFFECTIVE_ROTOR_COUNT>
5.8

> <PUBCHEM_PHARMACOPHORE_FEATURES>
13
1 2 acceptor
1 2 donor
1 3 acceptor
1 3 donor
1 4 acceptor
1 4 donor
1 5 acceptor
1 6 acceptor
1 8 acceptor
3 11 16 17 hydrophobe
5 18 20 24 25 27 rings
7 12 14 18 19 20 22 23 rings
7 9 10 11 12 13 14 15 rings

> <PUBCHEM_HEAVY_ATOM_COUNT>
32

> <PUBCHEM_ATOM_DEF_STEREO_COUNT>
7

> <PUBCHEM_ATOM_UDEF_STEREO_COUNT>
1

> <PUBCHEM_BOND_DEF_STEREO_COUNT>
0

> <PUBCHEM_BOND_UDEF_STEREO_COUNT>
0

> <PUBCHEM_ISOTOPIC_ATOM_COUNT>
0

> <PUBCHEM_COMPONENT_COUNT>
1

> <PUBCHEM_CACTVS_TAUTO_COUNT>
12

> <PUBCHEM_CONFORMER_ID>
060E1EF600000001

> <PUBCHEM_MMFF94_ENERGY>
95.6112

> <PUBCHEM_FEATURE_SELFOVERLAP>
66.013

> <PUBCHEM_SHAPE_FINGERPRINT>
10190108 129 17471309812626875595
10411042 1 18338518538924602362
1100329 8 18193840340570987473
11135926 11 18266453394503038244
12107183 9 18271255945629519579
12422481 6 17916877798541131563
12553582 1 18338220575563732754
12633257 1 16200139993948598546
13004483 165 18267293236882081914
13009979 54 18130233640427835280
13140716 1 18118961644403522155
13540713 4 18113887295926888085
13757389 114 17764322639278501916
13782708 43 17748827436419587507
14114211 68 17826821392261247172
14790565 3 17616257322472986585
14955137 171 18411422769531774971
15042514 8 18123471583745278722
15927050 60 17979644755589959318
17492 89 18408321115960052747
17686467 74 18337665301819215058
17980427 26 17840013375947959708
1813 80 18342462495924037342
19319366 153 17910118237171121449
20028762 73 16754387630468984098
20600515 1 17913778219464954664
20691752 17 17901655291982631209
20775530 9 18338224978089444090
21033648 29 17701513152941289755
21120745 212 18195257611876354836
21421861 104 18336824307285681088
21796203 349 18122097314274887146
23559900 14 18337378401174474889
23566358 27 18337109089318552951
2818148 4 18197774604039731759
335352 9 18265612083608636765
34934 24 17983019139811642229
350125 39 18335423486701718353
4409770 3 17757823434219778396
484989 97 18262230011986350797
5081480 168 17821440257742721078
508180 173 17978472427176169221
59755656 215 18263648531671545148
6058803 2 17986673882097460487
633830 44 17766845300455766181
70251023 43 18337657707288367451
9981440 41 17545029863712896984

> <PUBCHEM_SHAPE_MULTIPOLES>
611.59
10.81
5.61
1.46
0.69
4.2
0.24
-12.81
-1.4
-8.55
0.1
0.74
-0.44
-0.73

> <PUBCHEM_SHAPE_SELFOVERLAP>
1304.454

> <PUBCHEM_SHAPE_VOLUME>
337.2

> <PUBCHEM_COORDINATE_TYPE>
2
5
10

$$$$
