101526090
  -OEChem-03292013293D

 43 42  0     1  0  0  0  0  0999 V2000
   -0.3437   -0.4090    0.5837 S   0  0  0  0  0  0  0  0  0  0  0  0
    3.6038   -0.2969   -1.6595 O   0  0  0  0  0  0  0  0  0  0  0  0
    0.9822   -1.3829   -1.4769 O   0  0  0  0  0  0  0  0  0  0  0  0
    2.4317    2.1342    0.6933 O   0  0  0  0  0  0  0  0  0  0  0  0
    2.3864    2.0952   -1.6126 O   0  0  0  0  0  0  0  0  0  0  0  0
   -3.2330    1.5792    1.8774 O   0  0  0  0  0  0  0  0  0  0  0  0
   -2.1647    2.8731    0.3525 O   0  0  0  0  0  0  0  0  0  0  0  0
   -4.5700   -1.2053   -1.6806 O   0  0  0  0  0  0  0  0  0  0  0  0
   -3.5743   -0.4537    0.2854 N   0  0  0  0  0  0  0  0  0  0  0  0
    2.4055   -0.7793    0.4005 C   0  0  1  0  0  0  0  0  0  0  0  0
    3.0507   -2.1837    0.5889 C   0  0  0  0  0  0  0  0  0  0  0  0
    3.3031    0.2164   -0.3694 C   0  0  2  0  0  0  0  0  0  0  0  0
    2.1565   -3.1323    1.3950 C   0  0  0  0  0  0  0  0  0  0  0  0
    4.4126   -2.0790    1.2908 C   0  0  0  0  0  0  0  0  0  0  0  0
    1.0716   -0.9339   -0.3395 C   0  0  0  0  0  0  0  0  0  0  0  0
    2.6645    1.5851   -0.5349 C   0  0  0  0  0  0  0  0  0  0  0  0
   -1.4276    0.1297   -0.7563 C   0  0  0  0  0  0  0  0  0  0  0  0
   -2.7978    0.6202   -0.2821 C   0  0  2  0  0  0  0  0  0  0  0  0
   -2.6939    1.8108    0.6566 C   0  0  0  0  0  0  0  0  0  0  0  0
   -4.3973   -1.2776   -0.4668 C   0  0  0  0  0  0  0  0  0  0  0  0
    1.8058    3.4209    0.6845 C   0  0  0  0  0  0  0  0  0  0  0  0
   -5.0723   -2.3310    0.3701 C   0  0  0  0  0  0  0  0  0  0  0  0
    2.2161   -0.3628    1.3988 H   0  0  0  0  0  0  0  0  0  0  0  0
    3.2123   -2.6450   -0.3942 H   0  0  0  0  0  0  0  0  0  0  0  0
    4.2531    0.3741    0.1521 H   0  0  0  0  0  0  0  0  0  0  0  0
    4.3317   -1.5303    2.2351 H   0  0  0  0  0  0  0  0  0  0  0  0
    5.1516   -1.5767    0.6598 H   0  0  0  0  0  0  0  0  0  0  0  0
    4.8135   -3.0743    1.5127 H   0  0  0  0  0  0  0  0  0  0  0  0
    1.9214   -2.7136    2.3794 H   0  0  0  0  0  0  0  0  0  0  0  0
    2.6510   -4.0977    1.5487 H   0  0  0  0  0  0  0  0  0  0  0  0
    1.2149   -3.3343    0.8754 H   0  0  0  0  0  0  0  0  0  0  0  0
   -0.9166    0.9368   -1.2936 H   0  0  0  0  0  0  0  0  0  0  0  0
   -1.5604   -0.7013   -1.4582 H   0  0  0  0  0  0  0  0  0  0  0  0
   -3.3538    0.9833   -1.1563 H   0  0  0  0  0  0  0  0  0  0  0  0
    4.2682    0.2890   -2.0610 H   0  0  0  0  0  0  0  0  0  0  0  0
   -3.4888   -0.6247    1.2835 H   0  0  0  0  0  0  0  0  0  0  0  0
    0.8320    3.3657    0.1887 H   0  0  0  0  0  0  0  0  0  0  0  0
    2.4517    4.1516    0.1886 H   0  0  0  0  0  0  0  0  0  0  0  0
    1.6537    3.7321    1.7213 H   0  0  0  0  0  0  0  0  0  0  0  0
   -5.5081   -1.8823    1.2674 H   0  0  0  0  0  0  0  0  0  0  0  0
   -5.8714   -2.8039   -0.2075 H   0  0  0  0  0  0  0  0  0  0  0  0
   -4.3399   -3.0892    0.6605 H   0  0  0  0  0  0  0  0  0  0  0  0
   -3.1486    2.3569    2.4691 H   0  0  0  0  0  0  0  0  0  0  0  0
  1 15  1  0  0  0  0
  1 17  1  0  0  0  0
  2 12  1  0  0  0  0
  2 35  1  0  0  0  0
  3 15  2  0  0  0  0
  4 16  1  0  0  0  0
  4 21  1  0  0  0  0
  5 16  2  0  0  0  0
  6 19  1  0  0  0  0
  6 43  1  0  0  0  0
  7 19  2  0  0  0  0
  8 20  2  0  0  0  0
  9 18  1  0  0  0  0
  9 20  1  0  0  0  0
  9 36  1  0  0  0  0
 10 11  1  0  0  0  0
 10 12  1  0  0  0  0
 10 15  1  0  0  0  0
 10 23  1  0  0  0  0
 11 13  1  0  0  0  0
 11 14  1  0  0  0  0
 11 24  1  0  0  0  0
 12 16  1  0  0  0  0
 12 25  1  0  0  0  0
 13 29  1  0  0  0  0
 13 30  1  0  0  0  0
 13 31  1  0  0  0  0
 14 26  1  0  0  0  0
 14 27  1  0  0  0  0
 14 28  1  0  0  0  0
 17 18  1  0  0  0  0
 17 32  1  0  0  0  0
 17 33  1  0  0  0  0
 18 19  1  0  0  0  0
 18 34  1  0  0  0  0
 20 22  1  0  0  0  0
 21 37  1  0  0  0  0
 21 38  1  0  0  0  0
 21 39  1  0  0  0  0
 22 40  1  0  0  0  0
 22 41  1  0  0  0  0
 22 42  1  0  0  0  0
M  END
> <PUBCHEM_COMPOUND_CID>
101526090

> <PUBCHEM_CONFORMER_RMSD>
1

> <PUBCHEM_CONFORMER_DIVERSEORDER>
1
141
80
54
145
108
143
120
30
57
91
50
107
35
137
74
94
128
139
61
77
70
96
114
66
122
21
15
38
41
83
67
31
98
36
133
82
84
26
56
16
127
25
129
53
37
101
12
81
46
140
44
33
47
19
24
18
64
99
104
73
132
119
113
34
102
10
97
27
118
134
126
90
4
117
76
59
138
93
86
42
48
142
78
125
144
43
116
62
17
106
136
124
121
92
11
51
105
95
130
5
111
8
109
32
60
103
75
69
71
65
89
88
131
123
23
52
55
13
45
79
29
85
9
3
40
87
135
68
100
115
14
22
20
72
7
58
39
28
112
2
49
6
63
110

> <PUBCHEM_MMFF94_PARTIAL_CHARGES>
22
1 -0.37
10 0.06
12 0.34
15 0.65
16 0.66
17 0.23
18 0.36
19 0.66
2 -0.68
20 0.57
21 0.28
22 0.06
3 -0.57
35 0.4
36 0.37
4 -0.43
43 0.5
5 -0.57
6 -0.65
7 -0.57
8 -0.57
9 -0.73

> <PUBCHEM_EFFECTIVE_ROTOR_COUNT>
11

> <PUBCHEM_PHARMACOPHORE_FEATURES>
9
1 2 acceptor
1 2 donor
1 5 acceptor
1 6 acceptor
1 7 acceptor
1 8 acceptor
1 9 donor
3 11 13 14 hydrophobe
3 6 7 19 anion

> <PUBCHEM_HEAVY_ATOM_COUNT>
22

> <PUBCHEM_ATOM_DEF_STEREO_COUNT>
3

> <PUBCHEM_ATOM_UDEF_STEREO_COUNT>
0

> <PUBCHEM_BOND_DEF_STEREO_COUNT>
0

> <PUBCHEM_BOND_UDEF_STEREO_COUNT>
0

> <PUBCHEM_ISOTOPIC_ATOM_COUNT>
0

> <PUBCHEM_COMPONENT_COUNT>
1

> <PUBCHEM_CACTVS_TAUTO_COUNT>
6

> <PUBCHEM_CONFORMER_ID>
060D2A4A00000001

> <PUBCHEM_MMFF94_ENERGY>
33.9741

> <PUBCHEM_FEATURE_SELFOVERLAP>
45.739

> <PUBCHEM_SHAPE_FINGERPRINT>
10090160 65 18046336702650095327
10366900 7 18187657941274540482
12507557 5 18338786823771650393
12596599 1 18200041629206272717
12633257 1 18269281153599360193
13009979 54 18199753548706835890
13533116 47 18333168367194811651
13583140 156 18262784225263869319
14178342 30 17916025642569432075
17492 89 18411138000595281431
19050596 39 18412827958688249067
19078846 21 18267587901476531060
20681677 274 18409160035031884955
21524375 3 18268154338985711956
23557571 272 16988567836312417017
23558518 356 18335146375622465601
23559900 14 18040707091352053067
23598288 3 18200870687165250749
23598291 2 18336830766916539342
238 59 18187936126485696282
312423 11 18411427197864505423
3286 77 18334850610972978382
5104073 3 18342177773977821161
5283173 99 18261660495032968509
7097593 13 18120653530990312827
7471813 234 18341313540247257526
7615 1 18411419466960055563

> <PUBCHEM_SHAPE_MULTIPOLES>
410.53
9.49
3.71
1.45
8.13
1.25
0.19
-4.95
0.09
-1.63
-1.39
-0.17
0
-1.86

> <PUBCHEM_SHAPE_SELFOVERLAP>
790.417

> <PUBCHEM_SHAPE_VOLUME>
251.3

> <PUBCHEM_COORDINATE_TYPE>
2
5
10

$$$$
