REMARK  Name = 101542782
REMARK  14 active torsions:
REMARK  status: ('A' for Active; 'I' for Inactive)
REMARK    1  A    between atoms: C_1  and  C_2
REMARK    2  A    between atoms: C_1  and  C_12
REMARK    3  A    between atoms: C_1  and  C_22
REMARK    4  A    between atoms: C_5  and  O_8
REMARK    5  A    between atoms: C_7  and  O_10
REMARK    6  A    between atoms: C_15  and  O_18
REMARK    7  A    between atoms: C_17  and  O_20
REMARK    8  A    between atoms: C_22  and  O_23
REMARK    9  A    between atoms: C_22  and  C_25
REMARK   10  A    between atoms: C_22  and  C_32
REMARK   11  A    between atoms: C_25  and  O_27
REMARK   12  A    between atoms: C_25  and  C_29
REMARK   13  A    between atoms: C_29  and  O_30
REMARK   14  A    between atoms: C_32  and  O_33
REMARK                            x       y       z     vdW  Elec       q    Type
REMARK                         _______ _______ _______ _____ _____    ______ ____
ROOT
ATOM      1  C   UNL     1      -0.071  -0.728  -0.335  0.00  0.00    +0.074 C 
ENDROOT
BRANCH   1   2
ATOM      2  C   UNL     1      -1.438  -0.090  -0.049  0.00  0.00    -0.013 C 
ATOM      3  C   UNL     1      -2.423  -0.081  -1.036  0.00  0.00    +0.036 C 
ATOM      4  C   UNL     1      -1.695   0.478   1.198  0.00  0.00    -0.001 C 
ATOM      5  C   UNL     1      -3.665   0.497  -0.776  0.00  0.00    +0.172 C 
ATOM      6  C   UNL     1      -2.937   1.057   1.458  0.00  0.00    +0.040 C 
ATOM      7  C   UNL     1      -3.923   1.066   0.471  0.00  0.00    +0.172 C 
BRANCH   5   8
ATOM      8  O   UNL     1      -4.620   0.498  -1.748  0.00  0.00    -0.468 OA
ATOM      9  C   UNL     1      -4.276  -0.104  -2.995  0.00  0.00    +0.253 C 
ENDBRANCH   5   8
BRANCH   7  10
ATOM     10  O   UNL     1      -5.133   1.633   0.737  0.00  0.00    -0.468 OA
ATOM     11  C   UNL     1      -5.314   2.192   2.036  0.00  0.00    +0.253 C 
ENDBRANCH   7  10
ENDBRANCH   1   2
BRANCH   1  12
ATOM     12  C   UNL     1       1.000   0.367  -0.384  0.00  0.00    -0.013 C 
ATOM     13  C   UNL     1       1.806   0.605   0.730  0.00  0.00    +0.036 C 
ATOM     14  C   UNL     1       1.170   1.125  -1.542  0.00  0.00    -0.001 C 
ATOM     15  C   UNL     1       2.781   1.601   0.685  0.00  0.00    +0.172 C 
ATOM     16  C   UNL     1       2.146   2.121  -1.587  0.00  0.00    +0.040 C 
ATOM     17  C   UNL     1       2.951   2.359  -0.474  0.00  0.00    +0.172 C 
BRANCH  15  18
ATOM     18  O   UNL     1       3.563   1.822   1.778  0.00  0.00    -0.468 OA
ATOM     19  C   UNL     1       3.325   1.004   2.922  0.00  0.00    +0.253 C 
ENDBRANCH  15  18
BRANCH  17  20
ATOM     20  O   UNL     1       3.901   3.333  -0.529  0.00  0.00    -0.468 OA
ATOM     21  C   UNL     1       4.011   4.062  -1.751  0.00  0.00    +0.253 C 
ENDBRANCH  17  20
ENDBRANCH   1  12
BRANCH   1  22
ATOM     22  C   UNL     1       0.281  -2.073   0.454  0.00  0.00    +0.147 C 
BRANCH  22  23
ATOM     23  O   UNL     1       0.331  -1.813   1.863  0.00  0.00    -0.381 OA
ATOM     24  H   UNL     1       1.023  -1.159   2.047  0.00  0.00    +0.210 HD
ENDBRANCH  22  23
BRANCH  22  25
ATOM     25  C   UNL     1       1.670  -2.730   0.026  0.00  0.00    +0.140 C 
ATOM     26  C   UNL     1       2.032  -3.971   0.871  0.00  0.00    +0.034 C 
BRANCH  25  27
ATOM     27  O   UNL     1       2.737  -1.795   0.250  0.00  0.00    -0.382 OA
ATOM     28  H   UNL     1       2.569  -0.986  -0.257  0.00  0.00    +0.210 HD
ENDBRANCH  25  27
BRANCH  25  29
ATOM     29  C   UNL     1       1.728  -3.086  -1.474  0.00  0.00    +0.166 C 
BRANCH  29  30
ATOM     30  O   UNL     1       3.029  -3.539  -1.847  0.00  0.00    -0.379 OA
ATOM     31  H   UNL     1       3.037  -3.756  -2.792  0.00  0.00    +0.211 HD
ENDBRANCH  29  30
ENDBRANCH  25  29
ENDBRANCH  22  25
BRANCH  22  32
ATOM     32  C   UNL     1      -0.855  -3.126   0.274  0.00  0.00    +0.167 C 
BRANCH  32  33
ATOM     33  O   UNL     1      -2.111  -2.683   0.774  0.00  0.00    -0.379 OA
ATOM     34  H   UNL     1      -2.776  -3.375   0.636  0.00  0.00    +0.211 HD
ENDBRANCH  32  33
ENDBRANCH  22  32
ENDBRANCH   1  22
TORSDOF 14
