REMARK  Name = 101526913
REMARK  2 active torsions:
REMARK  status: ('A' for Active; 'I' for Inactive)
REMARK    1  A    between atoms: C_8  and  O_25
REMARK    2  A    between atoms: O_25  and  C_27
REMARK                            x       y       z     vdW  Elec       q    Type
REMARK                         _______ _______ _______ _____ _____    ______ ____
ROOT
ATOM      1  O   UNL     1       1.308  -0.953  -0.092  0.00  0.00    -0.443 OA
ATOM      2  O   UNL     1      -0.708   1.143  -1.418  0.00  0.00    -0.441 OA
ATOM      3  O   UNL     1       5.087   0.781   1.441  0.00  0.00    -0.274 OA
ATOM      4  O   UNL     1      -1.548   2.026   0.538  0.00  0.00    -0.246 OA
ATOM      5  O   UNL     1       1.815  -3.006  -1.012  0.00  0.00    -0.245 OA
ATOM      6  N   UNL     1       3.231   1.546   0.377  0.00  0.00    -0.236 N 
ATOM      7  C   UNL     1      -1.958  -1.324  -0.605  0.00  0.00    +0.052 C 
ATOM      8  C   UNL     1      -2.619   0.079  -0.473  0.00  0.00    +0.224 C 
ATOM      9  C   UNL     1       2.391  -0.300  -0.765  0.00  0.00    +0.214 C 
ATOM     10  C   UNL     1       2.238   1.139  -0.457  0.00  0.00    +0.075 C 
ATOM     11  C   UNL     1      -1.198  -1.724   0.690  0.00  0.00    +0.037 C 
ATOM     12  C   UNL     1       3.756  -0.652  -0.107  0.00  0.00    +0.135 C 
ATOM     13  C   UNL     1       1.402   2.199  -0.716  0.00  0.00    +0.036 C 
ATOM     14  C   UNL     1       4.154   0.576   0.693  0.00  0.00    +0.237 C 
ATOM     15  C   UNL     1      -2.979  -2.423  -0.946  0.00  0.00    +0.005 C 
ATOM     16  C   UNL     1      -3.538   0.431  -1.650  0.00  0.00    +0.055 C 
ATOM     17  C   UNL     1      -1.569   1.191  -0.358  0.00  0.00    +0.354 C 
ATOM     18  C   UNL     1      -0.091  -2.717   0.425  0.00  0.00    +0.049 C 
ATOM     19  C   UNL     1       0.203   2.249  -1.593  0.00  0.00    +0.236 C 
ATOM     20  C   UNL     1       3.071   2.854   0.711  0.00  0.00    +0.072 C 
ATOM     21  C   UNL     1       1.944   3.293   0.039  0.00  0.00    +0.017 C 
ATOM     22  C   UNL     1       1.122  -2.279  -0.318  0.00  0.00    +0.337 C 
ATOM     23  C   UNL     1      -0.125  -3.992   0.836  0.00  0.00    -0.024 C 
ATOM     24  C   UNL     1       0.969  -4.974   0.591  0.00  0.00    +0.031 C 
ENDROOT
BRANCH   8  25
ATOM     25  O   UNL     1      -3.402   0.110   0.718  0.00  0.00    -0.445 OA
BRANCH  25  27
ATOM     26  O   UNL     1      -4.046   2.280   0.255  0.00  0.00    -0.250 OA
ATOM     27  C   UNL     1      -4.066   1.279   0.959  0.00  0.00    +0.318 C 
ATOM     28  C   UNL     1      -4.842   1.167   2.236  0.00  0.00    +0.121 C 
ENDBRANCH  25  27
ENDBRANCH   8  25
TORSDOF 2
