REMARK  Name = 101593093
REMARK  5 active torsions:
REMARK  status: ('A' for Active; 'I' for Inactive)
REMARK    1  A    between atoms: C_13  and  C_28
REMARK    2  A    between atoms: C_16  and  C_17
REMARK    3  A    between atoms: C_20  and  O_23
REMARK    4  A    between atoms: C_22  and  O_25
REMARK    5  A    between atoms: C_28  and  O_29
REMARK                            x       y       z     vdW  Elec       q    Type
REMARK                         _______ _______ _______ _____ _____    ______ ____
ROOT
ATOM      1  O   UNL     1      -0.748  -1.720   0.302  0.00  0.00    -0.314 OA
ATOM      2  O   UNL     1      -0.229   0.982  -1.179  0.00  0.00    -0.446 OA
ATOM      3  O   UNL     1      -2.992  -2.029   0.898  0.00  0.00    -0.449 OA
ATOM      4  O   UNL     1       2.058   1.037  -1.410  0.00  0.00    -0.245 OA
ATOM      5  C   UNL     1      -2.268  -0.313  -0.824  0.00  0.00    +0.122 C 
ATOM      6  C   UNL     1      -1.166   0.537  -0.186  0.00  0.00    +0.190 C 
ATOM      7  C   UNL     1      -0.426  -0.396   0.744  0.00  0.00    +0.188 C 
ATOM      8  C   UNL     1      -3.603   0.416  -0.600  0.00  0.00    +0.063 C 
ATOM      9  C   UNL     1      -2.107  -1.691  -0.172  0.00  0.00    +0.292 C 
ATOM     10  C   UNL     1      -1.883   1.697   0.408  0.00  0.00    +0.012 C 
ATOM     11  C   UNL     1      -3.196   1.641   0.171  0.00  0.00    -0.022 C 
ATOM     12  C   UNL     1       0.985  -0.077   0.441  0.00  0.00    +0.084 C 
ATOM     13  C   UNL     1      -4.590  -0.409   0.149  0.00  0.00    +0.094 C 
ATOM     14  C   UNL     1       1.054   0.704  -0.807  0.00  0.00    +0.340 C 
ATOM     15  C   UNL     1      -4.249  -1.507   0.826  0.00  0.00    +0.177 C 
ATOM     16  C   UNL     1       2.067  -0.366   1.167  0.00  0.00    +0.005 C 
ENDROOT
BRANCH  16  17
ATOM     17  C   UNL     1       3.451   0.034   0.853  0.00  0.00    +0.003 C 
ATOM     18  C   UNL     1       4.249  -0.788   0.057  0.00  0.00    +0.040 C 
ATOM     19  C   UNL     1       3.962   1.232   1.351  0.00  0.00    +0.003 C 
ATOM     20  C   UNL     1       5.559  -0.411  -0.241  0.00  0.00    +0.172 C 
ATOM     21  C   UNL     1       5.271   1.609   1.054  0.00  0.00    +0.040 C 
ATOM     22  C   UNL     1       6.070   0.788   0.258  0.00  0.00    +0.168 C 
BRANCH  20  23
ATOM     23  O   UNL     1       6.329  -1.221  -1.019  0.00  0.00    -0.468 OA
ATOM     24  C   UNL     1       5.731  -2.428  -1.488  0.00  0.00    +0.253 C 
ENDBRANCH  20  23
BRANCH  22  25
ATOM     25  O   UNL     1       7.347   1.167  -0.025  0.00  0.00    -0.503 OA
ATOM     26  H   UNL     1       7.891   0.622  -0.559  0.00  0.00    +0.292 HD
ENDBRANCH  22  25
ENDBRANCH  16  17
BRANCH  13  28
ATOM     27  O   UNL     1      -6.736  -0.219   1.137  0.00  0.00    -0.245 OA
ATOM     28  C   UNL     1      -5.996  -0.001   0.190  0.00  0.00    +0.341 C 
BRANCH  28  29
ATOM     29  O   UNL     1      -6.298   0.633  -0.971  0.00  0.00    -0.441 OA
ATOM     30  C   UNL     1      -7.647   1.096  -1.084  0.00  0.00    +0.256 C 
ENDBRANCH  28  29
ENDBRANCH  13  28
TORSDOF 5
