REMARK  Name = 101564690
REMARK  4 active torsions:
REMARK  status: ('A' for Active; 'I' for Inactive)
REMARK    1  A    between atoms: N_1  and  C_28
REMARK    2  A    between atoms: N_2  and  C_19
REMARK    3  A    between atoms: C_20  and  O_24
REMARK    4  A    between atoms: C_29  and  O_33
REMARK                            x       y       z     vdW  Elec       q    Type
REMARK                         _______ _______ _______ _____ _____    ______ ____
ROOT
ATOM      1  N   UNL     1       2.383   0.689   1.021  0.00  0.00    -0.281 N 
ATOM      2  N   UNL     1      -2.382   0.358  -0.833  0.00  0.00    -0.281 N 
ATOM      3  N   UNL     1       0.562  -1.590   0.406  0.00  0.00    +0.388 N 
ATOM      4  N   UNL     1       0.194   2.158  -0.442  0.00  0.00    +0.388 N 
ATOM      5  C   UNL     1       1.762  -0.107   2.095  0.00  0.00    +0.071 C 
ATOM      6  C   UNL     1      -2.056   1.651  -1.454  0.00  0.00    +0.071 C 
ATOM      7  C   UNL     1       2.215   2.152   1.111  0.00  0.00    +0.071 C 
ATOM      8  C   UNL     1      -1.358  -0.691  -0.892  0.00  0.00    +0.071 C 
ATOM      9  C   UNL     1      -0.762  -0.958   0.501  0.00  0.00    -0.055 C 
ATOM     10  C   UNL     1       0.783   2.634   0.822  0.00  0.00    -0.055 C 
ATOM     11  C   UNL     1       1.310  -1.520   1.672  0.00  0.00    -0.055 C 
ATOM     12  C   UNL     1      -1.231   2.544  -0.513  0.00  0.00    -0.055 C 
ATOM     13  C   UNL     1       0.928   2.666  -1.604  0.00  0.00    -0.101 C 
ATOM     14  C   UNL     1       0.453  -2.985  -0.032  0.00  0.00    -0.101 C 
ATOM     15  H   UNL     1       1.084  -1.060  -0.293  0.00  0.00    -0.080 HD
ATOM     16  H   UNL     1       0.263   1.140  -0.460  0.00  0.00    -0.080 HD
ENDROOT
BRANCH   2  19
ATOM     17  O   UNL     1      -3.872   0.988   0.837  0.00  0.00    -0.434 OA
ATOM     18  O   UNL     1      -6.572  -1.822  -0.237  0.00  0.00    -0.283 OA
ATOM     19  C   UNL     1      -3.592   0.141  -0.232  0.00  0.00    +0.236 C 
ATOM     20  C   UNL     1      -4.459  -0.810  -0.628  0.00  0.00    +0.223 C 
ATOM     21  C   UNL     1      -5.751  -0.971   0.086  0.00  0.00    +0.237 C 
ATOM     22  C   UNL     1      -5.063   0.848   1.503  0.00  0.00    +0.185 C 
ATOM     23  C   UNL     1      -6.004  -0.052   1.212  0.00  0.00    +0.086 C 
BRANCH  20  24
ATOM     24  O   UNL     1      -4.188  -1.651  -1.686  0.00  0.00    -0.500 OA
ATOM     25  H   UNL     1      -3.380  -1.571  -2.154  0.00  0.00    +0.292 HD
ENDBRANCH  20  24
ENDBRANCH   2  19
BRANCH   1  28
ATOM     26  O   UNL     1       2.991   0.179  -1.167  0.00  0.00    -0.434 OA
ATOM     27  O   UNL     1       6.566  -1.328  -0.033  0.00  0.00    -0.283 OA
ATOM     28  C   UNL     1       3.334   0.167   0.183  0.00  0.00    +0.236 C 
ATOM     29  C   UNL     1       4.512  -0.324   0.610  0.00  0.00    +0.223 C 
ATOM     30  C   UNL     1       5.482  -0.870  -0.374  0.00  0.00    +0.237 C 
ATOM     31  C   UNL     1       3.880  -0.322  -2.083  0.00  0.00    +0.185 C 
ATOM     32  C   UNL     1       5.076  -0.836  -1.792  0.00  0.00    +0.086 C 
BRANCH  29  33
ATOM     33  O   UNL     1       4.857  -0.339   1.945  0.00  0.00    -0.500 OA
ATOM     34  H   UNL     1       4.263  -0.001   2.586  0.00  0.00    +0.292 HD
ENDBRANCH  29  33
ENDBRANCH   1  28
TORSDOF 4
