REMARK  Name = 101591872
REMARK  8 active torsions:
REMARK  status: ('A' for Active; 'I' for Inactive)
REMARK    1  A    between atoms: C_8  and  O_25
REMARK    2  A    between atoms: C_14  and  O_27
REMARK    3  A    between atoms: C_16  and  O_29
REMARK    4  A    between atoms: C_17  and  O_31
REMARK    5  A    between atoms: O_31  and  C_33
REMARK    6  A    between atoms: C_33  and  C_34
REMARK    7  A    between atoms: C_34  and  O_36
REMARK    8  A    between atoms: C_34  and  C_38
REMARK                            x       y       z     vdW  Elec       q    Type
REMARK                         _______ _______ _______ _____ _____    ______ ____
ROOT
ATOM      1  O   UNL     1       1.238   2.491  -1.766  0.00  0.00    -0.332 OA
ATOM      2  O   UNL     1       0.055  -2.179  -1.023  0.00  0.00    -0.450 OA
ATOM      3  O   UNL     1      -1.918  -2.966  -0.291  0.00  0.00    -0.246 OA
ATOM      4  O   UNL     1       5.194   0.075   2.778  0.00  0.00    -0.289 OA
ATOM      5  C   UNL     1       0.497   0.246  -1.423  0.00  0.00    +0.076 C 
ATOM      6  C   UNL     1       1.227   0.748  -0.148  0.00  0.00    +0.063 C 
ATOM      7  C   UNL     1       2.722   0.233   0.057  0.00  0.00    +0.040 C 
ATOM      8  C   UNL     1       0.976   2.264  -0.362  0.00  0.00    +0.213 C 
ATOM      9  C   UNL     1       0.777  -1.199  -1.820  0.00  0.00    +0.172 C 
ATOM     10  C   UNL     1      -1.054   0.407  -1.288  0.00  0.00    +0.078 C 
ATOM     11  C   UNL     1       2.775  -1.307  -0.279  0.00  0.00    +0.025 C 
ATOM     12  C   UNL     1       0.988   1.261  -2.473  0.00  0.00    +0.149 C 
ATOM     13  C   UNL     1       2.253  -1.586  -1.702  0.00  0.00    +0.048 C 
ATOM     14  C   UNL     1      -0.506   2.628  -0.085  0.00  0.00    +0.180 C 
ATOM     15  C   UNL     1      -1.452   1.841  -0.958  0.00  0.00    -0.009 C 
ATOM     16  C   UNL     1       3.112   0.315   1.573  0.00  0.00    +0.172 C 
ATOM     17  C   UNL     1      -1.616  -0.584  -0.274  0.00  0.00    +0.270 C 
ATOM     18  C   UNL     1       3.769   1.015  -0.790  0.00  0.00    +0.003 C 
ATOM     19  C   UNL     1       4.123  -1.943   0.054  0.00  0.00    -0.041 C 
ATOM     20  C   UNL     1      -1.201  -2.005  -0.559  0.00  0.00    +0.358 C 
ATOM     21  C   UNL     1       4.463  -0.322   1.872  0.00  0.00    +0.199 C 
ATOM     22  C   UNL     1       4.890  -1.484   1.056  0.00  0.00    +0.031 C 
ATOM     23  C   UNL     1      -2.529   2.420  -1.514  0.00  0.00    -0.006 C 
ATOM     24  C   UNL     1       4.566  -3.160  -0.710  0.00  0.00    +0.026 C 
ENDROOT
BRANCH   8  25
ATOM     25  O   UNL     1       1.718   3.164   0.441  0.00  0.00    -0.362 OA
ATOM     26  H   UNL     1       2.667   2.998   0.322  0.00  0.00    +0.213 HD
ENDBRANCH   8  25
BRANCH  14  27
ATOM     27  O   UNL     1      -0.831   2.357   1.279  0.00  0.00    -0.376 OA
ATOM     28  H   UNL     1      -0.233   2.855   1.858  0.00  0.00    +0.211 HD
ENDBRANCH  14  27
BRANCH  16  29
ATOM     29  O   UNL     1       3.182   1.645   2.050  0.00  0.00    -0.377 OA
ATOM     30  H   UNL     1       2.339   2.094   1.880  0.00  0.00    +0.211 HD
ENDBRANCH  16  29
BRANCH  17  31
ATOM     31  O   UNL     1      -3.040  -0.559  -0.327  0.00  0.00    -0.439 OA
BRANCH  31  33
ATOM     32  O   UNL     1      -3.137  -1.207   1.882  0.00  0.00    -0.248 OA
ATOM     33  C   UNL     1      -3.687  -0.895   0.832  0.00  0.00    +0.342 C 
BRANCH  33  34
ATOM     34  C   UNL     1      -5.200  -0.831   0.640  0.00  0.00    +0.177 C 
ATOM     35  C   UNL     1      -5.625  -1.802  -0.459  0.00  0.00    +0.041 C 
BRANCH  34  36
ATOM     36  O   UNL     1      -5.782  -1.292   1.858  0.00  0.00    -0.376 OA
ATOM     37  H   UNL     1      -5.531  -0.697   2.582  0.00  0.00    +0.211 HD
ENDBRANCH  34  36
BRANCH  34  38
ATOM     38  C   UNL     1      -5.644   0.619   0.377  0.00  0.00    +0.038 C 
ATOM     39  C   UNL     1      -5.307   1.591   1.502  0.00  0.00    +0.003 C 
ENDBRANCH  34  38
ENDBRANCH  33  34
ENDBRANCH  31  33
ENDBRANCH  17  31
TORSDOF 8
