101512
  -OEChem-03292013323D

 26 29  0     0  0  0  0  0  0999 V2000
   -3.1907    1.7101   -0.0788 N   0  0  0  0  0  0  0  0  0  0  0  0
    3.1896   -1.7109    0.0787 N   0  0  0  0  0  0  0  0  0  0  0  0
   -5.1200    0.6079    0.0995 N   0  0  0  0  0  0  0  0  0  0  0  0
    5.1186   -0.6083   -0.0994 N   0  0  0  0  0  0  0  0  0  0  0  0
   -0.4584    0.3380   -0.2662 N   0  0  0  0  0  0  0  0  0  0  0  0
    0.4569   -0.3394    0.2667 N   0  0  0  0  0  0  0  0  0  0  0  0
   -4.1710   -1.6301    0.0732 N   0  0  0  0  0  0  0  0  0  0  0  0
    4.1692    1.6295   -0.0728 N   0  0  0  0  0  0  0  0  0  0  0  0
   -1.7394   -1.6688   -0.1200 N   0  0  0  0  0  0  0  0  0  0  0  0
    1.7375    1.6677    0.1201 N   0  0  0  0  0  0  0  0  0  0  0  0
   -2.8615    0.3845   -0.0758 C   0  0  0  0  0  0  0  0  0  0  0  0
    2.8601   -0.3854    0.0757 C   0  0  0  0  0  0  0  0  0  0  0  0
   -4.0759   -0.2791    0.0356 C   0  0  0  0  0  0  0  0  0  0  0  0
    4.0742    0.2786   -0.0357 C   0  0  0  0  0  0  0  0  0  0  0  0
   -1.6757   -0.3189   -0.1549 C   0  0  0  0  0  0  0  0  0  0  0  0
    1.6896    0.3261    0.1535 C   0  0  0  0  0  0  0  0  0  0  0  0
   -4.5539    1.7937    0.0282 C   0  0  0  0  0  0  0  0  0  0  0  0
    4.5528   -1.7942   -0.0282 C   0  0  0  0  0  0  0  0  0  0  0  0
   -2.9655   -2.2333   -0.0096 C   0  0  0  0  0  0  0  0  0  0  0  0
    2.9636    2.2324    0.0101 C   0  0  0  0  0  0  0  0  0  0  0  0
   -2.5488    2.4887   -0.1471 H   0  0  0  0  0  0  0  0  0  0  0  0
    2.5479   -2.4897    0.1471 H   0  0  0  0  0  0  0  0  0  0  0  0
   -5.0672    2.7445    0.0483 H   0  0  0  0  0  0  0  0  0  0  0  0
    5.0663   -2.7449   -0.0481 H   0  0  0  0  0  0  0  0  0  0  0  0
   -2.9802   -3.3176    0.0156 H   0  0  0  0  0  0  0  0  0  0  0  0
    2.9780    3.3167   -0.0150 H   0  0  0  0  0  0  0  0  0  0  0  0
  1 11  1  0  0  0  0
  1 17  1  0  0  0  0
  1 21  1  0  0  0  0
  2 12  1  0  0  0  0
  2 18  1  0  0  0  0
  2 22  1  0  0  0  0
  3 13  1  0  0  0  0
  3 17  2  0  0  0  0
  4 14  1  0  0  0  0
  4 18  2  0  0  0  0
  5  6  2  0  0  0  0
  5 15  1  0  0  0  0
  6 16  1  0  0  0  0
  7 13  1  0  0  0  0
  7 19  2  0  0  0  0
  8 14  1  0  0  0  0
  8 20  2  0  0  0  0
  9 15  2  0  0  0  0
  9 19  1  0  0  0  0
 10 16  2  0  0  0  0
 10 20  1  0  0  0  0
 11 13  2  0  0  0  0
 11 15  1  0  0  0  0
 12 14  2  0  0  0  0
 12 16  1  0  0  0  0
 17 23  1  0  0  0  0
 18 24  1  0  0  0  0
 19 25  1  0  0  0  0
 20 26  1  0  0  0  0
M  END
> <PUBCHEM_COMPOUND_CID>
101512

> <PUBCHEM_CONFORMER_RMSD>
0.6

> <PUBCHEM_CONFORMER_DIVERSEORDER>
1
8
7
6
2
3
5
4
9

> <PUBCHEM_MMFF94_PARTIAL_CHARGES>
26
1 0.03
10 -0.62
11 -0.15
12 -0.15
13 0.48
14 0.48
15 0.49
16 0.49
17 0.04
18 0.04
19 0.47
2 0.03
20 0.47
21 0.27
22 0.27
23 0.15
24 0.15
25 0.15
26 0.15
3 -0.57
4 -0.57
5 -0.18
6 -0.18
7 -0.57
8 -0.57
9 -0.62

> <PUBCHEM_EFFECTIVE_ROTOR_COUNT>
2

> <PUBCHEM_PHARMACOPHORE_FEATURES>
12
1 1 donor
1 2 donor
3 1 3 17 cation
3 2 4 18 cation
3 5 9 15 cation
3 6 10 16 cation
3 7 9 19 cation
3 8 10 20 cation
5 1 3 11 13 17 rings
5 2 4 12 14 18 rings
6 7 9 11 13 15 19 rings
6 8 10 12 14 16 20 rings

> <PUBCHEM_HEAVY_ATOM_COUNT>
20

> <PUBCHEM_ATOM_DEF_STEREO_COUNT>
0

> <PUBCHEM_ATOM_UDEF_STEREO_COUNT>
0

> <PUBCHEM_BOND_DEF_STEREO_COUNT>
0

> <PUBCHEM_BOND_UDEF_STEREO_COUNT>
0

> <PUBCHEM_ISOTOPIC_ATOM_COUNT>
0

> <PUBCHEM_COMPONENT_COUNT>
1

> <PUBCHEM_CACTVS_TAUTO_COUNT>
10

> <PUBCHEM_CONFORMER_ID>
00018C8800000001

> <PUBCHEM_MMFF94_ENERGY>
37.6892

> <PUBCHEM_FEATURE_SELFOVERLAP>
61.4

> <PUBCHEM_SHAPE_FINGERPRINT>
10616163 171 18340488988041614215
11405975 8 18410573989467530834
12107183 9 17978510823650467025
13167823 11 18410572907162496387
13583140 156 17703217550450919000
13675066 3 18060131055236191330
14341114 176 18410580586679994761
14420673 8 18264774255289932826
14866123 147 17118894951060317818
15042514 8 18265057006721133123
15196674 1 18410574006626287619
15442244 35 18411138009094876192
15536298 74 18411417340930177520
17492 89 18337391668139230123
17844677 252 18410864277801775449
1813 80 16877662370255768668
18186145 218 17894341189972913994
19141452 34 18409448081187193687
20645477 70 18342460335607975222
21033648 29 18041826347229832533
21065198 57 18411136969475160337
21065199 12 18339360880515663537
21267235 1 18410582785603043019
221490 88 18336834203185586890
23402539 116 18201994400928757157
23402655 69 18410294735500653804
23559900 14 18342172271924455720
245318 6 16449267570519964324
3004659 81 18261116206633547334
335352 9 18338797801665724860
3545911 37 18411420630585274728
4073 2 18113623430057589522
4214541 1 18410855456044256037
474 4 17459753807657645132
4921388 177 16805895094685383067
5104073 3 18410574006636838048
543358 83 18410014308532912682
559249 180 18338511945865135099
58051976 100 18410012139094601271
633830 44 17603304881679970296
77779 3 18410293639751139329
90127 26 18187654612632766225
9709674 26 18336269062419354706
9981440 41 17324929647155210409

> <PUBCHEM_SHAPE_MULTIPOLES>
361.78
11.99
2.31
0.58
0.02
0
0
0
0
0
0
0
0
0

> <PUBCHEM_SHAPE_SELFOVERLAP>
826.446

> <PUBCHEM_SHAPE_VOLUME>
183.1

> <PUBCHEM_COORDINATE_TYPE>
2
5
10

$$$$
