101523275
  -OEChem-03292013293D

 39 41  0     0  0  0  0  0  0999 V2000
    3.2012    4.0479    0.0197 O   0  0  0  0  0  0  0  0  0  0  0  0
   -1.7116    3.9843    0.0364 O   0  0  0  0  0  0  0  0  0  0  0  0
   -5.3557   -1.0749    0.0226 O   0  0  0  0  0  0  0  0  0  0  0  0
    2.7314   -3.6563   -0.0382 O   0  0  0  0  0  0  0  0  0  0  0  0
   -4.0318   -3.1762   -0.6168 O   0  0  0  0  0  0  0  0  0  0  0  0
   -1.9834   -3.2295    0.5818 O   0  0  0  0  0  0  0  0  0  0  0  0
    5.1106   -0.9053   -0.9849 O   0  5  0  0  0  0  0  0  0  0  0  0
    5.0334   -2.0171    0.9148 O   0  0  0  0  0  0  0  0  0  0  0  0
    2.7961    2.6868    0.0055 N   0  3  0  0  0  0  0  0  0  0  0  0
    0.6058    3.6566    0.0229 N   0  0  0  0  0  0  0  0  0  0  0  0
   -2.9989   -2.5072   -0.0013 N   0  0  0  0  0  0  0  0  0  0  0  0
    4.5038   -1.4162   -0.0317 N   0  3  0  0  0  0  0  0  0  0  0  0
    0.6062    1.3261    0.0062 C   0  0  0  0  0  0  0  0  0  0  0  0
   -0.7526    1.7667    0.0158 C   0  0  0  0  0  0  0  0  0  0  0  0
    1.3576    2.5914    0.0117 C   0  0  0  0  0  0  0  0  0  0  0  0
    1.1377    0.1035   -0.0047 C   0  0  0  0  0  0  0  0  0  0  0  0
   -1.8929    1.0564    0.0165 C   0  0  0  0  0  0  0  0  0  0  0  0
   -0.7286    3.2601    0.0265 C   0  0  0  0  0  0  0  0  0  0  0  0
    2.5861   -0.0666   -0.0129 C   0  0  0  0  0  0  0  0  0  0  0  0
   -1.8507   -0.3971    0.0062 C   0  0  0  0  0  0  0  0  0  0  0  0
    0.2736   -1.0716   -0.0085 C   0  0  0  0  0  0  0  0  0  0  0  0
   -3.1753    1.7356    0.0273 C   0  0  0  0  0  0  0  0  0  0  0  0
   -2.9684   -1.1438    0.0074 C   0  0  0  0  0  0  0  0  0  0  0  0
    3.0887   -1.3047   -0.0241 C   0  0  0  0  0  0  0  0  0  0  0  0
    0.7803   -2.3133   -0.0197 C   0  0  0  0  0  0  0  0  0  0  0  0
   -4.3181    1.0399    0.0294 C   0  0  0  0  0  0  0  0  0  0  0  0
   -4.2997   -0.4482    0.0200 C   0  0  0  0  0  0  0  0  0  0  0  0
    2.2552   -2.5274   -0.0282 C   0  0  0  0  0  0  0  0  0  0  0  0
    3.1784    2.2709   -0.8535 H   0  0  0  0  0  0  0  0  0  0  0  0
    3.1831    2.2582    0.8562 H   0  0  0  0  0  0  0  0  0  0  0  0
    3.3431    0.6782    0.0096 H   0  0  0  0  0  0  0  0  0  0  0  0
   -1.4010   -0.7033    0.9729 H   0  0  0  0  0  0  0  0  0  0  0  0
   -0.2937   -1.0943   -0.9583 H   0  0  0  0  0  0  0  0  0  0  0  0
   -3.3361    2.7975    0.0339 H   0  0  0  0  0  0  0  0  0  0  0  0
    0.2113   -3.1641   -0.3786 H   0  0  0  0  0  0  0  0  0  0  0  0
   -5.2839    1.5328    0.0373 H   0  0  0  0  0  0  0  0  0  0  0  0
    4.1672    3.9366    0.0135 H   0  0  0  0  0  0  0  0  0  0  0  0
   -2.0669   -4.0866    0.1308 H   0  0  0  0  0  0  0  0  0  0  0  0
   -4.3784   -3.7182    0.1121 H   0  0  0  0  0  0  0  0  0  0  0  0
  1  9  1  0  0  0  0
  1 37  1  0  0  0  0
  2 18  2  0  0  0  0
  3 27  2  0  0  0  0
  4 28  2  0  0  0  0
  5 11  1  0  0  0  0
  5 39  1  0  0  0  0
  6 11  1  0  0  0  0
  6 38  1  0  0  0  0
  7 12  1  0  0  0  0
  8 12  2  0  0  0  0
  9 15  1  0  0  0  0
  9 29  1  0  0  0  0
  9 30  1  0  0  0  0
 10 15  2  0  0  0  0
 10 18  1  0  0  0  0
 11 23  1  0  0  0  0
 12 24  1  0  0  0  0
 13 14  1  0  0  0  0
 13 15  1  0  0  0  0
 13 16  2  3  0  0  0
 14 17  2  3  0  0  0
 14 18  1  0  0  0  0
 16 19  1  0  0  0  0
 16 21  1  0  0  0  0
 17 20  1  0  0  0  0
 17 22  1  0  0  0  0
 19 24  2  0  0  0  0
 19 31  1  0  0  0  0
 20 23  2  0  0  0  0
 20 32  1  0  0  0  0
 21 25  2  0  0  0  0
 21 33  1  0  0  0  0
 22 26  2  0  0  0  0
 22 34  1  0  0  0  0
 23 27  1  0  0  0  0
 24 28  1  0  0  0  0
 25 28  1  0  0  0  0
 25 35  1  0  0  0  0
 26 27  1  0  0  0  0
 26 36  1  0  0  0  0
M  CHG  3   7  -1   9   1  12   1
M  END
> <PUBCHEM_COMPOUND_CID>
101523275

> <PUBCHEM_CONFORMER_RMSD>
0.8

> <PUBCHEM_CONFORMER_DIVERSEORDER>
1

> <PUBCHEM_MMFF94_PARTIAL_CHARGES>
37
1 -0.15
10 -0.66
11 -0.14
12 0.84
13 0.01
14 0.01
15 0.83
18 0.77
19 -0.15
2 -0.57
20 -0.15
21 -0.15
22 -0.15
23 0.11
24 0.22
25 -0.14
26 -0.14
27 0.54
28 0.54
29 0.45
3 -0.57
30 0.45
31 0.15
32 0.15
33 0.15
34 0.15
35 0.15
36 0.15
37 0.4
38 0.4
39 0.4
4 -0.57
5 -0.38
6 -0.38
7 -0.52
8 -0.52
9 -0.54

> <PUBCHEM_EFFECTIVE_ROTOR_COUNT>
3

> <PUBCHEM_PHARMACOPHORE_FEATURES>
15
1 10 donor
1 2 acceptor
1 3 acceptor
1 4 acceptor
1 5 acceptor
1 5 anion
1 6 acceptor
1 6 anion
1 7 acceptor
1 7 anion
1 8 acceptor
1 9 donor
5 10 13 14 15 18 rings
6 16 19 21 24 25 28 rings
6 17 20 22 23 26 27 rings

> <PUBCHEM_HEAVY_ATOM_COUNT>
28

> <PUBCHEM_ATOM_DEF_STEREO_COUNT>
0

> <PUBCHEM_ATOM_UDEF_STEREO_COUNT>
0

> <PUBCHEM_BOND_DEF_STEREO_COUNT>
0

> <PUBCHEM_BOND_UDEF_STEREO_COUNT>
2

> <PUBCHEM_ISOTOPIC_ATOM_COUNT>
0

> <PUBCHEM_COMPONENT_COUNT>
1

> <PUBCHEM_CACTVS_TAUTO_COUNT>
3

> <PUBCHEM_CONFORMER_ID>
060D1F4B00000001

> <PUBCHEM_MMFF94_ENERGY>
226.5148

> <PUBCHEM_FEATURE_SELFOVERLAP>
76.324

> <PUBCHEM_SHAPE_FINGERPRINT>
10319926 262 17835496251985825138
10411042 1 18410855490383447583
10616163 171 18267587896907406742
10967382 1 18338517555419178905
1100329 8 18410576154405588241
11513181 2 17985553496538347182
12107183 9 18270131124086411961
12173636 292 17473541352762768708
12553582 1 18410567362512633119
12633257 1 18341907281295984051
12788726 201 18262518061697823946
12839892 36 18123169449770471128
13140716 1 18411143558182047345
138480 1 18338797917756617353
14081887 123 18268415846501331586
14787075 74 18187373090749109498
14790565 3 17760935442863523773
15042514 8 17689435979587424762
15927050 60 17980764063016648468
16087824 20 18194121803575613965
17492 89 18194963174266890867
19591789 44 17041201809968177171
19930381 70 18194117640780755865
20028762 73 16902998700226145614
20510252 161 17910109105785677352
20642791 35 18410576175616654576
20775438 99 17620419897627896125
21267235 1 18410864248138093331
221490 88 18336552736519313835
2334 1 18266741474807094865
23366157 5 18114461283598204228
23557571 272 17985271772843526606
23559900 14 18412535526907256985
3178227 256 18193572065004665393
335352 9 18410856521750293653
350125 39 18337395925021389673
3882209 13 17621557990119969518
4280585 95 18336535037238356576
463206 1 18336833086504886091
5104073 3 18340494447630311161
59755656 215 18121500416941882821
9709674 26 18192430990445173851

> <PUBCHEM_SHAPE_MULTIPOLES>
509.35
8.84
5.3
0.65
0.95
2.61
-0.01
-5.46
-0.24
0.94
0.08
0.18
-0.12
-0.25

> <PUBCHEM_SHAPE_SELFOVERLAP>
1134.643

> <PUBCHEM_SHAPE_VOLUME>
266

> <PUBCHEM_COORDINATE_TYPE>
2
5
10

$$$$
