REMARK  Name = 101589831
REMARK  11 active torsions:
REMARK  status: ('A' for Active; 'I' for Inactive)
REMARK    1  A    between atoms: C_1  and  N_3
REMARK    2  A    between atoms: C_1  and  C_13
REMARK    3  A    between atoms: C_1  and  C_16
REMARK    4  A    between atoms: C_4  and  CA_6
REMARK    5  A    between atoms: CA_6  and  N_8
REMARK    6  A    between atoms: C_13  and  O_14
REMARK    7  A    between atoms: C_16  and  O_17
REMARK    8  A    between atoms: O_17  and  O_18
REMARK    9  A    between atoms: O_18  and  C_20
REMARK   10  A    between atoms: C_20  and  C_21
REMARK   11  A    between atoms: C_21  and  N_22
REMARK                            x       y       z     vdW  Elec       q    Type
REMARK                         _______ _______ _______ _____ _____    ______ ____
ROOT
ATOM      1  C   UNK A   2      -1.524   1.274   0.539  0.00  0.00    +0.206 C 
ENDROOT
BRANCH   1   3
ATOM      2  O   ALA A   1      -3.017  -0.941   1.613  0.00  0.00    -0.277 OA
ATOM      3  N   UNK A   2      -1.925   0.077  -0.164  0.00  0.00    -0.296 N 
ATOM      4  C   ALA A   1      -2.648  -0.943   0.440  0.00  0.00    +0.202 C 
ATOM      5  H   UNK A   2      -1.676  -0.019  -1.111  0.00  0.00    +0.150 HD
BRANCH   4   6
ATOM      6  CA  ALA A   1      -2.926  -2.092  -0.521  0.00  0.00    +0.013 C 
ATOM      7  CB  ALA A   1      -4.259  -1.880  -1.227  0.00  0.00    -0.015 C 
BRANCH   6   8
ATOM      8  N   ALA A   1      -2.953  -3.335   0.246  0.00  0.00    +0.387 N 
ATOM      9  H1  ALA A   1      -2.055  -3.466   0.714  0.00  0.00    -0.089 HD
ATOM     10  H2  ALA A   1      -3.125  -4.119  -0.383  0.00  0.00    -0.089 HD
ATOM     11  H3  ALA A   1      -3.696  -3.289   0.943  0.00  0.00    -0.089 HD
ENDBRANCH   6   8
ENDBRANCH   4   6
ENDBRANCH   1   3
BRANCH   1  13
ATOM     12  O   UNK A   2      -1.213   2.313  -1.641  0.00  0.00    -0.248 OA
ATOM     13  C   UNK A   2      -1.533   2.410  -0.463  0.00  0.00    +0.335 C 
BRANCH  13  14
ATOM     14  O   UNK A   2      -1.896   3.588   0.109  0.00  0.00    -0.479 OA
ATOM     15  H   UNK A   2      -2.133   3.615   1.015  0.00  0.00    +0.295 HD
ENDBRANCH  13  14
ENDBRANCH   1  13
BRANCH   1  16
ATOM     16  C   UNK A   2      -0.144   1.123   1.162  0.00  0.00    +0.226 C 
BRANCH  16  17
ATOM     17  O   UNK A   2       0.799   0.819   0.142  0.00  0.00    -0.167 OA
BRANCH  17  18
ATOM     18  O   UNK A   2       2.082   0.693   0.830  0.00  0.00    -0.294 OA
BRANCH  18  20
ATOM     19  O   UNK A   2       2.669  -0.522  -1.151  0.00  0.00    -0.245 OA
ATOM     20  C   UNK A   2       2.967  -0.053  -0.011  0.00  0.00    +0.371 C 
BRANCH  20  21
ATOM     21  C   UNK A   2       4.164  -0.184   0.602  0.00  0.00    +0.223 C 
BRANCH  21  22
ATOM     22  N   UNK A   2       5.270  -0.906  -0.022  0.00  0.00    -0.100 NA
ATOM     23  N   UNK A   2       6.087  -1.440  -0.482  0.00  0.00    -0.020 NA
ENDBRANCH  21  22
ENDBRANCH  20  21
ENDBRANCH  18  20
ENDBRANCH  17  18
ENDBRANCH  16  17
ENDBRANCH   1  16
TORSDOF 11
