REMARK  Name = 101573171
REMARK  3 active torsions:
REMARK  status: ('A' for Active; 'I' for Inactive)
REMARK    1  A    between atoms: C_10  and  O_25
REMARK    2  A    between atoms: C_12  and  C_27
REMARK    3  A    between atoms: C_27  and  C_31
REMARK                            x       y       z     vdW  Elec       q    Type
REMARK                         _______ _______ _______ _____ _____    ______ ____
ROOT
ATOM      1  O   UNL     1       0.423   0.232   0.923  0.00  0.00    -0.327 OA
ATOM      2  O   UNL     1       1.856   0.342  -0.974  0.00  0.00    -0.430 OA
ATOM      3  O   UNL     1      -6.486   1.137  -0.891  0.00  0.00    -0.456 OA
ATOM      4  O   UNL     1       2.485  -0.188  -3.114  0.00  0.00    -0.250 OA
ATOM      5  O   UNL     1      -6.694  -1.103  -1.287  0.00  0.00    -0.250 OA
ATOM      6  C   UNL     1      -0.524  -1.369  -0.592  0.00  0.00    +0.036 C 
ATOM      7  C   UNL     1       0.953  -1.727  -0.306  0.00  0.00    +0.072 C 
ATOM      8  C   UNL     1      -0.794  -0.137   0.278  0.00  0.00    +0.121 C 
ATOM      9  C   UNL     1      -1.871  -0.554   1.282  0.00  0.00    +0.052 C 
ATOM     10  C   UNL     1      -2.723  -1.554   0.488  0.00  0.00    +0.091 C 
ATOM     11  C   UNL     1      -1.639  -2.368  -0.252  0.00  0.00    +0.030 C 
ATOM     12  C   UNL     1       1.498  -0.395   0.213  0.00  0.00    +0.235 C 
ATOM     13  C   UNL     1      -3.742  -0.944  -0.495  0.00  0.00    +0.038 C 
ATOM     14  C   UNL     1      -2.595   0.607   1.976  0.00  0.00    +0.005 C 
ATOM     15  C   UNL     1       1.750  -1.924  -1.592  0.00  0.00    +0.116 C 
ATOM     16  C   UNL     1      -4.944  -0.293   0.193  0.00  0.00    +0.105 C 
ATOM     17  C   UNL     1      -4.765   1.130   0.712  0.00  0.00    +0.047 C 
ATOM     18  C   UNL     1      -3.350   1.582   1.071  0.00  0.00    +0.004 C 
ATOM     19  C   UNL     1       1.151  -2.903   0.651  0.00  0.00    +0.007 C 
ATOM     20  C   UNL     1      -5.489   2.007  -0.326  0.00  0.00    +0.137 C 
ATOM     21  C   UNL     1       2.072  -0.519  -2.013  0.00  0.00    +0.319 C 
ATOM     22  C   UNL     1      -6.121  -0.169  -0.745  0.00  0.00    +0.316 C 
ATOM     23  C   UNL     1      -6.211   3.183   0.335  0.00  0.00    +0.044 C 
ATOM     24  C   UNL     1      -4.632   2.522  -1.486  0.00  0.00    +0.044 C 
ENDROOT
BRANCH  10  25
ATOM     25  O   UNL     1      -3.399  -2.420   1.397  0.00  0.00    -0.387 OA
ATOM     26  H   UNL     1      -2.758  -2.804   2.016  0.00  0.00    +0.210 HD
ENDBRANCH  10  25
BRANCH  12  27
ATOM     27  C   UNL     1       2.720  -0.432   1.121  0.00  0.00    +0.089 C 
ATOM     28  C   UNL     1       2.304  -0.595   2.585  0.00  0.00    +0.011 C 
BRANCH  27  31
ATOM     29  O   UNL     1       5.509  -0.314   0.203  0.00  0.00    -0.422 OA
ATOM     30  O   UNL     1       7.668  -0.590  -0.539  0.00  0.00    -0.245 OA
ATOM     31  C   UNL     1       3.540   0.823   0.954  0.00  0.00    +0.017 C 
ATOM     32  C   UNL     1       4.810   0.838   0.532  0.00  0.00    +0.145 C 
ATOM     33  C   UNL     1       5.633   1.981   0.354  0.00  0.00    +0.039 C 
ATOM     34  C   UNL     1       6.828   1.595  -0.075  0.00  0.00    +0.057 C 
ATOM     35  C   UNL     1       6.752   0.130  -0.173  0.00  0.00    +0.342 C 
ATOM     36  C   UNL     1       8.029   2.389  -0.408  0.00  0.00    +0.038 C 
ENDBRANCH  27  31
ENDBRANCH  12  27
TORSDOF 3
