REMARK  Name = 101516509
REMARK  8 active torsions:
REMARK  status: ('A' for Active; 'I' for Inactive)
REMARK    1  A    between atoms: C_5  and  O_27
REMARK    2  A    between atoms: C_7  and  O_23
REMARK    3  A    between atoms: C_8  and  O_25
REMARK    4  A    between atoms: C_9  and  O_21
REMARK    5  A    between atoms: C_11  and  C_17
REMARK    6  A    between atoms: C_12  and  C_31
REMARK    7  A    between atoms: O_27  and  C_29
REMARK    8  A    between atoms: C_31  and  O_32
REMARK                            x       y       z     vdW  Elec       q    Type
REMARK                         _______ _______ _______ _____ _____    ______ ____
ROOT
ATOM      1  O   UNL     1       2.526   1.325   0.519  0.00  0.00    -0.328 OA
ATOM      2  C   UNL     1       0.662   0.349  -0.645  0.00  0.00    +0.061 C 
ATOM      3  C   UNL     1      -0.394  -0.825  -0.531  0.00  0.00    +0.048 C 
ATOM      4  C   UNL     1       0.100   1.443  -1.648  0.00  0.00    +0.034 C 
ATOM      5  C   UNL     1      -1.861  -0.366  -0.231  0.00  0.00    +0.180 C 
ATOM      6  C   UNL     1       1.991  -0.204  -1.227  0.00  0.00    +0.039 C 
ATOM      7  C   UNL     1      -1.385   1.834  -1.457  0.00  0.00    +0.141 C 
ATOM      8  C   UNL     1      -2.319   0.628  -1.323  0.00  0.00    +0.177 C 
ATOM      9  C   UNL     1       1.180   0.868   0.719  0.00  0.00    +0.235 C 
ATOM     10  C   UNL     1      -0.021  -1.947   0.469  0.00  0.00    +0.009 C 
ATOM     11  C   UNL     1       3.108   0.601  -0.570  0.00  0.00    +0.143 C 
ATOM     12  C   UNL     1      -2.813  -1.563  -0.090  0.00  0.00    +0.019 C 
ATOM     13  C   UNL     1       0.945   2.720  -1.784  0.00  0.00    +0.003 C 
ATOM     14  C   UNL     1      -0.912  -3.169   0.248  0.00  0.00    +0.026 C 
ATOM     15  C   UNL     1      -2.358  -2.815   0.101  0.00  0.00    -0.029 C 
ENDROOT
BRANCH  11  17
ATOM     16  O   UNL     1       6.230  -1.361  -0.136  0.00  0.00    -0.448 OA
ATOM     17  C   UNL     1       4.271  -0.259  -0.126  0.00  0.00    +0.045 C 
ATOM     18  C   UNL     1       4.423  -0.910   1.121  0.00  0.00    +0.042 C 
ATOM     19  C   UNL     1       5.397  -0.564  -0.856  0.00  0.00    +0.178 C 
ATOM     20  C   UNL     1       5.630  -1.567   1.065  0.00  0.00    +0.179 C 
ENDBRANCH  11  17
BRANCH   9  21
ATOM     21  O   UNL     1       0.384   1.892   1.280  0.00  0.00    -0.328 OA
ATOM     22  C   UNL     1       0.600   2.023   2.682  0.00  0.00    +0.177 C 
ENDBRANCH   9  21
BRANCH   7  23
ATOM     23  O   UNL     1      -1.573   2.732  -0.371  0.00  0.00    -0.382 OA
ATOM     24  H   UNL     1      -0.976   3.489  -0.470  0.00  0.00    +0.210 HD
ENDBRANCH   7  23
BRANCH   8  25
ATOM     25  O   UNL     1      -2.384  -0.048  -2.580  0.00  0.00    -0.378 OA
ATOM     26  H   UNL     1      -2.973  -0.814  -2.505  0.00  0.00    +0.211 HD
ENDBRANCH   8  25
BRANCH   5  27
ATOM     27  O   UNL     1      -1.882   0.302   1.037  0.00  0.00    -0.449 OA
BRANCH  27  29
ATOM     28  O   UNL     1      -4.011   1.135   0.706  0.00  0.00    -0.250 OA
ATOM     29  C   UNL     1      -3.101   0.764   1.434  0.00  0.00    +0.318 C 
ATOM     30  C   UNL     1      -3.175   0.752   2.931  0.00  0.00    +0.121 C 
ENDBRANCH  27  29
ENDBRANCH   5  27
BRANCH  12  31
ATOM     31  C   UNL     1      -4.299  -1.312  -0.125  0.00  0.00    +0.162 C 
BRANCH  31  32
ATOM     32  O   UNL     1      -4.959  -2.461  -0.613  0.00  0.00    -0.377 OA
ATOM     33  H   UNL     1      -5.916  -2.299  -0.636  0.00  0.00    +0.211 HD
ENDBRANCH  31  32
ENDBRANCH  12  31
TORSDOF 8
