101519296
  -OEChem-03292013293D

 59 61  0     1  0  0  0  0  0999 V2000
    3.2445    1.0621   -1.0604 O   0  0  0  0  0  0  0  0  0  0  0  0
    2.6150   -2.3996   -0.4495 O   0  0  0  0  0  0  0  0  0  0  0  0
   -1.5027    1.9739   -0.1073 O   0  0  0  0  0  0  0  0  0  0  0  0
   -2.0049   -0.2354    0.4503 O   0  0  0  0  0  0  0  0  0  0  0  0
   -4.2118    2.3887   -0.8120 O   0  0  0  0  0  0  0  0  0  0  0  0
   -5.5197   -0.1079   -1.6702 O   0  0  0  0  0  0  0  0  0  0  0  0
   -5.0934   -2.1968    0.2818 O   0  0  0  0  0  0  0  0  0  0  0  0
   -1.2809   -2.2995    2.1150 O   0  0  0  0  0  0  0  0  0  0  0  0
    2.7742    0.0601   -0.1075 C   0  0  2  0  0  0  0  0  0  0  0  0
    4.0307    0.0011    0.8331 C   0  0  0  0  0  0  0  0  0  0  0  0
    2.5977   -1.1368   -1.0906 C   0  0  1  0  0  0  0  0  0  0  0  0
    4.4218    0.3463   -1.5058 C   0  0  1  0  0  0  0  0  0  0  0  0
    5.1787    0.1228   -0.1972 C   0  0  0  0  0  0  0  0  0  0  0  0
    3.8299   -0.9747   -1.9990 C   0  0  0  0  0  0  0  0  0  0  0  0
    4.1506   -1.3727    1.5403 C   0  0  0  0  0  0  0  0  0  0  0  0
    4.1125    1.0790    1.9175 C   0  0  0  0  0  0  0  0  0  0  0  0
    1.5118    0.5002    0.5565 C   0  0  0  0  0  0  0  0  0  0  0  0
    1.3183   -1.0732   -1.9395 C   0  0  0  0  0  0  0  0  0  0  0  0
    0.8132    1.5843    0.1890 C   0  0  0  0  0  0  0  0  0  0  0  0
   -0.4556    2.0229    0.8585 C   0  0  1  0  0  0  0  0  0  0  0  0
   -2.5385    1.0772    0.2931 C   0  0  2  0  0  0  0  0  0  0  0  0
   -0.3351    3.4441    1.3927 C   0  0  0  0  0  0  0  0  0  0  0  0
   -3.6175    1.0911   -0.7895 C   0  0  1  0  0  0  0  0  0  0  0  0
   -4.6963    0.0437   -0.5129 C   0  0  2  0  0  0  0  0  0  0  0  0
   -4.0772   -1.3167   -0.1916 C   0  0  1  0  0  0  0  0  0  0  0  0
   -2.9890   -1.1797    0.8760 C   0  0  1  0  0  0  0  0  0  0  0  0
   -2.2763   -2.5044    1.1291 C   0  0  0  0  0  0  0  0  0  0  0  0
    4.9838    0.8989   -2.2622 H   0  0  0  0  0  0  0  0  0  0  0  0
    5.8546   -0.7370   -0.2455 H   0  0  0  0  0  0  0  0  0  0  0  0
    5.7881    1.0083    0.0197 H   0  0  0  0  0  0  0  0  0  0  0  0
    3.5350   -0.8649   -3.0491 H   0  0  0  0  0  0  0  0  0  0  0  0
    4.5427   -1.8034   -1.9364 H   0  0  0  0  0  0  0  0  0  0  0  0
    3.2119   -1.6521    2.0303 H   0  0  0  0  0  0  0  0  0  0  0  0
    4.4672   -2.1789    0.8730 H   0  0  0  0  0  0  0  0  0  0  0  0
    4.9203   -1.3318    2.3214 H   0  0  0  0  0  0  0  0  0  0  0  0
    5.0793    1.0509    2.4331 H   0  0  0  0  0  0  0  0  0  0  0  0
    4.0015    2.0803    1.4867 H   0  0  0  0  0  0  0  0  0  0  0  0
    3.3305    0.9505    2.6737 H   0  0  0  0  0  0  0  0  0  0  0  0
    1.1467   -0.1167    1.3740 H   0  0  0  0  0  0  0  0  0  0  0  0
    0.4274   -1.2396   -1.3234 H   0  0  0  0  0  0  0  0  0  0  0  0
    1.3154   -1.8718   -2.6910 H   0  0  0  0  0  0  0  0  0  0  0  0
    1.2126   -0.1166   -2.4613 H   0  0  0  0  0  0  0  0  0  0  0  0
    2.6307   -3.0878   -1.1363 H   0  0  0  0  0  0  0  0  0  0  0  0
    1.1504    2.2009   -0.6401 H   0  0  0  0  0  0  0  0  0  0  0  0
   -0.6669    1.3763    1.7212 H   0  0  0  0  0  0  0  0  0  0  0  0
   -2.9481    1.4341    1.2484 H   0  0  0  0  0  0  0  0  0  0  0  0
   -0.1516    4.1585    0.5818 H   0  0  0  0  0  0  0  0  0  0  0  0
    0.4741    3.5318    2.1250 H   0  0  0  0  0  0  0  0  0  0  0  0
   -1.2722    3.7497    1.8709 H   0  0  0  0  0  0  0  0  0  0  0  0
   -3.1707    0.9308   -1.7779 H   0  0  0  0  0  0  0  0  0  0  0  0
   -5.3620    0.3707    0.2945 H   0  0  0  0  0  0  0  0  0  0  0  0
   -3.6622   -1.7580   -1.1060 H   0  0  0  0  0  0  0  0  0  0  0  0
   -3.4126   -0.8350    1.8292 H   0  0  0  0  0  0  0  0  0  0  0  0
   -1.7768   -2.8577    0.2206 H   0  0  0  0  0  0  0  0  0  0  0  0
   -2.9695   -3.2729    1.4837 H   0  0  0  0  0  0  0  0  0  0  0  0
   -4.6134    2.5515    0.0586 H   0  0  0  0  0  0  0  0  0  0  0  0
   -4.9526   -0.3816   -2.4112 H   0  0  0  0  0  0  0  0  0  0  0  0
   -5.4586   -1.8210    1.1010 H   0  0  0  0  0  0  0  0  0  0  0  0
   -0.8332   -3.1516    2.2527 H   0  0  0  0  0  0  0  0  0  0  0  0
  1  9  1  0  0  0  0
  1 12  1  0  0  0  0
  2 11  1  0  0  0  0
  2 43  1  0  0  0  0
  3 20  1  0  0  0  0
  3 21  1  0  0  0  0
  4 21  1  0  0  0  0
  4 26  1  0  0  0  0
  5 23  1  0  0  0  0
  5 56  1  0  0  0  0
  6 24  1  0  0  0  0
  6 57  1  0  0  0  0
  7 25  1  0  0  0  0
  7 58  1  0  0  0  0
  8 27  1  0  0  0  0
  8 59  1  0  0  0  0
  9 10  1  0  0  0  0
  9 11  1  0  0  0  0
  9 17  1  0  0  0  0
 10 13  1  0  0  0  0
 10 15  1  0  0  0  0
 10 16  1  0  0  0  0
 11 14  1  0  0  0  0
 11 18  1  0  0  0  0
 12 13  1  0  0  0  0
 12 14  1  0  0  0  0
 12 28  1  0  0  0  0
 13 29  1  0  0  0  0
 13 30  1  0  0  0  0
 14 31  1  0  0  0  0
 14 32  1  0  0  0  0
 15 33  1  0  0  0  0
 15 34  1  0  0  0  0
 15 35  1  0  0  0  0
 16 36  1  0  0  0  0
 16 37  1  0  0  0  0
 16 38  1  0  0  0  0
 17 19  2  0  0  0  0
 17 39  1  0  0  0  0
 18 40  1  0  0  0  0
 18 41  1  0  0  0  0
 18 42  1  0  0  0  0
 19 20  1  0  0  0  0
 19 44  1  0  0  0  0
 20 22  1  0  0  0  0
 20 45  1  0  0  0  0
 21 23  1  0  0  0  0
 21 46  1  0  0  0  0
 22 47  1  0  0  0  0
 22 48  1  0  0  0  0
 22 49  1  0  0  0  0
 23 24  1  0  0  0  0
 23 50  1  0  0  0  0
 24 25  1  0  0  0  0
 24 51  1  0  0  0  0
 25 26  1  0  0  0  0
 25 52  1  0  0  0  0
 26 27  1  0  0  0  0
 26 53  1  0  0  0  0
 27 54  1  0  0  0  0
 27 55  1  0  0  0  0
M  END
> <PUBCHEM_COMPOUND_CID>
101519296

> <PUBCHEM_CONFORMER_RMSD>
0.8

> <PUBCHEM_CONFORMER_DIVERSEORDER>
1
35
50
84
96
95
3
189
185
150
39
38
77
183
102
97
131
204
87
194
28
40
75
133
186
105
59
108
13
128
47
161
74
159
110
118
65
147
156
141
46
36
171
76
181
134
212
162
170
83
19
31
80
66
25
206
104
127
73
30
158
101
57
178
6
175
126
82
81
45
179
90
117
103
203
107
18
94
135
196
144
130
62
199
198
146
143
15
190
148
71
111
154
9
27
51
10
201
136
184
29
132
21
88
78
124
52
195
54
32
22
60
53
173
192
168
79
202
163
89
23
61
98
172
49
116
16
176
207
193
68
191
121
209
55
155
58
4
24
5
205
164
169
37
115
145
109
11
197
129
20
120
177
187
125
41
167
67
114
113
140
48
42
200
91
17
174
14
166
106
7
149
138
139
69
180
2
26
123
99
8
151
208
56
182
70
63
153
92
12
211
122
34
157
64
33
86
137
72
43
85
165
100
93
152
112
119
160
142
210
44
188

> <PUBCHEM_MMFF94_PARTIAL_CHARGES>
27
1 -0.56
11 0.28
12 0.28
17 -0.29
19 -0.29
2 -0.68
20 0.42
21 0.56
23 0.28
24 0.28
25 0.28
26 0.28
27 0.28
3 -0.56
39 0.15
4 -0.56
43 0.4
44 0.15
5 -0.68
56 0.4
57 0.4
58 0.4
59 0.4
6 -0.68
7 -0.68
8 -0.68
9 0.42

> <PUBCHEM_EFFECTIVE_ROTOR_COUNT>
7.2

> <PUBCHEM_PHARMACOPHORE_FEATURES>
16
1 1 acceptor
1 2 acceptor
1 2 donor
1 3 acceptor
1 4 acceptor
1 5 acceptor
1 5 donor
1 6 acceptor
1 6 donor
1 7 acceptor
1 7 donor
1 8 acceptor
1 8 donor
3 10 15 16 hydrophobe
6 4 21 23 24 25 26 rings
7 1 9 10 11 12 13 14 rings

> <PUBCHEM_HEAVY_ATOM_COUNT>
27

> <PUBCHEM_ATOM_DEF_STEREO_COUNT>
9

> <PUBCHEM_ATOM_UDEF_STEREO_COUNT>
0

> <PUBCHEM_BOND_DEF_STEREO_COUNT>
1

> <PUBCHEM_BOND_UDEF_STEREO_COUNT>
0

> <PUBCHEM_ISOTOPIC_ATOM_COUNT>
0

> <PUBCHEM_COMPONENT_COUNT>
1

> <PUBCHEM_CACTVS_TAUTO_COUNT>
1

> <PUBCHEM_CONFORMER_ID>
060D0FC000000001

> <PUBCHEM_MMFF94_ENERGY>
101.1842

> <PUBCHEM_FEATURE_SELFOVERLAP>
81.263

> <PUBCHEM_SHAPE_FINGERPRINT>
10366900 7 18201722834299011160
10759866 29 17967823777441314510
108634 29 18409172129501807698
11370993 70 17967814929191675223
11828532 37 17753328970674266051
12236239 1 16732979842664315330
12363563 72 18201447994725103637
12553582 1 18340221742285871465
12788726 201 18339928103999020217
13224815 77 17917714565401643164
13402501 40 18341613758651164931
13544653 18 17561085804079524697
13617811 41 17822282471608896109
14081887 123 18342739576969271632
14251757 17 18411696565512784993
14386348 63 18272370879904391773
14840074 17 17060338556657837397
15183329 4 18408881824794828213
15375358 24 18413103965707238384
15635459 17 18130794451250230750
15788980 27 17240202118699743424
15880784 105 16630526241060211581
16752209 62 18187082857996264923
17349148 13 18408604730046397292
17357779 13 18202010935919525451
18681886 176 18409735101700140428
20261772 1 17703789249548245094
20403669 9 18339364166519287243
20511986 3 17240753038734572870
20626108 58 18114174263649941824
20715895 44 17678444274077979645
20871999 31 18335424560548914053
21033650 10 17823430292100304708
21781051 124 17458908258327102147
23557571 272 18412549807868519544
23558518 356 17982742878445363136
23559900 14 18338804390689103182
239999 70 17703787020829658636
3004659 81 17967244278757291026
3680242 22 18261958431949060859
439807 62 17822572811187102235
463206 1 17986105438859879439
5283173 99 18336820897234959653
574716 61 15430033309442249363
633830 44 13695584459917221781
9709674 26 18129948849541231644

> <PUBCHEM_SHAPE_MULTIPOLES>
508.69
11.66
2.86
1.83
4.32
1.02
-0.04
-2.69
2.32
1.89
-1.02
-1.1
-0.56
1.53

> <PUBCHEM_SHAPE_SELFOVERLAP>
1063.495

> <PUBCHEM_SHAPE_VOLUME>
289.5

> <PUBCHEM_COORDINATE_TYPE>
2
5
10

$$$$
