101511558
  -OEChem-03292013293D

 55 57  0     1  0  0  0  0  0999 V2000
    3.4928   -0.6701    0.3162 O   0  0  0  0  0  0  0  0  0  0  0  0
    5.7950   -3.3169   -0.7364 O   0  0  0  0  0  0  0  0  0  0  0  0
    7.5583   -1.2475    0.2456 O   0  0  0  0  0  0  0  0  0  0  0  0
    3.7504    1.6324    0.5909 O   0  0  0  0  0  0  0  0  0  0  0  0
    6.4271    1.4173   -0.3019 O   0  0  0  0  0  0  0  0  0  0  0  0
    1.6468   -2.6181   -0.2783 O   0  0  0  0  0  0  0  0  0  0  0  0
   -2.4785    1.7722   -0.0905 O   0  0  0  0  0  0  0  0  0  0  0  0
   -4.3899    2.9936   -0.4836 O   0  0  0  0  0  0  0  0  0  0  0  0
   -6.5020   -2.9958    0.2309 O   0  0  0  0  0  0  0  0  0  0  0  0
   -7.9378   -0.6717   -0.2840 O   0  0  0  0  0  0  0  0  0  0  0  0
    5.3658   -2.1763    0.0026 C   0  0  1  0  0  0  0  0  0  0  0  0
    6.2740   -0.9908   -0.3247 C   0  0  1  0  0  0  0  0  0  0  0  0
    3.9112   -1.8607   -0.3537 C   0  0  1  0  0  0  0  0  0  0  0  0
    5.7133    0.3106    0.2487 C   0  0  2  0  0  0  0  0  0  0  0  0
    4.2330    0.4772   -0.0943 C   0  0  1  0  0  0  0  0  0  0  0  0
    2.9695   -2.9828    0.0715 C   0  0  0  0  0  0  0  0  0  0  0  0
    2.4335    1.9511    0.4013 C   0  0  0  0  0  0  0  0  0  0  0  0
    1.5629    1.9945    1.4902 C   0  0  0  0  0  0  0  0  0  0  0  0
    1.9614    2.2327   -0.8807 C   0  0  0  0  0  0  0  0  0  0  0  0
   -0.2518    2.6014    0.0153 C   0  0  0  0  0  0  0  0  0  0  0  0
    0.2202    2.3198    1.2973 C   0  0  0  0  0  0  0  0  0  0  0  0
    0.6187    2.5577   -1.0737 C   0  0  0  0  0  0  0  0  0  0  0  0
   -1.6873    2.9498   -0.1909 C   0  0  0  0  0  0  0  0  0  0  0  0
   -3.8194    1.9375   -0.2581 C   0  0  0  0  0  0  0  0  0  0  0  0
   -4.5292    0.6397   -0.1300 C   0  0  0  0  0  0  0  0  0  0  0  0
   -5.9162    0.5866   -0.2676 C   0  0  0  0  0  0  0  0  0  0  0  0
   -3.8089   -0.5265    0.1285 C   0  0  0  0  0  0  0  0  0  0  0  0
   -6.5830   -0.6327   -0.1469 C   0  0  0  0  0  0  0  0  0  0  0  0
   -5.8626   -1.7989    0.1116 C   0  0  0  0  0  0  0  0  0  0  0  0
   -4.4756   -1.7457    0.2494 C   0  0  0  0  0  0  0  0  0  0  0  0
   -5.6918   -4.1396    0.4955 C   0  0  0  0  0  0  0  0  0  0  0  0
    5.4534   -2.4246    1.0674 H   0  0  0  0  0  0  0  0  0  0  0  0
    6.4319   -0.9065   -1.4063 H   0  0  0  0  0  0  0  0  0  0  0  0
    3.7934   -1.7113   -1.4357 H   0  0  0  0  0  0  0  0  0  0  0  0
    5.8618    0.3473    1.3345 H   0  0  0  0  0  0  0  0  0  0  0  0
    4.1216    0.6246   -1.1766 H   0  0  0  0  0  0  0  0  0  0  0  0
    2.9993   -3.1269    1.1567 H   0  0  0  0  0  0  0  0  0  0  0  0
    3.2172   -3.9255   -0.4257 H   0  0  0  0  0  0  0  0  0  0  0  0
    5.7081   -3.1116   -1.6830 H   0  0  0  0  0  0  0  0  0  0  0  0
    7.4538   -1.3105    1.2103 H   0  0  0  0  0  0  0  0  0  0  0  0
    6.3080    1.4031   -1.2670 H   0  0  0  0  0  0  0  0  0  0  0  0
    1.0643   -3.3430    0.0057 H   0  0  0  0  0  0  0  0  0  0  0  0
    1.9251    1.7750    2.4909 H   0  0  0  0  0  0  0  0  0  0  0  0
    2.6271    2.2214   -1.7390 H   0  0  0  0  0  0  0  0  0  0  0  0
   -0.4494    2.3498    2.1528 H   0  0  0  0  0  0  0  0  0  0  0  0
    0.2654    2.7767   -2.0778 H   0  0  0  0  0  0  0  0  0  0  0  0
   -2.0021    3.6770    0.5684 H   0  0  0  0  0  0  0  0  0  0  0  0
   -1.8372    3.4094   -1.1758 H   0  0  0  0  0  0  0  0  0  0  0  0
   -6.4835    1.4921   -0.4692 H   0  0  0  0  0  0  0  0  0  0  0  0
   -2.7285   -0.5301    0.2428 H   0  0  0  0  0  0  0  0  0  0  0  0
   -3.8521   -2.6101    0.4504 H   0  0  0  0  0  0  0  0  0  0  0  0
   -8.2653    0.2271   -0.4594 H   0  0  0  0  0  0  0  0  0  0  0  0
   -5.1843   -4.0597    1.4630 H   0  0  0  0  0  0  0  0  0  0  0  0
   -4.9953   -4.3397   -0.3258 H   0  0  0  0  0  0  0  0  0  0  0  0
   -6.3634   -5.0021    0.5596 H   0  0  0  0  0  0  0  0  0  0  0  0
  1 13  1  0  0  0  0
  1 15  1  0  0  0  0
  2 11  1  0  0  0  0
  2 39  1  0  0  0  0
  3 12  1  0  0  0  0
  3 40  1  0  0  0  0
  4 15  1  0  0  0  0
  4 17  1  0  0  0  0
  5 14  1  0  0  0  0
  5 41  1  0  0  0  0
  6 16  1  0  0  0  0
  6 42  1  0  0  0  0
  7 23  1  0  0  0  0
  7 24  1  0  0  0  0
  8 24  2  0  0  0  0
  9 29  1  0  0  0  0
  9 31  1  0  0  0  0
 10 28  1  0  0  0  0
 10 52  1  0  0  0  0
 11 12  1  0  0  0  0
 11 13  1  0  0  0  0
 11 32  1  0  0  0  0
 12 14  1  0  0  0  0
 12 33  1  0  0  0  0
 13 16  1  0  0  0  0
 13 34  1  0  0  0  0
 14 15  1  0  0  0  0
 14 35  1  0  0  0  0
 15 36  1  0  0  0  0
 16 37  1  0  0  0  0
 16 38  1  0  0  0  0
 17 18  2  0  0  0  0
 17 19  1  0  0  0  0
 18 21  1  0  0  0  0
 18 43  1  0  0  0  0
 19 22  2  0  0  0  0
 19 44  1  0  0  0  0
 20 21  2  0  0  0  0
 20 22  1  0  0  0  0
 20 23  1  0  0  0  0
 21 45  1  0  0  0  0
 22 46  1  0  0  0  0
 23 47  1  0  0  0  0
 23 48  1  0  0  0  0
 24 25  1  0  0  0  0
 25 26  2  0  0  0  0
 25 27  1  0  0  0  0
 26 28  1  0  0  0  0
 26 49  1  0  0  0  0
 27 30  2  0  0  0  0
 27 50  1  0  0  0  0
 28 29  2  0  0  0  0
 29 30  1  0  0  0  0
 30 51  1  0  0  0  0
 31 53  1  0  0  0  0
 31 54  1  0  0  0  0
 31 55  1  0  0  0  0
M  END
> <PUBCHEM_COMPOUND_CID>
101511558

> <PUBCHEM_CONFORMER_RMSD>
1

> <PUBCHEM_CONFORMER_DIVERSEORDER>
1
56
52
128
112
9
16
86
75
114
61
23
33
97
98
117
25
81
102
55
64
91
74
26
94
29
108
8
127
67
18
90
31
92
111
62
48
47
72
73
34
96
101
69
110
24
49
119
60
79
84
65
113
11
80
38
82
39
109
21
70
123
43
10
30
14
32
76
116
28
125
12
59
4
105
99
45
53
50
20
83
85
19
77
42
44
121
126
122
87
107
41
120
2
95
40
51
6
3
54
15
57
17
46
71
66
7
103
124
68
5
89
93
58
106
100
35
37
104
118
115
78
36
22
88
27
13
63

> <PUBCHEM_MMFF94_PARTIAL_CHARGES>
43
1 -0.56
10 -0.53
11 0.28
12 0.28
13 0.28
14 0.28
15 0.56
16 0.28
17 0.08
18 -0.15
19 -0.15
2 -0.68
20 -0.14
21 -0.15
22 -0.15
23 0.42
24 0.63
25 0.09
26 -0.15
27 -0.15
28 0.08
29 0.08
3 -0.68
30 -0.15
31 0.28
39 0.4
4 -0.36
40 0.4
41 0.4
42 0.4
43 0.15
44 0.15
45 0.15
46 0.15
49 0.15
5 -0.68
50 0.15
51 0.15
52 0.45
6 -0.68
7 -0.43
8 -0.57
9 -0.36

> <PUBCHEM_EFFECTIVE_ROTOR_COUNT>
9.2

> <PUBCHEM_PHARMACOPHORE_FEATURES>
16
1 1 acceptor
1 10 donor
1 2 acceptor
1 2 donor
1 3 acceptor
1 3 donor
1 4 acceptor
1 5 acceptor
1 5 donor
1 6 acceptor
1 6 donor
1 8 acceptor
1 9 acceptor
6 1 11 12 13 14 15 rings
6 17 18 19 20 21 22 rings
6 25 26 27 28 29 30 rings

> <PUBCHEM_HEAVY_ATOM_COUNT>
31

> <PUBCHEM_ATOM_DEF_STEREO_COUNT>
5

> <PUBCHEM_ATOM_UDEF_STEREO_COUNT>
0

> <PUBCHEM_BOND_DEF_STEREO_COUNT>
0

> <PUBCHEM_BOND_UDEF_STEREO_COUNT>
0

> <PUBCHEM_ISOTOPIC_ATOM_COUNT>
0

> <PUBCHEM_COMPONENT_COUNT>
1

> <PUBCHEM_CACTVS_TAUTO_COUNT>
2

> <PUBCHEM_CONFORMER_ID>
060CF18600000001

> <PUBCHEM_MMFF94_ENERGY>
104.501

> <PUBCHEM_FEATURE_SELFOVERLAP>
81.264

> <PUBCHEM_SHAPE_FINGERPRINT>
10391435 84 18337378413817140905
11197282 1 18411139130128962607
11315621 136 18334295387650229532
11443803 9 17969786483719333164
117089 54 18118692256256482387
11796584 16 18266739091010912628
11963148 33 18189327992664973466
13402501 40 18410011035272142779
1361 4 18410575059452496310
13690498 29 18040431058579357549
14251751 18 18411140233798401277
14420673 8 18410575115767073713
14556957 393 14634860903876702349
15183329 4 18334575732928806737
15274700 208 16987427823992327944
15320467 1 18410292523403410723
15352257 5 18411698772814972329
20721686 56 18409167749368479683
20737093 269 13211934227714329843
21033650 10 16950840289940306253
21197605 99 18413108373240801230
21223535 225 15141242075002274605
23424784 1240 18129951065897409126
23559900 14 18409441523431716849
23569917 315 18197782095391799462
3004659 81 18040991890881773521
4073 2 18411136909346475953
437795 163 18336551607385786558
437795 51 17846212324222370512
439807 62 18410293605718585009
4435113 14 17987244321877780111
46194498 28 17749388208460437068
484989 97 18342179930568750946
54583773 228 18408328805317387900
6431902 208 18412258432902332669
7970288 3 18265614471731473477
8863177 126 18342453776712996105

> <PUBCHEM_SHAPE_MULTIPOLES>
579.27
21.24
4.85
0.87
7.14
2.23
0.13
17.13
-1.12
1.72
-0.03
-0.29
-0.41
1.44

> <PUBCHEM_SHAPE_SELFOVERLAP>
1233.459

> <PUBCHEM_SHAPE_VOLUME>
319.9

> <PUBCHEM_COORDINATE_TYPE>
2
5
10

$$$$
