REMARK  Name = 101563230
REMARK  7 active torsions:
REMARK  status: ('A' for Active; 'I' for Inactive)
REMARK    1  A    between atoms: C_3  and  C_19
REMARK    2  A    between atoms: C_11  and  C_16
REMARK    3  A    between atoms: C_16  and  O_17
REMARK    4  A    between atoms: C_19  and  O_21
REMARK    5  A    between atoms: O_21  and  C_23
REMARK    6  A    between atoms: C_23  and  C_24
REMARK    7  A    between atoms: C_26  and  O_31
REMARK                            x       y       z     vdW  Elec       q    Type
REMARK                         _______ _______ _______ _____ _____    ______ ____
ROOT
ATOM      1  N   UNL     1      -1.603  -0.945  -0.317  0.00  0.00    -0.401 NA
ATOM      2  N   UNL     1      -3.411   1.124  -0.130  0.00  0.00    -0.401 NA
ATOM      3  C   UNL     1       0.110   0.600  -0.881  0.00  0.00    +0.049 C 
ATOM      4  C   UNL     1      -1.213   0.319  -0.546  0.00  0.00    +0.160 C 
ATOM      5  C   UNL     1      -2.131   1.369  -0.452  0.00  0.00    +0.160 C 
ATOM      6  C   UNL     1       0.534   1.906  -1.123  0.00  0.00    +0.002 C 
ATOM      7  C   UNL     1      -3.801  -0.140   0.099  0.00  0.00    +0.149 C 
ATOM      8  C   UNL     1      -2.883  -1.191   0.004  0.00  0.00    +0.139 C 
ATOM      9  C   UNL     1      -1.702   2.672  -0.695  0.00  0.00    +0.035 C 
ATOM     10  C   UNL     1      -0.377   2.947  -1.030  0.00  0.00    +0.003 C 
ATOM     11  C   UNL     1      -5.124  -0.421   0.434  0.00  0.00    +0.175 C 
ATOM     12  C   UNL     1      -3.313  -2.494   0.247  0.00  0.00    +0.087 C 
ATOM     13  C   UNL     1      -5.548  -1.727   0.676  0.00  0.00    -0.012 C 
ATOM     14  C   UNL     1      -4.638  -2.769   0.582  0.00  0.00    -0.022 C 
ENDROOT
BRANCH  11  16
ATOM     15  O   UNL     1      -6.086   1.703  -0.100  0.00  0.00    -0.249 OA
ATOM     16  C   UNL     1      -6.108   0.650   0.541  0.00  0.00    +0.324 C 
BRANCH  16  17
ATOM     17  O   UNL     1      -7.084   0.367   1.444  0.00  0.00    -0.480 OA
ATOM     18  H   UNL     1      -7.068  -0.444   1.913  0.00  0.00    +0.295 HD
ENDBRANCH  16  17
ENDBRANCH  11  16
BRANCH   3  19
ATOM     19  C   UNL     1       1.115  -0.503  -0.989  0.00  0.00    +0.194 C 
ATOM     20  C   UNL     1       1.227  -1.060  -2.409  0.00  0.00    +0.053 C 
BRANCH  19  21
ATOM     21  O   UNL     1       2.401  -0.029  -0.577  0.00  0.00    -0.444 OA
BRANCH  21  23
ATOM     22  O   UNL     1       2.956  -2.134   0.170  0.00  0.00    -0.245 OA
ATOM     23  C   UNL     1       3.217  -0.955  -0.013  0.00  0.00    +0.344 C 
BRANCH  23  24
ATOM     24  C   UNL     1       4.513  -0.340   0.369  0.00  0.00    +0.105 C 
ATOM     25  C   UNL     1       5.705  -0.811  -0.181  0.00  0.00    -0.013 C 
ATOM     26  C   UNL     1       4.536   0.714   1.283  0.00  0.00    +0.140 C 
ATOM     27  C   UNL     1       6.920  -0.229   0.182  0.00  0.00    -0.004 C 
ATOM     28  C   UNL     1       5.712  -1.938  -1.163  0.00  0.00    +0.031 C 
ATOM     29  C   UNL     1       5.751   1.296   1.646  0.00  0.00    +0.037 C 
ATOM     30  C   UNL     1       6.942   0.825   1.095  0.00  0.00    +0.003 C 
BRANCH  26  31
ATOM     31  O   UNL     1       3.384   1.192   1.833  0.00  0.00    -0.505 OA
ATOM     32  H   UNL     1       2.560   0.811   1.599  0.00  0.00    +0.292 HD
ENDBRANCH  26  31
ENDBRANCH  23  24
ENDBRANCH  21  23
ENDBRANCH  19  21
ENDBRANCH   3  19
TORSDOF 7
