101516508
  -OEChem-03292013293D

 59 62  0     1  0  0  0  0  0999 V2000
    0.1731    1.8459   -1.1085 O   0  0  0  0  0  0  0  0  0  0  0  0
   -3.1559   -0.8069   -2.0054 O   0  0  0  0  0  0  0  0  0  0  0  0
   -1.4803   -2.7333   -0.3346 O   0  0  0  0  0  0  0  0  0  0  0  0
   -4.9932    1.0787   -0.8484 O   0  0  0  0  0  0  0  0  0  0  0  0
   -5.0594   -1.2268   -0.1100 O   0  0  0  0  0  0  0  0  0  0  0  0
    1.3423    2.8691    0.6351 O   0  0  0  0  0  0  0  0  0  0  0  0
    3.0632    1.8173   -0.4693 O   0  0  0  0  0  0  0  0  0  0  0  0
    6.2729   -1.2657   -0.1812 O   0  0  0  0  0  0  0  0  0  0  0  0
   -1.3850   -0.1893   -0.4552 C   0  0  2  0  0  0  0  0  0  0  0  0
   -1.0551    0.6199    0.7532 C   0  0  1  0  0  0  0  0  0  0  0  0
    0.5849    0.5660    0.8053 C   0  0  1  0  0  0  0  0  0  0  0  0
   -2.9473   -0.2704   -0.6918 C   0  0  1  0  0  0  0  0  0  0  0  0
   -0.6610   -1.5938   -0.1044 C   0  0  1  0  0  0  0  0  0  0  0  0
    0.6498   -0.3616    2.0043 C   0  0  1  0  0  0  0  0  0  0  0  0
   -1.8006    1.9854    0.9194 C   0  0  0  0  0  0  0  0  0  0  0  0
   -0.0429   -1.7057    1.4128 C   0  0  0  0  0  0  0  0  0  0  0  0
   -0.6553    0.6614   -1.5920 C   0  0  0  0  0  0  0  0  0  0  0  0
   -3.5800    1.1529   -0.6500 C   0  0  2  0  0  0  0  0  0  0  0  0
   -3.3001    1.8487    0.6813 C   0  0  0  0  0  0  0  0  0  0  0  0
    1.7542   -0.0796   -0.1049 C   0  0  0  0  0  0  0  0  0  0  0  0
    0.7608    1.9021    0.1728 C   0  0  0  0  0  0  0  0  0  0  0  0
   -3.7103   -1.1909    0.2943 C   0  0  0  0  0  0  0  0  0  0  0  0
    2.0017   -0.6348    2.6642 C   0  0  0  0  0  0  0  0  0  0  0  0
    3.0698    0.5648    0.2181 C   0  0  1  0  0  0  0  0  0  0  0  0
    4.2913   -0.2059   -0.2260 C   0  0  0  0  0  0  0  0  0  0  0  0
   -5.8501   -2.0538    0.7407 C   0  0  0  0  0  0  0  0  0  0  0  0
    4.5693   -0.6863   -1.5280 C   0  0  0  0  0  0  0  0  0  0  0  0
    5.3576   -0.5840    0.5564 C   0  0  0  0  0  0  0  0  0  0  0  0
    5.7856   -1.3236   -1.4484 C   0  0  0  0  0  0  0  0  0  0  0  0
   -1.5090    0.0954    1.6074 H   0  0  0  0  0  0  0  0  0  0  0  0
    0.1435   -1.7406   -0.8278 H   0  0  0  0  0  0  0  0  0  0  0  0
    0.0369    0.0259    2.8313 H   0  0  0  0  0  0  0  0  0  0  0  0
   -1.4594    2.7698    0.2387 H   0  0  0  0  0  0  0  0  0  0  0  0
   -1.6244    2.3672    1.9328 H   0  0  0  0  0  0  0  0  0  0  0  0
    0.6682   -2.5418    1.4266 H   0  0  0  0  0  0  0  0  0  0  0  0
   -0.8502   -2.0100    2.0927 H   0  0  0  0  0  0  0  0  0  0  0  0
   -0.0446    0.0446   -2.2580 H   0  0  0  0  0  0  0  0  0  0  0  0
   -1.3785    1.1403   -2.2550 H   0  0  0  0  0  0  0  0  0  0  0  0
   -3.2086    1.7702   -1.4737 H   0  0  0  0  0  0  0  0  0  0  0  0
   -3.7778    1.3209    1.5141 H   0  0  0  0  0  0  0  0  0  0  0  0
   -3.7621    2.8442    0.6806 H   0  0  0  0  0  0  0  0  0  0  0  0
    1.6091    0.0031   -1.1836 H   0  0  0  0  0  0  0  0  0  0  0  0
    1.8777   -1.1559    0.0533 H   0  0  0  0  0  0  0  0  0  0  0  0
   -3.6294   -0.8419    1.3282 H   0  0  0  0  0  0  0  0  0  0  0  0
   -3.3872   -2.2253    0.2704 H   0  0  0  0  0  0  0  0  0  0  0  0
    2.7018   -1.2167    2.0630 H   0  0  0  0  0  0  0  0  0  0  0  0
    1.8256   -1.2545    3.5537 H   0  0  0  0  0  0  0  0  0  0  0  0
    2.4609    0.2846    3.0382 H   0  0  0  0  0  0  0  0  0  0  0  0
   -2.9731   -0.1179   -2.6645 H   0  0  0  0  0  0  0  0  0  0  0  0
    3.2065    0.8363    1.2619 H   0  0  0  0  0  0  0  0  0  0  0  0
   -0.9600   -3.5225   -0.1070 H   0  0  0  0  0  0  0  0  0  0  0  0
   -5.3424    1.9858   -0.8197 H   0  0  0  0  0  0  0  0  0  0  0  0
    3.8749    2.2952   -0.2262 H   0  0  0  0  0  0  0  0  0  0  0  0
   -6.8823   -2.0251    0.3818 H   0  0  0  0  0  0  0  0  0  0  0  0
   -5.8260   -1.6783    1.7682 H   0  0  0  0  0  0  0  0  0  0  0  0
   -5.4967   -3.0888    0.7065 H   0  0  0  0  0  0  0  0  0  0  0  0
    3.9626   -0.5831   -2.4163 H   0  0  0  0  0  0  0  0  0  0  0  0
    5.6041   -0.4535    1.6002 H   0  0  0  0  0  0  0  0  0  0  0  0
    6.4069   -1.8410   -2.1648 H   0  0  0  0  0  0  0  0  0  0  0  0
  1 17  1  0  0  0  0
  1 21  1  0  0  0  0
  2 12  1  0  0  0  0
  2 49  1  0  0  0  0
  3 13  1  0  0  0  0
  3 51  1  0  0  0  0
  4 18  1  0  0  0  0
  4 52  1  0  0  0  0
  5 22  1  0  0  0  0
  5 26  1  0  0  0  0
  6 21  2  0  0  0  0
  7 24  1  0  0  0  0
  7 53  1  0  0  0  0
  8 28  1  0  0  0  0
  8 29  1  0  0  0  0
  9 10  1  0  0  0  0
  9 12  1  0  0  0  0
  9 13  1  0  0  0  0
  9 17  1  0  0  0  0
 10 11  1  0  0  0  0
 10 15  1  0  0  0  0
 10 30  1  0  0  0  0
 11 14  1  0  0  0  0
 11 20  1  0  0  0  0
 11 21  1  0  0  0  0
 12 18  1  0  0  0  0
 12 22  1  0  0  0  0
 13 16  1  0  0  0  0
 13 31  1  0  0  0  0
 14 16  1  0  0  0  0
 14 23  1  0  0  0  0
 14 32  1  0  0  0  0
 15 19  1  0  0  0  0
 15 33  1  0  0  0  0
 15 34  1  0  0  0  0
 16 35  1  0  0  0  0
 16 36  1  0  0  0  0
 17 37  1  0  0  0  0
 17 38  1  0  0  0  0
 18 19  1  0  0  0  0
 18 39  1  0  0  0  0
 19 40  1  0  0  0  0
 19 41  1  0  0  0  0
 20 24  1  0  0  0  0
 20 42  1  0  0  0  0
 20 43  1  0  0  0  0
 22 44  1  0  0  0  0
 22 45  1  0  0  0  0
 23 46  1  0  0  0  0
 23 47  1  0  0  0  0
 23 48  1  0  0  0  0
 24 25  1  0  0  0  0
 24 50  1  0  0  0  0
 25 27  1  0  0  0  0
 25 28  2  0  0  0  0
 26 54  1  0  0  0  0
 26 55  1  0  0  0  0
 26 56  1  0  0  0  0
 27 29  2  0  0  0  0
 27 57  1  0  0  0  0
 28 58  1  0  0  0  0
 29 59  1  0  0  0  0
M  END
> <PUBCHEM_COMPOUND_CID>
101516508

> <PUBCHEM_CONFORMER_RMSD>
0.8

> <PUBCHEM_CONFORMER_DIVERSEORDER>
1
3
2

> <PUBCHEM_MMFF94_PARTIAL_CHARGES>
28
1 -0.43
11 0.06
12 0.28
13 0.28
17 0.28
18 0.28
2 -0.68
21 0.66
22 0.28
24 0.46
25 -0.18
26 0.28
27 -0.15
28 -0.01
29 -0.01
3 -0.68
4 -0.68
49 0.4
5 -0.56
51 0.4
52 0.4
53 0.4
57 0.15
58 0.15
59 0.15
6 -0.57
7 -0.68
8 -0.28

> <PUBCHEM_EFFECTIVE_ROTOR_COUNT>
6.8

> <PUBCHEM_PHARMACOPHORE_FEATURES>
15
1 2 acceptor
1 2 donor
1 3 acceptor
1 3 donor
1 4 acceptor
1 4 donor
1 5 acceptor
1 6 acceptor
1 7 acceptor
1 7 donor
1 8 acceptor
5 8 25 27 28 29 rings
6 1 9 10 11 17 21 rings
6 9 10 11 13 14 16 rings
6 9 10 12 15 18 19 rings

> <PUBCHEM_HEAVY_ATOM_COUNT>
29

> <PUBCHEM_ATOM_DEF_STEREO_COUNT>
8

> <PUBCHEM_ATOM_UDEF_STEREO_COUNT>
0

> <PUBCHEM_BOND_DEF_STEREO_COUNT>
0

> <PUBCHEM_BOND_UDEF_STEREO_COUNT>
0

> <PUBCHEM_ISOTOPIC_ATOM_COUNT>
0

> <PUBCHEM_COMPONENT_COUNT>
1

> <PUBCHEM_CACTVS_TAUTO_COUNT>
1

> <PUBCHEM_CONFORMER_ID>
060D04DC00000001

> <PUBCHEM_MMFF94_ENERGY>
253.1751

> <PUBCHEM_FEATURE_SELFOVERLAP>
76.999

> <PUBCHEM_SHAPE_FINGERPRINT>
10190108 129 17386585672996181763
10366900 7 15647049387089341565
10863032 1 18129103316351047841
11578080 2 16842472659485625602
11961588 58 13551470422971586123
12011746 2 17458341979209445539
12035759 4 18261106344707510818
12236239 1 17894629228155635602
12422481 6 17273724008027953787
12633257 1 15051730923441887061
12788726 201 17774176676644262256
12969540 114 15357701924282313118
13544653 18 16558750092503889964
13583140 156 15912747471368507324
13782708 43 18336549438406852411
14251751 93 18339924792542317709
14955137 171 18341899623321900721
15209289 33 18412265034061350897
15788980 27 17703788115534440756
1601671 61 18335132038789542105
16945 1 18269254902795871483
17349148 13 18060147535252442468
17980427 23 13840270243563754055
1813 80 17845950579892400508
19784866 140 18335419084201698835
200 152 16988842736094857806
20600515 1 13973965441072327160
21033648 29 16987981817920649593
21267235 1 18411145748414979431
22393880 68 18187072958471394885
23227448 37 11819861629651551390
23402539 116 18410575042267404396
23559900 14 18130779097079907248
2838139 119 13912320183779803118
296302 2 8070034363118502393
3004659 81 18261115162966407606
3383291 50 18411701006436187802
350125 39 18409172125770939873
404807 14 16263793784503107822
4058900 60 17678454152729788849
463206 1 17417807396087453238
5104073 3 18202848759648896320
59755656 215 18268429040698861125
9709674 26 18271522125810866196
9981440 41 17476347779036808464

> <PUBCHEM_SHAPE_MULTIPOLES>
549.85
11.36
2.37
1.7
6.06
0.38
0.42
-5.53
-3.13
-1.44
0.22
0.65
-0.31
0.45

> <PUBCHEM_SHAPE_SELFOVERLAP>
1188.729

> <PUBCHEM_SHAPE_VOLUME>
295.1

> <PUBCHEM_COORDINATE_TYPE>
2
5
10

$$$$
