REMARK  Name = 101564886
REMARK  6 active torsions:
REMARK  status: ('A' for Active; 'I' for Inactive)
REMARK    1  A    between atoms: C_5  and  O_23
REMARK    2  A    between atoms: C_6  and  O_27
REMARK    3  A    between atoms: C_13  and  O_19
REMARK    4  A    between atoms: C_14  and  O_21
REMARK    5  A    between atoms: O_23  and  C_25
REMARK    6  A    between atoms: O_27  and  C_29
REMARK                            x       y       z     vdW  Elec       q    Type
REMARK                         _______ _______ _______ _____ _____    ______ ____
ROOT
ATOM      1  O   UNL     1      -0.803  -1.642   0.963  0.00  0.00    -0.331 OA
ATOM      2  O   UNL     1      -0.497  -1.229  -1.385  0.00  0.00    -0.324 OA
ATOM      3  O   UNL     1       3.690  -1.708  -1.426  0.00  0.00    -0.289 OA
ATOM      4  C   UNL     1      -0.998  -0.728  -0.135  0.00  0.00    +0.267 C 
ATOM      5  C   UNL     1      -0.245   0.592   0.177  0.00  0.00    +0.242 C 
ATOM      6  C   UNL     1      -2.514  -0.455  -0.283  0.00  0.00    +0.224 C 
ATOM      7  C   UNL     1       1.257   0.445   0.045  0.00  0.00    +0.004 C 
ATOM      8  C   UNL     1      -3.301  -1.752  -0.454  0.00  0.00    +0.051 C 
ATOM      9  C   UNL     1       1.758  -0.592  -0.648  0.00  0.00    +0.040 C 
ATOM     10  C   UNL     1       2.110   1.524   0.666  0.00  0.00    +0.058 C 
ATOM     11  C   UNL     1      -1.474  -2.899   0.813  0.00  0.00    +0.118 C 
ATOM     12  C   UNL     1      -2.983  -2.704   0.689  0.00  0.00    +0.034 C 
ATOM     13  C   UNL     1       3.547   1.545   0.140  0.00  0.00    +0.146 C 
ATOM     14  C   UNL     1       4.147   0.138   0.058  0.00  0.00    +0.167 C 
ATOM     15  C   UNL     1       0.886  -1.596  -1.346  0.00  0.00    +0.174 C 
ATOM     16  C   UNL     1       3.239  -0.786  -0.747  0.00  0.00    +0.197 C 
ATOM     17  C   UNL     1      -1.130  -3.748   2.029  0.00  0.00    +0.032 C 
ATOM     18  C   UNL     1       5.568   0.140  -0.508  0.00  0.00    +0.040 C 
ENDROOT
BRANCH  13  19
ATOM     19  O   UNL     1       3.549   2.182  -1.137  0.00  0.00    -0.381 OA
ATOM     20  H   UNL     1       3.164   3.069  -1.056  0.00  0.00    +0.210 HD
ENDBRANCH  13  19
BRANCH  14  21
ATOM     21  O   UNL     1       4.185  -0.446   1.359  0.00  0.00    -0.377 OA
ATOM     22  H   UNL     1       3.291  -0.455   1.735  0.00  0.00    +0.211 HD
ENDBRANCH  14  21
BRANCH   5  23
ATOM     23  O   UNL     1      -0.603   1.018   1.490  0.00  0.00    -0.443 OA
BRANCH  23  25
ATOM     24  O   UNL     1      -1.439   2.995   0.635  0.00  0.00    -0.250 OA
ATOM     25  C   UNL     1      -1.195   2.246   1.572  0.00  0.00    +0.318 C 
ATOM     26  C   UNL     1      -1.514   2.560   3.002  0.00  0.00    +0.121 C 
ENDBRANCH  23  25
ENDBRANCH   5  23
BRANCH   6  27
ATOM     27  O   UNL     1      -2.759   0.398  -1.396  0.00  0.00    -0.447 OA
BRANCH  27  29
ATOM     28  O   UNL     1      -4.631   1.255  -0.348  0.00  0.00    -0.250 OA
ATOM     29  C   UNL     1      -3.858   1.205  -1.295  0.00  0.00    +0.318 C 
ATOM     30  C   UNL     1      -3.990   2.042  -2.531  0.00  0.00    +0.121 C 
ENDBRANCH  27  29
ENDBRANCH   6  27
TORSDOF 6
