REMARK  Name = 101594575
REMARK  5 active torsions:
REMARK  status: ('A' for Active; 'I' for Inactive)
REMARK    1  A    between atoms: CA_2  and  C_10
REMARK    2  A    between atoms: CA_5  and  C_14
REMARK    3  A    between atoms: C_7  and  C_18
REMARK    4  A    between atoms: C_10  and  O_11
REMARK    5  A    between atoms: C_14  and  O_15
REMARK                            x       y       z     vdW  Elec       q    Type
REMARK                         _______ _______ _______ _____ _____    ______ ____
ROOT
ATOM      1  N   UNL     1      -1.597   0.006   0.625  0.00  0.00    -0.320 N 
ATOM      2  CA  UNL     1      -1.121   1.365   0.806  0.00  0.00    +0.174 C 
ATOM      3  C   UNL     1       0.359   1.369   1.226  0.00  0.00    +0.057 C 
ATOM      4  C   UNL     1       1.212   0.353   0.484  0.00  0.00    -0.015 C 
ATOM      5  CA  UNL     1      -0.769  -1.023   0.247  0.00  0.00    +0.121 C 
ATOM      6  C   UNL     1       0.564  -0.905   0.141  0.00  0.00    +0.017 C 
ATOM      7  C   UNL     1       2.495   0.591   0.177  0.00  0.00    +0.041 C 
ATOM      8  H   UNL     1      -2.550  -0.186   0.780  0.00  0.00    +0.147 HD
ENDROOT
BRANCH   2  10
ATOM      9  OXT UNL     1      -1.783   1.614  -1.504  0.00  0.00    -0.248 OA
ATOM     10  C   UNL     1      -1.328   2.103  -0.481  0.00  0.00    +0.332 C 
BRANCH  10  11
ATOM     11  O   UNL     1      -0.940   3.396  -0.359  0.00  0.00    -0.479 OA
ATOM     12  H   UNL     1      -0.598   3.708   0.456  0.00  0.00    +0.295 HD
ENDBRANCH  10  11
ENDBRANCH   2  10
BRANCH   5  14
ATOM     13  OXT UNL     1      -0.749  -3.293  -0.457  0.00  0.00    -0.244 OA
ATOM     14  C   UNL     1      -1.373  -2.314  -0.088  0.00  0.00    +0.351 C 
BRANCH  14  15
ATOM     15  O   UNL     1      -2.711  -2.245   0.077  0.00  0.00    -0.476 OA
ATOM     16  H   UNL     1      -3.107  -1.447   0.366  0.00  0.00    +0.295 HD
ENDBRANCH  14  15
ENDBRANCH   5  14
BRANCH   7  18
ATOM     17  O   UNL     1       4.476  -0.567  -0.371  0.00  0.00    -0.283 OA
ATOM     18  C   UNL     1       3.266  -0.448  -0.524  0.00  0.00    +0.234 C 
ENDBRANCH   7  18
TORSDOF 5
