101545712
  -OEChem-03292013293D

 36 38  0     1  0  0  0  0  0999 V2000
    2.6173   -1.3755    1.5481 S   0  0  0  0  0  0  0  0  0  0  0  0
    1.7547    1.3558   -1.7347 O   0  0  0  0  0  0  0  0  0  0  0  0
    5.9350   -1.7931   -0.9982 O   0  0  0  0  0  0  0  0  0  0  0  0
    5.8938    0.1541    0.1861 O   0  0  0  0  0  0  0  0  0  0  0  0
   -0.8620    2.2350   -0.2207 O   0  0  0  0  0  0  0  0  0  0  0  0
   -3.2162    1.0435    0.3294 O   0  0  0  0  0  0  0  0  0  0  0  0
    3.2998    0.4695   -0.1869 N   0  0  0  0  0  0  0  0  0  0  0  0
    0.3437    0.7110    1.0550 N   0  0  0  0  0  0  0  0  0  0  0  0
    2.8809    0.4147    1.2197 C   0  0  1  0  0  0  0  0  0  0  0  0
    1.6648    1.2728    0.8157 C   0  0  1  0  0  0  0  0  0  0  0  0
    3.8599   -0.7185   -0.7802 C   0  0  2  0  0  0  0  0  0  0  0  0
    2.1815    1.1183   -0.6273 C   0  0  0  0  0  0  0  0  0  0  0  0
    3.1248   -1.8913   -0.1432 C   0  0  0  0  0  0  0  0  0  0  0  0
    5.3221   -0.7090   -0.4632 C   0  0  0  0  0  0  0  0  0  0  0  0
   -0.8256    1.2476    0.5084 C   0  0  0  0  0  0  0  0  0  0  0  0
   -2.0628    0.4762    0.9137 C   0  0  0  0  0  0  0  0  0  0  0  0
   -4.2598    0.1935    0.0483 C   0  0  0  0  0  0  0  0  0  0  0  0
   -4.4654   -0.9417    0.8321 C   0  0  0  0  0  0  0  0  0  0  0  0
   -5.1130    0.4669   -1.0208 C   0  0  0  0  0  0  0  0  0  0  0  0
   -5.5242   -1.8039    0.5469 C   0  0  0  0  0  0  0  0  0  0  0  0
   -6.1717   -0.3952   -1.3061 C   0  0  0  0  0  0  0  0  0  0  0  0
   -6.3774   -1.5307   -0.5223 C   0  0  0  0  0  0  0  0  0  0  0  0
    3.5912    0.9026    1.8938 H   0  0  0  0  0  0  0  0  0  0  0  0
    1.7289    2.3083    1.1720 H   0  0  0  0  0  0  0  0  0  0  0  0
    3.7229   -0.6920   -1.8664 H   0  0  0  0  0  0  0  0  0  0  0  0
    2.2043   -2.1031   -0.6976 H   0  0  0  0  0  0  0  0  0  0  0  0
    3.7162   -2.8095   -0.0933 H   0  0  0  0  0  0  0  0  0  0  0  0
    0.2485   -0.1093    1.6494 H   0  0  0  0  0  0  0  0  0  0  0  0
   -1.8988   -0.5579    0.5823 H   0  0  0  0  0  0  0  0  0  0  0  0
   -2.1506    0.5096    2.0055 H   0  0  0  0  0  0  0  0  0  0  0  0
    6.8959   -1.8051   -0.8015 H   0  0  0  0  0  0  0  0  0  0  0  0
   -3.8402   -1.1751    1.6889 H   0  0  0  0  0  0  0  0  0  0  0  0
   -4.9574    1.3497   -1.6347 H   0  0  0  0  0  0  0  0  0  0  0  0
   -5.6885   -2.6848    1.1607 H   0  0  0  0  0  0  0  0  0  0  0  0
   -6.8362   -0.1823   -2.1384 H   0  0  0  0  0  0  0  0  0  0  0  0
   -7.2027   -2.2011   -0.7436 H   0  0  0  0  0  0  0  0  0  0  0  0
  1  9  1  0  0  0  0
  1 13  1  0  0  0  0
  2 12  2  0  0  0  0
  3 14  1  0  0  0  0
  3 31  1  0  0  0  0
  4 14  2  0  0  0  0
  5 15  2  0  0  0  0
  6 16  1  0  0  0  0
  6 17  1  0  0  0  0
  7  9  1  0  0  0  0
  7 11  1  0  0  0  0
  7 12  1  0  0  0  0
  8 10  1  0  0  0  0
  8 15  1  0  0  0  0
  8 28  1  0  0  0  0
  9 10  1  0  0  0  0
  9 23  1  0  0  0  0
 10 12  1  0  0  0  0
 10 24  1  0  0  0  0
 11 13  1  0  0  0  0
 11 14  1  0  0  0  0
 11 25  1  0  0  0  0
 13 26  1  0  0  0  0
 13 27  1  0  0  0  0
 15 16  1  0  0  0  0
 16 29  1  0  0  0  0
 16 30  1  0  0  0  0
 17 18  2  0  0  0  0
 17 19  1  0  0  0  0
 18 20  1  0  0  0  0
 18 32  1  0  0  0  0
 19 21  2  0  0  0  0
 19 33  1  0  0  0  0
 20 22  2  0  0  0  0
 20 34  1  0  0  0  0
 21 22  1  0  0  0  0
 21 35  1  0  0  0  0
 22 36  1  0  0  0  0
M  END
> <PUBCHEM_COMPOUND_CID>
101545712

> <PUBCHEM_CONFORMER_RMSD>
0.8

> <PUBCHEM_CONFORMER_DIVERSEORDER>
1
44
18
24
3
25
40
67
83
35
41
49
37
79
11
76
13
65
74
27
54
12
22
77
42
86
2
69
4
59
80
10
29
64
15
19
57
50
45
23
9
48
60
16
73
84
70
39
71
32
81
53
43
87
51
78
26
55
30
72
20
75
68
7
56
38
5
21
52
46
31
58
85
6
28
34
47
14
82
8
17
61
36
62
33
63
66

> <PUBCHEM_MMFF94_PARTIAL_CHARGES>
29
1 -0.45
10 0.28
11 0.36
12 0.58
13 0.23
14 0.66
15 0.57
16 0.34
17 0.08
18 -0.15
19 -0.15
2 -0.57
20 -0.15
21 -0.15
22 -0.15
28 0.37
3 -0.65
31 0.5
32 0.15
33 0.15
34 0.15
35 0.15
36 0.15
4 -0.57
5 -0.57
6 -0.36
7 -0.59
8 -0.65
9 0.44

> <PUBCHEM_EFFECTIVE_ROTOR_COUNT>
6.8

> <PUBCHEM_PHARMACOPHORE_FEATURES>
10
1 2 acceptor
1 3 acceptor
1 4 acceptor
1 5 acceptor
1 6 acceptor
1 8 donor
3 3 4 14 anion
4 7 9 10 12 rings
6 17 18 19 20 21 22 rings
7 1 7 9 10 11 12 13 rings

> <PUBCHEM_HEAVY_ATOM_COUNT>
22

> <PUBCHEM_ATOM_DEF_STEREO_COUNT>
3

> <PUBCHEM_ATOM_UDEF_STEREO_COUNT>
0

> <PUBCHEM_BOND_DEF_STEREO_COUNT>
0

> <PUBCHEM_BOND_UDEF_STEREO_COUNT>
0

> <PUBCHEM_ISOTOPIC_ATOM_COUNT>
0

> <PUBCHEM_COMPONENT_COUNT>
1

> <PUBCHEM_CACTVS_TAUTO_COUNT>
2

> <PUBCHEM_CONFORMER_ID>
060D76F000000001

> <PUBCHEM_MMFF94_ENERGY>
60.1393

> <PUBCHEM_FEATURE_SELFOVERLAP>
54.783

> <PUBCHEM_SHAPE_FINGERPRINT>
10693767 8 18041556915668604186
11069576 57 17096914785792414354
11545043 162 17060056999928847345
11724838 91 9439394727780133009
11796584 16 18200597969067836509
12403259 118 12607405507806560011
12596602 18 15769771381845394291
12633257 1 15554443028866577437
13464513 79 18343302561451333554
13583140 156 13973683872075919129
13668630 136 18413108372940140431
13955234 65 17559384962792111288
14123256 34 18131077025622537775
14341114 176 11455897953155962892
14528608 73 16008744745342549555
14576447 43 18260267421788740570
14848160 23 18272929436285695253
14849402 71 13254215242953793082
15183329 4 17749380452471556309
15188451 53 15267049381680795061
15238133 3 10231747916596731082
15348495 7 12319445624020433047
15728490 51 17774996955795191886
17349148 13 17632301207202920783
17844677 252 17846781832295226337
17857418 61 18131070433295994591
17870717 6 18186517722885690715
18222031 100 18341325656513698945
193927 3 18130797762965161625
19784866 240 18342463638258367113
20281389 69 8358257038193281999
20645477 70 18409729603387549529
21033650 10 17313380081318110709
21054139 6 18187366519575747554
21623969 137 17704356562908981262
21637258 2 18271523092484436890
21774942 28 14635135794974451086
22061861 79 18410849984799220623
22289505 5 15864066568294713076
23522609 53 17629795423765867536
23559900 14 18335135453452430345
239999 70 18412542145773438200
25122255 55 18271815626796551047
2838139 119 13190337989208028727
2871803 45 18260831479806755466
2916195 48 8358257042947250053
29717793 49 18334860523668041205
3004659 81 18259981591720498785
351380 3 18060699502927190559
46194498 28 17603870047731060957
465052 167 17775568658206244748
5104073 3 16917352510819510745
5718773 13 18268993086365275942
59682541 35 17917418849141736578
7495541 125 17275100622540505720
7808743 9 8070018948502080013
960060 61 17385721387619638267

> <PUBCHEM_SHAPE_MULTIPOLES>
417.29
16.54
1.92
1.34
11.47
0.22
-0.02
8.83
-4.95
-0.18
-0.04
-0.24
0.05
0.42

> <PUBCHEM_SHAPE_SELFOVERLAP>
877.241

> <PUBCHEM_SHAPE_VOLUME>
235.8

> <PUBCHEM_COORDINATE_TYPE>
2
5
10

$$$$
