REMARK  Name = 101587611
REMARK  4 active torsions:
REMARK  status: ('A' for Active; 'I' for Inactive)
REMARK    1  A    between atoms: N_2  and  C1*_17
REMARK    2  A    between atoms: C3*_19  and  O3*_21
REMARK    3  A    between atoms: C4*_20  and  C5*_23
REMARK    4  A    between atoms: C5*_23  and  O5*_24
REMARK                            x       y       z     vdW  Elec       q    Type
REMARK                         _______ _______ _______ _____ _____    ______ ____
ROOT
ATOM      1  O   UNL     1      -2.885   2.763  -0.533  0.00  0.00    -0.268 OA
ATOM      2  N   UNL     1       0.894   0.317   0.109  0.00  0.00    -0.209 NA
ATOM      3  N   UNL     1      -1.250  -0.877   0.261  0.00  0.00    -0.253 N 
ATOM      4  N   UNL     1      -3.139   0.547  -0.091  0.00  0.00    -0.211 N 
ATOM      5  N   UNL     1       0.107   2.370  -0.337  0.00  0.00    -0.249 NA
ATOM      6  N   UNL     1      -3.598  -1.600   0.333  0.00  0.00    -0.380 NA
ATOM      7  C   UNL     1      -0.463   0.215   0.074  0.00  0.00    +0.186 C 
ATOM      8  C   UNL     1      -0.918   1.484  -0.199  0.00  0.00    +0.143 C 
ATOM      9  C   UNL     1       1.188   1.637  -0.146  0.00  0.00    +0.204 C 
ATOM     10  C   UNL     1      -2.619  -0.728   0.186  0.00  0.00    +0.248 C 
ATOM     11  C   UNL     1      -2.341   1.694  -0.295  0.00  0.00    +0.272 C 
ATOM     12  C   UNL     1      -0.702  -2.194   0.545  0.00  0.00    +0.117 C 
ATOM     13  C   UNL     1      -4.503   0.434  -0.116  0.00  0.00    +0.156 C 
ATOM     14  C   UNL     1      -4.758  -0.891   0.148  0.00  0.00    +0.111 C 
ATOM     15  C   UNL     1      -6.064  -1.561   0.240  0.00  0.00    +0.063 C 
ENDROOT
BRANCH   2  17
ATOM     16  O4* UNL     1       3.089  -0.190   1.039  0.00  0.00    -0.338 OA
ATOM     17  C1* UNL     1       1.939  -0.746   0.367  0.00  0.00    +0.182 C 
ATOM     18  C2* UNL     1       2.450  -1.404  -0.912  0.00  0.00    +0.079 C 
ATOM     19  C3* UNL     1       3.764  -0.698  -1.158  0.00  0.00    +0.144 C 
ATOM     20  C4* UNL     1       4.260  -0.485   0.262  0.00  0.00    +0.173 C 
BRANCH  19  21
ATOM     21  O3* UNL     1       4.643  -1.498  -1.921  0.00  0.00    -0.382 OA
ATOM     22  H3* UNL     1       4.286  -1.606  -2.816  0.00  0.00    +0.210 HD
ENDBRANCH  19  21
BRANCH  20  23
ATOM     23  C5* UNL     1       5.261   0.648   0.393  0.00  0.00    +0.169 C 
BRANCH  23  24
ATOM     24  O5* UNL     1       5.644   0.761   1.752  0.00  0.00    -0.379 OA
ATOM     25  H5* UNL     1       6.284   1.483   1.849  0.00  0.00    +0.211 HD
ENDBRANCH  23  24
ENDBRANCH  20  23
ENDBRANCH   2  17
TORSDOF 4
