REMARK  Name = 101542783
REMARK  14 active torsions:
REMARK  status: ('A' for Active; 'I' for Inactive)
REMARK    1  A    between atoms: C_1  and  C_2
REMARK    2  A    between atoms: C_1  and  C_12
REMARK    3  A    between atoms: C_1  and  C_22
REMARK    4  A    between atoms: C_5  and  O_8
REMARK    5  A    between atoms: C_7  and  O_10
REMARK    6  A    between atoms: C_15  and  O_18
REMARK    7  A    between atoms: C_17  and  O_20
REMARK    8  A    between atoms: C_22  and  O_23
REMARK    9  A    between atoms: C_22  and  C_25
REMARK   10  A    between atoms: C_22  and  C_32
REMARK   11  A    between atoms: C_25  and  O_27
REMARK   12  A    between atoms: C_25  and  C_29
REMARK   13  A    between atoms: C_29  and  O_30
REMARK   14  A    between atoms: C_32  and  O_33
REMARK                            x       y       z     vdW  Elec       q    Type
REMARK                         _______ _______ _______ _____ _____    ______ ____
ROOT
ATOM      1  C   UNL     1      -0.285  -0.778  -0.191  0.00  0.00    +0.074 C 
ENDROOT
BRANCH   1   2
ATOM      2  C   UNL     1       0.795   0.307  -0.265  0.00  0.00    -0.013 C 
ATOM      3  C   UNL     1       1.187   0.980   0.891  0.00  0.00    +0.036 C 
ATOM      4  C   UNL     1       1.386   0.620  -1.489  0.00  0.00    -0.001 C 
ATOM      5  C   UNL     1       2.171   1.967   0.824  0.00  0.00    +0.172 C 
ATOM      6  C   UNL     1       2.370   1.606  -1.557  0.00  0.00    +0.040 C 
ATOM      7  C   UNL     1       2.762   2.280  -0.400  0.00  0.00    +0.172 C 
BRANCH   5   8
ATOM      8  O   UNL     1       2.548   2.616   1.961  0.00  0.00    -0.468 OA
ATOM      9  C   UNL     1       1.894   2.236   3.170  0.00  0.00    +0.253 C 
ENDBRANCH   5   8
BRANCH   7  10
ATOM     10  O   UNL     1       3.725   3.241  -0.478  0.00  0.00    -0.468 OA
ATOM     11  C   UNL     1       4.278   3.500  -1.767  0.00  0.00    +0.253 C 
ENDBRANCH   7  10
ENDBRANCH   1   2
BRANCH   1  12
ATOM     12  C   UNL     1      -1.639  -0.127   0.122  0.00  0.00    -0.013 C 
ATOM     13  C   UNL     1      -2.387   0.456  -0.901  0.00  0.00    +0.036 C 
ATOM     14  C   UNL     1      -2.123  -0.120   1.431  0.00  0.00    -0.001 C 
ATOM     15  C   UNL     1      -3.618   1.046  -0.616  0.00  0.00    +0.172 C 
ATOM     16  C   UNL     1      -3.355   0.470   1.715  0.00  0.00    +0.039 C 
ATOM     17  C   UNL     1      -4.102   1.053   0.692  0.00  0.00    +0.168 C 
BRANCH  15  18
ATOM     18  O   UNL     1      -4.340   1.610  -1.625  0.00  0.00    -0.468 OA
ATOM     19  C   UNL     1      -3.773   1.560  -2.933  0.00  0.00    +0.253 C 
ENDBRANCH  15  18
BRANCH  17  20
ATOM     20  O   UNL     1      -5.303   1.626   0.982  0.00  0.00    -0.503 OA
ATOM     21  H   UNL     1      -5.811   2.020   0.301  0.00  0.00    +0.292 HD
ENDBRANCH  17  20
ENDBRANCH   1  12
BRANCH   1  22
ATOM     22  C   UNL     1       0.071  -2.125   0.592  0.00  0.00    +0.147 C 
BRANCH  22  23
ATOM     23  O   UNL     1       0.154  -1.863   2.000  0.00  0.00    -0.381 OA
ATOM     24  H   UNL     1       0.856  -1.215   2.167  0.00  0.00    +0.210 HD
ENDBRANCH  22  23
BRANCH  22  25
ATOM     25  C   UNL     1       1.444  -2.796   0.137  0.00  0.00    +0.140 C 
ATOM     26  C   UNL     1       1.813  -4.039   0.975  0.00  0.00    +0.034 C 
BRANCH  25  27
ATOM     27  O   UNL     1       2.524  -1.871   0.335  0.00  0.00    -0.382 OA
ATOM     28  H   UNL     1       2.353  -1.060  -0.170  0.00  0.00    +0.210 HD
ENDBRANCH  25  27
BRANCH  25  29
ATOM     29  C   UNL     1       1.467  -3.155  -1.364  0.00  0.00    +0.166 C 
BRANCH  29  30
ATOM     30  O   UNL     1       2.755  -3.621  -1.764  0.00  0.00    -0.379 OA
ATOM     31  H   UNL     1       2.741  -3.839  -2.709  0.00  0.00    +0.211 HD
ENDBRANCH  29  30
ENDBRANCH  25  29
ENDBRANCH  22  25
BRANCH  22  32
ATOM     32  C   UNL     1      -1.078  -3.168   0.439  0.00  0.00    +0.167 C 
BRANCH  32  33
ATOM     33  O   UNL     1      -1.340  -3.514  -0.916  0.00  0.00    -0.379 OA
ATOM     34  H   UNL     1      -2.060  -4.163  -0.951  0.00  0.00    +0.211 HD
ENDBRANCH  32  33
ENDBRANCH  22  32
ENDBRANCH   1  22
TORSDOF 14
