101542783
  -OEChem-03292013293D

 57 58  0     1  0  0  0  0  0999 V2000
    0.1536   -1.8629    1.9996 O   0  0  0  0  0  0  0  0  0  0  0  0
    2.5244   -1.8708    0.3350 O   0  0  0  0  0  0  0  0  0  0  0  0
   -1.3397   -3.5137   -0.9165 O   0  0  0  0  0  0  0  0  0  0  0  0
    2.7550   -3.6211   -1.7636 O   0  0  0  0  0  0  0  0  0  0  0  0
    2.5477    2.6160    1.9610 O   0  0  0  0  0  0  0  0  0  0  0  0
   -4.3395    1.6102   -1.6247 O   0  0  0  0  0  0  0  0  0  0  0  0
    3.7246    3.2409   -0.4782 O   0  0  0  0  0  0  0  0  0  0  0  0
   -5.3032    1.6264    0.9824 O   0  0  0  0  0  0  0  0  0  0  0  0
    0.0707   -2.1246    0.5923 C   0  0  2  0  0  0  0  0  0  0  0  0
    1.4442   -2.7958    0.1365 C   0  0  1  0  0  0  0  0  0  0  0  0
   -0.2853   -0.7776   -0.1911 C   0  0  2  0  0  0  0  0  0  0  0  0
   -1.0781   -3.1678    0.4388 C   0  0  0  0  0  0  0  0  0  0  0  0
    1.4668   -3.1552   -1.3641 C   0  0  0  0  0  0  0  0  0  0  0  0
    0.7947    0.3068   -0.2654 C   0  0  0  0  0  0  0  0  0  0  0  0
   -1.6394   -0.1273    0.1224 C   0  0  0  0  0  0  0  0  0  0  0  0
    1.8128   -4.0390    0.9750 C   0  0  0  0  0  0  0  0  0  0  0  0
    1.1873    0.9804    0.8912 C   0  0  0  0  0  0  0  0  0  0  0  0
   -2.3867    0.4560   -0.9008 C   0  0  0  0  0  0  0  0  0  0  0  0
    1.3859    0.6197   -1.4894 C   0  0  0  0  0  0  0  0  0  0  0  0
   -2.1233   -0.1201    1.4306 C   0  0  0  0  0  0  0  0  0  0  0  0
    2.1712    1.9670    0.8239 C   0  0  0  0  0  0  0  0  0  0  0  0
   -3.6180    1.0462   -0.6161 C   0  0  0  0  0  0  0  0  0  0  0  0
    2.3698    1.6062   -1.5568 C   0  0  0  0  0  0  0  0  0  0  0  0
   -3.3547    0.4704    1.7154 C   0  0  0  0  0  0  0  0  0  0  0  0
    2.7624    2.2798   -0.4002 C   0  0  0  0  0  0  0  0  0  0  0  0
   -4.1020    1.0534    0.6921 C   0  0  0  0  0  0  0  0  0  0  0  0
    1.8938    2.2362    3.1704 C   0  0  0  0  0  0  0  0  0  0  0  0
   -3.7733    1.5602   -2.9328 C   0  0  0  0  0  0  0  0  0  0  0  0
    4.2783    3.5003   -1.7670 C   0  0  0  0  0  0  0  0  0  0  0  0
   -0.4141   -1.1249   -1.2266 H   0  0  0  0  0  0  0  0  0  0  0  0
   -0.8664   -4.0862    0.9952 H   0  0  0  0  0  0  0  0  0  0  0  0
   -2.0092   -2.7897    0.8732 H   0  0  0  0  0  0  0  0  0  0  0  0
    0.7746   -3.9631   -1.6032 H   0  0  0  0  0  0  0  0  0  0  0  0
    1.2474   -2.2930   -1.9953 H   0  0  0  0  0  0  0  0  0  0  0  0
    1.8376   -3.8145    2.0461 H   0  0  0  0  0  0  0  0  0  0  0  0
    2.8256   -4.3825    0.7310 H   0  0  0  0  0  0  0  0  0  0  0  0
    1.1323   -4.8769    0.8028 H   0  0  0  0  0  0  0  0  0  0  0  0
    0.0837   -2.7016    2.4846 H   0  0  0  0  0  0  0  0  0  0  0  0
    2.5333   -1.6283    1.2769 H   0  0  0  0  0  0  0  0  0  0  0  0
    0.7006    0.7009    1.8174 H   0  0  0  0  0  0  0  0  0  0  0  0
   -1.9622    0.4224   -1.8984 H   0  0  0  0  0  0  0  0  0  0  0  0
    1.0882    0.1103   -2.4017 H   0  0  0  0  0  0  0  0  0  0  0  0
   -1.5792   -0.5235    2.2721 H   0  0  0  0  0  0  0  0  0  0  0  0
   -2.0673   -4.1586   -0.9116 H   0  0  0  0  0  0  0  0  0  0  0  0
    2.7028   -3.8275   -2.7125 H   0  0  0  0  0  0  0  0  0  0  0  0
    2.7837    1.7972   -2.5408 H   0  0  0  0  0  0  0  0  0  0  0  0
   -3.7172    0.4759    2.7400 H   0  0  0  0  0  0  0  0  0  0  0  0
   -5.4749    1.5364    1.9355 H   0  0  0  0  0  0  0  0  0  0  0  0
    2.3148    2.8532    3.9711 H   0  0  0  0  0  0  0  0  0  0  0  0
    2.1020    1.1929    3.4318 H   0  0  0  0  0  0  0  0  0  0  0  0
    0.8205    2.4524    3.1348 H   0  0  0  0  0  0  0  0  0  0  0  0
   -3.6654    0.5293   -3.2872 H   0  0  0  0  0  0  0  0  0  0  0  0
   -2.8346    2.1220   -2.9886 H   0  0  0  0  0  0  0  0  0  0  0  0
   -4.4792    2.0550   -3.6081 H   0  0  0  0  0  0  0  0  0  0  0  0
    5.0261    4.2906   -1.6432 H   0  0  0  0  0  0  0  0  0  0  0  0
    3.5227    3.8836   -2.4611 H   0  0  0  0  0  0  0  0  0  0  0  0
    4.8037    2.6250   -2.1640 H   0  0  0  0  0  0  0  0  0  0  0  0
  1  9  1  0  0  0  0
  1 38  1  0  0  0  0
  2 10  1  0  0  0  0
  2 39  1  0  0  0  0
  3 12  1  0  0  0  0
  3 44  1  0  0  0  0
  4 13  1  0  0  0  0
  4 45  1  0  0  0  0
  5 21  1  0  0  0  0
  5 27  1  0  0  0  0
  6 22  1  0  0  0  0
  6 28  1  0  0  0  0
  7 25  1  0  0  0  0
  7 29  1  0  0  0  0
  8 26  1  0  0  0  0
  8 48  1  0  0  0  0
  9 10  1  0  0  0  0
  9 11  1  0  0  0  0
  9 12  1  0  0  0  0
 10 13  1  0  0  0  0
 10 16  1  0  0  0  0
 11 14  1  0  0  0  0
 11 15  1  0  0  0  0
 11 30  1  0  0  0  0
 12 31  1  0  0  0  0
 12 32  1  0  0  0  0
 13 33  1  0  0  0  0
 13 34  1  0  0  0  0
 14 17  2  0  0  0  0
 14 19  1  0  0  0  0
 15 18  2  0  0  0  0
 15 20  1  0  0  0  0
 16 35  1  0  0  0  0
 16 36  1  0  0  0  0
 16 37  1  0  0  0  0
 17 21  1  0  0  0  0
 17 40  1  0  0  0  0
 18 22  1  0  0  0  0
 18 41  1  0  0  0  0
 19 23  2  0  0  0  0
 19 42  1  0  0  0  0
 20 24  2  0  0  0  0
 20 43  1  0  0  0  0
 21 25  2  0  0  0  0
 22 26  2  0  0  0  0
 23 25  1  0  0  0  0
 23 46  1  0  0  0  0
 24 26  1  0  0  0  0
 24 47  1  0  0  0  0
 27 49  1  0  0  0  0
 27 50  1  0  0  0  0
 27 51  1  0  0  0  0
 28 52  1  0  0  0  0
 28 53  1  0  0  0  0
 28 54  1  0  0  0  0
 29 55  1  0  0  0  0
 29 56  1  0  0  0  0
 29 57  1  0  0  0  0
M  END
> <PUBCHEM_COMPOUND_CID>
101542783

> <PUBCHEM_CONFORMER_RMSD>
1

> <PUBCHEM_CONFORMER_DIVERSEORDER>
3
139
100
94
86
87
78
111
98
120
144
93
30
91
137
138
18
57
142
95
101
127
13
143
24
131
76
5
115
97
117
123
128
90
8
114
32
79
73
82
135
84
121
109
141
50
124
99
7
105
53
14
55
85
119
22
41
70
129
68
59
51
118
110
35
71
26
72
134
132
75
36
31
29
52
133
108
63
33
104
6
17
116
10
66
58
126
28
60
81
21
77
102
92
140
74
122
39
54
67
80
27
20
11
56
103
130
88
113
89
48
125
16
42
64
62
2
112
12
106
46
96
83
44
9
107
37
25
1
19
43
38
23
49
65
40
15
136
4
45
61
47
34
69

> <PUBCHEM_MMFF94_PARTIAL_CHARGES>
39
1 -0.68
10 0.28
11 0.29
12 0.28
13 0.28
14 -0.14
15 -0.14
17 -0.15
18 -0.15
19 -0.15
2 -0.68
20 -0.15
21 0.08
22 0.08
23 -0.15
24 -0.15
25 0.08
26 0.08
27 0.28
28 0.28
29 0.28
3 -0.68
38 0.4
39 0.4
4 -0.68
40 0.15
41 0.15
42 0.15
43 0.15
44 0.4
45 0.4
46 0.15
47 0.15
48 0.45
5 -0.36
6 -0.36
7 -0.36
8 -0.53
9 0.28

> <PUBCHEM_EFFECTIVE_ROTOR_COUNT>
9

> <PUBCHEM_PHARMACOPHORE_FEATURES>
14
1 1 acceptor
1 1 donor
1 2 acceptor
1 2 donor
1 3 acceptor
1 3 donor
1 4 acceptor
1 4 donor
1 5 acceptor
1 6 acceptor
1 7 acceptor
1 8 donor
6 14 17 19 21 23 25 rings
6 15 18 20 22 24 26 rings

> <PUBCHEM_HEAVY_ATOM_COUNT>
29

> <PUBCHEM_ATOM_DEF_STEREO_COUNT>
0

> <PUBCHEM_ATOM_UDEF_STEREO_COUNT>
3

> <PUBCHEM_BOND_DEF_STEREO_COUNT>
0

> <PUBCHEM_BOND_UDEF_STEREO_COUNT>
0

> <PUBCHEM_ISOTOPIC_ATOM_COUNT>
0

> <PUBCHEM_COMPONENT_COUNT>
1

> <PUBCHEM_CACTVS_TAUTO_COUNT>
12

> <PUBCHEM_CONFORMER_ID>
060D6B7F00000003

> <PUBCHEM_MMFF94_ENERGY>
131.2634

> <PUBCHEM_FEATURE_SELFOVERLAP>
71.072

> <PUBCHEM_SHAPE_FINGERPRINT>
10165383 225 18051162411903263145
10930396 42 17831542464027997250
11582403 64 16196449040851374776
12160290 23 17691110952503281410
12553582 1 17836926698953331887
12788726 201 17545029872197127986
13134695 92 18050557452795273119
13140716 1 18335711584612763258
13149001 5 18265071157699487063
13294875 104 18272652350728696768
133893 2 18189872297537290367
13681431 1 18052256198096624254
13911987 19 17832743121191458470
14955137 171 17984151365947173819
15230672 131 18117014346236454492
16752209 62 17760916742622571226
17980427 23 17415813852672723179
1813 80 17697883570568875999
20600515 1 17906171750325692739
21120745 212 16676998487367419420
21304303 282 17120520437040931316
22907989 373 17760926646548052964
23419403 2 17544429156633410568
23559900 14 17897722068718587077
238 59 18263632992500506167
25222932 49 15545931774154975037
283562 15 17906454681549459039
350125 39 18265342874462729706
35225 105 17835220612998503156
469060 322 17828207928543722131
495365 180 18191567693528983117
5252454 2 18340216288046832777
5265222 85 17832455320639887812
5895379 119 16555949494496379593
6443956 14 17981890731047514099
81228 2 17475520950128011274
9981440 41 16052917770923017528

> <PUBCHEM_SHAPE_MULTIPOLES>
549.85
7.34
5.23
2.44
5.74
4.8
0.36
-8.34
-1.73
-5.29
-0.92
-0.01
-1.5
0.7

> <PUBCHEM_SHAPE_SELFOVERLAP>
1155.384

> <PUBCHEM_SHAPE_VOLUME>
309.1

> <PUBCHEM_COORDINATE_TYPE>
2
5
10

$$$$
