REMARK  Name = 101587910
REMARK  12 active torsions:
REMARK  status: ('A' for Active; 'I' for Inactive)
REMARK    1  A    between atoms: C_1  and  C_5
REMARK    2  A    between atoms: C_2  and  C_18
REMARK    3  A    between atoms: C_4  and  C_9
REMARK    4  A    between atoms: C_7  and  C_15
REMARK    5  A    between atoms: C_15  and  O_16
REMARK    6  A    between atoms: C_18  and  C_19
REMARK    7  A    between atoms: C_19  and  C_20
REMARK    8  A    between atoms: C_20  and  C_24
REMARK    9  A    between atoms: N_23  and  C_24
REMARK   10  A    between atoms: N_23  and  C_25
REMARK   11  A    between atoms: C_25  and  C_26
REMARK   12  A    between atoms: C_26  and  S_27
REMARK                            x       y       z     vdW  Elec       q    Type
REMARK                         _______ _______ _______ _____ _____    ______ ____
ROOT
ATOM      1  C   UNL     1       0.553  -1.614   1.040  0.00  0.00    -0.026 C 
ATOM      2  C   UNL     1       1.410  -2.415   0.372  0.00  0.00    -0.030 C 
ATOM      3  C   UNL     1       0.774  -1.128   2.449  0.00  0.00    +0.031 C 
ENDROOT
BRANCH   1   5
ATOM      4  C   UNL     1      -1.632  -0.393   0.868  0.00  0.00    -0.005 C 
ATOM      5  C   UNL     1      -0.673  -1.184   0.362  0.00  0.00    -0.005 C 
BRANCH   4   9
ATOM      6  O   UNL     1      -3.984   1.008  -3.112  0.00  0.00    -0.292 OA
ATOM      7  C   UNL     1      -4.128   0.016   0.948  0.00  0.00    +0.046 C 
ATOM      8  C   UNL     1      -5.357  -0.047   0.012  0.00  0.00    +0.015 C 
ATOM      9  C   UNL     1      -2.823  -0.013   0.125  0.00  0.00    -0.022 C 
ATOM     10  C   UNL     1      -5.276   0.955  -1.120  0.00  0.00    +0.069 C 
ATOM     11  C   UNL     1      -4.177   1.307   1.793  0.00  0.00    +0.007 C 
ATOM     12  C   UNL     1      -2.766   0.297  -1.192  0.00  0.00    +0.009 C 
ATOM     13  C   UNL     1      -4.010   0.751  -1.908  0.00  0.00    +0.169 C 
ATOM     14  C   UNL     1      -1.542   0.290  -2.074  0.00  0.00    +0.034 C 
BRANCH   7  15
ATOM     15  C   UNL     1      -4.262  -1.199   1.902  0.00  0.00    +0.141 C 
BRANCH  15  16
ATOM     16  O   UNL     1      -4.261  -2.369   1.114  0.00  0.00    -0.382 OA
ATOM     17  H   UNL     1      -4.344  -3.145   1.689  0.00  0.00    +0.210 HD
ENDBRANCH  15  16
ENDBRANCH   7  15
ENDBRANCH   4   9
ENDBRANCH   1   5
BRANCH   2  18
ATOM     18  C   UNL     1       2.720  -2.989   0.838  0.00  0.00    +0.026 C 
BRANCH  18  19
ATOM     19  C   UNL     1       3.914  -2.066   0.547  0.00  0.00    +0.014 C 
BRANCH  19  20
ATOM     20  C   UNL     1       4.163  -1.788  -0.950  0.00  0.00    +0.079 C 
ATOM     21  C   UNL     1       5.643  -1.463  -1.189  0.00  0.00    +0.010 C 
BRANCH  20  23
ATOM     22  O   UNL     1       2.494  -0.956  -2.486  0.00  0.00    -0.273 OA
ATOM     23  C   UNL     1       3.255  -0.660  -1.537  0.00  0.00    +0.241 C 
BRANCH  23  24
ATOM     24  N   UNL     1       3.442   0.471  -0.925  0.00  0.00    -0.204 NA
BRANCH  24  25
ATOM     25  C   UNL     1       2.663   1.628  -1.356  0.00  0.00    +0.141 C 
BRANCH  25  26
ATOM     26  C   UNL     1       3.038   2.839  -0.524  0.00  0.00    +0.181 C 
BRANCH  26  27
ATOM     27  S   UNL     1       2.737   2.586   1.198  0.00  0.00    +0.024 S 
ATOM     28  O   UNL     1       2.900   4.138   1.671  0.00  0.00    -0.069 OA
ATOM     29  O   UNL     1       3.829   1.810   1.757  0.00  0.00    -0.069 OA
ATOM     30  O   UNL     1       1.353   2.187   1.376  0.00  0.00    -0.069 OA
ENDBRANCH  26  27
ENDBRANCH  25  26
ENDBRANCH  24  25
ENDBRANCH  23  24
ENDBRANCH  20  23
ENDBRANCH  19  20
ENDBRANCH  18  19
ENDBRANCH   2  18
TORSDOF 12
