REMARK  Name = 101574727
REMARK  7 active torsions:
REMARK  status: ('A' for Active; 'I' for Inactive)
REMARK    1  A    between atoms: C_6  and  C_12
REMARK    2  A    between atoms: C_8  and  O_22
REMARK    3  A    between atoms: C_9  and  C_24
REMARK    4  A    between atoms: C_15  and  O_18
REMARK    5  A    between atoms: C_17  and  O_20
REMARK    6  A    between atoms: C_25  and  C_27
REMARK    7  A    between atoms: C_27  and  O_28
REMARK                            x       y       z     vdW  Elec       q    Type
REMARK                         _______ _______ _______ _____ _____    ______ ____
ROOT
ATOM      1  O   UNL     1      -0.529   3.424   1.079  0.00  0.00    -0.450 OA
ATOM      2  O   UNL     1       0.882   2.866   2.808  0.00  0.00    -0.250 OA
ATOM      3  C   UNL     1      -1.071   1.280   0.385  0.00  0.00    +0.058 C 
ATOM      4  C   UNL     1       0.299   1.227   1.097  0.00  0.00    +0.107 C 
ATOM      5  C   UNL     1       0.855   1.556  -1.350  0.00  0.00    +0.035 C 
ATOM      6  C   UNL     1       1.470   1.239   0.054  0.00  0.00    +0.036 C 
ATOM      7  C   UNL     1      -1.003   2.738  -0.095  0.00  0.00    +0.196 C 
ATOM      8  C   UNL     1       0.063   2.889  -1.218  0.00  0.00    +0.151 C 
ATOM      9  C   UNL     1      -1.141   0.328  -0.781  0.00  0.00    +0.026 C 
ATOM     10  C   UNL     1      -0.153   0.469  -1.679  0.00  0.00    +0.007 C 
ATOM     11  C   UNL     1       0.268   2.568   1.796  0.00  0.00    +0.317 C 
ENDROOT
BRANCH   6  12
ATOM     12  C   UNL     1       2.349  -0.003   0.023  0.00  0.00    -0.019 C 
ATOM     13  C   UNL     1       1.817  -1.244   0.373  0.00  0.00    +0.036 C 
ATOM     14  C   UNL     1       3.688   0.100  -0.356  0.00  0.00    -0.001 C 
ATOM     15  C   UNL     1       2.623  -2.382   0.343  0.00  0.00    +0.167 C 
ATOM     16  C   UNL     1       4.494  -1.038  -0.385  0.00  0.00    +0.039 C 
ATOM     17  C   UNL     1       3.961  -2.279  -0.036  0.00  0.00    +0.167 C 
BRANCH  15  18
ATOM     18  O   UNL     1       2.090  -3.589   0.685  0.00  0.00    -0.503 OA
ATOM     19  H   UNL     1       1.190  -3.648   0.938  0.00  0.00    +0.292 HD
ENDBRANCH  15  18
BRANCH  17  20
ATOM     20  O   UNL     1       4.757  -3.384  -0.069  0.00  0.00    -0.503 OA
ATOM     21  H   UNL     1       4.407  -4.221   0.165  0.00  0.00    +0.292 HD
ENDBRANCH  17  20
ENDBRANCH   6  12
BRANCH   8  22
ATOM     22  O   UNL     1      -0.562   3.196  -2.461  0.00  0.00    -0.381 OA
ATOM     23  H   UNL     1       0.116   3.287  -3.149  0.00  0.00    +0.210 HD
ENDBRANCH   8  22
BRANCH   9  24
ATOM     24  C   UNL     1      -2.197  -0.633  -0.879  0.00  0.00    -0.020 C 
ATOM     25  C   UNL     1      -3.171  -0.750   0.036  0.00  0.00    +0.077 C 
BRANCH  25  27
ATOM     26  O   UNL     1      -4.310  -2.551  -1.072  0.00  0.00    -0.245 OA
ATOM     27  C   UNL     1      -4.228  -1.769  -0.139  0.00  0.00    +0.341 C 
BRANCH  27  28
ATOM     28  O   UNL     1      -5.076  -1.669   0.921  0.00  0.00    -0.441 OA
ATOM     29  C   UNL     1      -6.173  -2.588   0.920  0.00  0.00    +0.256 C 
ENDBRANCH  27  28
ENDBRANCH  25  27
ENDBRANCH   9  24
TORSDOF 7
