REMARK  Name = 101548960
REMARK  5 active torsions:
REMARK  status: ('A' for Active; 'I' for Inactive)
REMARK    1  A    between atoms: C_9  and  O_25
REMARK    2  A    between atoms: C_15  and  O_27
REMARK    3  A    between atoms: C_16  and  O_29
REMARK    4  A    between atoms: C_18  and  O_31
REMARK    5  A    between atoms: O_31  and  C_33
REMARK                            x       y       z     vdW  Elec       q    Type
REMARK                         _______ _______ _______ _____ _____    ______ ____
ROOT
ATOM      1  O   UNL     1      -0.278   2.540   1.693  0.00  0.00    -0.332 OA
ATOM      2  O   UNL     1       0.651  -2.165   0.894  0.00  0.00    -0.450 OA
ATOM      3  O   UNL     1      -4.861   0.339  -2.088  0.00  0.00    -0.294 OA
ATOM      4  O   UNL     1       2.403  -3.035  -0.196  0.00  0.00    -0.246 OA
ATOM      5  C   UNL     1       0.359   0.274   1.320  0.00  0.00    +0.073 C 
ATOM      6  C   UNL     1      -0.482   0.775   0.118  0.00  0.00    +0.062 C 
ATOM      7  C   UNL     1      -2.013   0.302   0.076  0.00  0.00    +0.036 C 
ATOM      8  C   UNL     1       1.900   0.390   1.028  0.00  0.00    +0.060 C 
ATOM      9  C   UNL     1      -0.167   2.285   0.275  0.00  0.00    +0.209 C 
ATOM     10  C   UNL     1       0.079  -1.155   1.767  0.00  0.00    +0.171 C 
ATOM     11  C   UNL     1      -2.087  -1.226   0.476  0.00  0.00    +0.007 C 
ATOM     12  C   UNL     1      -0.011   1.311   2.393  0.00  0.00    +0.148 C 
ATOM     13  C   UNL     1       2.323   1.863   0.717  0.00  0.00    +0.036 C 
ATOM     14  C   UNL     1      -1.412  -1.486   1.834  0.00  0.00    +0.044 C 
ATOM     15  C   UNL     1       1.287   2.596  -0.158  0.00  0.00    +0.161 C 
ATOM     16  C   UNL     1      -2.543   0.379  -1.399  0.00  0.00    +0.167 C 
ATOM     17  C   UNL     1      -3.531  -1.803   0.394  0.00  0.00    +0.008 C 
ATOM     18  C   UNL     1       2.318  -0.644  -0.021  0.00  0.00    +0.266 C 
ATOM     19  C   UNL     1      -2.946   1.159   0.975  0.00  0.00    +0.003 C 
ATOM     20  C   UNL     1      -4.080  -1.652  -1.030  0.00  0.00    +0.067 C 
ATOM     21  C   UNL     1      -3.928  -0.240  -1.532  0.00  0.00    +0.177 C 
ATOM     22  C   UNL     1       3.751   2.046   0.200  0.00  0.00    +0.003 C 
ATOM     23  C   UNL     1       1.821  -2.043   0.239  0.00  0.00    +0.358 C 
ATOM     24  C   UNL     1      -3.621  -3.283   0.785  0.00  0.00    +0.000 C 
ENDROOT
BRANCH   9  25
ATOM     25  O   UNL     1      -1.040   3.123  -0.461  0.00  0.00    -0.362 OA
ATOM     26  H   UNL     1      -1.957   2.942  -0.201  0.00  0.00    +0.213 HD
ENDBRANCH   9  25
BRANCH  15  27
ATOM     27  O   UNL     1       1.434   2.258  -1.536  0.00  0.00    -0.380 OA
ATOM     28  H   UNL     1       0.769   2.734  -2.058  0.00  0.00    +0.211 HD
ENDBRANCH  15  27
BRANCH  16  29
ATOM     29  O   UNL     1      -2.630   1.706  -1.881  0.00  0.00    -0.377 OA
ATOM     30  H   UNL     1      -1.762   2.133  -1.811  0.00  0.00    +0.211 HD
ENDBRANCH  16  29
BRANCH  18  31
ATOM     31  O   UNL     1       3.736  -0.780  -0.083  0.00  0.00    -0.441 OA
BRANCH  31  33
ATOM     32  O   UNL     1       3.594  -1.401  -2.303  0.00  0.00    -0.250 OA
ATOM     33  C   UNL     1       4.241  -1.167  -1.291  0.00  0.00    +0.318 C 
ATOM     34  C   UNL     1       5.734  -1.267  -1.208  0.00  0.00    +0.121 C 
ENDBRANCH  31  33
ENDBRANCH  18  31
TORSDOF 5
