REMARK  Name = 101532554
REMARK  11 active torsions:
REMARK  status: ('A' for Active; 'I' for Inactive)
REMARK    1  A    between atoms: C_5  and  O_23
REMARK    2  A    between atoms: C_6  and  O_17
REMARK    3  A    between atoms: C_7  and  O_29
REMARK    4  A    between atoms: C_11  and  C_20
REMARK    5  A    between atoms: C_20  and  O_21
REMARK    6  A    between atoms: O_23  and  C_25
REMARK    7  A    between atoms: C_25  and  C_26
REMARK    8  A    between atoms: O_29  and  C_31
REMARK    9  A    between atoms: C_31  and  C_32
REMARK   10  A    between atoms: C_32  and  C_35
REMARK   11  A    between atoms: C_35  and  O_36
REMARK                            x       y       z     vdW  Elec       q    Type
REMARK                         _______ _______ _______ _____ _____    ______ ____
ROOT
ATOM      1  O   UNL     1       3.146   1.286   1.047  0.00  0.00    -0.446 OA
ATOM      2  O   UNL     1       3.980   2.967  -0.283  0.00  0.00    -0.245 OA
ATOM      3  C   UNL     1       1.851   0.079  -0.531  0.00  0.00    +0.116 C 
ATOM      4  C   UNL     1       2.542  -0.018   0.835  0.00  0.00    +0.207 C 
ATOM      5  C   UNL     1       0.353   0.471  -0.468  0.00  0.00    +0.221 C 
ATOM      6  C   UNL     1       3.667  -1.071   0.937  0.00  0.00    +0.169 C 
ATOM      7  C   UNL     1      -0.550  -0.584   0.210  0.00  0.00    +0.237 C 
ATOM      8  C   UNL     1       2.676   1.143  -1.176  0.00  0.00    +0.060 C 
ATOM      9  C   UNL     1       3.285  -2.489   0.554  0.00  0.00    -0.014 C 
ATOM     10  C   UNL     1       3.360   1.930  -0.135  0.00  0.00    +0.337 C 
ATOM     11  C   UNL     1      -0.379  -1.982  -0.329  0.00  0.00    +0.092 C 
ATOM     12  C   UNL     1       2.450  -3.337   1.495  0.00  0.00    +0.029 C 
ATOM     13  C   UNL     1       0.960  -2.982   1.596  0.00  0.00    +0.030 C 
ATOM     14  C   UNL     1       0.253  -3.008   0.268  0.00  0.00    -0.020 C 
ATOM     15  C   UNL     1       2.849   1.379  -2.478  0.00  0.00    +0.002 C 
ATOM     16  C   UNL     1       3.755  -3.023  -0.588  0.00  0.00    -0.007 C 
ENDROOT
BRANCH   6  17
ATOM     17  O   UNL     1       4.156  -1.085   2.283  0.00  0.00    -0.377 OA
ATOM     18  H   UNL     1       4.406  -0.185   2.546  0.00  0.00    +0.211 HD
ENDBRANCH   6  17
BRANCH  11  20
ATOM     19  O   UNL     1      -0.606  -1.694  -2.671  0.00  0.00    -0.245 OA
ATOM     20  C   UNL     1      -0.937  -2.282  -1.658  0.00  0.00    +0.341 C 
BRANCH  20  21
ATOM     21  O   UNL     1      -1.837  -3.285  -1.526  0.00  0.00    -0.441 OA
ATOM     22  C   UNL     1      -2.472  -3.695  -2.742  0.00  0.00    +0.256 C 
ENDBRANCH  20  21
ENDBRANCH  11  20
BRANCH   5  23
ATOM     23  O   UNL     1       0.184   1.710   0.233  0.00  0.00    -0.448 OA
BRANCH  23  25
ATOM     24  O   UNL     1      -0.701   2.662  -1.673  0.00  0.00    -0.250 OA
ATOM     25  C   UNL     1      -0.359   2.727  -0.499  0.00  0.00    +0.316 C 
BRANCH  25  26
ATOM     26  C   UNL     1      -0.464   3.969   0.368  0.00  0.00    +0.099 C 
ATOM     27  C   UNL     1       0.920   4.364   0.871  0.00  0.00    +0.012 C 
ATOM     28  C   UNL     1      -1.112   5.115  -0.405  0.00  0.00    +0.012 C 
ENDBRANCH  25  26
ENDBRANCH  23  25
ENDBRANCH   5  23
BRANCH   7  29
ATOM     29  O   UNL     1      -1.913  -0.171   0.031  0.00  0.00    -0.441 OA
BRANCH  29  31
ATOM     30  O   UNL     1      -2.456  -1.061   2.082  0.00  0.00    -0.245 OA
ATOM     31  C   UNL     1      -2.759  -0.477   1.051  0.00  0.00    +0.340 C 
BRANCH  31  32
ATOM     32  C   UNL     1      -4.132   0.018   0.727  0.00  0.00    +0.078 C 
ATOM     33  C   UNL     1      -5.148  -0.691   1.256  0.00  0.00    -0.021 C 
ATOM     34  C   UNL     1      -6.612  -0.418   1.106  0.00  0.00    +0.031 C 
BRANCH  32  35
ATOM     35  C   UNL     1      -4.284   1.198  -0.189  0.00  0.00    +0.170 C 
BRANCH  35  36
ATOM     36  O   UNL     1      -3.667   2.334   0.401  0.00  0.00    -0.377 OA
ATOM     37  H   UNL     1      -3.764   3.097  -0.189  0.00  0.00    +0.211 HD
ENDBRANCH  35  36
ENDBRANCH  32  35
ENDBRANCH  31  32
ENDBRANCH  29  31
ENDBRANCH   7  29
TORSDOF 11
