101668700
  -OEChem-03292013293D

 31 31  0     1  0  0  0  0  0999 V2000
   -4.2507    2.7162   -0.0946 Cl  0  0  0  0  0  0  0  0  0  0  0  0
    0.5049   -3.5767   -0.8731 O   0  0  0  0  0  0  0  0  0  0  0  0
   -1.3814   -3.1449    0.3058 O   0  0  0  0  0  0  0  0  0  0  0  0
    2.7254    0.2288   -0.0475 N   0  0  0  0  0  0  0  0  0  0  0  0
    3.4736    2.3945    0.6736 N   0  0  0  0  0  0  0  0  0  0  0  0
    4.1870    1.5144   -1.3042 N   0  0  0  0  0  0  0  0  0  0  0  0
    0.2190   -1.3348   -0.0804 C   0  0  2  0  0  0  0  0  0  0  0  0
    1.1639   -1.2194    1.1331 C   0  0  0  0  0  0  0  0  0  0  0  0
   -0.9079   -0.3123   -0.0834 C   0  0  0  0  0  0  0  0  0  0  0  0
    1.9225    0.1058    1.1714 C   0  0  0  0  0  0  0  0  0  0  0  0
   -0.3258   -2.7557   -0.1767 C   0  0  0  0  0  0  0  0  0  0  0  0
   -1.3670    0.2157   -1.2902 C   0  0  0  0  0  0  0  0  0  0  0  0
   -1.4821    0.0970    1.1202 C   0  0  0  0  0  0  0  0  0  0  0  0
   -2.4000    1.1529   -1.2934 C   0  0  0  0  0  0  0  0  0  0  0  0
   -2.5151    1.0343    1.1171 C   0  0  0  0  0  0  0  0  0  0  0  0
   -2.9739    1.5622   -0.0897 C   0  0  0  0  0  0  0  0  0  0  0  0
    3.4075    1.3221   -0.1878 C   0  0  0  0  0  0  0  0  0  0  0  0
    0.8032   -1.1703   -0.9967 H   0  0  0  0  0  0  0  0  0  0  0  0
    0.6406   -1.3837    2.0813 H   0  0  0  0  0  0  0  0  0  0  0  0
    1.9008   -2.0329    1.0728 H   0  0  0  0  0  0  0  0  0  0  0  0
    2.5781    0.1010    2.0508 H   0  0  0  0  0  0  0  0  0  0  0  0
    1.2270    0.9459    1.2701 H   0  0  0  0  0  0  0  0  0  0  0  0
   -0.9300   -0.0961   -2.2350 H   0  0  0  0  0  0  0  0  0  0  0  0
   -1.1710   -0.3058    2.0779 H   0  0  0  0  0  0  0  0  0  0  0  0
   -2.7481    1.5551   -2.2413 H   0  0  0  0  0  0  0  0  0  0  0  0
   -2.9570    1.3402    2.0619 H   0  0  0  0  0  0  0  0  0  0  0  0
    0.1509   -4.4897   -0.9315 H   0  0  0  0  0  0  0  0  0  0  0  0
    4.2416    0.8104   -2.0323 H   0  0  0  0  0  0  0  0  0  0  0  0
    4.7283    2.3621   -1.4337 H   0  0  0  0  0  0  0  0  0  0  0  0
    2.9635    2.4177    1.5493 H   0  0  0  0  0  0  0  0  0  0  0  0
    4.0455    3.2038    0.4572 H   0  0  0  0  0  0  0  0  0  0  0  0
  1 16  1  0  0  0  0
  2 11  1  0  0  0  0
  2 27  1  0  0  0  0
  3 11  2  0  0  0  0
  4 10  1  0  0  0  0
  4 17  2  0  0  0  0
  5 17  1  0  0  0  0
  5 30  1  0  0  0  0
  5 31  1  0  0  0  0
  6 17  1  0  0  0  0
  6 28  1  0  0  0  0
  6 29  1  0  0  0  0
  7  8  1  0  0  0  0
  7  9  1  0  0  0  0
  7 11  1  0  0  0  0
  7 18  1  0  0  0  0
  8 10  1  0  0  0  0
  8 19  1  0  0  0  0
  8 20  1  0  0  0  0
  9 12  2  0  0  0  0
  9 13  1  0  0  0  0
 10 21  1  0  0  0  0
 10 22  1  0  0  0  0
 12 14  1  0  0  0  0
 12 23  1  0  0  0  0
 13 15  2  0  0  0  0
 13 24  1  0  0  0  0
 14 16  2  0  0  0  0
 14 25  1  0  0  0  0
 15 16  1  0  0  0  0
 15 26  1  0  0  0  0
M  END
> <PUBCHEM_COMPOUND_CID>
101668700

> <PUBCHEM_CONFORMER_RMSD>
0.6

> <PUBCHEM_CONFORMER_DIVERSEORDER>
2
90
157
12
161
139
71
115
151
59
39
158
138
64
65
102
21
67
60
145
141
137
82
154
33
49
143
134
50
83
140
133
95
72
3
87
70
127
25
85
15
77
79
91
94
111
9
47
123
148
130
162
100
96
40
81
97
135
89
4
20
160
152
55
128
43
146
104
34
37
121
98
156
7
1
86
112
11
118
125
106
8
63
93
61
119
57
30
78
144
105
26
74
150
147
101
17
116
54
42
38
73
109
29
68
153
16
149
80
45
36
159
84
13
35
66
56
76
41
75
48
69
129
131
99
142
5
163
117
120
92
52
14
19
88
164
132
124
23
6
10
108
58
155
103
110
114
126
46
113
18
44
107
31
53
24
122
28
136
22
32
51
62
27

> <PUBCHEM_MMFF94_PARTIAL_CHARGES>
25
1 -0.18
10 0.25
11 0.66
12 -0.15
13 -0.15
14 -0.15
15 -0.15
16 0.18
17 0.55
2 -0.65
23 0.15
24 0.15
25 0.15
26 0.15
27 0.5
28 0.4
29 0.4
3 -0.57
30 0.4
31 0.4
4 -0.7
5 -0.85
6 -0.85
7 0.2
9 -0.14

> <PUBCHEM_EFFECTIVE_ROTOR_COUNT>
5

> <PUBCHEM_PHARMACOPHORE_FEATURES>
7
1 2 acceptor
1 3 acceptor
1 5 donor
1 6 donor
3 2 3 11 anion
4 4 5 6 17 cation
6 9 12 13 14 15 16 rings

> <PUBCHEM_HEAVY_ATOM_COUNT>
17

> <PUBCHEM_ATOM_DEF_STEREO_COUNT>
0

> <PUBCHEM_ATOM_UDEF_STEREO_COUNT>
1

> <PUBCHEM_BOND_DEF_STEREO_COUNT>
0

> <PUBCHEM_BOND_UDEF_STEREO_COUNT>
0

> <PUBCHEM_ISOTOPIC_ATOM_COUNT>
0

> <PUBCHEM_COMPONENT_COUNT>
1

> <PUBCHEM_CACTVS_TAUTO_COUNT>
8

> <PUBCHEM_CONFORMER_ID>
060F575C00000002

> <PUBCHEM_MMFF94_ENERGY>
42.1633

> <PUBCHEM_FEATURE_SELFOVERLAP>
35.636

> <PUBCHEM_SHAPE_FINGERPRINT>
11221954 11 17317021568675328245
11725454 13 16518463913400254789
12173636 292 18340482369470163093
12788726 201 18046053028339477634
14123255 52 18411416206858903584
14142880 1 18043520810116031676
15342168 16 18334014947940147901
15490181 8 18268131107186282995
17134986 127 18411136892413675380
1741750 31 18339915008954548520
1813 80 16908066907558987719
18785283 64 18191312567543617642
19786989 88 18190451658982411233
20645476 183 18412536626434416584
20645477 56 18199197372186047496
21524375 3 18334005090841984282
22182937 141 18268995456464342200
2255824 54 17909545061069451399
23419403 2 17398167781894992930
23557571 272 17692527132607822624
23558518 356 18336808849572418570
23559900 14 17907571437966164185
23566358 27 18198059171529993919
3729539 64 17833866809838769446
458136 41 18269847436568768051
474 4 18194677077772981393
57210444 14 18342752801326810270
7364860 26 18051412859898726375
81228 2 17903356253492382202
8272917 22 18052820248084107705

> <PUBCHEM_SHAPE_MULTIPOLES>
325.04
6.43
3.59
1.28
0.01
2.85
0.04
-8.07
0.66
1.21
0.54
0.03
-0.15
-0.13

> <PUBCHEM_SHAPE_SELFOVERLAP>
657.223

> <PUBCHEM_SHAPE_VOLUME>
189.1

> <PUBCHEM_COORDINATE_TYPE>
2
5
10

$$$$
