REMARK  Name = 10163420
REMARK  9 active torsions:
REMARK  status: ('A' for Active; 'I' for Inactive)
REMARK    1  A    between atoms: C_1  and  S_21
REMARK    2  A    between atoms: C_2  and  N_29
REMARK    3  A    between atoms: C_5  and  N_8
REMARK    4  A    between atoms: C_6  and  O_32
REMARK    5  A    between atoms: C_9  and  C_13
REMARK    6  A    between atoms: C_18  and  O_19
REMARK    7  A    between atoms: S_21  and  N_24
REMARK    8  A    between atoms: N_24  and  C_25
REMARK    9  A    between atoms: N_24  and  C_27
REMARK                            x       y       z     vdW  Elec       q    Type
REMARK                         _______ _______ _______ _____ _____    ______ ____
ROOT
ATOM      1  C   UNL     1      -2.526   0.116  -0.748  0.00  0.00    +0.125 C 
ATOM      2  C   UNL     1      -2.276  -2.184  -0.131  0.00  0.00    +0.085 C 
ATOM      3  C   UNL     1      -3.096  -1.119  -0.504  0.00  0.00    +0.038 C 
ATOM      4  C   UNL     1      -1.164   0.325  -0.632  0.00  0.00    +0.038 C 
ATOM      5  C   UNL     1      -0.344  -0.739  -0.259  0.00  0.00    +0.088 C 
ATOM      6  C   UNL     1      -0.900  -1.994  -0.008  0.00  0.00    +0.165 C 
ENDROOT
BRANCH   5   8
ATOM      7  O   UNL     1       1.287   1.739  -0.688  0.00  0.00    -0.270 OA
ATOM      8  N   UNL     1       1.033  -0.533  -0.140  0.00  0.00    -0.278 N 
ATOM      9  C   UNL     1       1.747   0.652  -0.354  0.00  0.00    +0.250 C 
ATOM     10  H   UNL     1       1.566  -1.316   0.126  0.00  0.00    +0.155 HD
BRANCH   9  13
ATOM     11 CL   UNL     1       5.978  -2.292  -0.472  0.00  0.00    -0.079 Cl
ATOM     12 CL   UNL     1       6.192   2.986   0.821  0.00  0.00    -0.079 Cl
ATOM     13  C   UNL     1       3.219   0.549  -0.175  0.00  0.00    +0.056 C 
ATOM     14  C   UNL     1       3.925   1.675   0.194  0.00  0.00    +0.019 C 
ATOM     15  C   UNL     1       3.830  -0.670  -0.382  0.00  0.00    +0.019 C 
ATOM     16  C   UNL     1       5.211  -0.767  -0.213  0.00  0.00    +0.092 C 
ATOM     17  C   UNL     1       5.306   1.577   0.362  0.00  0.00    +0.092 C 
ATOM     18  C   UNL     1       5.949   0.356   0.159  0.00  0.00    +0.155 C 
BRANCH  18  19
ATOM     19  O   UNL     1       7.301   0.261   0.325  0.00  0.00    -0.504 OA
ATOM     20  H   UNL     1       7.733  -0.559   0.188  0.00  0.00    +0.292 HD
ENDBRANCH  18  19
ENDBRANCH   9  13
ENDBRANCH   5   8
BRANCH   1  21
ATOM     21  S   UNL     1      -3.568   1.467  -1.222  0.00  0.00    +0.063 S 
ATOM     22  O   UNL     1      -2.748   2.400  -1.974  0.00  0.00    -0.153 OA
ATOM     23  O   UNL     1      -4.752   0.901  -1.840  0.00  0.00    -0.153 OA
BRANCH  21  24
ATOM     24  N   UNL     1      -3.990   2.168   0.295  0.00  0.00    -0.156 NA
BRANCH  24  25
ATOM     25  C   UNL     1      -2.993   3.051   0.953  0.00  0.00    +0.096 C 
ATOM     26  C   UNL     1      -3.186   4.479   0.484  0.00  0.00    +0.021 C 
ENDBRANCH  24  25
BRANCH  24  27
ATOM     27  C   UNL     1      -4.710   1.316   1.276  0.00  0.00    +0.096 C 
ATOM     28  C   UNL     1      -5.588   2.182   2.158  0.00  0.00    +0.021 C 
ENDBRANCH  24  27
ENDBRANCH  21  24
ENDBRANCH   1  21
BRANCH   2  29
ATOM     29  N   UNL     1      -2.854  -3.448   0.119  0.00  0.00    -0.302 N 
ATOM     30  C   UNL     1      -3.849  -3.605   1.160  0.00  0.00    +0.112 C 
ATOM     31  C   UNL     1      -2.469  -4.598  -0.673  0.00  0.00    +0.112 C 
ENDBRANCH   2  29
BRANCH   6  32
ATOM     32  O   UNL     1      -0.097  -3.036   0.358  0.00  0.00    -0.469 OA
ATOM     33  C   UNL     1       0.130  -3.216   1.753  0.00  0.00    +0.253 C 
ENDBRANCH   6  32
TORSDOF 9
