REMARK  Name = 101608096
REMARK  8 active torsions:
REMARK  status: ('A' for Active; 'I' for Inactive)
REMARK    1  A    between atoms: C_3  and  C_27
REMARK    2  A    between atoms: C_7  and  C_24
REMARK    3  A    between atoms: C_8  and  O_17
REMARK    4  A    between atoms: C_13  and  O_19
REMARK    5  A    between atoms: C_15  and  O_21
REMARK    6  A    between atoms: C_24  and  O_25
REMARK    7  A    between atoms: C_27  and  C_28
REMARK    8  A    between atoms: C_28  and  C_31
REMARK                            x       y       z     vdW  Elec       q    Type
REMARK                         _______ _______ _______ _____ _____    ______ ____
ROOT
ATOM      1  O   UNL     1       1.411  -2.651   0.782  0.00  0.00    -0.287 OA
ATOM      2  O   UNL     1       1.960   2.519  -0.456  0.00  0.00    -0.286 OA
ATOM      3  C   UNL     1      -2.022  -0.251   0.764  0.00  0.00    -0.009 C 
ATOM      4  C   UNL     1       0.360  -0.573   0.477  0.00  0.00    +0.045 C 
ATOM      5  C   UNL     1       0.503   0.778   0.154  0.00  0.00    +0.076 C 
ATOM      6  C   UNL     1      -0.905  -1.088   0.782  0.00  0.00    -0.000 C 
ATOM      7  C   UNL     1      -1.879   1.097   0.442  0.00  0.00    +0.105 C 
ATOM      8  C   UNL     1      -0.620   1.615   0.136  0.00  0.00    +0.143 C 
ATOM      9  C   UNL     1       3.008   0.442  -0.148  0.00  0.00    +0.076 C 
ATOM     10  C   UNL     1       2.866  -0.909   0.175  0.00  0.00    +0.048 C 
ATOM     11  C   UNL     1       1.536  -1.466   0.499  0.00  0.00    +0.196 C 
ATOM     12  C   UNL     1       1.832   1.335  -0.171  0.00  0.00    +0.202 C 
ATOM     13  C   UNL     1       4.274   0.957  -0.453  0.00  0.00    +0.140 C 
ATOM     14  C   UNL     1       3.989  -1.745   0.193  0.00  0.00    +0.040 C 
ATOM     15  C   UNL     1       5.248  -1.228  -0.112  0.00  0.00    +0.137 C 
ATOM     16  C   UNL     1       5.390   0.120  -0.434  0.00  0.00    +0.073 C 
ENDROOT
BRANCH   8  17
ATOM     17  O   UNL     1      -0.531   2.942  -0.174  0.00  0.00    -0.505 OA
ATOM     18  H   UNL     1       0.301   3.319  -0.383  0.00  0.00    +0.292 HD
ENDBRANCH   8  17
BRANCH  13  19
ATOM     19  O   UNL     1       4.486   2.264  -0.777  0.00  0.00    -0.505 OA
ATOM     20  H   UNL     1       3.766   2.863  -0.803  0.00  0.00    +0.292 HD
ENDBRANCH  13  19
BRANCH  15  21
ATOM     21  O   UNL     1       6.340  -2.041  -0.094  0.00  0.00    -0.505 OA
ATOM     22  H   UNL     1       6.245  -2.948   0.122  0.00  0.00    +0.292 HD
ENDBRANCH  15  21
BRANCH   7  24
ATOM     23  O   UNL     1      -3.786   2.190   1.388  0.00  0.00    -0.245 OA
ATOM     24  C   UNL     1      -3.051   1.968   0.424  0.00  0.00    +0.341 C 
BRANCH  24  25
ATOM     25  O   UNL     1      -3.259   2.527  -0.798  0.00  0.00    -0.477 OA
ATOM     26  H   UNL     1      -2.677   2.333  -1.507  0.00  0.00    +0.295 HD
ENDBRANCH  24  25
ENDBRANCH   7  24
BRANCH   3  27
ATOM     27  C   UNL     1      -3.359  -0.831   1.094  0.00  0.00    +0.048 C 
BRANCH  27  28
ATOM     28  C   UNL     1      -4.234  -1.119  -0.120  0.00  0.00    -0.044 C 
ATOM     29  C   UNL     1      -5.455  -0.555  -0.218  0.00  0.00    -0.034 C 
ATOM     30  C   UNL     1      -6.464  -0.740  -1.305  0.00  0.00    +0.030 C 
BRANCH  28  31
ATOM     31  C   UNL     1      -3.650  -2.049  -1.161  0.00  0.00    +0.022 C 
ATOM     32  C   UNL     1      -3.991  -3.507  -0.887  0.00  0.00    +0.005 C 
ENDBRANCH  28  31
ENDBRANCH  27  28
ENDBRANCH   3  27
TORSDOF 8
