101689646
  -OEChem-03292013293D

 49 52  0     1  0  0  0  0  0999 V2000
    1.2014    1.2163    1.0311 O   0  0  0  0  0  0  0  0  0  0  0  0
    1.9223   -0.3806   -0.5851 O   0  0  0  0  0  0  0  0  0  0  0  0
    0.7669    1.0748   -2.6430 O   0  0  0  0  0  0  0  0  0  0  0  0
    3.3533    1.6643   -1.7498 O   0  0  0  0  0  0  0  0  0  0  0  0
   -1.4852    1.9982    0.5110 O   0  0  0  0  0  0  0  0  0  0  0  0
   -2.1259   -3.2364   -0.2334 O   0  0  0  0  0  0  0  0  0  0  0  0
   -4.0269    2.4016    0.4894 O   0  0  0  0  0  0  0  0  0  0  0  0
    5.3083   -2.7820    0.2820 O   0  0  0  0  0  0  0  0  0  0  0  0
    4.2574   -1.1210    1.4300 O   0  0  0  0  0  0  0  0  0  0  0  0
    0.9131    0.5924   -0.2348 C   0  0  2  0  0  0  0  0  0  0  0  0
    0.9399    1.6655   -1.3571 C   0  0  1  0  0  0  0  0  0  0  0  0
    2.2443    2.4733   -1.3646 C   0  0  1  0  0  0  0  0  0  0  0  0
   -0.4743   -0.0534   -0.1071 C   0  0  0  0  0  0  0  0  0  0  0  0
    2.5055    3.0262    0.0343 C   0  0  0  0  0  0  0  0  0  0  0  0
    2.4529    1.9086    1.0816 C   0  0  1  0  0  0  0  0  0  0  0  0
    1.8045   -1.6175    0.1098 C   0  0  1  0  0  0  0  0  0  0  0  0
   -0.6472   -1.3826   -0.2157 C   0  0  0  0  0  0  0  0  0  0  0  0
    0.5304   -2.3055   -0.3718 C   0  0  0  0  0  0  0  0  0  0  0  0
   -1.6459    0.8220    0.2044 C   0  0  0  0  0  0  0  0  0  0  0  0
    3.0359   -2.4541   -0.2044 C   0  0  0  0  0  0  0  0  0  0  0  0
    2.6024    2.4757    2.4877 C   0  0  0  0  0  0  0  0  0  0  0  0
   -1.9884   -2.0213   -0.1483 C   0  0  0  0  0  0  0  0  0  0  0  0
   -2.9939    0.2270    0.1740 C   0  0  0  0  0  0  0  0  0  0  0  0
   -3.1599   -1.1450    0.0058 C   0  0  0  0  0  0  0  0  0  0  0  0
   -4.1167    1.0504    0.3284 C   0  0  0  0  0  0  0  0  0  0  0  0
    4.2312   -2.0200    0.6030 C   0  0  0  0  0  0  0  0  0  0  0  0
   -4.4461   -1.6986   -0.0097 C   0  0  0  0  0  0  0  0  0  0  0  0
   -5.3974    0.4973    0.3105 C   0  0  0  0  0  0  0  0  0  0  0  0
   -5.5619   -0.8755    0.1417 C   0  0  0  0  0  0  0  0  0  0  0  0
    0.1258    2.3844   -1.2179 H   0  0  0  0  0  0  0  0  0  0  0  0
    2.1768    3.2866   -2.0960 H   0  0  0  0  0  0  0  0  0  0  0  0
    3.4829    3.5210    0.0745 H   0  0  0  0  0  0  0  0  0  0  0  0
    1.7373    3.7766    0.2601 H   0  0  0  0  0  0  0  0  0  0  0  0
    3.2658    1.1958    0.9123 H   0  0  0  0  0  0  0  0  0  0  0  0
    1.7443   -1.4269    1.1902 H   0  0  0  0  0  0  0  0  0  0  0  0
    0.3851   -3.2267    0.2043 H   0  0  0  0  0  0  0  0  0  0  0  0
    0.6137   -2.5780   -1.4315 H   0  0  0  0  0  0  0  0  0  0  0  0
    2.8484   -3.5049    0.0448 H   0  0  0  0  0  0  0  0  0  0  0  0
    3.2963   -2.3701   -1.2658 H   0  0  0  0  0  0  0  0  0  0  0  0
    2.5630    1.6699    3.2288 H   0  0  0  0  0  0  0  0  0  0  0  0
    3.5505    3.0095    2.6034 H   0  0  0  0  0  0  0  0  0  0  0  0
    1.7807    3.1607    2.7248 H   0  0  0  0  0  0  0  0  0  0  0  0
    0.7732    1.7916   -3.3001 H   0  0  0  0  0  0  0  0  0  0  0  0
    4.1450    2.2289   -1.7452 H   0  0  0  0  0  0  0  0  0  0  0  0
   -4.5999   -2.7666   -0.1391 H   0  0  0  0  0  0  0  0  0  0  0  0
   -6.2726    1.1311    0.4269 H   0  0  0  0  0  0  0  0  0  0  0  0
   -6.5592   -1.3054    0.1282 H   0  0  0  0  0  0  0  0  0  0  0  0
   -3.1120    2.6985    0.3694 H   0  0  0  0  0  0  0  0  0  0  0  0
    6.1047   -2.5228    0.7928 H   0  0  0  0  0  0  0  0  0  0  0  0
  1 10  1  0  0  0  0
  1 15  1  0  0  0  0
  2 10  1  0  0  0  0
  2 16  1  0  0  0  0
  3 11  1  0  0  0  0
  3 43  1  0  0  0  0
  4 12  1  0  0  0  0
  4 44  1  0  0  0  0
  5 19  2  0  0  0  0
  6 22  2  0  0  0  0
  7 25  1  0  0  0  0
  7 48  1  0  0  0  0
  8 26  1  0  0  0  0
  8 49  1  0  0  0  0
  9 26  2  0  0  0  0
 10 11  1  0  0  0  0
 10 13  1  0  0  0  0
 11 12  1  0  0  0  0
 11 30  1  0  0  0  0
 12 14  1  0  0  0  0
 12 31  1  0  0  0  0
 13 17  2  0  0  0  0
 13 19  1  0  0  0  0
 14 15  1  0  0  0  0
 14 32  1  0  0  0  0
 14 33  1  0  0  0  0
 15 21  1  0  0  0  0
 15 34  1  0  0  0  0
 16 18  1  0  0  0  0
 16 20  1  0  0  0  0
 16 35  1  0  0  0  0
 17 18  1  0  0  0  0
 17 22  1  0  0  0  0
 18 36  1  0  0  0  0
 18 37  1  0  0  0  0
 19 23  1  0  0  0  0
 20 26  1  0  0  0  0
 20 38  1  0  0  0  0
 20 39  1  0  0  0  0
 21 40  1  0  0  0  0
 21 41  1  0  0  0  0
 21 42  1  0  0  0  0
 22 24  1  0  0  0  0
 23 24  2  0  0  0  0
 23 25  1  0  0  0  0
 24 27  1  0  0  0  0
 25 28  2  0  0  0  0
 27 29  2  0  0  0  0
 27 45  1  0  0  0  0
 28 29  1  0  0  0  0
 28 46  1  0  0  0  0
 29 47  1  0  0  0  0
M  END
> <PUBCHEM_COMPOUND_CID>
101689646

> <PUBCHEM_CONFORMER_RMSD>
0.8

> <PUBCHEM_CONFORMER_DIVERSEORDER>
1
3
2

> <PUBCHEM_MMFF94_PARTIAL_CHARGES>
34
1 -0.56
10 0.7
11 0.28
12 0.28
13 -0.12
15 0.28
16 0.28
17 -0.12
18 0.14
19 0.47
2 -0.56
20 0.06
22 0.47
23 0.09
24 0.09
25 0.08
26 0.66
27 -0.15
28 -0.15
29 -0.15
3 -0.68
4 -0.68
43 0.4
44 0.4
45 0.15
46 0.15
47 0.15
48 0.45
49 0.5
5 -0.57
6 -0.57
7 -0.53
8 -0.65
9 -0.57

> <PUBCHEM_EFFECTIVE_ROTOR_COUNT>
3.6

> <PUBCHEM_PHARMACOPHORE_FEATURES>
16
1 1 acceptor
1 2 acceptor
1 3 acceptor
1 3 donor
1 4 acceptor
1 4 donor
1 5 acceptor
1 6 acceptor
1 7 donor
1 8 acceptor
1 9 acceptor
3 8 9 26 anion
6 1 10 11 12 14 15 rings
6 13 17 19 22 23 24 rings
6 2 10 13 16 17 18 rings
6 23 24 25 27 28 29 rings

> <PUBCHEM_HEAVY_ATOM_COUNT>
29

> <PUBCHEM_ATOM_DEF_STEREO_COUNT>
5

> <PUBCHEM_ATOM_UDEF_STEREO_COUNT>
0

> <PUBCHEM_BOND_DEF_STEREO_COUNT>
0

> <PUBCHEM_BOND_UDEF_STEREO_COUNT>
0

> <PUBCHEM_ISOTOPIC_ATOM_COUNT>
0

> <PUBCHEM_COMPONENT_COUNT>
1

> <PUBCHEM_CACTVS_TAUTO_COUNT>
28

> <PUBCHEM_CONFORMER_ID>
060FA92E00000001

> <PUBCHEM_MMFF94_ENERGY>
73.4328

> <PUBCHEM_FEATURE_SELFOVERLAP>
81.355

> <PUBCHEM_SHAPE_FINGERPRINT>
10759866 29 18190470539294706309
1100329 8 18409731738023537171
11578080 2 17676753302393219244
11582403 64 16412084226398701464
11725454 13 16699759327334362712
11963148 33 17831017193406360323
12166972 35 18341333305591873522
12403260 363 18413386519464623151
12422481 6 18118652575089999632
12633257 1 18201166446971202809
13140716 1 18411699924130367659
13224815 77 18338525243684763561
13533116 47 18339921614783236523
13583140 156 17773305949223236952
13965767 371 17897712395624523012
14178342 30 18050839219740154163
14466204 15 18194118512944311163
14739800 52 18058725952306552768
14955137 171 18201440216745247414
15196674 1 18411702115053876611
15238133 3 17844822399278919537
15927050 60 17983290719415792062
1601671 61 18267305330982823910
17349148 13 18202280295083748391
17492 89 18263365944304047307
17980427 23 18130777919894611575
17980427 26 17914318333214348676
1813 80 17604139351271600896
18336668 15 18335143034042749100
20600515 1 17982740666758472492
20642791 178 18263377901128339749
20691752 17 17530953731107321026
20715895 44 18192708948271177357
21033648 29 17416099725458893635
21267235 1 18410301276836657043
21756936 100 17268327841504707112
21859007 373 17824801387986037141
22149856 69 18338532941078931739
22182313 1 17970038146018747796
22393880 68 18128547152551670623
23366157 5 18114746039839927022
23419403 2 18194092197853560444
23559900 14 18409726266324346635
25147074 1 18341900697374921735
335352 9 18339080376760854591
338550 245 18408603681826249331
3411729 13 18341043129776279776
350125 39 18410296874447212093
4409770 3 17320405805593926062
474 4 17677901312744176197
5104073 3 18341621447233586275
5895379 119 16772414845244267137
67856867 119 18411417345341163385
9981440 41 17758681431104108656

> <PUBCHEM_SHAPE_MULTIPOLES>
543.98
9.71
3.76
1.42
7.01
0.43
-0.19
2.56
2.14
-3.28
0.28
-1.74
-1.18
-0.66

> <PUBCHEM_SHAPE_SELFOVERLAP>
1197.563

> <PUBCHEM_SHAPE_VOLUME>
288.1

> <PUBCHEM_COORDINATE_TYPE>
2
5
10

$$$$
