REMARK  Name = 101639555
REMARK  11 active torsions:
REMARK  status: ('A' for Active; 'I' for Inactive)
REMARK    1  A    between atoms: C_2  and  O_7
REMARK    2  A    between atoms: C_3  and  O_9
REMARK    3  A    between atoms: C_4  and  O_11
REMARK    4  A    between atoms: C_5  and  O_17
REMARK    5  A    between atoms: C_6  and  C_14
REMARK    6  A    between atoms: C_14  and  O_15
REMARK    7  A    between atoms: O_17  and  N_18
REMARK    8  A    between atoms: N_18  and  C_20
REMARK    9  A    between atoms: C_20  and  C_22
REMARK   10  A    between atoms: C_22  and  O_23
REMARK   11  A    between atoms: O_23  and  C_24
REMARK                            x       y       z     vdW  Elec       q    Type
REMARK                         _______ _______ _______ _____ _____    ______ ____
ROOT
ATOM      1  O   UNL     1      -3.070  -0.778  -0.276  0.00  0.00    -0.316 OA
ATOM      2  C   UNL     1      -3.392   1.990   0.422  0.00  0.00    +0.172 C 
ATOM      3  C   UNL     1      -2.111   1.450  -0.215  0.00  0.00    +0.198 C 
ATOM      4  C   UNL     1      -4.585   1.077   0.138  0.00  0.00    +0.178 C 
ATOM      5  C   UNL     1      -1.916  -0.032   0.106  0.00  0.00    +0.284 C 
ATOM      6  C   UNL     1      -4.235  -0.376   0.435  0.00  0.00    +0.245 C 
ENDROOT
BRANCH   2   7
ATOM      7  O   UNL     1      -3.685   3.280  -0.117  0.00  0.00    -0.379 OA
ATOM      8  H   UNL     1      -2.941   3.878   0.052  0.00  0.00    +0.211 HD
ENDBRANCH   2   7
BRANCH   3   9
ATOM      9  O   UNL     1      -0.989   2.169   0.295  0.00  0.00    -0.377 OA
ATOM     10  H   UNL     1      -1.095   3.114   0.101  0.00  0.00    +0.211 HD
ENDBRANCH   3   9
BRANCH   4  11
ATOM     11  O   UNL     1      -5.677   1.464   0.970  0.00  0.00    -0.379 OA
ATOM     12  H   UNL     1      -5.909   2.388   0.789  0.00  0.00    +0.211 HD
ENDBRANCH   4  11
BRANCH   6  14
ATOM     13  O   UNL     1      -5.123  -2.133  -0.961  0.00  0.00    -0.247 OA
ATOM     14  C   UNL     1      -5.290  -1.298  -0.085  0.00  0.00    +0.344 C 
BRANCH  14  15
ATOM     15  O   UNL     1      -6.469  -1.081   0.548  0.00  0.00    -0.478 OA
ATOM     16  H   UNL     1      -6.530  -0.423   1.212  0.00  0.00    +0.295 HD
ENDBRANCH  14  15
ENDBRANCH   6  14
BRANCH   5  17
ATOM     17  O   UNL     1      -0.780  -0.495  -0.624  0.00  0.00    -0.255 OA
BRANCH  17  18
ATOM     18  N   UNL     1      -0.314  -1.712   0.022  0.00  0.00    -0.185 NA
ATOM     19  H   UNL     1      -0.936  -2.492  -0.189  0.00  0.00    +0.155 HD
BRANCH  18  20
ATOM     20  C   UNL     1       1.008  -1.942  -0.541  0.00  0.00    +0.124 C 
ATOM     21  C   UNL     1       1.491  -3.349  -0.190  0.00  0.00    +0.023 C 
BRANCH  20  22
ATOM     22  C   UNL     1       1.968  -0.868  -0.027  0.00  0.00    +0.223 C 
BRANCH  22  23
ATOM     23  O   UNL     1       3.253  -1.056  -0.607  0.00  0.00    -0.475 OA
BRANCH  23  24
ATOM     24  C   UNL     1       4.241  -0.193  -0.211  0.00  0.00    +0.131 C 
ATOM     25  C   UNL     1       4.449   0.996  -0.910  0.00  0.00    +0.012 C 
ATOM     26  C   UNL     1       5.039  -0.504   0.890  0.00  0.00    +0.012 C 
ATOM     27  C   UNL     1       5.454   1.875  -0.507  0.00  0.00    -0.001 C 
ATOM     28  C   UNL     1       6.045   0.375   1.292  0.00  0.00    -0.001 C 
ATOM     29  C   UNL     1       3.604   1.347  -2.091  0.00  0.00    +0.034 C 
ATOM     30  C   UNL     1       4.833  -1.773   1.649  0.00  0.00    +0.034 C 
ATOM     31  C   UNL     1       6.252   1.564   0.594  0.00  0.00    -0.000 C 
ENDBRANCH  23  24
ENDBRANCH  22  23
ENDBRANCH  20  22
ENDBRANCH  18  20
ENDBRANCH  17  18
ENDBRANCH   5  17
TORSDOF 11
