101650001
  -OEChem-03292013293D

 44 44  0     1  0  0  0  0  0999 V2000
   -3.9989    0.1752   -0.6074 S   0  0  2  0  0  0  0  0  0  0  0  0
   -6.2392   -1.8010   -0.3846 S   0  0  0  0  0  0  0  0  0  0  0  0
   -2.9348   -0.8572   -0.4036 O   0  0  0  0  0  0  0  0  0  0  0  0
    0.0808    2.3653   -1.5678 O   0  0  0  0  0  0  0  0  0  0  0  0
    3.3955   -1.2175   -2.2606 O   0  0  0  0  0  0  0  0  0  0  0  0
    6.5697   -2.2881    0.8811 O   0  0  0  0  0  0  0  0  0  0  0  0
   -1.1359    1.6184    0.2636 N   0  0  0  0  0  0  0  0  0  0  0  0
    5.0812   -0.5970    1.3214 N   0  0  0  0  0  0  0  0  0  0  0  0
    4.9809   -1.7575   -0.6952 N   0  0  0  0  0  0  0  0  0  0  0  0
   -2.3522    2.3362   -0.0402 C   0  0  1  0  0  0  0  0  0  0  0  0
   -3.5806    1.5848    0.4715 C   0  0  0  0  0  0  0  0  0  0  0  0
   -2.2873    3.7344    0.5653 C   0  0  0  0  0  0  0  0  0  0  0  0
   -5.4634   -0.3333    0.3453 C   0  0  0  0  0  0  0  0  0  0  0  0
   -0.0124    1.7001   -0.5413 C   0  0  0  0  0  0  0  0  0  0  0  0
    3.3933    0.0445   -0.2266 C   0  0  0  0  0  0  0  0  0  0  0  0
    1.1064    0.8676   -0.0191 C   0  0  0  0  0  0  0  0  0  0  0  0
    4.0117    0.1986    0.9641 C   0  0  0  0  0  0  0  0  0  0  0  0
    2.2669    0.8315   -0.6759 C   0  0  0  0  0  0  0  0  0  0  0  0
    3.9045   -1.0198   -1.1589 C   0  0  0  0  0  0  0  0  0  0  0  0
   -7.5983   -1.9988    0.7916 C   0  0  0  0  0  0  0  0  0  0  0  0
    3.6521    1.2063    2.0252 C   0  0  0  0  0  0  0  0  0  0  0  0
    5.6132   -1.5963    0.5304 C   0  0  0  0  0  0  0  0  0  0  0  0
   -8.4531   -3.1961    0.4216 C   0  0  0  0  0  0  0  0  0  0  0  0
   -2.4185    2.4532   -1.1295 H   0  0  0  0  0  0  0  0  0  0  0  0
   -3.4319    1.2147    1.4918 H   0  0  0  0  0  0  0  0  0  0  0  0
   -4.4550    2.2447    0.4655 H   0  0  0  0  0  0  0  0  0  0  0  0
   -2.2026    3.6895    1.6570 H   0  0  0  0  0  0  0  0  0  0  0  0
   -3.1832    4.3126    0.3159 H   0  0  0  0  0  0  0  0  0  0  0  0
   -1.4180    4.2861    0.1909 H   0  0  0  0  0  0  0  0  0  0  0  0
   -1.1033    1.0772    1.1230 H   0  0  0  0  0  0  0  0  0  0  0  0
   -6.1767    0.4953    0.3409 H   0  0  0  0  0  0  0  0  0  0  0  0
   -5.1524   -0.5517    1.3706 H   0  0  0  0  0  0  0  0  0  0  0  0
    0.9500    0.3088    0.8984 H   0  0  0  0  0  0  0  0  0  0  0  0
    2.4074    1.3670   -1.6108 H   0  0  0  0  0  0  0  0  0  0  0  0
   -7.1891   -2.1370    1.7973 H   0  0  0  0  0  0  0  0  0  0  0  0
   -8.2138   -1.0938    0.7887 H   0  0  0  0  0  0  0  0  0  0  0  0
    5.5056   -0.4368    2.2309 H   0  0  0  0  0  0  0  0  0  0  0  0
    3.1717    0.7071    2.8733 H   0  0  0  0  0  0  0  0  0  0  0  0
    2.9824    1.9918    1.6656 H   0  0  0  0  0  0  0  0  0  0  0  0
    4.5520    1.7142    2.3911 H   0  0  0  0  0  0  0  0  0  0  0  0
    5.3422   -2.4826   -1.3085 H   0  0  0  0  0  0  0  0  0  0  0  0
   -8.8989   -3.0807   -0.5723 H   0  0  0  0  0  0  0  0  0  0  0  0
   -7.8730   -4.1251    0.4375 H   0  0  0  0  0  0  0  0  0  0  0  0
   -9.2720   -3.3057    1.1403 H   0  0  0  0  0  0  0  0  0  0  0  0
  1  3  2  0  0  0  0
  1 11  1  0  0  0  0
  1 13  1  0  0  0  0
  2 13  1  0  0  0  0
  2 20  1  0  0  0  0
  4 14  2  0  0  0  0
  5 19  2  0  0  0  0
  6 22  2  0  0  0  0
  7 10  1  0  0  0  0
  7 14  1  0  0  0  0
  7 30  1  0  0  0  0
  8 17  1  0  0  0  0
  8 22  1  0  0  0  0
  8 37  1  0  0  0  0
  9 19  1  0  0  0  0
  9 22  1  0  0  0  0
  9 41  1  0  0  0  0
 10 11  1  0  0  0  0
 10 12  1  0  0  0  0
 10 24  1  0  0  0  0
 11 25  1  0  0  0  0
 11 26  1  0  0  0  0
 12 27  1  0  0  0  0
 12 28  1  0  0  0  0
 12 29  1  0  0  0  0
 13 31  1  0  0  0  0
 13 32  1  0  0  0  0
 14 16  1  0  0  0  0
 15 17  2  0  0  0  0
 15 18  1  0  0  0  0
 15 19  1  0  0  0  0
 16 18  2  0  0  0  0
 16 33  1  0  0  0  0
 17 21  1  0  0  0  0
 18 34  1  0  0  0  0
 20 23  1  0  0  0  0
 20 35  1  0  0  0  0
 20 36  1  0  0  0  0
 21 38  1  0  0  0  0
 21 39  1  0  0  0  0
 21 40  1  0  0  0  0
 23 42  1  0  0  0  0
 23 43  1  0  0  0  0
 23 44  1  0  0  0  0
M  END
> <PUBCHEM_COMPOUND_CID>
101650001

> <PUBCHEM_CONFORMER_RMSD>
1

> <PUBCHEM_CONFORMER_DIVERSEORDER>
1
85
100
44
148
113
150
51
71
106
140
42
101
105
49
108
81
115
47
74
79
54
91
20
86
17
92
13
14
59
123
69
95
70
80
117
90
145
40
99
114
89
130
28
62
45
60
146
43
121
4
126
154
37
50
141
72
103
63
66
84
21
34
128
127
5
78
58
110
8
32
67
38
96
76
35
82
147
149
93
137
102
152
135
131
153
61
116
109
75
36
124
10
118
134
12
24
119
133
94
55
23
48
64
120
104
2
52
68
56
107
129
41
18
87
31
25
111
26
16
6
138
83
19
46
9
88
77
11
7
125
39
57
65
143
3
27
144
73
29
142
151
97
122
132
30
98
136
15
112
33
22
139
53

> <PUBCHEM_MMFF94_PARTIAL_CHARGES>
26
1 0.11
10 0.3
11 0.19
13 0.42
14 0.62
15 0.01
16 -0.14
17 -0.03
18 -0.15
19 0.62
2 -0.46
20 0.23
21 0.14
22 0.69
3 -0.5
30 0.37
33 0.15
34 0.15
37 0.37
4 -0.57
41 0.37
5 -0.57
6 -0.57
7 -0.73
8 -0.54
9 -0.49

> <PUBCHEM_EFFECTIVE_ROTOR_COUNT>
9

> <PUBCHEM_PHARMACOPHORE_FEATURES>
9
1 23 hydrophobe
1 3 acceptor
1 4 acceptor
1 5 acceptor
1 6 acceptor
1 7 donor
1 8 donor
1 9 donor
6 8 9 15 17 19 22 rings

> <PUBCHEM_HEAVY_ATOM_COUNT>
23

> <PUBCHEM_ATOM_DEF_STEREO_COUNT>
1

> <PUBCHEM_ATOM_UDEF_STEREO_COUNT>
1

> <PUBCHEM_BOND_DEF_STEREO_COUNT>
1

> <PUBCHEM_BOND_UDEF_STEREO_COUNT>
0

> <PUBCHEM_ISOTOPIC_ATOM_COUNT>
0

> <PUBCHEM_COMPONENT_COUNT>
1

> <PUBCHEM_CACTVS_TAUTO_COUNT>
58

> <PUBCHEM_CONFORMER_ID>
060F0E5100000001

> <PUBCHEM_MMFF94_ENERGY>
39.3241

> <PUBCHEM_FEATURE_SELFOVERLAP>
45.717

> <PUBCHEM_SHAPE_FINGERPRINT>
10753850 27 18261391187460781745
10981352 41 18059859506251129703
11545043 162 18199179603679906480
12166972 35 17821730567878187159
13540713 5 18263101997305454893
13583140 156 17345458302640295972
14216079 64 18411139178154376551
15183329 4 14707201102900002111
15188451 53 18411130308028629861
15510800 12 18343306937743992559
18222031 100 18040434369566463468
1979834 28 17417544582917372767
20028762 73 18410858767644103939
21585483 132 17387399152486921458
22289505 5 12035737488033912438
270888 7 9871757884283194721
2748736 6 10087648061812694899
3004659 81 18041281053902159077
312425 54 17774169994107029787
3383291 50 18335419123611545523
3472631 163 9295285049624948729
406291 66 18335137614037491859
5104073 3 18060419101392046417
5718773 13 18408321112382263371
59682541 52 13912592866736555331
7495541 125 18340762634300168488
7970288 3 18408322211746419003

> <PUBCHEM_SHAPE_MULTIPOLES>
442.61
20.36
3.53
1.4
24.41
1.26
0.1
-25.27
-5.53
3.92
-0.32
-1.93
-0.05
0.81

> <PUBCHEM_SHAPE_SELFOVERLAP>
857.413

> <PUBCHEM_SHAPE_VOLUME>
268.7

> <PUBCHEM_COORDINATE_TYPE>
2
5
10

$$$$
