101683950
  -OEChem-03292013293D

 57 60  0     1  0  0  0  0  0999 V2000
   -0.8867   -0.1235    0.6880 O   0  0  0  0  0  0  0  0  0  0  0  0
    2.7234   -2.5384    1.4881 O   0  0  0  0  0  0  0  0  0  0  0  0
   -2.1527   -0.8230    0.9130 O   0  0  0  0  0  0  0  0  0  0  0  0
    2.2042    3.7685   -0.3935 O   0  0  0  0  0  0  0  0  0  0  0  0
    5.6620    0.5597    0.0060 O   0  0  0  0  0  0  0  0  0  0  0  0
   -4.6198    1.7277    0.5752 O   0  0  0  0  0  0  0  0  0  0  0  0
   -6.6163    0.6062    0.4953 O   0  0  0  0  0  0  0  0  0  0  0  0
    1.0735    0.1417   -0.7673 C   0  0  1  0  0  0  0  0  0  0  0  0
    1.9848   -0.4271    0.4220 C   0  0  2  0  0  0  0  0  0  0  0  0
   -0.4016   -0.4954   -0.6291 C   0  0  2  0  0  0  0  0  0  0  0  0
    3.3760    0.2992    0.6505 C   0  0  2  0  0  0  0  0  0  0  0  0
    1.0172    1.6909   -0.6432 C   0  0  0  0  0  0  0  0  0  0  0  0
    2.0374   -1.9832    0.3703 C   0  0  2  0  0  0  0  0  0  0  0  0
    3.1704    1.8339    0.6469 C   0  0  0  0  0  0  0  0  0  0  0  0
    2.3852    2.3595   -0.5425 C   0  0  2  0  0  0  0  0  0  0  0  0
   -1.4268    0.1216   -1.6289 C   0  0  0  0  0  0  0  0  0  0  0  0
   -0.2424   -2.0228   -0.7003 C   0  0  0  0  0  0  0  0  0  0  0  0
    0.6386   -2.6105    0.3686 C   0  0  0  0  0  0  0  0  0  0  0  0
    1.6291   -0.2022   -2.1772 C   0  0  0  0  0  0  0  0  0  0  0  0
    4.4666   -0.0937   -0.3635 C   0  0  0  0  0  0  0  0  0  0  0  0
    3.9598   -0.0272    2.0540 C   0  0  0  0  0  0  0  0  0  0  0  0
   -2.8891   -0.1975   -1.2794 C   0  0  0  0  0  0  0  0  0  0  0  0
   -3.1534   -0.0788    0.2269 C   0  0  1  0  0  0  0  0  0  0  0  0
   -0.7659   -2.8268   -1.6408 C   0  0  0  0  0  0  0  0  0  0  0  0
   -4.5294   -0.6174    0.5917 C   0  0  0  0  0  0  0  0  0  0  0  0
   -3.2481    1.3535    0.7309 C   0  0  0  0  0  0  0  0  0  0  0  0
   -5.3958    0.6050    0.5383 C   0  0  0  0  0  0  0  0  0  0  0  0
    1.4364   -0.1924    1.3481 H   0  0  0  0  0  0  0  0  0  0  0  0
    0.4200    1.9835    0.2304 H   0  0  0  0  0  0  0  0  0  0  0  0
    0.5026    2.1303   -1.5060 H   0  0  0  0  0  0  0  0  0  0  0  0
    2.5848   -2.3028   -0.5228 H   0  0  0  0  0  0  0  0  0  0  0  0
    4.1249    2.3725    0.7114 H   0  0  0  0  0  0  0  0  0  0  0  0
    2.6335    2.1288    1.5611 H   0  0  0  0  0  0  0  0  0  0  0  0
    2.9618    2.2206   -1.4614 H   0  0  0  0  0  0  0  0  0  0  0  0
   -1.2263   -0.1755   -2.6634 H   0  0  0  0  0  0  0  0  0  0  0  0
   -1.3561    1.2129   -1.6078 H   0  0  0  0  0  0  0  0  0  0  0  0
    0.1676   -2.4736    1.3509 H   0  0  0  0  0  0  0  0  0  0  0  0
    0.7373   -3.6986    0.2575 H   0  0  0  0  0  0  0  0  0  0  0  0
    1.8133   -1.2703   -2.3154 H   0  0  0  0  0  0  0  0  0  0  0  0
    2.5564    0.3163   -2.4119 H   0  0  0  0  0  0  0  0  0  0  0  0
    0.9310    0.1072   -2.9619 H   0  0  0  0  0  0  0  0  0  0  0  0
    4.2382    0.2105   -1.3815 H   0  0  0  0  0  0  0  0  0  0  0  0
    4.6512   -1.1724   -0.3575 H   0  0  0  0  0  0  0  0  0  0  0  0
    4.4328   -1.0130    2.0914 H   0  0  0  0  0  0  0  0  0  0  0  0
    3.1809    0.0066    2.8242 H   0  0  0  0  0  0  0  0  0  0  0  0
    4.7285    0.6955    2.3545 H   0  0  0  0  0  0  0  0  0  0  0  0
   -3.5588    0.4530   -1.8548 H   0  0  0  0  0  0  0  0  0  0  0  0
   -3.1040   -1.2227   -1.6015 H   0  0  0  0  0  0  0  0  0  0  0  0
    2.7746   -3.5006    1.3574 H   0  0  0  0  0  0  0  0  0  0  0  0
   -1.3696   -2.4566   -2.4593 H   0  0  0  0  0  0  0  0  0  0  0  0
   -0.5851   -3.8972   -1.6270 H   0  0  0  0  0  0  0  0  0  0  0  0
    1.7174    4.0856   -1.1733 H   0  0  0  0  0  0  0  0  0  0  0  0
   -4.5547   -1.0290    1.6060 H   0  0  0  0  0  0  0  0  0  0  0  0
   -4.8886   -1.3703   -0.1152 H   0  0  0  0  0  0  0  0  0  0  0  0
   -2.9785    1.4460    1.7894 H   0  0  0  0  0  0  0  0  0  0  0  0
   -2.6249    2.0516    0.1646 H   0  0  0  0  0  0  0  0  0  0  0  0
    6.3462    0.2938   -0.6318 H   0  0  0  0  0  0  0  0  0  0  0  0
  1  3  1  0  0  0  0
  1 10  1  0  0  0  0
  2 13  1  0  0  0  0
  2 49  1  0  0  0  0
  3 23  1  0  0  0  0
  4 15  1  0  0  0  0
  4 52  1  0  0  0  0
  5 20  1  0  0  0  0
  5 57  1  0  0  0  0
  6 26  1  0  0  0  0
  6 27  1  0  0  0  0
  7 27  2  0  0  0  0
  8  9  1  0  0  0  0
  8 10  1  0  0  0  0
  8 12  1  0  0  0  0
  8 19  1  0  0  0  0
  9 11  1  0  0  0  0
  9 13  1  0  0  0  0
  9 28  1  0  0  0  0
 10 16  1  0  0  0  0
 10 17  1  0  0  0  0
 11 14  1  0  0  0  0
 11 20  1  0  0  0  0
 11 21  1  0  0  0  0
 12 15  1  0  0  0  0
 12 29  1  0  0  0  0
 12 30  1  0  0  0  0
 13 18  1  0  0  0  0
 13 31  1  0  0  0  0
 14 15  1  0  0  0  0
 14 32  1  0  0  0  0
 14 33  1  0  0  0  0
 15 34  1  0  0  0  0
 16 22  1  0  0  0  0
 16 35  1  0  0  0  0
 16 36  1  0  0  0  0
 17 18  1  0  0  0  0
 17 24  2  0  0  0  0
 18 37  1  0  0  0  0
 18 38  1  0  0  0  0
 19 39  1  0  0  0  0
 19 40  1  0  0  0  0
 19 41  1  0  0  0  0
 20 42  1  0  0  0  0
 20 43  1  0  0  0  0
 21 44  1  0  0  0  0
 21 45  1  0  0  0  0
 21 46  1  0  0  0  0
 22 23  1  0  0  0  0
 22 47  1  0  0  0  0
 22 48  1  0  0  0  0
 23 25  1  0  0  0  0
 23 26  1  0  0  0  0
 24 50  1  0  0  0  0
 24 51  1  0  0  0  0
 25 27  1  0  0  0  0
 25 53  1  0  0  0  0
 25 54  1  0  0  0  0
 26 55  1  0  0  0  0
 26 56  1  0  0  0  0
M  END
> <PUBCHEM_COMPOUND_CID>
101683950

> <PUBCHEM_CONFORMER_RMSD>
0.8

> <PUBCHEM_CONFORMER_DIVERSEORDER>
1
2

> <PUBCHEM_MMFF94_PARTIAL_CHARGES>
23
1 -0.28
10 0.42
13 0.28
15 0.28
17 -0.28
18 0.14
2 -0.68
20 0.28
23 0.28
24 -0.3
25 0.06
26 0.28
27 0.66
3 -0.28
4 -0.68
49 0.4
5 -0.68
50 0.15
51 0.15
52 0.4
57 0.4
6 -0.43
7 -0.57

> <PUBCHEM_EFFECTIVE_ROTOR_COUNT>
3.6

> <PUBCHEM_PHARMACOPHORE_FEATURES>
11
1 2 acceptor
1 2 donor
1 4 acceptor
1 4 donor
1 5 acceptor
1 5 donor
1 7 acceptor
5 6 23 25 26 27 rings
6 1 3 10 16 22 23 rings
6 8 9 10 13 17 18 rings
6 8 9 11 12 14 15 rings

> <PUBCHEM_HEAVY_ATOM_COUNT>
27

> <PUBCHEM_ATOM_DEF_STEREO_COUNT>
7

> <PUBCHEM_ATOM_UDEF_STEREO_COUNT>
0

> <PUBCHEM_BOND_DEF_STEREO_COUNT>
0

> <PUBCHEM_BOND_UDEF_STEREO_COUNT>
0

> <PUBCHEM_ISOTOPIC_ATOM_COUNT>
0

> <PUBCHEM_COMPONENT_COUNT>
1

> <PUBCHEM_CACTVS_TAUTO_COUNT>
2

> <PUBCHEM_CONFORMER_ID>
060F92EE00000001

> <PUBCHEM_MMFF94_ENERGY>
98.3047

> <PUBCHEM_FEATURE_SELFOVERLAP>
55.847

> <PUBCHEM_SHAPE_FINGERPRINT>
10366900 7 17821729454890897752
10674148 151 18342744006051107840
10948715 1 18272652393435880214
1100329 8 18338515365175716664
11640471 11 17989204841483382243
11796584 16 12612754618853800505
12011746 2 18408893910442181406
12236239 1 17988922275542786823
12403259 118 18412258454804657809
12403259 327 17458347450580653353
12553582 1 18262219089646490132
12633257 1 17822005423803924905
12670546 177 11887948852678415433
13140716 1 18191019208819465392
13224815 77 17918000451652638817
13533116 47 18187083910975512763
13583140 156 18040986367511210711
13965767 371 18129370532010013924
14178342 30 18125417934344085786
14341114 176 18336835203923393035
14790565 3 18335146418736324924
14955137 171 18333737914228126650
15238133 3 18261687977473874732
15475509 8 18342752797485575692
1601671 61 18335422340140336852
16945 1 18263341703703021430
17980427 23 17701796964723132520
1813 80 17555746404112304334
18681886 176 18201719565322366810
19377110 9 18202010928474414051
19784866 240 11314309425641894803
20157964 124 18340767032404675981
20715895 44 17765998303779487265
20739085 24 18267305331167199846
20775530 9 14058375932210615897
21033648 29 17917136235028326560
21041028 32 18046052762605100562
21503847 285 18342178877673989904
21756936 100 17988070197033830246
221357 26 10375872949059382651
22149856 69 17489325079489436347
23184049 59 18410286991342413678
23557571 272 14764053636600156565
23558518 356 17904760330057355758
23559900 14 18128273215770253991
2748010 2 17977079294456422758
3472631 163 16486676065515088041
350125 39 18191590967429226270
38570 142 18044676410355216700
392239 28 18338813320110760747
404807 14 14973816012531655318
4340502 62 18273220807294570655
4409770 3 15533647561713527071
474 4 18413111662636837905
5104073 3 18190454046572765456
59755656 215 17845946142900832164
59755656 520 18272647961029800159
6328613 192 18340777060927017420
633830 44 18342452703324262404
7164475 11 17769086088231598686
7832392 63 18340763857922560678
8272917 22 18410859828300052811
8509985 295 18407759226805368936
9999458 23 18334017224414732860

> <PUBCHEM_SHAPE_MULTIPOLES>
514.56
10.17
2.82
1.54
9.7
0.13
0.25
4.34
-3.83
-1.63
0.29
-0.6
-0.4
-1.02

> <PUBCHEM_SHAPE_SELFOVERLAP>
1094.919

> <PUBCHEM_SHAPE_VOLUME>
282.7

> <PUBCHEM_COORDINATE_TYPE>
2
5
10

$$$$
