101668599
  -OEChem-03292013293D

 45 47  0     1  0  0  0  0  0999 V2000
    0.4267   -1.3497    0.9127 S   0  0  0  0  0  0  0  0  0  0  0  0
    2.3271    2.5232   -0.8419 O   0  0  0  0  0  0  0  0  0  0  0  0
   -2.1523    2.0631    1.5507 O   0  0  0  0  0  0  0  0  0  0  0  0
    5.0235    1.0439   -0.1139 O   0  0  0  0  0  0  0  0  0  0  0  0
    4.6788   -0.3872   -1.8642 O   0  0  0  0  0  0  0  0  0  0  0  0
    2.2715    0.4683    0.3133 N   0  0  0  0  0  0  0  0  0  0  0  0
   -0.6371    1.4100   -0.0796 N   0  0  0  0  0  0  0  0  0  0  0  0
   -4.0793    2.4406   -0.3330 N   0  0  0  0  0  0  0  0  0  0  0  0
    1.2122    0.2384    1.2807 C   0  0  1  0  0  0  0  0  0  0  0  0
    0.5622    1.5355    0.7383 C   0  0  1  0  0  0  0  0  0  0  0  0
    1.8712    1.6947   -0.0884 C   0  0  0  0  0  0  0  0  0  0  0  0
    3.2591   -0.4242    0.0420 C   0  0  0  0  0  0  0  0  0  0  0  0
    1.9646   -2.2982    1.1578 C   0  0  0  0  0  0  0  0  0  0  0  0
    3.1850   -1.7120    0.4539 C   0  0  0  0  0  0  0  0  0  0  0  0
   -3.0172    1.4848   -0.6339 C   0  0  2  0  0  0  0  0  0  0  0  0
   -3.4886    0.0628   -0.5560 C   0  0  0  0  0  0  0  0  0  0  0  0
   -1.9196    1.6889    0.4017 C   0  0  0  0  0  0  0  0  0  0  0  0
   -4.0329   -0.3849    0.7779 C   0  0  0  0  0  0  0  0  0  0  0  0
   -4.7884   -1.7152    0.7166 C   0  0  0  0  0  0  0  0  0  0  0  0
   -4.0493   -2.7307   -0.1465 C   0  0  0  0  0  0  0  0  0  0  0  0
   -3.8527   -2.2037   -1.5681 C   0  0  0  0  0  0  0  0  0  0  0  0
   -3.4275   -0.7657   -1.6129 C   0  0  0  0  0  0  0  0  0  0  0  0
    4.2766   -2.7379    0.2643 C   0  0  0  0  0  0  0  0  0  0  0  0
    4.3864    0.0552   -0.7715 C   0  0  0  0  0  0  0  0  0  0  0  0
    1.5622    0.3345    2.3161 H   0  0  0  0  0  0  0  0  0  0  0  0
    0.4661    2.3233    1.4957 H   0  0  0  0  0  0  0  0  0  0  0  0
   -0.5560    1.0921   -1.0427 H   0  0  0  0  0  0  0  0  0  0  0  0
    1.7667   -3.3057    0.7764 H   0  0  0  0  0  0  0  0  0  0  0  0
    2.1671   -2.3811    2.2312 H   0  0  0  0  0  0  0  0  0  0  0  0
   -2.6174    1.7206   -1.6276 H   0  0  0  0  0  0  0  0  0  0  0  0
   -3.1988   -0.4955    1.4818 H   0  0  0  0  0  0  0  0  0  0  0  0
   -4.7121    0.3648    1.1988 H   0  0  0  0  0  0  0  0  0  0  0  0
   -4.9237   -2.1098    1.7300 H   0  0  0  0  0  0  0  0  0  0  0  0
   -5.7915   -1.5486    0.3034 H   0  0  0  0  0  0  0  0  0  0  0  0
   -4.6027   -3.6760   -0.1760 H   0  0  0  0  0  0  0  0  0  0  0  0
   -3.0721   -2.9476    0.3038 H   0  0  0  0  0  0  0  0  0  0  0  0
   -4.7866   -2.3052   -2.1336 H   0  0  0  0  0  0  0  0  0  0  0  0
   -3.1019   -2.8203   -2.0753 H   0  0  0  0  0  0  0  0  0  0  0  0
   -3.0468   -0.4026   -2.5639 H   0  0  0  0  0  0  0  0  0  0  0  0
    4.5048   -3.2235    1.2194 H   0  0  0  0  0  0  0  0  0  0  0  0
    5.2126   -2.3085   -0.1029 H   0  0  0  0  0  0  0  0  0  0  0  0
    3.9544   -3.5054   -0.4469 H   0  0  0  0  0  0  0  0  0  0  0  0
   -4.8022    2.3811   -1.0498 H   0  0  0  0  0  0  0  0  0  0  0  0
   -3.7113    3.3899   -0.3907 H   0  0  0  0  0  0  0  0  0  0  0  0
    5.7855    1.3945   -0.6226 H   0  0  0  0  0  0  0  0  0  0  0  0
  1  9  1  0  0  0  0
  1 13  1  0  0  0  0
  2 11  2  0  0  0  0
  3 17  2  0  0  0  0
  4 24  1  0  0  0  0
  4 45  1  0  0  0  0
  5 24  2  0  0  0  0
  6  9  1  0  0  0  0
  6 11  1  0  0  0  0
  6 12  1  0  0  0  0
  7 10  1  0  0  0  0
  7 17  1  0  0  0  0
  7 27  1  0  0  0  0
  8 15  1  0  0  0  0
  8 43  1  0  0  0  0
  8 44  1  0  0  0  0
  9 10  1  0  0  0  0
  9 25  1  0  0  0  0
 10 11  1  0  0  0  0
 10 26  1  0  0  0  0
 12 14  2  0  0  0  0
 12 24  1  0  0  0  0
 13 14  1  0  0  0  0
 13 28  1  0  0  0  0
 13 29  1  0  0  0  0
 14 23  1  0  0  0  0
 15 16  1  0  0  0  0
 15 17  1  0  0  0  0
 15 30  1  0  0  0  0
 16 18  1  0  0  0  0
 16 22  2  0  0  0  0
 18 19  1  0  0  0  0
 18 31  1  0  0  0  0
 18 32  1  0  0  0  0
 19 20  1  0  0  0  0
 19 33  1  0  0  0  0
 19 34  1  0  0  0  0
 20 21  1  0  0  0  0
 20 35  1  0  0  0  0
 20 36  1  0  0  0  0
 21 22  1  0  0  0  0
 21 37  1  0  0  0  0
 21 38  1  0  0  0  0
 22 39  1  0  0  0  0
 23 40  1  0  0  0  0
 23 41  1  0  0  0  0
 23 42  1  0  0  0  0
M  END
> <PUBCHEM_COMPOUND_CID>
101668599

> <PUBCHEM_CONFORMER_RMSD>
0.8

> <PUBCHEM_CONFORMER_DIVERSEORDER>
1
14
3
22
12
9
23
17
8
24
13
15
20
6
2
10
21
16
5
4
7
19
11
18

> <PUBCHEM_MMFF94_PARTIAL_CHARGES>
27
1 -0.45
10 0.28
11 0.58
12 0.12
13 0.37
14 -0.28
15 0.47
16 -0.28
17 0.57
18 0.14
2 -0.57
21 0.14
22 -0.29
23 0.14
24 0.71
27 0.37
3 -0.57
39 0.15
4 -0.65
43 0.36
44 0.36
45 0.5
5 -0.57
6 -0.39
7 -0.65
8 -0.99
9 0.44

> <PUBCHEM_EFFECTIVE_ROTOR_COUNT>
6.4

> <PUBCHEM_PHARMACOPHORE_FEATURES>
11
1 2 acceptor
1 3 acceptor
1 4 acceptor
1 5 acceptor
1 7 donor
1 8 cation
1 8 donor
3 4 5 24 anion
4 6 9 10 11 rings
6 1 6 9 12 13 14 rings
6 16 18 19 20 21 22 rings

> <PUBCHEM_HEAVY_ATOM_COUNT>
24

> <PUBCHEM_ATOM_DEF_STEREO_COUNT>
3

> <PUBCHEM_ATOM_UDEF_STEREO_COUNT>
0

> <PUBCHEM_BOND_DEF_STEREO_COUNT>
0

> <PUBCHEM_BOND_UDEF_STEREO_COUNT>
0

> <PUBCHEM_ISOTOPIC_ATOM_COUNT>
0

> <PUBCHEM_COMPONENT_COUNT>
1

> <PUBCHEM_CACTVS_TAUTO_COUNT>
2

> <PUBCHEM_CONFORMER_ID>
060F56F700000001

> <PUBCHEM_MMFF94_ENERGY>
48.157

> <PUBCHEM_FEATURE_SELFOVERLAP>
56.126

> <PUBCHEM_SHAPE_FINGERPRINT>
10616163 171 18412261740312227239
10928967 22 18059010708780838783
11552529 35 14762917887942907957
11796584 16 18059858324739295900
12553582 1 18340758343184624299
12596599 1 18200321996017974628
12616971 3 17822851957700142560
12633257 1 16558478594862990299
12670546 177 17240488043188713397
12788726 201 17701536208827219257
13224815 77 18186794781897588435
13631057 29 18341890852433984649
14251751 93 18413673508693928623
14251757 5 18339929315185364383
14576447 43 18410012152385360012
15196674 1 18335701598481289386
15537594 2 18412271639995683627
17349148 13 18187076278502155728
17909252 39 18270400610929015874
20291156 8 18341325673920050987
20775530 9 17984410000520127431
21033648 29 11819274511521705540
21054139 6 18335980952450978958
21634736 98 18411416249802743020
221357 26 18409727404633630979
221490 88 18408040719024947130
22393880 68 18410012105046008276
23379529 103 18055357942370094894
235170 7 16805316691329042311
23559900 14 18339911710541569065
23598288 3 18201714012552145173
2871803 45 18263635320494157899
329604 57 18334295378928569154
4280585 95 17762902065834360694
469060 322 14852190463134430147
633830 44 16951136049508173120

> <PUBCHEM_SHAPE_MULTIPOLES>
459.34
11
3.22
1.37
0.59
0.43
0.26
4.24
2.87
-0.98
-0.16
-0.26
0.23
-1.03

> <PUBCHEM_SHAPE_SELFOVERLAP>
955.192

> <PUBCHEM_SHAPE_VOLUME>
261.7

> <PUBCHEM_COORDINATE_TYPE>
2
5
10

$$$$
