REMARK  Name = 101615523
REMARK  11 active torsions:
REMARK  status: ('A' for Active; 'I' for Inactive)
REMARK    1  A    between atoms: N_2  and  C_5
REMARK    2  A    between atoms: C_3  and  C_20
REMARK    3  A    between atoms: C_5  and  C_6
REMARK    4  A    between atoms: C_5  and  C_10
REMARK    5  A    between atoms: C_10  and  C_14
REMARK    6  A    between atoms: C_20  and  C_21
REMARK    7  A    between atoms: C_21  and  C_22
REMARK    8  A    between atoms: C_21  and  N_29
REMARK    9  A    between atoms: C_30  and  C_32
REMARK   10  A    between atoms: C_33  and  C_34
REMARK   11  A    between atoms: C_35  and  C_36
REMARK                            x       y       z     vdW  Elec       q    Type
REMARK                         _______ _______ _______ _____ _____    ______ ____
ROOT
ATOM      1  O   UNL     1      -2.242   0.394   2.850  0.00  0.00    -0.275 OA
ATOM      2  N   UNL     1      -2.678  -0.257   0.664  0.00  0.00    -0.300 N 
ATOM      3  C   UNL     1      -2.443   0.669   1.670  0.00  0.00    +0.225 C 
ATOM      4  H   UNL     1      -2.827   0.071  -0.252  0.00  0.00    +0.150 HD
ENDROOT
BRANCH   2   5
ATOM      5  C   UNL     1      -2.712  -1.681   0.902  0.00  0.00    +0.130 C 
BRANCH   5   6
ATOM      6  C   UNL     1      -4.115  -2.217   1.240  0.00  0.00    +0.025 C 
ATOM      7  C   UNL     1      -4.532  -1.956   2.692  0.00  0.00    +0.002 C 
ATOM      8  C   UNL     1      -5.166  -1.637   0.288  0.00  0.00    +0.002 C 
ENDBRANCH   5   6
BRANCH   5  10
ATOM      9  O   UNL     1      -2.255  -1.938  -1.462  0.00  0.00    -0.294 OA
ATOM     10  C   UNL     1      -2.110  -2.371  -0.319  0.00  0.00    +0.177 C 
BRANCH  10  14
ATOM     11  O   UNL     1      -2.378  -5.111  -1.598  0.00  0.00    -0.274 OA
ATOM     12  O   UNL     1       2.060  -3.948  -1.347  0.00  0.00    -0.275 OA
ATOM     13  N   UNL     1      -0.089  -4.748  -1.695  0.00  0.00    -0.255 N 
ATOM     14  C   UNL     1      -1.275  -3.599  -0.058  0.00  0.00    +0.144 C 
ATOM     15  C   UNL     1       0.223  -3.312   0.117  0.00  0.00    +0.093 C 
ATOM     16  C   UNL     1      -1.353  -4.584  -1.191  0.00  0.00    +0.235 C 
ATOM     17  C   UNL     1       0.875  -4.014  -1.052  0.00  0.00    +0.229 C 
ATOM     18  C   UNL     1       0.648  -1.853   0.188  0.00  0.00    +0.011 C 
ATOM     19  H   UNL     1       0.110  -5.343  -2.453  0.00  0.00    +0.158 HD
ENDBRANCH  10  14
ENDBRANCH   5  10
ENDBRANCH   2   5
BRANCH   3  20
ATOM     20  C   UNL     1      -2.450   2.093   1.131  0.00  0.00    +0.109 C 
BRANCH  20  21
ATOM     21  C   UNL     1      -1.361   2.354   0.079  0.00  0.00    +0.103 C 
BRANCH  21  22
ATOM     22  C   UNL     1      -1.409   3.779  -0.433  0.00  0.00    -0.004 C 
ATOM     23  C   UNL     1      -2.193   4.095  -1.543  0.00  0.00    -0.003 C 
ATOM     24  C   UNL     1      -0.669   4.775   0.204  0.00  0.00    -0.003 C 
ATOM     25  C   UNL     1      -2.238   5.407  -2.015  0.00  0.00    -0.000 C 
ATOM     26  C   UNL     1      -0.714   6.087  -0.268  0.00  0.00    -0.000 C 
ATOM     27  C   UNL     1      -1.498   6.403  -1.377  0.00  0.00    -0.000 C 
ENDBRANCH  21  22
BRANCH  21  29
ATOM     28  O   UNL     1       0.942   1.421  -1.413  0.00  0.00    -0.270 OA
ATOM     29  N   UNL     1      -0.046   2.048   0.597  0.00  0.00    -0.298 N 
ATOM     30  C   UNL     1       0.996   1.605  -0.201  0.00  0.00    +0.246 C 
ATOM     31  H   UNL     1       0.116   2.158   1.561  0.00  0.00    +0.150 HD
BRANCH  30  32
ATOM     32  C   UNL     1       2.235   1.365   0.590  0.00  0.00    +0.058 C 
ATOM     33  C   UNL     1       3.349   0.933  -0.017  0.00  0.00    +0.005 C 
BRANCH  33  34
ATOM     34  C   UNL     1       4.582   0.682   0.699  0.00  0.00    +0.000 C 
ATOM     35  C   UNL     1       5.701   0.249   0.099  0.00  0.00    -0.000 C 
BRANCH  35  36
ATOM     36  C   UNL     1       6.932  -0.002   0.815  0.00  0.00    -0.005 C 
ATOM     37  C   UNL     1       8.052  -0.435   0.217  0.00  0.00    -0.026 C 
ATOM     38  C   UNL     1       9.330  -0.698   0.945  0.00  0.00    +0.031 C 
ENDBRANCH  35  36
ENDBRANCH  33  34
ENDBRANCH  30  32
ENDBRANCH  21  29
ENDBRANCH  20  21
ENDBRANCH   3  20
TORSDOF 11
