REMARK  Name = 101623352
REMARK  14 active torsions:
REMARK  status: ('A' for Active; 'I' for Inactive)
REMARK    1  A    between atoms: C_2  and  O_3
REMARK    2  A    between atoms: C_2  and  C_21
REMARK    3  A    between atoms: O_3  and  C_6
REMARK    4  A    between atoms: C_5  and  O_19
REMARK    5  A    between atoms: C_8  and  C_11
REMARK    6  A    between atoms: C_13  and  C_14
REMARK    7  A    between atoms: C_15  and  C_16
REMARK    8  A    between atoms: C_21  and  N_22
REMARK    9  A    between atoms: N_22  and  C_29
REMARK   10  A    between atoms: C_26  and  O_31
REMARK   11  A    between atoms: C_27  and  O_33
REMARK   12  A    between atoms: C_28  and  O_35
REMARK   13  A    between atoms: C_30  and  C_37
REMARK   14  A    between atoms: C_37  and  O_38
REMARK                            x       y       z     vdW  Elec       q    Type
REMARK                         _______ _______ _______ _____ _____    ______ ____
ROOT
ATOM      1  O   UNL     1      -0.895   0.751  -1.802  0.00  0.00    -0.252 OA
ATOM      2  C   UNL     1      -0.676   0.777  -0.599  0.00  0.00    +0.295 C 
ENDROOT
BRANCH   2   3
ATOM      3  O   UNL     1      -1.617   0.944   0.379  0.00  0.00    -0.448 OA
BRANCH   3   6
ATOM      4  O   UNL     1      -5.231   0.242   0.251  0.00  0.00    -0.348 OA
ATOM      5  C   UNL     1      -3.446   2.484   0.361  0.00  0.00    +0.160 C 
ATOM      6  C   UNL     1      -2.962   1.097  -0.079  0.00  0.00    +0.226 C 
ATOM      7  C   UNL     1      -4.959   2.658   0.160  0.00  0.00    +0.061 C 
ATOM      8  C   UNL     1      -3.848  -0.007   0.516  0.00  0.00    +0.176 C 
ATOM      9  C   UNL     1      -5.684   1.476   0.806  0.00  0.00    +0.145 C 
ATOM     10  C   UNL     1      -5.348   2.790  -1.318  0.00  0.00    +0.005 C 
BRANCH   8  11
ATOM     11  C   UNL     1      -3.523  -1.345  -0.070  0.00  0.00    -0.014 C 
ATOM     12  C   UNL     1      -4.299  -1.668  -1.319  0.00  0.00    +0.029 C 
ATOM     13  C   UNL     1      -2.607  -2.136   0.521  0.00  0.00    -0.006 C 
BRANCH  13  14
ATOM     14  C   UNL     1      -2.174  -3.450   0.093  0.00  0.00    -0.001 C 
ATOM     15  C   UNL     1      -1.249  -4.161   0.757  0.00  0.00    -0.000 C 
BRANCH  15  16
ATOM     16  C   UNL     1      -0.811  -5.474   0.336  0.00  0.00    -0.005 C 
ATOM     17  C   UNL     1       0.113  -6.186   0.998  0.00  0.00    -0.026 C 
ATOM     18  C   UNL     1       0.573  -7.542   0.574  0.00  0.00    +0.031 C 
ENDBRANCH  15  16
ENDBRANCH  13  14
ENDBRANCH   8  11
BRANCH   5  19
ATOM     19  O   UNL     1      -2.721   3.480  -0.356  0.00  0.00    -0.350 OA
ATOM     20  C   UNL     1      -2.703   4.714   0.345  0.00  0.00    +0.174 C 
ENDBRANCH   5  19
ENDBRANCH   3   6
ENDBRANCH   2   3
BRANCH   2  21
ATOM     21  C   UNL     1       0.675   0.633   0.055  0.00  0.00    +0.034 C 
BRANCH  21  22
ATOM     22  N   UNL     1       1.681   0.441  -0.978  0.00  0.00    +0.410 N 
ATOM     23  H   UNL     1       1.459  -0.401  -1.510  0.00  0.00    -0.080 HD
ATOM     24  H   UNL     1       1.682   1.257  -1.591  0.00  0.00    -0.080 HD
BRANCH  22  29
ATOM     25  O   UNL     1       3.328   1.444   0.407  0.00  0.00    -0.372 OA
ATOM     26  C   UNL     1       5.473   0.047  -0.882  0.00  0.00    +0.167 C 
ATOM     27  C   UNL     1       4.066   0.106  -1.482  0.00  0.00    +0.147 C 
ATOM     28  C   UNL     1       5.722   1.206   0.085  0.00  0.00    +0.169 C 
ATOM     29  C   UNL     1       3.012   0.297  -0.384  0.00  0.00    +0.090 C 
ATOM     30  C   UNL     1       4.575   1.318   1.095  0.00  0.00    +0.171 C 
BRANCH  26  31
ATOM     31  O   UNL     1       6.436   0.095  -1.937  0.00  0.00    -0.379 OA
ATOM     32  H   UNL     1       6.280  -0.639  -2.551  0.00  0.00    +0.211 HD
ENDBRANCH  26  31
BRANCH  27  33
ATOM     33  O   UNL     1       3.809  -1.115  -2.173  0.00  0.00    -0.382 OA
ATOM     34  H   UNL     1       4.474  -1.239  -2.868  0.00  0.00    +0.210 HD
ENDBRANCH  27  33
BRANCH  28  35
ATOM     35  O   UNL     1       6.955   0.966   0.756  0.00  0.00    -0.379 OA
ATOM     36  H   UNL     1       7.670   0.897   0.104  0.00  0.00    +0.211 HD
ENDBRANCH  28  35
BRANCH  30  37
ATOM     37  C   UNL     1       4.718   2.541   1.996  0.00  0.00    +0.169 C 
BRANCH  37  38
ATOM     38  O   UNL     1       3.618   2.575   2.887  0.00  0.00    -0.379 OA
ATOM     39  H   UNL     1       3.696   3.349   3.467  0.00  0.00    +0.211 HD
ENDBRANCH  37  38
ENDBRANCH  30  37
ENDBRANCH  22  29
ENDBRANCH  21  22
ENDBRANCH   2  21
TORSDOF 14
