REMARK  Name = 101657975
REMARK  9 active torsions:
REMARK  status: ('A' for Active; 'I' for Inactive)
REMARK    1  A    between atoms: C_1  and  C_3
REMARK    2  A    between atoms: C_1  and  O_19
REMARK    3  A    between atoms: C_1  and  C_33
REMARK    4  A    between atoms: C_3  and  C_7
REMARK    5  A    between atoms: O_19  and  C_25
REMARK    6  A    between atoms: C_21  and  O_27
REMARK    7  A    between atoms: C_22  and  O_29
REMARK    8  A    between atoms: C_23  and  O_31
REMARK    9  A    between atoms: C_33  and  O_34
REMARK                            x       y       z     vdW  Elec       q    Type
REMARK                         _______ _______ _______ _____ _____    ______ ____
ROOT
ATOM      1  C   UNL     1       1.546  -2.064   0.465  0.00  0.00    +0.210 C 
ENDROOT
BRANCH   1   3
ATOM      2  O   UNL     1       0.303  -0.606   1.927  0.00  0.00    -0.287 OA
ATOM      3  C   UNL     1       0.339  -1.217   0.860  0.00  0.00    +0.221 C 
BRANCH   3   7
ATOM      4  N   UNL     1      -2.276   0.399   1.316  0.00  0.00    -0.352 N 
ATOM      5  N   UNL     1      -0.764  -1.810  -1.223  0.00  0.00    -0.240 NA
ATOM      6  C   UNL     1      -1.966  -0.375   0.224  0.00  0.00    +0.077 A 
ATOM      7  C   UNL     1      -0.831  -1.123  -0.059  0.00  0.00    +0.134 C 
ATOM      8  C   UNL     1      -3.048  -0.307  -0.654  0.00  0.00    +0.016 A 
ATOM      9  C   UNL     1      -4.031   0.540  -0.053  0.00  0.00    +0.017 A 
ATOM     10  C   UNL     1      -3.521   0.965   1.174  0.00  0.00    +0.057 A 
ATOM     11  C   UNL     1      -2.975  -1.022  -1.861  0.00  0.00    -0.001 C 
ATOM     12  C   UNL     1      -1.811  -1.747  -2.077  0.00  0.00    +0.095 C 
ATOM     13  C   UNL     1      -5.312   0.986  -0.441  0.00  0.00    +0.001 C 
ATOM     14  C   UNL     1      -4.227   1.814   2.035  0.00  0.00    +0.017 C 
ATOM     15  C   UNL     1      -4.052  -1.044  -2.893  0.00  0.00    +0.033 C 
ATOM     16  C   UNL     1      -6.030   1.835   0.408  0.00  0.00    +0.000 C 
ATOM     17  C   UNL     1      -5.494   2.241   1.628  0.00  0.00    +0.001 C 
ATOM     18  H   UNL     1      -1.686   0.530   2.093  0.00  0.00    +0.166 HD
ENDBRANCH   3   7
ENDBRANCH   1   3
BRANCH   1  19
ATOM     19  O   UNL     1       2.716  -1.446   0.977  0.00  0.00    -0.321 OA
BRANCH  19  25
ATOM     20  O   UNL     1       2.274   0.518  -0.202  0.00  0.00    -0.329 OA
ATOM     21  C   UNL     1       5.049   1.258  -0.179  0.00  0.00    +0.171 C 
ATOM     22  C   UNL     1       3.942   2.238  -0.567  0.00  0.00    +0.167 C 
ATOM     23  C   UNL     1       4.502   0.116   0.677  0.00  0.00    +0.196 C 
ATOM     24  C   UNL     1       2.733   1.493  -1.139  0.00  0.00    +0.147 C 
ATOM     25  C   UNL     1       3.245  -0.493   0.055  0.00  0.00    +0.266 C 
ATOM     26  C   UNL     1       1.571   2.438  -1.426  0.00  0.00    +0.035 C 
BRANCH  21  27
ATOM     27  O   UNL     1       6.036   1.977   0.561  0.00  0.00    -0.379 OA
ATOM     28  H   UNL     1       6.384   2.702   0.018  0.00  0.00    +0.211 HD
ENDBRANCH  21  27
BRANCH  22  29
ATOM     29  O   UNL     1       4.439   3.149  -1.544  0.00  0.00    -0.379 OA
ATOM     30  H   UNL     1       5.206   3.622  -1.185  0.00  0.00    +0.211 HD
ENDBRANCH  22  29
BRANCH  23  31
ATOM     31  O   UNL     1       5.489  -0.909   0.787  0.00  0.00    -0.378 OA
ATOM     32  H   UNL     1       6.295  -0.541   1.180  0.00  0.00    +0.211 HD
ENDBRANCH  23  31
ENDBRANCH  19  25
ENDBRANCH   1  19
BRANCH   1  33
ATOM     33  C   UNL     1       1.484  -3.482   1.022  0.00  0.00    +0.175 C 
BRANCH  33  34
ATOM     34  O   UNL     1       0.669  -4.318   0.205  0.00  0.00    -0.379 OA
ATOM     35  H   UNL     1       0.646  -5.212   0.579  0.00  0.00    +0.211 HD
ENDBRANCH  33  34
ENDBRANCH   1  33
TORSDOF 9
