REMARK  Name = 101656818
REMARK  7 active torsions:
REMARK  status: ('A' for Active; 'I' for Inactive)
REMARK    1  A    between atoms: C_7  and  O_17
REMARK    2  A    between atoms: C_7  and  O_19
REMARK    3  A    between atoms: C_11  and  O_25
REMARK    4  A    between atoms: C_12  and  O_21
REMARK    5  A    between atoms: C_13  and  O_23
REMARK    6  A    between atoms: O_25  and  C_26
REMARK    7  A    between atoms: C_26  and  C_27
REMARK                            x       y       z     vdW  Elec       q    Type
REMARK                         _______ _______ _______ _____ _____    ______ ____
ROOT
ATOM      1  O   UNL     1      -4.172  -1.815  -0.047  0.00  0.00    -0.286 OA
ATOM      2  O   UNL     1      -3.252   2.680  -0.233  0.00  0.00    -0.286 OA
ATOM      3  C   UNL     1      -1.000  -0.127  -0.219  0.00  0.00    +0.014 C 
ATOM      4  C   UNL     1       0.372  -0.415  -0.423  0.00  0.00    +0.031 C 
ATOM      5  C   UNL     1      -1.897  -1.206  -0.081  0.00  0.00    +0.074 C 
ATOM      6  C   UNL     1      -1.405   1.224  -0.190  0.00  0.00    +0.074 C 
ATOM      7  C   UNL     1      -3.712   0.463   0.596  0.00  0.00    +0.296 C 
ATOM      8  C   UNL     1       0.802  -1.750  -0.473  0.00  0.00    -0.016 C 
ATOM      9  C   UNL     1      -3.337  -0.933   0.126  0.00  0.00    +0.234 C 
ATOM     10  C   UNL     1      -2.834   1.555   0.021  0.00  0.00    +0.234 C 
ATOM     11  C   UNL     1       1.287   0.638  -0.582  0.00  0.00    +0.142 C 
ATOM     12  C   UNL     1      -1.457  -2.532  -0.144  0.00  0.00    +0.136 C 
ATOM     13  C   UNL     1      -0.483   2.263  -0.360  0.00  0.00    +0.140 C 
ATOM     14  C   UNL     1      -0.106  -2.800  -0.336  0.00  0.00    +0.033 C 
ATOM     15  C   UNL     1       0.862   1.966  -0.552  0.00  0.00    +0.074 C 
ATOM     16  C   UNL     1       2.229  -2.163  -0.667  0.00  0.00    +0.031 C 
ENDROOT
BRANCH   7  17
ATOM     17  O   UNL     1      -5.047   0.775   0.266  0.00  0.00    -0.353 OA
ATOM     18  H   UNL     1      -5.168   0.704  -0.694  0.00  0.00    +0.214 HD
ENDBRANCH   7  17
BRANCH   7  19
ATOM     19  O   UNL     1      -3.501   0.557   1.996  0.00  0.00    -0.353 OA
ATOM     20  H   UNL     1      -2.577   0.339   2.199  0.00  0.00    +0.214 HD
ENDBRANCH   7  19
BRANCH  12  21
ATOM     21  O   UNL     1      -2.304  -3.595  -0.050  0.00  0.00    -0.505 OA
ATOM     22  H   UNL     1      -3.221  -3.454   0.079  0.00  0.00    +0.292 HD
ENDBRANCH  12  21
BRANCH  13  23
ATOM     23  O   UNL     1      -0.847   3.576  -0.372  0.00  0.00    -0.505 OA
ATOM     24  H   UNL     1      -1.744   3.815  -0.246  0.00  0.00    +0.292 HD
ENDBRANCH  13  23
BRANCH  11  25
ATOM     25  O   UNL     1       2.626   0.446  -0.767  0.00  0.00    -0.471 OA
BRANCH  25  26
ATOM     26  C   UNL     1       3.499   1.009   0.208  0.00  0.00    +0.231 C 
BRANCH  26  27
ATOM     27  C   UNL     1       4.919   0.725  -0.170  0.00  0.00    +0.012 C 
ATOM     28  C   UNL     1       5.857   0.077   0.546  0.00  0.00    -0.044 C 
ATOM     29  C   UNL     1       5.656  -0.515   1.913  0.00  0.00    +0.026 C 
ATOM     30  C   UNL     1       7.245  -0.106  -0.008  0.00  0.00    +0.026 C 
ENDBRANCH  26  27
ENDBRANCH  25  26
ENDBRANCH  11  25
TORSDOF 7
