101650359
  -OEChem-03292013293D

 60 64  0     1  0  0  0  0  0999 V2000
    1.8465    1.0478   -0.5406 O   0  0  0  0  0  0  0  0  0  0  0  0
    3.6572   -0.0078    0.9174 O   0  0  0  0  0  0  0  0  0  0  0  0
    0.9983   -3.4603    0.4769 O   0  0  0  0  0  0  0  0  0  0  0  0
    0.1461    2.2429    0.6053 O   0  0  0  0  0  0  0  0  0  0  0  0
    2.2412   -0.4774   -2.6569 O   0  0  0  0  0  0  0  0  0  0  0  0
   -0.5075    0.2781   -2.2377 O   0  0  0  0  0  0  0  0  0  0  0  0
    0.3458    5.1457    0.7650 O   0  0  0  0  0  0  0  0  0  0  0  0
   -2.2711   -0.9288    2.6277 O   0  0  0  0  0  0  0  0  0  0  0  0
   -4.6673   -1.2041    1.7925 O   0  0  0  0  0  0  0  0  0  0  0  0
    1.5837   -0.3424   -0.3269 C   0  0  2  0  0  0  0  0  0  0  0  0
    2.5294   -0.8940    0.7985 C   0  0  1  0  0  0  0  0  0  0  0  0
    3.1142   -2.3005    0.4825 C   0  0  0  0  0  0  0  0  0  0  0  0
    2.1712   -3.2244   -0.3019 C   0  0  2  0  0  0  0  0  0  0  0  0
    1.7791   -2.5906   -1.6432 C   0  0  0  0  0  0  0  0  0  0  0  0
    1.9151   -1.0786   -1.6311 C   0  0  0  0  0  0  0  0  0  0  0  0
    0.0851   -0.4270   -0.0361 C   0  0  0  0  0  0  0  0  0  0  0  0
    1.8596   -0.9174    2.1510 C   0  0  0  0  0  0  0  0  0  0  0  0
   -0.3809   -0.6760    1.2032 C   0  0  0  0  0  0  0  0  0  0  0  0
    1.5111    1.8208    0.6079 C   0  0  2  0  0  0  0  0  0  0  0  0
    2.8362   -4.5867   -0.5280 C   0  0  0  0  0  0  0  0  0  0  0  0
    0.5364   -0.8168    2.3172 C   0  0  0  0  0  0  0  0  0  0  0  0
    2.4516    3.0192    0.7129 C   0  0  0  0  0  0  0  0  0  0  0  0
   -0.8764   -0.1540   -1.1513 C   0  0  0  0  0  0  0  0  0  0  0  0
    2.1609    4.0498   -0.3771 C   0  0  0  0  0  0  0  0  0  0  0  0
   -0.1818    3.1325   -0.4691 C   0  0  2  0  0  0  0  0  0  0  0  0
    0.6754    4.4029   -0.4081 C   0  0  1  0  0  0  0  0  0  0  0  0
   -1.8425   -0.7736    1.4891 C   0  0  0  0  0  0  0  0  0  0  0  0
   -2.3088   -0.4010   -0.9198 C   0  0  0  0  0  0  0  0  0  0  0  0
   -2.7765   -0.6977    0.3557 C   0  0  0  0  0  0  0  0  0  0  0  0
   -1.6732    3.4340   -0.3684 C   0  0  0  0  0  0  0  0  0  0  0  0
   -3.2080   -0.3202   -1.9911 C   0  0  0  0  0  0  0  0  0  0  0  0
   -4.1439   -0.9160    0.5667 C   0  0  0  0  0  0  0  0  0  0  0  0
   -4.5692   -0.5403   -1.7799 C   0  0  0  0  0  0  0  0  0  0  0  0
   -5.0368   -0.8379   -0.5023 C   0  0  0  0  0  0  0  0  0  0  0  0
    4.0477   -2.1807   -0.0869 H   0  0  0  0  0  0  0  0  0  0  0  0
    3.4136   -2.7880    1.4213 H   0  0  0  0  0  0  0  0  0  0  0  0
    0.7493   -2.8368   -1.9237 H   0  0  0  0  0  0  0  0  0  0  0  0
    2.4450   -2.9484   -2.4383 H   0  0  0  0  0  0  0  0  0  0  0  0
    2.4865   -1.0396    3.0312 H   0  0  0  0  0  0  0  0  0  0  0  0
    1.6706    1.3223    1.5550 H   0  0  0  0  0  0  0  0  0  0  0  0
    3.0532   -5.0776    0.4277 H   0  0  0  0  0  0  0  0  0  0  0  0
    3.7716   -4.4934   -1.0894 H   0  0  0  0  0  0  0  0  0  0  0  0
    2.1684   -5.2598   -1.0780 H   0  0  0  0  0  0  0  0  0  0  0  0
    0.1332   -0.8485    3.3244 H   0  0  0  0  0  0  0  0  0  0  0  0
    4.2647   -0.3736    1.5834 H   0  0  0  0  0  0  0  0  0  0  0  0
    3.4978    2.7032    0.6384 H   0  0  0  0  0  0  0  0  0  0  0  0
    2.3159    3.5020    1.6888 H   0  0  0  0  0  0  0  0  0  0  0  0
    0.4124   -4.0497   -0.0279 H   0  0  0  0  0  0  0  0  0  0  0  0
    2.7653    4.9452   -0.1921 H   0  0  0  0  0  0  0  0  0  0  0  0
    2.4609    3.6447   -1.3510 H   0  0  0  0  0  0  0  0  0  0  0  0
    0.0044    2.6281   -1.4230 H   0  0  0  0  0  0  0  0  0  0  0  0
    0.4592    5.0422   -1.2714 H   0  0  0  0  0  0  0  0  0  0  0  0
   -1.9300    3.8606    0.6073 H   0  0  0  0  0  0  0  0  0  0  0  0
   -2.2592    2.5157   -0.4633 H   0  0  0  0  0  0  0  0  0  0  0  0
   -1.9908    4.1282   -1.1522 H   0  0  0  0  0  0  0  0  0  0  0  0
   -2.8683   -0.0887   -2.9972 H   0  0  0  0  0  0  0  0  0  0  0  0
    0.8918    5.9503    0.7655 H   0  0  0  0  0  0  0  0  0  0  0  0
   -5.2644   -0.4783   -2.6120 H   0  0  0  0  0  0  0  0  0  0  0  0
   -6.0991   -1.0060   -0.3461 H   0  0  0  0  0  0  0  0  0  0  0  0
   -3.9617   -1.3435    2.4417 H   0  0  0  0  0  0  0  0  0  0  0  0
  1 10  1  0  0  0  0
  1 19  1  0  0  0  0
  2 11  1  0  0  0  0
  2 45  1  0  0  0  0
  3 13  1  0  0  0  0
  3 48  1  0  0  0  0
  4 19  1  0  0  0  0
  4 25  1  0  0  0  0
  5 15  2  0  0  0  0
  6 23  2  0  0  0  0
  7 26  1  0  0  0  0
  7 57  1  0  0  0  0
  8 27  2  0  0  0  0
  9 32  1  0  0  0  0
  9 60  1  0  0  0  0
 10 11  1  0  0  0  0
 10 15  1  0  0  0  0
 10 16  1  0  0  0  0
 11 12  1  0  0  0  0
 11 17  1  0  0  0  0
 12 13  1  0  0  0  0
 12 35  1  0  0  0  0
 12 36  1  0  0  0  0
 13 14  1  0  0  0  0
 13 20  1  0  0  0  0
 14 15  1  0  0  0  0
 14 37  1  0  0  0  0
 14 38  1  0  0  0  0
 16 18  2  0  0  0  0
 16 23  1  0  0  0  0
 17 21  2  0  0  0  0
 17 39  1  0  0  0  0
 18 21  1  0  0  0  0
 18 27  1  0  0  0  0
 19 22  1  0  0  0  0
 19 40  1  0  0  0  0
 20 41  1  0  0  0  0
 20 42  1  0  0  0  0
 20 43  1  0  0  0  0
 21 44  1  0  0  0  0
 22 24  1  0  0  0  0
 22 46  1  0  0  0  0
 22 47  1  0  0  0  0
 23 28  1  0  0  0  0
 24 26  1  0  0  0  0
 24 49  1  0  0  0  0
 24 50  1  0  0  0  0
 25 26  1  0  0  0  0
 25 30  1  0  0  0  0
 25 51  1  0  0  0  0
 26 52  1  0  0  0  0
 27 29  1  0  0  0  0
 28 29  2  0  0  0  0
 28 31  1  0  0  0  0
 29 32  1  0  0  0  0
 30 53  1  0  0  0  0
 30 54  1  0  0  0  0
 30 55  1  0  0  0  0
 31 33  2  0  0  0  0
 31 56  1  0  0  0  0
 32 34  2  0  0  0  0
 33 34  1  0  0  0  0
 33 58  1  0  0  0  0
 34 59  1  0  0  0  0
M  END
> <PUBCHEM_COMPOUND_CID>
101650359

> <PUBCHEM_CONFORMER_RMSD>
0.8

> <PUBCHEM_CONFORMER_DIVERSEORDER>
1
5
2
3
7
6
4

> <PUBCHEM_MMFF94_PARTIAL_CHARGES>
38
1 -0.56
10 0.48
11 0.42
13 0.28
14 0.06
15 0.45
16 -0.12
17 -0.29
18 0.01
19 0.56
2 -0.68
21 -0.15
23 0.47
25 0.28
26 0.28
27 0.47
28 0.09
29 0.09
3 -0.68
31 -0.15
32 0.08
33 -0.15
34 -0.15
39 0.15
4 -0.56
44 0.15
45 0.4
48 0.4
5 -0.57
56 0.15
57 0.4
58 0.15
59 0.15
6 -0.57
60 0.45
7 -0.68
8 -0.57
9 -0.53

> <PUBCHEM_EFFECTIVE_ROTOR_COUNT>
3.8

> <PUBCHEM_PHARMACOPHORE_FEATURES>
17
1 1 acceptor
1 2 acceptor
1 2 donor
1 3 acceptor
1 3 donor
1 4 acceptor
1 5 acceptor
1 6 acceptor
1 7 acceptor
1 7 donor
1 8 acceptor
1 9 donor
6 10 11 12 13 14 15 rings
6 10 11 16 17 18 21 rings
6 16 18 23 27 28 29 rings
6 28 29 31 32 33 34 rings
6 4 19 22 24 25 26 rings

> <PUBCHEM_HEAVY_ATOM_COUNT>
34

> <PUBCHEM_ATOM_DEF_STEREO_COUNT>
6

> <PUBCHEM_ATOM_UDEF_STEREO_COUNT>
0

> <PUBCHEM_BOND_DEF_STEREO_COUNT>
0

> <PUBCHEM_BOND_UDEF_STEREO_COUNT>
0

> <PUBCHEM_ISOTOPIC_ATOM_COUNT>
0

> <PUBCHEM_COMPONENT_COUNT>
1

> <PUBCHEM_CACTVS_TAUTO_COUNT>
10

> <PUBCHEM_CONFORMER_ID>
060F0FB700000001

> <PUBCHEM_MMFF94_ENERGY>
116.2535

> <PUBCHEM_FEATURE_SELFOVERLAP>
86.489

> <PUBCHEM_SHAPE_FINGERPRINT>
10165383 225 17538301913149782261
11115154 58 18120641449869418653
11421498 54 18047507527772455790
11578080 2 17271131290726612842
11582403 64 17609471063232278491
12156800 1 16246653480594215031
12788726 201 17689178728226393654
131258 38 17535513371784118395
13134695 92 18262782030408707078
133893 2 18129961077318229251
13681431 1 18412545418153519065
13690498 29 17695646060465280622
13911987 19 18046942456712040326
14955137 171 18337945792498665570
15664445 248 18413390938315973565
1813 80 18058739004585369638
19930381 70 18337666537872347203
20587220 17 14676828927791933560
21860390 5 18263625402882155429
229495 10 17126436698904698146
23419403 2 17173160497055902276
238 59 18121774199711118437
35225 105 17253425700186604565
3886686 26 16902955776587201992
4409770 3 16545839381725230094
474 4 18125439971594285037
484985 159 15008872827875391704
59025328 239 17913175768675804503
70251023 43 18411411779195793471

> <PUBCHEM_SHAPE_MULTIPOLES>
646.88
6.49
5.5
2.16
7.62
6.58
-0.14
-5.1
0.4
-4.51
0.38
0.54
-1
0.83

> <PUBCHEM_SHAPE_SELFOVERLAP>
1443.675

> <PUBCHEM_SHAPE_VOLUME>
336.3

> <PUBCHEM_COORDINATE_TYPE>
2
5
10

$$$$
