REMARK  Name = 101668700
REMARK  7 active torsions:
REMARK  status: ('A' for Active; 'I' for Inactive)
REMARK    1  A    between atoms: C_1  and  C_3
REMARK    2  A    between atoms: C_1  and  C_10
REMARK    3  A    between atoms: C_1  and  C_13
REMARK    4  A    between atoms: C_10  and  O_11
REMARK    5  A    between atoms: C_13  and  C_14
REMARK    6  A    between atoms: C_14  and  N_15
REMARK    7  A    between atoms: N_15  and  C_18
REMARK                            x       y       z     vdW  Elec       q    Type
REMARK                         _______ _______ _______ _____ _____    ______ ____
ROOT
ATOM      1  C   UNL     1       0.219  -1.335  -0.080  0.00  0.00    +0.123 C 
ENDROOT
BRANCH   1   3
ATOM      2 CL   UNL     1      -4.251   2.716  -0.095  0.00  0.00    -0.082 Cl
ATOM      3  C   UNL     1      -0.908  -0.312  -0.083  0.00  0.00    -0.012 C 
ATOM      4  C   UNL     1      -1.367   0.216  -1.290  0.00  0.00    -0.003 C 
ATOM      5  C   UNL     1      -1.482   0.097   1.120  0.00  0.00    -0.003 C 
ATOM      6  C   UNL     1      -2.400   1.153  -1.293  0.00  0.00    +0.011 C 
ATOM      7  C   UNL     1      -2.515   1.034   1.117  0.00  0.00    +0.011 C 
ATOM      8  C   UNL     1      -2.974   1.562  -0.090  0.00  0.00    +0.058 C 
ENDBRANCH   1   3
BRANCH   1  10
ATOM      9  O   UNL     1      -1.381  -3.145   0.306  0.00  0.00    -0.250 OA
ATOM     10  C   UNL     1      -0.326  -2.756  -0.177  0.00  0.00    +0.317 C 
BRANCH  10  11
ATOM     11  O   UNL     1       0.505  -3.577  -0.873  0.00  0.00    -0.480 OA
ATOM     12  H   UNL     1       1.305  -3.242  -1.228  0.00  0.00    +0.295 HD
ENDBRANCH  10  11
ENDBRANCH   1  10
BRANCH   1  13
ATOM     13  C   UNL     1       1.164  -1.219   1.133  0.00  0.00    +0.042 C 
BRANCH  13  14
ATOM     14  C   UNL     1       1.923   0.106   1.171  0.00  0.00    +0.129 C 
BRANCH  14  15
ATOM     15  N   UNL     1       2.725   0.229  -0.048  0.00  0.00    -0.240 NA
BRANCH  15  18
ATOM     16  N   UNL     1       3.474   2.394   0.674  0.00  0.00    -0.370 N 
ATOM     17  N   UNL     1       4.187   1.514  -1.304  0.00  0.00    -0.370 N 
ATOM     18  C   UNL     1       3.408   1.322  -0.188  0.00  0.00    +0.189 C 
ATOM     19  H   UNL     1       2.960   2.384   1.514  0.00  0.00    +0.159 HD
ATOM     20  H   UNL     1       4.034   3.172   0.449  0.00  0.00    +0.159 HD
ATOM     21  H   UNL     1       4.228   0.820  -2.001  0.00  0.00    +0.159 HD
ATOM     22  H   UNL     1       4.704   2.346  -1.407  0.00  0.00    +0.159 HD
ENDBRANCH  15  18
ENDBRANCH  14  15
ENDBRANCH  13  14
ENDBRANCH   1  13
TORSDOF 7
