101615557
  -OEChem-03292013293D

 53 58  0     1  0  0  0  0  0999 V2000
   -2.8659   -0.7257   -1.6303 O   0  0  0  0  0  0  0  0  0  0  0  0
   -1.9956    2.1917   -0.0987 O   0  0  0  0  0  0  0  0  0  0  0  0
    2.9674    0.2325   -1.7043 O   0  0  0  0  0  0  0  0  0  0  0  0
   -4.8950   -0.9836   -0.4792 O   0  0  0  0  0  0  0  0  0  0  0  0
    3.0432    2.1708   -0.4156 O   0  0  0  0  0  0  0  0  0  0  0  0
   -4.2249    1.9897   -0.5583 O   0  0  0  0  0  0  0  0  0  0  0  0
    5.6800   -1.0884    0.2383 O   0  0  0  0  0  0  0  0  0  0  0  0
   -0.9021   -0.9040   -0.1205 C   0  0  1  0  0  0  0  0  0  0  0  0
   -1.5493    0.0916    0.8744 C   0  0  2  0  0  0  0  0  0  0  0  0
   -3.0584    0.1890    0.6159 C   0  0  2  0  0  0  0  0  0  0  0  0
    0.6470   -0.7883   -0.1115 C   0  0  1  0  0  0  0  0  0  0  0  0
   -3.4771   -0.9554   -0.3487 C   0  0  2  0  0  0  0  0  0  0  0  0
   -1.4385   -2.3060    0.2633 C   0  0  0  0  0  0  0  0  0  0  0  0
   -1.0587    1.5198    0.7446 C   0  0  1  0  0  0  0  0  0  0  0  0
   -1.4380   -0.6369   -1.5564 C   0  0  0  0  0  0  0  0  0  0  0  0
    1.1371    0.6542   -0.1330 C   0  0  0  0  0  0  0  0  0  0  0  0
   -2.9684   -2.3221    0.1465 C   0  0  0  0  0  0  0  0  0  0  0  0
    1.3684   -1.4675    1.0636 C   0  0  0  0  0  0  0  0  0  0  0  0
    3.4701   -0.0103    0.5917 C   0  0  1  0  0  0  0  0  0  0  0  0
    2.6219    0.8030   -0.4240 C   0  0  1  0  0  0  0  0  0  0  0  0
    0.3353    1.6772    0.2225 C   0  0  0  0  0  0  0  0  0  0  0  0
    2.8880   -1.4364    0.8424 C   0  0  0  0  0  0  0  0  0  0  0  0
   -3.1969    1.5414   -0.0717 C   0  0  0  0  0  0  0  0  0  0  0  0
   -3.8511    0.2307    1.9255 C   0  0  0  0  0  0  0  0  0  0  0  0
    4.7883   -0.0804   -0.1929 C   0  0  2  0  0  0  0  0  0  0  0  0
    3.6623    0.6954    1.9427 C   0  0  0  0  0  0  0  0  0  0  0  0
    4.3109   -0.2824   -1.6261 C   0  0  0  0  0  0  0  0  0  0  0  0
   -1.3342   -0.2610    1.8931 H   0  0  0  0  0  0  0  0  0  0  0  0
    0.9943   -1.2814   -1.0309 H   0  0  0  0  0  0  0  0  0  0  0  0
   -1.1639   -2.5723    1.2906 H   0  0  0  0  0  0  0  0  0  0  0  0
   -1.0074   -3.0756   -0.3889 H   0  0  0  0  0  0  0  0  0  0  0  0
   -1.1076    2.0149    1.7233 H   0  0  0  0  0  0  0  0  0  0  0  0
   -1.1476    0.3483   -1.9348 H   0  0  0  0  0  0  0  0  0  0  0  0
   -1.0349   -1.3720   -2.2632 H   0  0  0  0  0  0  0  0  0  0  0  0
   -3.2666   -3.1054   -0.5623 H   0  0  0  0  0  0  0  0  0  0  0  0
   -3.4307   -2.5940    1.1022 H   0  0  0  0  0  0  0  0  0  0  0  0
    1.0713   -2.5183    1.1458 H   0  0  0  0  0  0  0  0  0  0  0  0
    1.1138   -0.9863    2.0155 H   0  0  0  0  0  0  0  0  0  0  0  0
    0.7160    2.6944    0.2374 H   0  0  0  0  0  0  0  0  0  0  0  0
    3.3853   -1.9015    1.7030 H   0  0  0  0  0  0  0  0  0  0  0  0
    3.1075   -2.0917   -0.0104 H   0  0  0  0  0  0  0  0  0  0  0  0
   -3.7316   -0.6953    2.4966 H   0  0  0  0  0  0  0  0  0  0  0  0
   -4.9209    0.3835    1.7474 H   0  0  0  0  0  0  0  0  0  0  0  0
   -3.5173    1.0582    2.5628 H   0  0  0  0  0  0  0  0  0  0  0  0
    5.3213    0.8767   -0.1246 H   0  0  0  0  0  0  0  0  0  0  0  0
    4.1288    1.6796    1.8271 H   0  0  0  0  0  0  0  0  0  0  0  0
    4.3121    0.1088    2.6018 H   0  0  0  0  0  0  0  0  0  0  0  0
    2.7071    0.8418    2.4574 H   0  0  0  0  0  0  0  0  0  0  0  0
    4.9409    0.2599   -2.3383 H   0  0  0  0  0  0  0  0  0  0  0  0
    4.3005   -1.3355   -1.9252 H   0  0  0  0  0  0  0  0  0  0  0  0
   -5.2170   -0.0684   -0.5288 H   0  0  0  0  0  0  0  0  0  0  0  0
    2.4629    2.6658   -1.0179 H   0  0  0  0  0  0  0  0  0  0  0  0
    6.4244   -1.1072   -0.3871 H   0  0  0  0  0  0  0  0  0  0  0  0
  1 12  1  0  0  0  0
  1 15  1  0  0  0  0
  2 14  1  0  0  0  0
  2 23  1  0  0  0  0
  3 20  1  0  0  0  0
  3 27  1  0  0  0  0
  4 12  1  0  0  0  0
  4 51  1  0  0  0  0
  5 20  1  0  0  0  0
  5 52  1  0  0  0  0
  6 23  2  0  0  0  0
  7 25  1  0  0  0  0
  7 53  1  0  0  0  0
  8  9  1  0  0  0  0
  8 11  1  0  0  0  0
  8 13  1  0  0  0  0
  8 15  1  0  0  0  0
  9 10  1  0  0  0  0
  9 14  1  0  0  0  0
  9 28  1  0  0  0  0
 10 12  1  0  0  0  0
 10 23  1  0  0  0  0
 10 24  1  0  0  0  0
 11 16  1  0  0  0  0
 11 18  1  0  0  0  0
 11 29  1  0  0  0  0
 12 17  1  0  0  0  0
 13 17  1  0  0  0  0
 13 30  1  0  0  0  0
 13 31  1  0  0  0  0
 14 21  1  0  0  0  0
 14 32  1  0  0  0  0
 15 33  1  0  0  0  0
 15 34  1  0  0  0  0
 16 20  1  0  0  0  0
 16 21  2  0  0  0  0
 17 35  1  0  0  0  0
 17 36  1  0  0  0  0
 18 22  1  0  0  0  0
 18 37  1  0  0  0  0
 18 38  1  0  0  0  0
 19 20  1  0  0  0  0
 19 22  1  0  0  0  0
 19 25  1  0  0  0  0
 19 26  1  0  0  0  0
 21 39  1  0  0  0  0
 22 40  1  0  0  0  0
 22 41  1  0  0  0  0
 24 42  1  0  0  0  0
 24 43  1  0  0  0  0
 24 44  1  0  0  0  0
 25 27  1  0  0  0  0
 25 45  1  0  0  0  0
 26 46  1  0  0  0  0
 26 47  1  0  0  0  0
 26 48  1  0  0  0  0
 27 49  1  0  0  0  0
 27 50  1  0  0  0  0
M  END
> <PUBCHEM_COMPOUND_CID>
101615557

> <PUBCHEM_CONFORMER_RMSD>
0.6

> <PUBCHEM_CONFORMER_DIVERSEORDER>
1
2

> <PUBCHEM_MMFF94_PARTIAL_CHARGES>
22
1 -0.56
10 0.06
11 0.14
12 0.56
14 0.42
15 0.28
16 -0.28
2 -0.43
20 0.7
21 -0.29
23 0.66
25 0.28
27 0.28
3 -0.56
39 0.15
4 -0.68
5 -0.68
51 0.4
52 0.4
53 0.4
6 -0.57
7 -0.68

> <PUBCHEM_EFFECTIVE_ROTOR_COUNT>
2

> <PUBCHEM_PHARMACOPHORE_FEATURES>
14
1 1 acceptor
1 3 acceptor
1 4 acceptor
1 4 donor
1 5 acceptor
1 5 donor
1 6 acceptor
1 7 acceptor
1 7 donor
5 2 9 10 14 23 rings
5 3 19 20 25 27 rings
6 11 16 18 19 20 22 rings
6 8 9 11 14 16 21 rings
8 1 8 9 10 12 13 15 17 rings

> <PUBCHEM_HEAVY_ATOM_COUNT>
27

> <PUBCHEM_ATOM_DEF_STEREO_COUNT>
9

> <PUBCHEM_ATOM_UDEF_STEREO_COUNT>
0

> <PUBCHEM_BOND_DEF_STEREO_COUNT>
0

> <PUBCHEM_BOND_UDEF_STEREO_COUNT>
0

> <PUBCHEM_ISOTOPIC_ATOM_COUNT>
0

> <PUBCHEM_COMPONENT_COUNT>
1

> <PUBCHEM_CACTVS_TAUTO_COUNT>
1

> <PUBCHEM_CONFORMER_ID>
060E87C500000001

> <PUBCHEM_MMFF94_ENERGY>
96.0496

> <PUBCHEM_FEATURE_SELFOVERLAP>
71.661

> <PUBCHEM_SHAPE_FINGERPRINT>
10366900 7 16949998132018858306
10498660 4 18342173341049617384
10646746 165 18272929423448279296
10863032 1 18260827069065298269
10948715 1 17971187024728701653
11132069 177 18272368667864534529
11552529 35 14835263532352081551
11578080 2 18192685990816860204
12173636 292 18337102389528280327
12236239 1 18040718048303891298
12403814 3 18260833679131048505
12553582 1 18335988639756786145
13140716 1 18271531999677130937
13224815 77 18272932743215308536
13583140 156 17988914561781685598
13675066 3 18130785689711859314
14223421 5 18198899404049655968
14790565 3 18052823538140567073
15196674 1 18410855477514071176
15788980 27 18333170553000433560
16752209 62 18410006641546914243
16945 1 18335984254832345761
17349148 13 18260258659918495050
18186145 218 18201725045869434992
19862831 5 18410298003780810046
200 152 18260543441766815735
20715895 44 17829032231346643037
21033648 29 18271513196289600104
21267235 1 18409454703879317827
21864079 5 18261115196535329012
23227448 37 18410858793281571357
23402539 116 18341609296164229356
23557571 272 17989202655371350616
23559900 14 18273498953571231348
296302 2 15574721295852583082
335352 9 18410012091765526108
34934 24 18337669707088888865
474 4 17312827091071491106
5104073 3 18273217529796388978
5161694 15 17775292646828776726
559249 180 18337386037705786046
9709674 26 18271523212305612772
9981440 41 17398110942778111664

> <PUBCHEM_SHAPE_MULTIPOLES>
514.56
9.56
2.13
1.45
4.86
0.13
0.04
-0.53
-0.33
-1.31
0.08
0.36
-0.03
-0.27

> <PUBCHEM_SHAPE_SELFOVERLAP>
1163.637

> <PUBCHEM_SHAPE_VOLUME>
263.8

> <PUBCHEM_COORDINATE_TYPE>
2
5
10

$$$$
