101644032
  -OEChem-03292013293D

 44 48  0     1  0  0  0  0  0999 V2000
    3.6463    0.2506   -1.0652 O   0  0  0  0  0  0  0  0  0  0  0  0
    3.1604   -3.7206    0.4621 O   0  0  0  0  0  0  0  0  0  0  0  0
   -0.5833    1.1574   -1.2344 O   0  0  0  0  0  0  0  0  0  0  0  0
   -1.8363   -3.5657    0.8972 O   0  0  0  0  0  0  0  0  0  0  0  0
    4.8939   -1.6104   -0.5162 O   0  0  0  0  0  0  0  0  0  0  0  0
   -2.9931    1.9995   -0.9979 O   0  0  0  0  0  0  0  0  0  0  0  0
   -5.5663    1.3950   -0.3352 O   0  0  0  0  0  0  0  0  0  0  0  0
    1.5575   -0.5614   -0.5331 C   0  0  0  0  0  0  0  0  0  0  0  0
    2.2515    0.6621   -1.0247 C   0  0  1  0  0  0  0  0  0  0  0  0
    0.2100   -0.8477   -0.3188 C   0  0  0  0  0  0  0  0  0  0  0  0
    2.5132   -1.5333   -0.2786 C   0  0  0  0  0  0  0  0  0  0  0  0
   -0.1276   -2.1082    0.1995 C   0  0  0  0  0  0  0  0  0  0  0  0
   -0.8605    0.1220   -0.6436 C   0  0  0  0  0  0  0  0  0  0  0  0
   -2.2555   -0.1919   -0.2747 C   0  0  0  0  0  0  0  0  0  0  0  0
    2.1677    1.8297   -0.1047 C   0  0  0  0  0  0  0  0  0  0  0  0
    2.2081   -2.7868    0.2166 C   0  0  0  0  0  0  0  0  0  0  0  0
   -2.5830   -1.4351    0.2658 C   0  0  0  0  0  0  0  0  0  0  0  0
    0.8680   -3.0704    0.4653 C   0  0  0  0  0  0  0  0  0  0  0  0
    3.8340   -1.0248   -0.6126 C   0  0  0  0  0  0  0  0  0  0  0  0
   -1.5374   -2.4526    0.4824 C   0  0  0  0  0  0  0  0  0  0  0  0
   -3.2579    0.7645   -0.4803 C   0  0  0  0  0  0  0  0  0  0  0  0
   -3.9113   -1.7242    0.6014 C   0  0  0  0  0  0  0  0  0  0  0  0
    1.9350    1.6304    1.2561 C   0  0  0  0  0  0  0  0  0  0  0  0
    2.3217    3.1228   -0.6039 C   0  0  0  0  0  0  0  0  0  0  0  0
   -4.5803    0.4740   -0.1433 C   0  0  0  0  0  0  0  0  0  0  0  0
   -4.9064   -0.7683    0.3963 C   0  0  0  0  0  0  0  0  0  0  0  0
    1.8563    2.7245    2.1179 C   0  0  0  0  0  0  0  0  0  0  0  0
    2.2431    4.2170    0.2578 C   0  0  0  0  0  0  0  0  0  0  0  0
    2.0104    4.0178    1.6187 C   0  0  0  0  0  0  0  0  0  0  0  0
   -2.6783    3.0341   -0.0698 C   0  0  0  0  0  0  0  0  0  0  0  0
    1.9420    0.9012   -2.0482 H   0  0  0  0  0  0  0  0  0  0  0  0
    0.6044   -4.0475    0.8636 H   0  0  0  0  0  0  0  0  0  0  0  0
   -4.1909   -2.6856    1.0238 H   0  0  0  0  0  0  0  0  0  0  0  0
    1.8318    0.6439    1.6969 H   0  0  0  0  0  0  0  0  0  0  0  0
    2.5042    3.2906   -1.6620 H   0  0  0  0  0  0  0  0  0  0  0  0
   -5.9328   -1.0068    0.6626 H   0  0  0  0  0  0  0  0  0  0  0  0
    4.0339   -3.3596    0.2367 H   0  0  0  0  0  0  0  0  0  0  0  0
    1.6802    2.5697    3.1784 H   0  0  0  0  0  0  0  0  0  0  0  0
    2.3633    5.2241   -0.1308 H   0  0  0  0  0  0  0  0  0  0  0  0
    1.9502    4.8696    2.2897 H   0  0  0  0  0  0  0  0  0  0  0  0
   -6.4142    1.0182   -0.0436 H   0  0  0  0  0  0  0  0  0  0  0  0
   -1.8923    2.7218    0.6256 H   0  0  0  0  0  0  0  0  0  0  0  0
   -3.5729    3.3252    0.4893 H   0  0  0  0  0  0  0  0  0  0  0  0
   -2.3214    3.9014   -0.6320 H   0  0  0  0  0  0  0  0  0  0  0  0
  1  9  1  0  0  0  0
  1 19  1  0  0  0  0
  2 16  1  0  0  0  0
  2 37  1  0  0  0  0
  3 13  2  0  0  0  0
  4 20  2  0  0  0  0
  5 19  2  0  0  0  0
  6 21  1  0  0  0  0
  6 30  1  0  0  0  0
  7 25  1  0  0  0  0
  7 41  1  0  0  0  0
  8  9  1  0  0  0  0
  8 10  2  0  0  0  0
  8 11  1  0  0  0  0
  9 15  1  0  0  0  0
  9 31  1  0  0  0  0
 10 12  1  0  0  0  0
 10 13  1  0  0  0  0
 11 16  2  0  0  0  0
 11 19  1  0  0  0  0
 12 18  2  0  0  0  0
 12 20  1  0  0  0  0
 13 14  1  0  0  0  0
 14 17  2  0  0  0  0
 14 21  1  0  0  0  0
 15 23  2  0  0  0  0
 15 24  1  0  0  0  0
 16 18  1  0  0  0  0
 17 20  1  0  0  0  0
 17 22  1  0  0  0  0
 18 32  1  0  0  0  0
 21 25  2  0  0  0  0
 22 26  2  0  0  0  0
 22 33  1  0  0  0  0
 23 27  1  0  0  0  0
 23 34  1  0  0  0  0
 24 28  2  0  0  0  0
 24 35  1  0  0  0  0
 25 26  1  0  0  0  0
 26 36  1  0  0  0  0
 27 29  2  0  0  0  0
 27 38  1  0  0  0  0
 28 29  1  0  0  0  0
 28 39  1  0  0  0  0
 29 40  1  0  0  0  0
 30 42  1  0  0  0  0
 30 43  1  0  0  0  0
 30 44  1  0  0  0  0
M  END
> <PUBCHEM_COMPOUND_CID>
101644032

> <PUBCHEM_CONFORMER_RMSD>
0.8

> <PUBCHEM_CONFORMER_DIVERSEORDER>
1

> <PUBCHEM_MMFF94_PARTIAL_CHARGES>
40
1 -0.43
10 0.09
11 0.09
12 0.09
13 0.4
14 0.09
15 -0.14
16 0.08
17 0.09
18 -0.15
19 0.63
2 -0.53
20 0.4
21 0.08
22 -0.15
23 -0.15
24 -0.15
25 0.08
26 -0.15
27 -0.15
28 -0.15
29 -0.15
3 -0.57
30 0.28
32 0.15
33 0.15
34 0.15
35 0.15
36 0.15
37 0.45
38 0.15
39 0.15
4 -0.57
40 0.15
41 0.45
5 -0.57
6 -0.36
7 -0.53
8 -0.14
9 0.57

> <PUBCHEM_EFFECTIVE_ROTOR_COUNT>
2.4

> <PUBCHEM_PHARMACOPHORE_FEATURES>
11
1 2 donor
1 3 acceptor
1 4 acceptor
1 5 acceptor
1 6 acceptor
1 7 donor
5 1 8 9 11 19 rings
6 10 12 13 14 17 20 rings
6 14 17 21 22 25 26 rings
6 15 23 24 27 28 29 rings
6 8 10 11 12 16 18 rings

> <PUBCHEM_HEAVY_ATOM_COUNT>
30

> <PUBCHEM_ATOM_DEF_STEREO_COUNT>
1

> <PUBCHEM_ATOM_UDEF_STEREO_COUNT>
0

> <PUBCHEM_BOND_DEF_STEREO_COUNT>
0

> <PUBCHEM_BOND_UDEF_STEREO_COUNT>
0

> <PUBCHEM_ISOTOPIC_ATOM_COUNT>
0

> <PUBCHEM_COMPONENT_COUNT>
1

> <PUBCHEM_CACTVS_TAUTO_COUNT>
24

> <PUBCHEM_CONFORMER_ID>
060EF70000000001

> <PUBCHEM_MMFF94_ENERGY>
104.5247

> <PUBCHEM_FEATURE_SELFOVERLAP>
55.966

> <PUBCHEM_SHAPE_FINGERPRINT>
10074138 170 16971643384554205584
10165383 225 17979091696750983344
10439779 11 18339349769393077680
10675989 125 16749578847634665589
1100329 8 18410577270806726842
11456790 92 18118688717239873441
12403259 226 18335419011419142543
12788726 201 17909551658360738102
13140716 1 18192148419898504674
13757389 114 16393822609651205476
13965767 371 17970047032216912236
14178342 30 17901945562762337195
14223421 5 18265898145056329855
14466204 15 18409724063327955370
14866123 147 16321747839416840827
14955137 171 18202006486755822654
15297060 5 17618246325458236300
17138139 8 16178989500630280044
19591789 44 18118122472402911775
20600515 1 18050006584785186188
20775438 99 17836320022096250087
21033648 29 18186791470879145917
21133410 127 17969214723912639837
22122407 14 17985856803603749153
22149856 69 18118703221888017163
23536364 44 18053981465686374236
23559900 14 18408601474529823805
335352 9 18261959552582642911
350125 39 18335990834390024901
469060 322 17255980381590331523
5047190 48 17184754031106577437
5104073 3 18335427906649996851
5252454 2 17697892714385177865
5265222 85 17474678725303407460
5776283 40 18191322670019172972
6086070 43 18270670949609181813
6442390 28 17978513370724562336
70251023 43 18201708608940605087
7808743 9 17329149585952300952
9981440 41 18049993699630259659

> <PUBCHEM_SHAPE_MULTIPOLES>
576.3
8.42
5.26
1.18
7.31
1.31
-0.34
1.08
0.5
-4.01
-1.71
-0.66
0.74
1.75

> <PUBCHEM_SHAPE_SELFOVERLAP>
1325.245

> <PUBCHEM_SHAPE_VOLUME>
294.7

> <PUBCHEM_COORDINATE_TYPE>
2
5
10

$$$$
