REMARK  Name = 101601578
REMARK  9 active torsions:
REMARK  status: ('A' for Active; 'I' for Inactive)
REMARK    1  A    between atoms: CA_5  and  N_11
REMARK    2  A    between atoms: CA_7  and  C_24
REMARK    3  A    between atoms: C_8  and  C_27
REMARK    4  A    between atoms: C_12  and  C_14
REMARK    5  A    between atoms: C_14  and  C_15
REMARK    6  A    between atoms: C_14  and  O_21
REMARK    7  A    between atoms: C_24  and  O_25
REMARK    8  A    between atoms: C_27  and  S_28
REMARK    9  A    between atoms: S_28  and  C_31
REMARK                            x       y       z     vdW  Elec       q    Type
REMARK                         _______ _______ _______ _____ _____    ______ ____
ROOT
ATOM      1  S   UNL     1       1.073  -0.455  -1.242  0.00  0.00    -0.114 S 
ATOM      2  O   UNL     1       0.967   3.645   0.966  0.00  0.00    -0.273 OA
ATOM      3  N   UNL     1       0.207   1.939  -0.475  0.00  0.00    -0.242 N 
ATOM      4  C   UNL     1       1.147   1.346  -1.411  0.00  0.00    +0.155 C 
ATOM      5  CA  UNL     1       2.251   2.122  -0.652  0.00  0.00    +0.178 C 
ATOM      6  C   UNL     1       1.075   2.785   0.122  0.00  0.00    +0.251 C 
ATOM      7  CA  UNL     1      -1.102   1.589  -0.388  0.00  0.00    +0.124 C 
ATOM      8  C   UNL     1      -1.579   0.469  -0.980  0.00  0.00    -0.002 C 
ATOM      9  C   UNL     1      -0.690  -0.541  -1.700  0.00  0.00    +0.083 C 
ENDROOT
BRANCH   5  11
ATOM     10  O   UNL     1       4.987   1.396  -1.236  0.00  0.00    -0.272 OA
ATOM     11  N   UNL     1       3.160   1.363   0.198  0.00  0.00    -0.294 N 
ATOM     12  C   UNL     1       4.473   1.059  -0.171  0.00  0.00    +0.254 C 
ATOM     13  H   UNL     1       2.833   1.050   1.072  0.00  0.00    +0.150 HD
BRANCH  12  14
ATOM     14  C   UNL     1       5.214   0.240   0.877  0.00  0.00    +0.209 C 
BRANCH  14  15
ATOM     15  C   UNL     1       5.075  -1.244   0.626  0.00  0.00    +0.013 C 
ATOM     16  C   UNL     1       4.017  -1.951   1.195  0.00  0.00    -0.001 C 
ATOM     17  C   UNL     1       6.006  -1.905  -0.175  0.00  0.00    -0.001 C 
ATOM     18  C   UNL     1       3.889  -3.321   0.964  0.00  0.00    -0.000 C 
ATOM     19  C   UNL     1       5.878  -3.275  -0.407  0.00  0.00    -0.000 C 
ATOM     20  C   UNL     1       4.820  -3.983   0.162  0.00  0.00    -0.000 C 
ENDBRANCH  14  15
BRANCH  14  21
ATOM     21  O   UNL     1       6.592   0.583   0.851  0.00  0.00    -0.372 OA
ATOM     22  H   UNL     1       6.691   1.534   1.011  0.00  0.00    +0.211 HD
ENDBRANCH  14  21
ENDBRANCH  12  14
ENDBRANCH   5  11
BRANCH   7  24
ATOM     23  OXT UNL     1      -2.553   2.082   1.429  0.00  0.00    -0.244 OA
ATOM     24  C   UNL     1      -1.970   2.450   0.430  0.00  0.00    +0.351 C 
BRANCH  24  25
ATOM     25  O   UNL     1      -2.006   3.686  -0.106  0.00  0.00    -0.476 OA
ATOM     26  H   UNL     1      -1.519   3.874  -0.884  0.00  0.00    +0.295 HD
ENDBRANCH  24  25
ENDBRANCH   7  24
BRANCH   8  27
ATOM     27  C   UNL     1      -3.032   0.059  -0.998  0.00  0.00    +0.088 C 
BRANCH  27  28
ATOM     28  S   UNL     1      -3.384  -0.956   0.446  0.00  0.00    -0.089 S 
BRANCH  28  31
ATOM     29  O   UNL     1      -5.776   0.564   1.418  0.00  0.00    -0.163 OA
ATOM     30  N   UNL     1      -6.086  -0.485   0.759  0.00  0.00    -0.123 N 
ATOM     31  C   UNL     1      -5.125  -1.322   0.226  0.00  0.00    +0.128 C 
ATOM     32  C   UNL     1      -5.481  -2.460  -0.489  0.00  0.00    +0.027 C 
ATOM     33  C   UNL     1      -7.420  -0.793   0.573  0.00  0.00    +0.122 C 
ATOM     34  C   UNL     1      -6.826  -2.761  -0.671  0.00  0.00    +0.004 C 
ATOM     35  C   UNL     1      -7.802  -1.925  -0.139  0.00  0.00    +0.022 C 
ENDBRANCH  28  31
ENDBRANCH  27  28
ENDBRANCH   8  27
TORSDOF 9
