REMARK  Name = 101644032
REMARK  4 active torsions:
REMARK  status: ('A' for Active; 'I' for Inactive)
REMARK    1  A    between atoms: C_6  and  C_21
REMARK    2  A    between atoms: C_12  and  O_27
REMARK    3  A    between atoms: C_17  and  O_29
REMARK    4  A    between atoms: C_19  and  O_31
REMARK                            x       y       z     vdW  Elec       q    Type
REMARK                         _______ _______ _______ _____ _____    ______ ____
ROOT
ATOM      1  O   UNL     1       3.646   0.251  -1.065  0.00  0.00    -0.440 OA
ATOM      2  O   UNL     1      -0.583   1.157  -1.234  0.00  0.00    -0.286 OA
ATOM      3  O   UNL     1      -1.836  -3.566   0.897  0.00  0.00    -0.287 OA
ATOM      4  O   UNL     1       4.894  -1.610  -0.516  0.00  0.00    -0.245 OA
ATOM      5  C   UNL     1       1.558  -0.561  -0.533  0.00  0.00    +0.034 C 
ATOM      6  C   UNL     1       2.252   0.662  -1.025  0.00  0.00    +0.214 C 
ATOM      7  C   UNL     1       0.210  -0.848  -0.319  0.00  0.00    +0.042 C 
ATOM      8  C   UNL     1       2.513  -1.533  -0.279  0.00  0.00    +0.109 C 
ATOM      9  C   UNL     1      -0.128  -2.108   0.200  0.00  0.00    +0.045 C 
ATOM     10  C   UNL     1      -0.861   0.122  -0.644  0.00  0.00    +0.199 C 
ATOM     11  C   UNL     1      -2.256  -0.192  -0.275  0.00  0.00    +0.079 C 
ATOM     12  C   UNL     1       2.208  -2.787   0.217  0.00  0.00    +0.140 C 
ATOM     13  C   UNL     1      -2.583  -1.435   0.266  0.00  0.00    +0.045 C 
ATOM     14  C   UNL     1       0.868  -3.070   0.465  0.00  0.00    +0.040 C 
ATOM     15  C   UNL     1       3.834  -1.025  -0.613  0.00  0.00    +0.345 C 
ATOM     16  C   UNL     1      -1.537  -2.453   0.482  0.00  0.00    +0.196 C 
ATOM     17  C   UNL     1      -3.258   0.764  -0.480  0.00  0.00    +0.175 C 
ATOM     18  C   UNL     1      -3.911  -1.724   0.601  0.00  0.00    +0.007 C 
ATOM     19  C   UNL     1      -4.580   0.474  -0.143  0.00  0.00    +0.168 C 
ATOM     20  C   UNL     1      -4.906  -0.768   0.396  0.00  0.00    +0.040 C 
ENDROOT
BRANCH   6  21
ATOM     21  C   UNL     1       2.168   1.830  -0.105  0.00  0.00    +0.022 C 
ATOM     22  C   UNL     1       1.935   1.630   1.256  0.00  0.00    -0.000 C 
ATOM     23  C   UNL     1       2.322   3.123  -0.604  0.00  0.00    -0.000 C 
ATOM     24  C   UNL     1       1.856   2.724   2.118  0.00  0.00    -0.000 C 
ATOM     25  C   UNL     1       2.243   4.217   0.258  0.00  0.00    -0.000 C 
ATOM     26  C   UNL     1       2.010   4.018   1.619  0.00  0.00    -0.000 C 
ENDBRANCH   6  21
BRANCH  12  27
ATOM     27  O   UNL     1       3.160  -3.721   0.462  0.00  0.00    -0.505 OA
ATOM     28  H   UNL     1       4.061  -3.526   0.294  0.00  0.00    +0.292 HD
ENDBRANCH  12  27
BRANCH  17  29
ATOM     29  O   UNL     1      -2.993   2.000  -0.998  0.00  0.00    -0.468 OA
ATOM     30  C   UNL     1      -2.678   3.034  -0.070  0.00  0.00    +0.253 C 
ENDBRANCH  17  29
BRANCH  19  31
ATOM     31  O   UNL     1      -5.566   1.395  -0.335  0.00  0.00    -0.503 OA
ATOM     32  H   UNL     1      -5.360   2.234  -0.697  0.00  0.00    +0.292 HD
ENDBRANCH  19  31
TORSDOF 4
