101626292
  -OEChem-03292013293D

 52 54  0     1  0  0  0  0  0999 V2000
   -2.1621    2.8607   -0.0515 O   0  0  0  0  0  0  0  0  0  0  0  0
    4.0105    0.6724    1.9423 O   0  0  0  0  0  0  0  0  0  0  0  0
   -8.5029   -1.2643   -0.8123 O   0  0  0  0  0  0  0  0  0  0  0  0
   -7.4801   -3.1710   -0.1222 O   0  0  0  0  0  0  0  0  0  0  0  0
    1.3420    1.2278    1.8894 N   0  0  0  0  0  0  0  0  0  0  0  0
    1.9457    0.4947    0.9267 N   0  0  0  0  0  0  0  0  0  0  0  0
    3.7462   -0.5197   -0.0632 N   0  0  0  0  0  0  0  0  0  0  0  0
   -1.1862    0.7762   -0.2775 C   0  0  1  0  0  0  0  0  0  0  0  0
   -2.3081    1.6624   -0.8473 C   0  0  2  0  0  0  0  0  0  0  0  0
   -0.7793    3.1334   -0.3875 C   0  0  1  0  0  0  0  0  0  0  0  0
   -0.0958    1.8248    0.0300 C   0  0  1  0  0  0  0  0  0  0  0  0
   -1.9358    2.1875   -2.2346 C   0  0  0  0  0  0  0  0  0  0  0  0
   -0.8645    3.2294   -1.9095 C   0  0  0  0  0  0  0  0  0  0  0  0
   -1.6763   -0.0329    0.9211 C   0  0  0  0  0  0  0  0  0  0  0  0
    0.3226    1.8991    1.4680 C   0  0  0  0  0  0  0  0  0  0  0  0
   -2.7990   -0.9457    0.5348 C   0  0  0  0  0  0  0  0  0  0  0  0
   -4.0259   -0.8851    1.0733 C   0  0  0  0  0  0  0  0  0  0  0  0
   -5.1473   -1.8093    0.6994 C   0  0  0  0  0  0  0  0  0  0  0  0
   -6.3299   -1.0382    0.1141 C   0  0  0  0  0  0  0  0  0  0  0  0
    3.3161    0.2509    1.0200 C   0  0  0  0  0  0  0  0  0  0  0  0
   -7.4675   -1.9567   -0.2693 C   0  0  0  0  0  0  0  0  0  0  0  0
    5.0552   -0.9792   -0.3371 C   0  0  0  0  0  0  0  0  0  0  0  0
    5.3013   -1.7445   -1.4771 C   0  0  0  0  0  0  0  0  0  0  0  0
    6.1001   -0.6674    0.5325 C   0  0  0  0  0  0  0  0  0  0  0  0
    6.5924   -2.1981   -1.7472 C   0  0  0  0  0  0  0  0  0  0  0  0
    7.3912   -1.1209    0.2624 C   0  0  0  0  0  0  0  0  0  0  0  0
    7.6374   -1.8863   -0.8775 C   0  0  0  0  0  0  0  0  0  0  0  0
   -0.8307    0.0776   -1.0466 H   0  0  0  0  0  0  0  0  0  0  0  0
   -3.3248    1.2688   -0.8020 H   0  0  0  0  0  0  0  0  0  0  0  0
   -0.4130    4.0384    0.1037 H   0  0  0  0  0  0  0  0  0  0  0  0
    0.7705    1.7108   -0.6303 H   0  0  0  0  0  0  0  0  0  0  0  0
   -2.7945    2.6821   -2.7026 H   0  0  0  0  0  0  0  0  0  0  0  0
   -1.5820    1.4026   -2.9092 H   0  0  0  0  0  0  0  0  0  0  0  0
    0.0883    3.0390   -2.4117 H   0  0  0  0  0  0  0  0  0  0  0  0
   -1.2193    4.2213   -2.2118 H   0  0  0  0  0  0  0  0  0  0  0  0
   -0.8602   -0.6503    1.3143 H   0  0  0  0  0  0  0  0  0  0  0  0
   -1.9966    0.6306    1.7340 H   0  0  0  0  0  0  0  0  0  0  0  0
   -0.2768    2.4958    2.1736 H   0  0  0  0  0  0  0  0  0  0  0  0
   -2.5826   -1.7005   -0.2173 H   0  0  0  0  0  0  0  0  0  0  0  0
   -4.2404   -0.1378    1.8334 H   0  0  0  0  0  0  0  0  0  0  0  0
   -5.4653   -2.3535    1.5972 H   0  0  0  0  0  0  0  0  0  0  0  0
   -4.8072   -2.5671   -0.0177 H   0  0  0  0  0  0  0  0  0  0  0  0
    1.3885    0.0658    0.1973 H   0  0  0  0  0  0  0  0  0  0  0  0
   -6.7094   -0.3171    0.8473 H   0  0  0  0  0  0  0  0  0  0  0  0
   -6.0140   -0.4965   -0.7852 H   0  0  0  0  0  0  0  0  0  0  0  0
    3.0372   -0.7852   -0.7422 H   0  0  0  0  0  0  0  0  0  0  0  0
   -9.2448   -1.8544   -1.0644 H   0  0  0  0  0  0  0  0  0  0  0  0
    4.4959   -1.9946   -2.1630 H   0  0  0  0  0  0  0  0  0  0  0  0
    5.9885   -0.0808    1.4334 H   0  0  0  0  0  0  0  0  0  0  0  0
    6.7842   -2.7940   -2.6348 H   0  0  0  0  0  0  0  0  0  0  0  0
    8.2059   -0.8788    0.9388 H   0  0  0  0  0  0  0  0  0  0  0  0
    8.6427   -2.2394   -1.0878 H   0  0  0  0  0  0  0  0  0  0  0  0
  1  9  1  0  0  0  0
  1 10  1  0  0  0  0
  2 20  2  0  0  0  0
  3 21  1  0  0  0  0
  3 47  1  0  0  0  0
  4 21  2  0  0  0  0
  5  6  1  0  0  0  0
  5 15  2  0  0  0  0
  6 20  1  0  0  0  0
  6 43  1  0  0  0  0
  7 20  1  0  0  0  0
  7 22  1  0  0  0  0
  7 46  1  0  0  0  0
  8  9  1  0  0  0  0
  8 11  1  0  0  0  0
  8 14  1  0  0  0  0
  8 28  1  0  0  0  0
  9 12  1  0  0  0  0
  9 29  1  0  0  0  0
 10 11  1  0  0  0  0
 10 13  1  0  0  0  0
 10 30  1  0  0  0  0
 11 15  1  0  0  0  0
 11 31  1  0  0  0  0
 12 13  1  0  0  0  0
 12 32  1  0  0  0  0
 12 33  1  0  0  0  0
 13 34  1  0  0  0  0
 13 35  1  0  0  0  0
 14 16  1  0  0  0  0
 14 36  1  0  0  0  0
 14 37  1  0  0  0  0
 15 38  1  0  0  0  0
 16 17  2  0  0  0  0
 16 39  1  0  0  0  0
 17 18  1  0  0  0  0
 17 40  1  0  0  0  0
 18 19  1  0  0  0  0
 18 41  1  0  0  0  0
 18 42  1  0  0  0  0
 19 21  1  0  0  0  0
 19 44  1  0  0  0  0
 19 45  1  0  0  0  0
 22 23  2  0  0  0  0
 22 24  1  0  0  0  0
 23 25  1  0  0  0  0
 23 48  1  0  0  0  0
 24 26  2  0  0  0  0
 24 49  1  0  0  0  0
 25 27  2  0  0  0  0
 25 50  1  0  0  0  0
 26 27  1  0  0  0  0
 26 51  1  0  0  0  0
 27 52  1  0  0  0  0
M  END
> <PUBCHEM_COMPOUND_CID>
101626292

> <PUBCHEM_CONFORMER_RMSD>
1

> <PUBCHEM_CONFORMER_DIVERSEORDER>
1
27
13
58
31
42
25
60
55
32
18
47
4
37
45
46
23
43
21
57
7
12
19
6
26
59
20
53
5
24
22
41
40
36
29
62
61
35
14
52
11
8
50
28
34
15
9
48
16
38
56
49
39
30
33
51
10
2
17
54
44
3

> <PUBCHEM_MMFF94_PARTIAL_CHARGES>
35
1 -0.56
10 0.28
11 0.06
14 0.14
15 0.33
16 -0.29
17 -0.29
18 0.14
19 0.06
2 -0.57
20 0.69
21 0.66
22 0.12
23 -0.15
24 -0.15
25 -0.15
26 -0.15
27 -0.15
3 -0.65
38 0.06
39 0.15
4 -0.57
40 0.15
43 0.37
46 0.37
47 0.5
48 0.15
49 0.15
5 -0.51
50 0.15
51 0.15
52 0.15
6 -0.37
7 -0.55
9 0.28

> <PUBCHEM_EFFECTIVE_ROTOR_COUNT>
11

> <PUBCHEM_PHARMACOPHORE_FEATURES>
10
1 1 acceptor
1 2 acceptor
1 3 acceptor
1 4 acceptor
1 5 acceptor
1 6 donor
1 7 donor
3 3 4 21 anion
6 22 23 24 25 26 27 rings
7 1 8 9 10 11 12 13 rings

> <PUBCHEM_HEAVY_ATOM_COUNT>
27

> <PUBCHEM_ATOM_DEF_STEREO_COUNT>
4

> <PUBCHEM_ATOM_UDEF_STEREO_COUNT>
0

> <PUBCHEM_BOND_DEF_STEREO_COUNT>
2

> <PUBCHEM_BOND_UDEF_STEREO_COUNT>
0

> <PUBCHEM_ISOTOPIC_ATOM_COUNT>
0

> <PUBCHEM_COMPONENT_COUNT>
1

> <PUBCHEM_CACTVS_TAUTO_COUNT>
70

> <PUBCHEM_CONFORMER_ID>
060EB1B400000001

> <PUBCHEM_MMFF94_ENERGY>
81.8435

> <PUBCHEM_FEATURE_SELFOVERLAP>
50.864

> <PUBCHEM_SHAPE_FINGERPRINT>
10692045 39 11023286264291901836
12342043 65 18273491273927217424
13103583 49 13829834791852677472
13540713 5 17097756981438879456
13617811 41 17966969430793986734
13631057 29 18334576802850520778
13673619 4 18413392037912134016
13757389 114 17970908852440307637
13782708 43 18342455911659771954
14068700 675 18113621187715292004
14117953 113 18335698360804461711
14202776 33 16009581366623346877
14216079 64 18343582949596051243
14556957 393 16732994089081484102
15198563 99 17822003178037715837
16728300 4 15912778162951817874
16994733 274 11891326587027785119
18643901 69 18336835207801719523
21307412 95 18260554463302374475
21424621 283 9007070062563000623
21585481 104 15719943627729664911
4339292 15 18409725137165237678
4340502 62 11311791596086866281
437815 12 18413108377145164297
46194498 28 18410293632242990160
5104073 3 13182150987737839562
5372103 7 12107786311110708223
54076057 255 13840526498919465423
6081469 158 18411981364921231407

> <PUBCHEM_SHAPE_MULTIPOLES>
517.23
22.11
3.59
1.73
0.1
1.77
-0.22
-29.04
-5.61
-4.35
-1.56
1.22
0.74
2.52

> <PUBCHEM_SHAPE_SELFOVERLAP>
1087.293

> <PUBCHEM_SHAPE_VOLUME>
291

> <PUBCHEM_COORDINATE_TYPE>
2
5
10

$$$$
