REMARK  Name = 101642818
REMARK  6 active torsions:
REMARK  status: ('A' for Active; 'I' for Inactive)
REMARK    1  A    between atoms: C_2  and  O_6
REMARK    2  A    between atoms: C_3  and  O_8
REMARK    3  A    between atoms: C_4  and  C_20
REMARK    4  A    between atoms: C_5  and  O_10
REMARK    5  A    between atoms: O_10  and  N_11
REMARK    6  A    between atoms: C_20  and  O_21
REMARK                            x       y       z     vdW  Elec       q    Type
REMARK                         _______ _______ _______ _____ _____    ______ ____
ROOT
ATOM      1  O   UNL     1       1.226   0.172   0.878  0.00  0.00    -0.324 OA
ATOM      2  C   UNL     1       2.954   0.080  -0.727  0.00  0.00    +0.172 C 
ATOM      3  C   UNL     1       2.691  -1.326  -0.227  0.00  0.00    +0.199 C 
ATOM      4  C   UNL     1       2.351   0.921   0.386  0.00  0.00    +0.176 C 
ATOM      5  C   UNL     1       1.298  -1.173   0.366  0.00  0.00    +0.293 C 
ENDROOT
BRANCH   2   6
ATOM      6  O   UNL     1       4.325   0.360  -0.919  0.00  0.00    -0.379 OA
ATOM      7  H   UNL     1       4.671  -0.195  -1.635  0.00  0.00    +0.211 HD
ENDBRANCH   2   6
BRANCH   3   8
ATOM      8  O   UNL     1       3.613  -1.653   0.808  0.00  0.00    -0.377 OA
ATOM      9  H   UNL     1       4.501  -1.751   0.430  0.00  0.00    +0.211 HD
ENDBRANCH   3   8
BRANCH   5  10
ATOM     10  O   UNL     1       0.332  -1.367  -0.660  0.00  0.00    -0.205 OA
BRANCH  10  11
ATOM     11  N   UNL     1      -0.985  -1.263  -0.296  0.00  0.00    -0.104 N 
ATOM     12  N   UNL     1      -1.676  -2.339   0.124  0.00  0.00    -0.009 NA
ATOM     13  N   UNL     1      -2.915  -1.940   0.406  0.00  0.00    -0.139 NA
ATOM     14  N   UNL     1      -1.434   1.103  -0.644  0.00  0.00    -0.202 NA
ATOM     15  N   UNL     1      -3.750   1.628  -0.073  0.00  0.00    -0.243 NA
ATOM     16  C   UNL     1      -1.764  -0.148  -0.294  0.00  0.00    +0.206 C 
ATOM     17  C   UNL     1      -2.990  -0.599   0.156  0.00  0.00    +0.142 C 
ATOM     18  C   UNL     1      -4.009   0.340   0.263  0.00  0.00    +0.178 C 
ATOM     19  C   UNL     1      -2.498   1.925  -0.500  0.00  0.00    +0.196 C 
ENDBRANCH  10  11
ENDBRANCH   5  10
BRANCH   4  20
ATOM     20  C   UNL     1       1.892   2.292  -0.076  0.00  0.00    +0.169 C 
BRANCH  20  21
ATOM     21  O   UNL     1       1.339   2.987   1.030  0.00  0.00    -0.379 OA
ATOM     22  H   UNL     1       1.042   3.865   0.744  0.00  0.00    +0.211 HD
ENDBRANCH  20  21
ENDBRANCH   4  20
TORSDOF 6
