101690775
  -OEChem-03292013293D

 39 41  0     1  0  0  0  0  0999 V2000
   -4.2485    1.8407    1.0202 O   0  0  0  0  0  0  0  0  0  0  0  0
   -0.7425   -2.3590    0.1804 O   0  0  0  0  0  0  0  0  0  0  0  0
   -3.1889   -2.6442    0.1441 O   0  0  0  0  0  0  0  0  0  0  0  0
    3.4380    2.4719    0.0283 O   0  0  0  0  0  0  0  0  0  0  0  0
    4.4896   -0.5458   -0.9620 O   0  0  0  0  0  0  0  0  0  0  0  0
    4.5520   -0.4384    1.3366 O   0  0  0  0  0  0  0  0  0  0  0  0
   -3.8213    1.4545   -0.2822 C   0  0  1  0  0  0  0  0  0  0  0  0
   -2.4350    0.8777   -0.1723 C   0  0  0  0  0  0  0  0  0  0  0  0
   -4.7930    0.4420   -0.8819 C   0  0  0  0  0  0  0  0  0  0  0  0
   -2.2198   -0.5006   -0.0436 C   0  0  0  0  0  0  0  0  0  0  0  0
   -4.7683   -0.8675   -0.1072 C   0  0  0  0  0  0  0  0  0  0  0  0
    0.1900   -0.1462    0.0554 C   0  0  0  0  0  0  0  0  0  0  0  0
   -3.3717   -1.4397   -0.0102 C   0  0  0  0  0  0  0  0  0  0  0  0
   -0.0169    1.2465   -0.0630 C   0  0  0  0  0  0  0  0  0  0  0  0
   -0.9186   -1.0082    0.0653 C   0  0  0  0  0  0  0  0  0  0  0  0
   -1.3276    1.7398   -0.1721 C   0  0  0  0  0  0  0  0  0  0  0  0
    1.5013   -0.6384    0.1634 C   0  0  0  0  0  0  0  0  0  0  0  0
    1.0925    2.1081   -0.0691 C   0  0  0  0  0  0  0  0  0  0  0  0
    2.5924    0.2312    0.1549 C   0  0  0  0  0  0  0  0  0  0  0  0
    2.3881    1.6025    0.0390 C   0  0  0  0  0  0  0  0  0  0  0  0
    1.8216   -2.1002    0.2930 C   0  0  0  0  0  0  0  0  0  0  0  0
    3.9576   -0.2757    0.2668 C   0  0  0  0  0  0  0  0  0  0  0  0
    5.8290   -1.0509   -0.9840 C   0  0  0  0  0  0  0  0  0  0  0  0
   -3.8066    2.3503   -0.9144 H   0  0  0  0  0  0  0  0  0  0  0  0
   -4.5246    0.2499   -1.9288 H   0  0  0  0  0  0  0  0  0  0  0  0
   -5.8132    0.8427   -0.8693 H   0  0  0  0  0  0  0  0  0  0  0  0
   -5.4032   -1.5969   -0.6226 H   0  0  0  0  0  0  0  0  0  0  0  0
   -5.1553   -0.7348    0.9090 H   0  0  0  0  0  0  0  0  0  0  0  0
   -1.4930    2.8129   -0.2606 H   0  0  0  0  0  0  0  0  0  0  0  0
    0.9402    3.1823   -0.1597 H   0  0  0  0  0  0  0  0  0  0  0  0
   -5.1435    2.2116    0.9370 H   0  0  0  0  0  0  0  0  0  0  0  0
    1.4765   -2.6482   -0.5907 H   0  0  0  0  0  0  0  0  0  0  0  0
    1.3803   -2.5099    1.2082 H   0  0  0  0  0  0  0  0  0  0  0  0
    2.8845   -2.3420    0.3690 H   0  0  0  0  0  0  0  0  0  0  0  0
   -1.4725   -2.8311   -0.2497 H   0  0  0  0  0  0  0  0  0  0  0  0
    3.1003    3.3796   -0.0594 H   0  0  0  0  0  0  0  0  0  0  0  0
    6.1133   -1.2167   -2.0264 H   0  0  0  0  0  0  0  0  0  0  0  0
    5.8814   -2.0034   -0.4485 H   0  0  0  0  0  0  0  0  0  0  0  0
    6.5146   -0.3211   -0.5432 H   0  0  0  0  0  0  0  0  0  0  0  0
  1  7  1  0  0  0  0
  1 31  1  0  0  0  0
  2 15  1  0  0  0  0
  2 35  1  0  0  0  0
  3 13  2  0  0  0  0
  4 20  1  0  0  0  0
  4 36  1  0  0  0  0
  5 22  1  0  0  0  0
  5 23  1  0  0  0  0
  6 22  2  0  0  0  0
  7  8  1  0  0  0  0
  7  9  1  0  0  0  0
  7 24  1  0  0  0  0
  8 10  2  0  0  0  0
  8 16  1  0  0  0  0
  9 11  1  0  0  0  0
  9 25  1  0  0  0  0
  9 26  1  0  0  0  0
 10 13  1  0  0  0  0
 10 15  1  0  0  0  0
 11 13  1  0  0  0  0
 11 27  1  0  0  0  0
 11 28  1  0  0  0  0
 12 14  1  0  0  0  0
 12 15  2  0  0  0  0
 12 17  1  0  0  0  0
 14 16  2  0  0  0  0
 14 18  1  0  0  0  0
 16 29  1  0  0  0  0
 17 19  2  0  0  0  0
 17 21  1  0  0  0  0
 18 20  2  0  0  0  0
 18 30  1  0  0  0  0
 19 20  1  0  0  0  0
 19 22  1  0  0  0  0
 21 32  1  0  0  0  0
 21 33  1  0  0  0  0
 21 34  1  0  0  0  0
 23 37  1  0  0  0  0
 23 38  1  0  0  0  0
 23 39  1  0  0  0  0
M  END
> <PUBCHEM_COMPOUND_CID>
101690775

> <PUBCHEM_CONFORMER_RMSD>
0.6

> <PUBCHEM_CONFORMER_DIVERSEORDER>
4
1
2
3

> <PUBCHEM_MMFF94_PARTIAL_CHARGES>
25
1 -0.68
10 0.09
11 0.06
13 0.42
15 0.08
16 -0.15
17 -0.14
18 -0.15
19 0.09
2 -0.53
20 0.08
21 0.14
22 0.63
23 0.28
29 0.15
3 -0.57
30 0.15
31 0.4
35 0.45
36 0.45
4 -0.53
5 -0.43
6 -0.57
7 0.42
8 -0.14

> <PUBCHEM_EFFECTIVE_ROTOR_COUNT>
2.6

> <PUBCHEM_PHARMACOPHORE_FEATURES>
9
1 1 acceptor
1 1 donor
1 2 donor
1 3 acceptor
1 4 donor
1 6 acceptor
6 12 14 17 18 19 20 rings
6 7 8 9 10 11 13 rings
6 8 10 12 14 15 16 rings

> <PUBCHEM_HEAVY_ATOM_COUNT>
23

> <PUBCHEM_ATOM_DEF_STEREO_COUNT>
0

> <PUBCHEM_ATOM_UDEF_STEREO_COUNT>
1

> <PUBCHEM_BOND_DEF_STEREO_COUNT>
0

> <PUBCHEM_BOND_UDEF_STEREO_COUNT>
0

> <PUBCHEM_ISOTOPIC_ATOM_COUNT>
0

> <PUBCHEM_COMPONENT_COUNT>
1

> <PUBCHEM_CACTVS_TAUTO_COUNT>
347

> <PUBCHEM_CONFORMER_ID>
060FAD9700000004

> <PUBCHEM_MMFF94_ENERGY>
81.4151

> <PUBCHEM_FEATURE_SELFOVERLAP>
45.719

> <PUBCHEM_SHAPE_FINGERPRINT>
10062212 137 18409439310811279563
10366900 7 17894633647086068313
10616163 171 18411418427647041943
10967382 1 18409444761340835051
11458722 379 18408324371502707742
11578080 2 16914239969795940963
12011746 2 18410008806120637591
12236239 1 17603868880143611862
12403259 415 18259978271769308253
12403814 3 17458342992737032709
12553582 1 18335978675448593872
12633257 1 18335979783465649952
13140716 1 18410004468615404568
13583140 156 16950561043940371561
13675066 3 17988917894744716712
13862211 1 18409721846571150162
14341114 176 18337114570118653313
14790565 3 18408611378846032964
15099037 51 18411139113012052822
15196674 1 18337389443308708285
15442244 35 18409164449920687425
15536298 74 18340484564341005904
1601671 61 18337110068913669446
16945 1 18336823087372439680
17349148 13 18273210889534309865
17492 89 18194965364225360806
17804303 29 18410856568298562332
1813 80 17313103042604208644
18186145 218 18260540138900081028
19591789 44 18337953497010845291
200 152 17917708007007759045
20028762 73 18129376158966759991
21033648 29 17274524469578015986
21267235 1 18410300224442692103
21279426 13 18411138000431062988
21421861 104 17606673622225618786
21452121 103 18270952574857033040
221490 88 18264212576493038418
22393880 68 18335414673164634919
23175994 123 17418094321123895849
23402539 116 18342170046814722942
23557571 272 18273224074983844518
23559900 14 18340482352601796480
2748010 2 18264767843156278856
3004659 81 18187651250739321462
335352 9 18410009909985300429
34934 24 18335975368376419611
350125 39 18408888438854429769
3545911 37 18409729543574297455
3680242 22 18262234404972594498
4214541 1 18410572886056730173
5104073 3 18410008879135341969
59755656 215 18409446947411007103
6138700 20 18339082567279065174
9709674 26 18192714663912182091
9981440 41 17253708790092871648

> <PUBCHEM_SHAPE_MULTIPOLES>
438.11
10.56
2.51
0.82
3.74
0.06
0
1.33
1.43
-0.55
-0.16
0.36
0.01
0.15

> <PUBCHEM_SHAPE_SELFOVERLAP>
973.615

> <PUBCHEM_SHAPE_VOLUME>
234

> <PUBCHEM_COORDINATE_TYPE>
2
5
10

$$$$
