REMARK  Name = 101615557
REMARK  3 active torsions:
REMARK  status: ('A' for Active; 'I' for Inactive)
REMARK    1  A    between atoms: C_9  and  O_25
REMARK    2  A    between atoms: C_17  and  O_27
REMARK    3  A    between atoms: C_22  and  O_29
REMARK                            x       y       z     vdW  Elec       q    Type
REMARK                         _______ _______ _______ _____ _____    ______ ____
ROOT
ATOM      1  O   UNL     1      -2.866  -0.726  -1.630  0.00  0.00    -0.334 OA
ATOM      2  O   UNL     1      -1.996   2.192  -0.099  0.00  0.00    -0.448 OA
ATOM      3  O   UNL     1       2.967   0.233  -1.704  0.00  0.00    -0.329 OA
ATOM      4  O   UNL     1      -4.225   1.990  -0.558  0.00  0.00    -0.250 OA
ATOM      5  C   UNL     1      -0.902  -0.904  -0.120  0.00  0.00    +0.036 C 
ATOM      6  C   UNL     1      -1.549   0.092   0.874  0.00  0.00    +0.062 C 
ATOM      7  C   UNL     1      -3.058   0.189   0.616  0.00  0.00    +0.140 C 
ATOM      8  C   UNL     1       0.647  -0.788  -0.112  0.00  0.00    +0.025 C 
ATOM      9  C   UNL     1      -3.477  -0.955  -0.349  0.00  0.00    +0.193 C 
ATOM     10  C   UNL     1      -1.438  -2.306   0.263  0.00  0.00    +0.008 C 
ATOM     11  C   UNL     1      -1.059   1.520   0.745  0.00  0.00    +0.191 C 
ATOM     12  C   UNL     1      -1.438  -0.637  -1.556  0.00  0.00    +0.145 C 
ATOM     13  C   UNL     1       1.137   0.654  -0.133  0.00  0.00    +0.005 C 
ATOM     14  C   UNL     1      -2.968  -2.322   0.146  0.00  0.00    +0.057 C 
ATOM     15  C   UNL     1       1.368  -1.468   1.064  0.00  0.00    +0.005 C 
ATOM     16  C   UNL     1       3.470  -0.010   0.592  0.00  0.00    +0.078 C 
ATOM     17  C   UNL     1       2.622   0.803  -0.424  0.00  0.00    +0.202 C 
ATOM     18  C   UNL     1       0.335   1.677   0.223  0.00  0.00    +0.013 C 
ATOM     19  C   UNL     1       2.888  -1.436   0.842  0.00  0.00    +0.008 C 
ATOM     20  C   UNL     1      -3.197   1.541  -0.072  0.00  0.00    +0.321 C 
ATOM     21  C   UNL     1      -3.851   0.231   1.925  0.00  0.00    +0.016 C 
ATOM     22  C   UNL     1       4.788  -0.080  -0.193  0.00  0.00    +0.145 C 
ATOM     23  C   UNL     1       3.662   0.695   1.943  0.00  0.00    +0.008 C 
ATOM     24  C   UNL     1       4.311  -0.282  -1.626  0.00  0.00    +0.174 C 
ENDROOT
BRANCH   9  25
ATOM     25  O   UNL     1      -4.895  -0.984  -0.479  0.00  0.00    -0.363 OA
ATOM     26  H   UNL     1      -5.208  -0.120  -0.791  0.00  0.00    +0.213 HD
ENDBRANCH   9  25
BRANCH  17  27
ATOM     27  O   UNL     1       3.043   2.171  -0.416  0.00  0.00    -0.361 OA
ATOM     28  H   UNL     1       2.512   2.677  -1.051  0.00  0.00    +0.213 HD
ENDBRANCH  17  27
BRANCH  22  29
ATOM     29  O   UNL     1       5.680  -1.088   0.238  0.00  0.00    -0.382 OA
ATOM     30  H   UNL     1       5.951  -0.911   1.153  0.00  0.00    +0.210 HD
ENDBRANCH  22  29
TORSDOF 3
