REMARK  Name = 101643697
REMARK  5 active torsions:
REMARK  status: ('A' for Active; 'I' for Inactive)
REMARK    1  A    between atoms: C_5  and  N_19
REMARK    2  A    between atoms: C_8  and  N_18
REMARK    3  A    between atoms: N_19  and  C_21
REMARK    4  A    between atoms: C_21  and  C_22
REMARK    5  A    between atoms: C_22  and  N_23
REMARK                            x       y       z     vdW  Elec       q    Type
REMARK                         _______ _______ _______ _____ _____    ______ ____
ROOT
ATOM      1  O   UNL     1      -2.845  -1.111  -0.085  0.00  0.00    -0.286 OA
ATOM      2  N   UNL     1       0.321   1.423   0.093  0.00  0.00    -0.404 NA
ATOM      3  C   UNL     1       0.539   0.094   0.071  0.00  0.00    +0.149 C 
ATOM      4  C   UNL     1      -0.516  -0.831   0.010  0.00  0.00    +0.092 C 
ATOM      5  C   UNL     1       1.841  -0.399   0.110  0.00  0.00    +0.075 C 
ATOM      6  C   UNL     1      -2.054   1.050  -0.006  0.00  0.00    +0.065 C 
ATOM      7  C   UNL     1      -1.821  -0.329  -0.029  0.00  0.00    +0.202 C 
ATOM      8  C   UNL     1      -0.253  -2.212  -0.011  0.00  0.00    +0.148 C 
ATOM      9  C   UNL     1      -0.938   1.902   0.056  0.00  0.00    +0.116 C 
ATOM     10  C   UNL     1       2.106  -1.771   0.089  0.00  0.00    +0.019 C 
ATOM     11  C   UNL     1       1.057  -2.679   0.028  0.00  0.00    +0.026 C 
ATOM     12  C   UNL     1      -3.355   1.582  -0.044  0.00  0.00    +0.005 C 
ATOM     13  C   UNL     1      -1.163   3.275   0.078  0.00  0.00    +0.085 C 
ATOM     14  C   UNL     1      -3.553   2.959  -0.020  0.00  0.00    -0.004 C 
ATOM     15  C   UNL     1      -2.455   3.807   0.041  0.00  0.00    -0.019 C 
ENDROOT
BRANCH   8  18
ATOM     16  O   UNL     1      -1.679  -3.716   0.999  0.00  0.00    -0.126 OA
ATOM     17  O   UNL     1      -1.595  -3.666  -1.194  0.00  0.00    -0.126 OA
ATOM     18  N   UNL     1      -1.229  -3.254  -0.072  0.00  0.00    +0.058 N 
ENDBRANCH   8  18
BRANCH   5  19
ATOM     19  N   UNL     1       2.940   0.494   0.172  0.00  0.00    -0.333 N 
ATOM     20  H   UNL     1       2.761   1.463   0.187  0.00  0.00    +0.147 HD
BRANCH  19  21
ATOM     21  C   UNL     1       4.293   0.048   0.214  0.00  0.00    +0.063 C 
BRANCH  21  22
ATOM     22  C   UNL     1       5.242   1.226   0.344  0.00  0.00    -0.065 C 
BRANCH  22  23
ATOM     23  N   UNL     1       5.116   2.107  -0.843  0.00  0.00    +0.382 N 
ATOM     24  H   UNL     1       5.755   2.897  -0.750  0.00  0.00    -0.089 HD
ATOM     25  H   UNL     1       4.158   2.452  -0.910  0.00  0.00    -0.089 HD
ATOM     26  H   UNL     1       5.347   1.580  -1.685  0.00  0.00    -0.089 HD
ENDBRANCH  22  23
ENDBRANCH  21  22
ENDBRANCH  19  21
ENDBRANCH   5  19
TORSDOF 5
