10163855
  -OEChem-03292013303D

 66 71  0     1  0  0  0  0  0999 V2000
   -2.1873    0.3179   -1.6615 O   0  0  0  0  0  0  0  0  0  0  0  0
   -2.7053    0.2358    0.6365 O   0  0  0  0  0  0  0  0  0  0  0  0
   -4.8819    0.8884    0.1068 O   0  0  0  0  0  0  0  0  0  0  0  0
    0.8882   -2.2685   -2.5625 O   0  0  0  0  0  0  0  0  0  0  0  0
   -3.7023   -2.2338    1.5932 O   0  0  0  0  0  0  0  0  0  0  0  0
   -6.4810   -2.0037    2.5451 O   0  0  0  0  0  0  0  0  0  0  0  0
   -8.1353   -0.7362    0.5420 O   0  0  0  0  0  0  0  0  0  0  0  0
   -6.3519    2.4221   -1.6376 O   0  0  0  0  0  0  0  0  0  0  0  0
    2.3142   -1.4055   -0.9459 N   0  0  0  0  0  0  0  0  0  0  0  0
    4.4994    0.5128    1.4288 N   0  0  0  0  0  0  0  0  0  0  0  0
    0.2015    0.3210    0.0241 C   0  0  1  0  0  0  0  0  0  0  0  0
    2.5059   -0.5659    0.2718 C   0  0  2  0  0  0  0  0  0  0  0  0
    1.6689    0.7098    0.1888 C   0  0  0  0  0  0  0  0  0  0  0  0
   -0.7681    1.5267   -0.0137 C   0  0  2  0  0  0  0  0  0  0  0  0
    0.0167   -0.5564   -1.1773 C   0  0  0  0  0  0  0  0  0  0  0  0
    3.9622   -0.2549    0.4324 C   0  0  0  0  0  0  0  0  0  0  0  0
    3.4036   -2.3377   -1.3130 C   0  0  0  0  0  0  0  0  0  0  0  0
   -2.1731    1.0377   -0.4201 C   0  0  1  0  0  0  0  0  0  0  0  0
    4.9960   -0.7145   -0.3561 C   0  0  0  0  0  0  0  0  0  0  0  0
    1.0956   -1.4919   -1.6288 C   0  0  0  0  0  0  0  0  0  0  0  0
    4.7409   -1.6093   -1.5134 C   0  0  0  0  0  0  0  0  0  0  0  0
   -1.1083   -0.4911   -1.9060 C   0  0  0  0  0  0  0  0  0  0  0  0
    6.2081   -0.1812    0.1599 C   0  0  0  0  0  0  0  0  0  0  0  0
   -0.3252    2.6495   -0.9097 C   0  0  0  0  0  0  0  0  0  0  0  0
   -4.0196   -0.2257    0.3253 C   0  0  2  0  0  0  0  0  0  0  0  0
    5.8679    0.5856    1.2790 C   0  0  0  0  0  0  0  0  0  0  0  0
   -4.5154   -1.0641    1.5034 C   0  0  1  0  0  0  0  0  0  0  0  0
   -5.9762   -1.4748    1.3179 C   0  0  2  0  0  0  0  0  0  0  0  0
   -6.8425   -0.2770    0.9275 C   0  0  1  0  0  0  0  0  0  0  0  0
   -6.2118    0.4934   -0.2349 C   0  0  1  0  0  0  0  0  0  0  0  0
    7.5650   -0.2758   -0.2089 C   0  0  0  0  0  0  0  0  0  0  0  0
    6.8219    1.2639    2.0461 C   0  0  0  0  0  0  0  0  0  0  0  0
   -0.0629    3.8893   -0.4822 C   0  0  0  0  0  0  0  0  0  0  0  0
   -6.9968    1.7587   -0.5656 C   0  0  0  0  0  0  0  0  0  0  0  0
    8.5286    0.3989    0.5493 C   0  0  0  0  0  0  0  0  0  0  0  0
    8.1605    1.1565    1.6589 C   0  0  0  0  0  0  0  0  0  0  0  0
   -0.0756   -0.2880    0.8982 H   0  0  0  0  0  0  0  0  0  0  0  0
    2.1812   -1.1809    1.1213 H   0  0  0  0  0  0  0  0  0  0  0  0
    1.7906    1.3124    1.0975 H   0  0  0  0  0  0  0  0  0  0  0  0
    2.0143    1.3232   -0.6542 H   0  0  0  0  0  0  0  0  0  0  0  0
   -0.8315    1.9088    1.0158 H   0  0  0  0  0  0  0  0  0  0  0  0
    3.1520   -2.8931   -2.2221 H   0  0  0  0  0  0  0  0  0  0  0  0
    3.4799   -3.0676   -0.4969 H   0  0  0  0  0  0  0  0  0  0  0  0
   -2.8180    1.9160   -0.5495 H   0  0  0  0  0  0  0  0  0  0  0  0
    4.6991   -1.0043   -2.4271 H   0  0  0  0  0  0  0  0  0  0  0  0
    5.5473   -2.3410   -1.6301 H   0  0  0  0  0  0  0  0  0  0  0  0
   -1.2929   -1.0623   -2.8064 H   0  0  0  0  0  0  0  0  0  0  0  0
    3.9746    0.9681    2.1630 H   0  0  0  0  0  0  0  0  0  0  0  0
   -0.2106    2.4414   -1.9707 H   0  0  0  0  0  0  0  0  0  0  0  0
   -3.9775   -0.8504   -0.5765 H   0  0  0  0  0  0  0  0  0  0  0  0
   -4.3866   -0.5165    2.4446 H   0  0  0  0  0  0  0  0  0  0  0  0
   -6.0694   -2.2778    0.5775 H   0  0  0  0  0  0  0  0  0  0  0  0
   -6.9666    0.3762    1.8010 H   0  0  0  0  0  0  0  0  0  0  0  0
   -6.1709   -0.1270   -1.1405 H   0  0  0  0  0  0  0  0  0  0  0  0
    7.8676   -0.8631   -1.0711 H   0  0  0  0  0  0  0  0  0  0  0  0
    6.5371    1.8531    2.9114 H   0  0  0  0  0  0  0  0  0  0  0  0
   -7.0253    2.4474    0.2852 H   0  0  0  0  0  0  0  0  0  0  0  0
   -8.0214    1.5369   -0.8753 H   0  0  0  0  0  0  0  0  0  0  0  0
    0.2540    4.6554   -1.1813 H   0  0  0  0  0  0  0  0  0  0  0  0
   -0.1569    4.1619    0.5630 H   0  0  0  0  0  0  0  0  0  0  0  0
    9.5761    0.3296    0.2681 H   0  0  0  0  0  0  0  0  0  0  0  0
   -3.8021   -2.7350    0.7660 H   0  0  0  0  0  0  0  0  0  0  0  0
    8.9255    1.6719    2.2341 H   0  0  0  0  0  0  0  0  0  0  0  0
   -6.3956   -1.3173    3.2285 H   0  0  0  0  0  0  0  0  0  0  0  0
   -8.7334    0.0297    0.5343 H   0  0  0  0  0  0  0  0  0  0  0  0
   -5.4403    2.6146   -1.3589 H   0  0  0  0  0  0  0  0  0  0  0  0
  1 18  1  0  0  0  0
  1 22  1  0  0  0  0
  2 18  1  0  0  0  0
  2 25  1  0  0  0  0
  3 25  1  0  0  0  0
  3 30  1  0  0  0  0
  4 20  2  0  0  0  0
  5 27  1  0  0  0  0
  5 62  1  0  0  0  0
  6 28  1  0  0  0  0
  6 64  1  0  0  0  0
  7 29  1  0  0  0  0
  7 65  1  0  0  0  0
  8 34  1  0  0  0  0
  8 66  1  0  0  0  0
  9 12  1  0  0  0  0
  9 17  1  0  0  0  0
  9 20  1  0  0  0  0
 10 16  1  0  0  0  0
 10 26  1  0  0  0  0
 10 48  1  0  0  0  0
 11 13  1  0  0  0  0
 11 14  1  0  0  0  0
 11 15  1  0  0  0  0
 11 37  1  0  0  0  0
 12 13  1  0  0  0  0
 12 16  1  0  0  0  0
 12 38  1  0  0  0  0
 13 39  1  0  0  0  0
 13 40  1  0  0  0  0
 14 18  1  0  0  0  0
 14 24  1  0  0  0  0
 14 41  1  0  0  0  0
 15 20  1  0  0  0  0
 15 22  2  0  0  0  0
 16 19  2  0  0  0  0
 17 21  1  0  0  0  0
 17 42  1  0  0  0  0
 17 43  1  0  0  0  0
 18 44  1  0  0  0  0
 19 21  1  0  0  0  0
 19 23  1  0  0  0  0
 21 45  1  0  0  0  0
 21 46  1  0  0  0  0
 22 47  1  0  0  0  0
 23 26  1  0  0  0  0
 23 31  2  0  0  0  0
 24 33  2  0  0  0  0
 24 49  1  0  0  0  0
 25 27  1  0  0  0  0
 25 50  1  0  0  0  0
 26 32  2  0  0  0  0
 27 28  1  0  0  0  0
 27 51  1  0  0  0  0
 28 29  1  0  0  0  0
 28 52  1  0  0  0  0
 29 30  1  0  0  0  0
 29 53  1  0  0  0  0
 30 34  1  0  0  0  0
 30 54  1  0  0  0  0
 31 35  1  0  0  0  0
 31 55  1  0  0  0  0
 32 36  1  0  0  0  0
 32 56  1  0  0  0  0
 33 59  1  0  0  0  0
 33 60  1  0  0  0  0
 34 57  1  0  0  0  0
 34 58  1  0  0  0  0
 35 36  2  0  0  0  0
 35 61  1  0  0  0  0
 36 63  1  0  0  0  0
M  END
> <PUBCHEM_COMPOUND_CID>
10163855

> <PUBCHEM_CONFORMER_RMSD>
1

> <PUBCHEM_CONFORMER_DIVERSEORDER>
1
7
18
24
22
20
15
14
11
21
12
6
3
13
17
19
10
8
9
4
2
16
23
5

> <PUBCHEM_MMFF94_PARTIAL_CHARGES>
47
1 -0.36
10 0.03
11 0.14
12 0.48
14 0.14
15 -0.12
16 -0.33
17 0.3
18 0.56
19 -0.18
2 -0.56
20 0.62
21 0.18
22 -0.07
24 -0.29
25 0.56
26 -0.15
27 0.28
28 0.28
29 0.28
3 -0.56
30 0.28
31 -0.15
32 -0.15
33 -0.3
34 0.28
35 -0.15
36 -0.15
4 -0.57
47 0.15
48 0.27
49 0.15
5 -0.68
55 0.15
56 0.15
59 0.15
6 -0.68
60 0.15
61 0.15
62 0.4
63 0.15
64 0.4
65 0.4
66 0.4
7 -0.68
8 -0.68
9 -0.66

> <PUBCHEM_EFFECTIVE_ROTOR_COUNT>
6.4

> <PUBCHEM_PHARMACOPHORE_FEATURES>
21
1 1 acceptor
1 10 cation
1 10 donor
1 2 acceptor
1 3 acceptor
1 33 hydrophobe
1 4 acceptor
1 5 acceptor
1 5 donor
1 6 acceptor
1 6 donor
1 7 acceptor
1 7 donor
1 8 acceptor
1 8 donor
5 10 16 19 23 26 rings
6 1 11 14 15 18 22 rings
6 23 26 31 32 35 36 rings
6 3 25 27 28 29 30 rings
6 9 11 12 13 15 20 rings
6 9 12 16 17 19 21 rings

> <PUBCHEM_HEAVY_ATOM_COUNT>
36

> <PUBCHEM_ATOM_DEF_STEREO_COUNT>
9

> <PUBCHEM_ATOM_UDEF_STEREO_COUNT>
0

> <PUBCHEM_BOND_DEF_STEREO_COUNT>
0

> <PUBCHEM_BOND_UDEF_STEREO_COUNT>
0

> <PUBCHEM_ISOTOPIC_ATOM_COUNT>
0

> <PUBCHEM_COMPONENT_COUNT>
1

> <PUBCHEM_CACTVS_TAUTO_COUNT>
1

> <PUBCHEM_CONFORMER_ID>
009B168F00000001

> <PUBCHEM_MMFF94_ENERGY>
89.3589

> <PUBCHEM_FEATURE_SELFOVERLAP>
106.906

> <PUBCHEM_SHAPE_FINGERPRINT>
10 15 18342736325790006026
10165383 225 17704069612692687736
106641 1 17917712431156584715
11135926 11 16660635246501988835
12120059 9 18187638103333147715
12516196 113 18408326575258682985
12977781 61 15793953898885024674
13540713 4 18126287433155901836
13627175 23 16415481553724048354
13811026 1 18411138013146944992
14068700 675 16805606992252238164
14068700 686 18198345052578563356
14251764 18 15267340725880447824
14294032 229 16806164328762609741
14394314 77 17748824090618392945
14849402 71 16702300191231452073
14931854 50 8646499552714252912
15183329 4 11891329863502015889
15276724 80 15554448496824280440
15301273 46 18341895177888187960
15320294 125 16732985370625862603
15392192 104 16774079587764659823
1577012 14 15051737464856725779
15849732 13 18273212010426179668
18393751 57 18339634634127710342
19303781 99 17680153160484153355
19611394 137 18407761443251223416
20028762 73 15068333506931547178
22224240 67 17989488536736996038
23559900 14 18408044009856333353
23576562 1 12031200967012648936
2747138 104 18410580582775437248
3178227 256 18202567298157954272
3383291 50 18187374263898194243
394071 54 17489871544540522252
397830 11 18336265763847165065
4093350 32 14979962454730261292
4112364 45 18338799039682683420
4169191 19 17275386486883939801
4403749 210 18201432631801679191
474113 269 9727096226566477276
5080951 261 17822278107816621607
5104073 3 18198626536582928698
5219985 9 15430033262318954734
5758199 1 16917351441383533842
5911458 16 15698009543323433850
59682541 35 18410009962062965096
6009941 240 18114179710148358669
9962374 69 18264214793746352059

> <PUBCHEM_SHAPE_MULTIPOLES>
683.95
23.88
2.56
1.95
1.82
1.19
0.2
2.2
11.95
-0.9
-0.97
-0.92
-0.69
4.77

> <PUBCHEM_SHAPE_SELFOVERLAP>
1500.196

> <PUBCHEM_SHAPE_VOLUME>
361.1

> <PUBCHEM_COORDINATE_TYPE>
2
5
10

$$$$
