REMARK  Name = 101679506
REMARK  9 active torsions:
REMARK  status: ('A' for Active; 'I' for Inactive)
REMARK    1  A    between atoms: C_1  and  O_2
REMARK    2  A    between atoms: C_1  and  C_4
REMARK    3  A    between atoms: C_1  and  C_14
REMARK    4  A    between atoms: C_4  and  C_8
REMARK    5  A    between atoms: C_14  and  C_16
REMARK    6  A    between atoms: C_16  and  C_17
REMARK    7  A    between atoms: C_17  and  C_19
REMARK    8  A    between atoms: C_17  and  O_25
REMARK    9  A    between atoms: C_20  and  C_22
REMARK                            x       y       z     vdW  Elec       q    Type
REMARK                         _______ _______ _______ _____ _____    ______ ____
ROOT
ATOM      1  C   UNL     1      -0.412   1.706  -0.410  0.00  0.00    +0.118 C 
ENDROOT
BRANCH   1   2
ATOM      2  O   UNL     1      -0.665   2.981  -0.999  0.00  0.00    -0.384 OA
ATOM      3  H   UNL     1      -1.416   2.912  -1.610  0.00  0.00    +0.210 HD
ENDBRANCH   1   2
BRANCH   1   4
ATOM      4  C   UNL     1      -1.671   1.226   0.323  0.00  0.00    +0.031 C 
BRANCH   4   8
ATOM      5  O   UNL     1      -5.177  -0.074   1.953  0.00  0.00    -0.275 OA
ATOM      6  O   UNL     1      -2.691  -2.456  -1.106  0.00  0.00    -0.275 OA
ATOM      7  N   UNL     1      -3.919  -1.237   0.413  0.00  0.00    -0.255 N 
ATOM      8  C   UNL     1      -2.887   1.146  -0.604  0.00  0.00    +0.021 C 
ATOM      9  C   UNL     1      -2.857  -0.098  -1.485  0.00  0.00    +0.086 C 
ATOM     10  C   UNL     1      -4.201   1.190   0.169  0.00  0.00    +0.086 C 
ATOM     11  C   UNL     1      -3.120  -1.371  -0.716  0.00  0.00    +0.228 C 
ATOM     12  C   UNL     1      -4.470  -0.078   0.945  0.00  0.00    +0.228 C 
ATOM     13  H   UNL     1      -4.121  -2.070   0.898  0.00  0.00    +0.158 HD
ENDBRANCH   4   8
ENDBRANCH   1   4
BRANCH   1  14
ATOM     14  C   UNL     1       0.774   1.825   0.553  0.00  0.00    +0.096 C 
BRANCH  14  16
ATOM     15  O   UNL     1       2.252   2.390  -1.269  0.00  0.00    -0.293 OA
ATOM     16  C   UNL     1       2.122   1.858  -0.164  0.00  0.00    +0.181 C 
BRANCH  16  17
ATOM     17  C   UNL     1       3.330   1.255   0.580  0.00  0.00    +0.157 C 
ATOM     18  C   UNL     1       3.530   2.038   1.882  0.00  0.00    +0.042 C 
BRANCH  17  19
ATOM     19  C   UNL     1       3.055  -0.207   0.869  0.00  0.00    +0.003 C 
ATOM     20  C   UNL     1       2.810  -1.208  -0.006  0.00  0.00    -0.024 C 
ATOM     21  C   UNL     1       2.806  -1.034  -1.502  0.00  0.00    +0.031 C 
BRANCH  20  22
ATOM     22  C   UNL     1       2.548  -2.550   0.520  0.00  0.00    -0.009 C 
ATOM     23  C   UNL     1       2.287  -3.657  -0.194  0.00  0.00    -0.026 C 
ATOM     24  C   UNL     1       2.028  -4.994   0.422  0.00  0.00    +0.031 C 
ENDBRANCH  20  22
ENDBRANCH  17  19
BRANCH  17  25
ATOM     25  O   UNL     1       4.527   1.349  -0.173  0.00  0.00    -0.376 OA
ATOM     26  H   UNL     1       4.716   2.281  -0.366  0.00  0.00    +0.211 HD
ENDBRANCH  17  25
ENDBRANCH  16  17
ENDBRANCH  14  16
ENDBRANCH   1  14
TORSDOF 9
