101642818
  -OEChem-03292013293D

 30 32  0     1  0  0  0  0  0999 V2000
    1.2257    0.1725    0.8784 O   0  0  0  0  0  0  0  0  0  0  0  0
    0.3317   -1.3671   -0.6601 O   0  0  0  0  0  0  0  0  0  0  0  0
    4.3247    0.3597   -0.9189 O   0  0  0  0  0  0  0  0  0  0  0  0
    3.6127   -1.6534    0.8076 O   0  0  0  0  0  0  0  0  0  0  0  0
    1.3387    2.9867    1.0295 O   0  0  0  0  0  0  0  0  0  0  0  0
   -0.9848   -1.2633   -0.2956 N   0  0  0  0  0  0  0  0  0  0  0  0
   -1.6758   -2.3394    0.1245 N   0  0  0  0  0  0  0  0  0  0  0  0
   -2.9148   -1.9399    0.4057 N   0  0  0  0  0  0  0  0  0  0  0  0
   -1.4336    1.1029   -0.6442 N   0  0  0  0  0  0  0  0  0  0  0  0
   -3.7501    1.6278   -0.0735 N   0  0  0  0  0  0  0  0  0  0  0  0
    2.9543    0.0803   -0.7274 C   0  0  1  0  0  0  0  0  0  0  0  0
    2.6910   -1.3259   -0.2273 C   0  0  2  0  0  0  0  0  0  0  0  0
    2.3514    0.9210    0.3862 C   0  0  1  0  0  0  0  0  0  0  0  0
    1.2979   -1.1727    0.3657 C   0  0  1  0  0  0  0  0  0  0  0  0
    1.8916    2.2921   -0.0764 C   0  0  0  0  0  0  0  0  0  0  0  0
   -1.7638   -0.1478   -0.2939 C   0  0  0  0  0  0  0  0  0  0  0  0
   -2.9903   -0.5985    0.1561 C   0  0  0  0  0  0  0  0  0  0  0  0
   -4.0087    0.3402    0.2634 C   0  0  0  0  0  0  0  0  0  0  0  0
   -2.4975    1.9246   -0.4999 C   0  0  0  0  0  0  0  0  0  0  0  0
    2.4217    0.2491   -1.6716 H   0  0  0  0  0  0  0  0  0  0  0  0
    2.7703   -2.0760   -1.0197 H   0  0  0  0  0  0  0  0  0  0  0  0
    3.0502    1.0396    1.2241 H   0  0  0  0  0  0  0  0  0  0  0  0
    1.1146   -1.8723    1.1891 H   0  0  0  0  0  0  0  0  0  0  0  0
    1.1159    2.2114   -0.8437 H   0  0  0  0  0  0  0  0  0  0  0  0
    2.7299    2.8731   -0.4731 H   0  0  0  0  0  0  0  0  0  0  0  0
    4.6677   -0.2886   -1.5573 H   0  0  0  0  0  0  0  0  0  0  0  0
    3.3733   -2.5349    1.1411 H   0  0  0  0  0  0  0  0  0  0  0  0
    1.0504    3.8571    0.7058 H   0  0  0  0  0  0  0  0  0  0  0  0
   -5.0107    0.1126    0.6024 H   0  0  0  0  0  0  0  0  0  0  0  0
   -2.3263    2.9638   -0.7600 H   0  0  0  0  0  0  0  0  0  0  0  0
  1 13  1  0  0  0  0
  1 14  1  0  0  0  0
  2  6  1  0  0  0  0
  2 14  1  0  0  0  0
  3 11  1  0  0  0  0
  3 26  1  0  0  0  0
  4 12  1  0  0  0  0
  4 27  1  0  0  0  0
  5 15  1  0  0  0  0
  5 28  1  0  0  0  0
  6  7  1  0  0  0  0
  6 16  1  0  0  0  0
  7  8  2  0  0  0  0
  8 17  1  0  0  0  0
  9 16  2  0  0  0  0
  9 19  1  0  0  0  0
 10 18  1  0  0  0  0
 10 19  2  0  0  0  0
 11 12  1  0  0  0  0
 11 13  1  0  0  0  0
 11 20  1  0  0  0  0
 12 14  1  0  0  0  0
 12 21  1  0  0  0  0
 13 15  1  0  0  0  0
 13 22  1  0  0  0  0
 14 23  1  0  0  0  0
 15 24  1  0  0  0  0
 15 25  1  0  0  0  0
 16 17  1  0  0  0  0
 17 18  2  0  0  0  0
 18 29  1  0  0  0  0
 19 30  1  0  0  0  0
M  END
> <PUBCHEM_COMPOUND_CID>
101642818

> <PUBCHEM_CONFORMER_RMSD>
0.6

> <PUBCHEM_CONFORMER_DIVERSEORDER>
1
22
38
52
66
36
69
24
55
63
31
51
61
65
19
47
62
54
7
49
59
42
34
23
25
26
60
2
56
43
39
11
29
67
18
57
5
48
68
15
64
30
41
21
33
27
37
44
9
20
4
58
45
6
16
53
12
17
35
14
32
28
50
46
8
10
13
40
3

> <PUBCHEM_MMFF94_PARTIAL_CHARGES>
24
1 -0.56
10 -0.62
11 0.28
12 0.28
13 0.28
14 0.56
15 0.28
16 0.11
17 0.23
18 0.16
19 0.47
2 -0.42
26 0.4
27 0.4
28 0.4
29 0.15
3 -0.68
30 0.15
4 -0.68
5 -0.68
6 0.71
7 -0.42
8 -0.23
9 -0.57

> <PUBCHEM_EFFECTIVE_ROTOR_COUNT>
4

> <PUBCHEM_PHARMACOPHORE_FEATURES>
12
1 1 acceptor
1 3 acceptor
1 3 donor
1 4 acceptor
1 4 donor
1 5 acceptor
1 5 donor
3 6 9 16 cation
3 9 10 19 cation
5 1 11 12 13 14 rings
5 6 7 8 16 17 rings
6 9 10 16 17 18 19 rings

> <PUBCHEM_HEAVY_ATOM_COUNT>
19

> <PUBCHEM_ATOM_DEF_STEREO_COUNT>
4

> <PUBCHEM_ATOM_UDEF_STEREO_COUNT>
0

> <PUBCHEM_BOND_DEF_STEREO_COUNT>
0

> <PUBCHEM_BOND_UDEF_STEREO_COUNT>
0

> <PUBCHEM_ISOTOPIC_ATOM_COUNT>
0

> <PUBCHEM_COMPONENT_COUNT>
1

> <PUBCHEM_CACTVS_TAUTO_COUNT>
1

> <PUBCHEM_CONFORMER_ID>
060EF24200000001

> <PUBCHEM_MMFF94_ENERGY>
44.5909

> <PUBCHEM_FEATURE_SELFOVERLAP>
61.208

> <PUBCHEM_SHAPE_FINGERPRINT>
10366900 7 18115312313824034387
104564 63 17772197405527397472
10498660 4 18261388987894493437
10608611 8 18411698828644064521
10759866 29 18114472162913518678
10967382 1 18266457603206698735
1100329 8 15746976998062452122
116883 192 17911808964248611614
11715629 250 18269269239143569264
12011746 2 18409449159482506581
12633257 1 18340492175244315017
12769317 202 17396397439826765501
13134695 92 16702023059020649304
13140716 1 18411415137585652665
14223421 5 18194681699015126641
14386348 128 18335700567631356333
14866123 147 16322595562950544946
15196674 1 18409167684051965485
15375462 6 18194120943637175159
15442244 35 18336261241557916362
15775835 57 18333737900736517940
16945 1 18338225059218776607
17041 50 18272943725673498838
17802600 8 18409722950519845317
17804303 29 18409453557228161631
18186145 218 18131637793679584747
18219364 16 18191588545479238365
18981168 100 18191843781988840165
20233049 118 18411141312209518172
21501502 16 18410008866355875791
21524375 3 18264765468155662215
22094290 62 18411415098772639192
23388829 49 17691120857199143007
23419403 2 14945021482016389214
23559900 14 18411693305363731043
238 59 17904443395772803269
2748010 2 18194393614089106677
474 4 16806465767179594892
5104073 3 18407760326311449858
5939293 188 18343016683980520888
6438718 38 17058372466400530409
7097593 13 17969766497933141314
7364860 26 18270398416332206200
74978 22 18412541028712623899
7832392 63 18413105086888998356

> <PUBCHEM_SHAPE_MULTIPOLES>
336.76
7.15
2.66
0.84
0.4
0.88
-0.02
0.28
0.27
0.03
-0.4
-0.39
0.13
0.27

> <PUBCHEM_SHAPE_SELFOVERLAP>
726.098

> <PUBCHEM_SHAPE_VOLUME>
182.8

> <PUBCHEM_COORDINATE_TYPE>
2
5
10

$$$$
