REMARK  Name = 101676260
REMARK  4 active torsions:
REMARK  status: ('A' for Active; 'I' for Inactive)
REMARK    1  A    between atoms: C_14  and  O_29
REMARK    2  A    between atoms: C_15  and  C_33
REMARK    3  A    between atoms: C_24  and  O_31
REMARK    4  A    between atoms: C_33  and  O_34
REMARK                            x       y       z     vdW  Elec       q    Type
REMARK                         _______ _______ _______ _____ _____    ______ ____
ROOT
ATOM      1  O   UNL     1       2.593   2.792   1.635  0.00  0.00    -0.379 OA
ATOM      2  O   UNL     1      -2.072   2.596  -1.092  0.00  0.00    -0.287 OA
ATOM      3  O   UNL     1      -2.968  -2.400   0.394  0.00  0.00    -0.284 OA
ATOM      4  N   UNL     1       3.606  -0.648  -1.428  0.00  0.00    +0.387 N 
ATOM      5  N   UNL     1       1.145  -1.115   0.138  0.00  0.00    +0.408 N 
ATOM      6  N   UNL     1       0.778   1.941   0.409  0.00  0.00    +0.409 N 
ATOM      7  C   UNL     1       2.615   0.398  -1.195  0.00  0.00    -0.079 C 
ATOM      8  C   UNL     1       1.197  -0.150  -0.967  0.00  0.00    -0.089 C 
ATOM      9  C   UNL     1       3.146   1.026   0.108  0.00  0.00    -0.015 C 
ATOM     10  C   UNL     1       3.642  -1.352  -0.146  0.00  0.00    -0.051 C 
ATOM     11  C   UNL     1       0.277   1.058  -0.653  0.00  0.00    -0.049 C 
ATOM     12  C   UNL     1       3.926  -0.142   0.764  0.00  0.00    -0.022 C 
ATOM     13  C   UNL     1       2.051   1.594   1.040  0.00  0.00    +0.062 C 
ATOM     14  C   UNL     1       2.293  -2.030   0.227  0.00  0.00    +0.040 C 
ATOM     15  C   UNL     1      -0.194  -1.674   0.391  0.00  0.00    +0.001 C 
ATOM     16  C   UNL     1      -1.122   0.561  -0.327  0.00  0.00    -0.007 C 
ATOM     17  C   UNL     1       0.962   3.334   0.028  0.00  0.00    -0.041 C 
ATOM     18  C   UNL     1      -1.334  -0.695   0.101  0.00  0.00    +0.000 C 
ATOM     19  C   UNL     1       3.408  -1.455  -2.615  0.00  0.00    -0.101 C 
ATOM     20  C   UNL     1       1.716   3.855   1.236  0.00  0.00    +0.117 C 
ATOM     21  C   UNL     1      -2.259   1.483  -0.608  0.00  0.00    +0.188 C 
ATOM     22  C   UNL     1      -2.729  -1.208   0.218  0.00  0.00    +0.223 C 
ATOM     23  C   UNL     1      -3.634   1.026  -0.274  0.00  0.00    +0.054 C 
ATOM     24  C   UNL     1      -3.844  -0.238   0.111  0.00  0.00    +0.176 C 
ATOM     25  C   UNL     1      -4.724   2.049  -0.424  0.00  0.00    +0.038 C 
ATOM     26  H   UNL     1       4.522  -0.276  -1.679  0.00  0.00    -0.080 HD
ATOM     27  H   UNL     1       1.297  -0.558   0.978  0.00  0.00    -0.076 HD
ATOM     28  H   UNL     1       0.006   1.802   1.060  0.00  0.00    -0.075 HD
ENDROOT
BRANCH  14  29
ATOM     29  O   UNL     1       2.159  -3.221  -0.549  0.00  0.00    -0.407 OA
ATOM     30  H   UNL     1       1.321  -3.658  -0.329  0.00  0.00    +0.207 HD
ENDBRANCH  14  29
BRANCH  24  31
ATOM     31  O   UNL     1      -5.114  -0.701   0.396  0.00  0.00    -0.468 OA
ATOM     32  C   UNL     1      -5.726  -1.229  -0.764  0.00  0.00    +0.253 C 
ENDBRANCH  24  31
BRANCH  15  33
ATOM     33  C   UNL     1      -0.257  -2.123   1.863  0.00  0.00    +0.121 C 
BRANCH  33  34
ATOM     34  O   UNL     1       0.462  -3.332   1.984  0.00  0.00    -0.384 OA
ATOM     35  H   UNL     1       0.435  -3.634   2.905  0.00  0.00    +0.210 HD
ENDBRANCH  33  34
ENDBRANCH  15  33
TORSDOF 4
