REMARK  Name = 101690775
REMARK  5 active torsions:
REMARK  status: ('A' for Active; 'I' for Inactive)
REMARK    1  A    between atoms: C_2  and  O_17
REMARK    2  A    between atoms: C_10  and  O_19
REMARK    3  A    between atoms: C_14  and  C_24
REMARK    4  A    between atoms: C_15  and  O_21
REMARK    5  A    between atoms: C_24  and  O_25
REMARK                            x       y       z     vdW  Elec       q    Type
REMARK                         _______ _______ _______ _____ _____    ______ ____
ROOT
ATOM      1  O   UNL     1      -3.189  -2.644   0.144  0.00  0.00    -0.291 OA
ATOM      2  C   UNL     1      -3.821   1.454  -0.282  0.00  0.00    +0.133 C 
ATOM      3  C   UNL     1      -2.435   0.878  -0.172  0.00  0.00    +0.010 C 
ATOM      4  C   UNL     1      -4.793   0.442  -0.882  0.00  0.00    +0.042 C 
ATOM      5  C   UNL     1      -2.220  -0.501  -0.044  0.00  0.00    +0.067 C 
ATOM      6  C   UNL     1      -4.768  -0.868  -0.107  0.00  0.00    +0.072 C 
ATOM      7  C   UNL     1       0.190  -0.146   0.055  0.00  0.00    +0.030 C 
ATOM      8  C   UNL     1      -3.372  -1.440  -0.010  0.00  0.00    +0.176 C 
ATOM      9  C   UNL     1      -0.017   1.246  -0.063  0.00  0.00    +0.005 C 
ATOM     10  C   UNL     1      -0.919  -1.008   0.065  0.00  0.00    +0.136 C 
ATOM     11  C   UNL     1      -1.328   1.740  -0.172  0.00  0.00    -0.002 C 
ATOM     12  C   UNL     1       1.501  -0.638   0.163  0.00  0.00    -0.010 C 
ATOM     13  C   UNL     1       1.093   2.108  -0.069  0.00  0.00    +0.037 C 
ATOM     14  C   UNL     1       2.592   0.231   0.155  0.00  0.00    +0.105 C 
ATOM     15  C   UNL     1       2.388   1.603   0.039  0.00  0.00    +0.140 C 
ATOM     16  C   UNL     1       1.822  -2.100   0.293  0.00  0.00    +0.031 C 
ENDROOT
BRANCH   2  17
ATOM     17  O   UNL     1      -4.248   1.841   1.020  0.00  0.00    -0.380 OA
ATOM     18  H   UNL     1      -3.622   2.484   1.388  0.00  0.00    +0.211 HD
ENDBRANCH   2  17
BRANCH  10  19
ATOM     19  O   UNL     1      -0.743  -2.359   0.180  0.00  0.00    -0.505 OA
ATOM     20  H   UNL     1      -1.486  -2.930   0.186  0.00  0.00    +0.292 HD
ENDBRANCH  10  19
BRANCH  15  21
ATOM     21  O   UNL     1       3.438   2.472   0.028  0.00  0.00    -0.505 OA
ATOM     22  H   UNL     1       3.283   3.393  -0.050  0.00  0.00    +0.292 HD
ENDBRANCH  15  21
BRANCH  14  24
ATOM     23  O   UNL     1       4.552  -0.438   1.337  0.00  0.00    -0.245 OA
ATOM     24  C   UNL     1       3.958  -0.276   0.267  0.00  0.00    +0.344 C 
BRANCH  24  25
ATOM     25  O   UNL     1       4.490  -0.546  -0.962  0.00  0.00    -0.441 OA
ATOM     26  C   UNL     1       5.829  -1.051  -0.984  0.00  0.00    +0.256 C 
ENDBRANCH  24  25
ENDBRANCH  14  24
TORSDOF 5
