REMARK  Name = 101684212
REMARK  5 active torsions:
REMARK  status: ('A' for Active; 'I' for Inactive)
REMARK    1  A    between atoms: C_8  and  C_28
REMARK    2  A    between atoms: C_10  and  O_24
REMARK    3  A    between atoms: C_12  and  O_26
REMARK    4  A    between atoms: C_28  and  O_29
REMARK    5  A    between atoms: O_29  and  C_31
REMARK                            x       y       z     vdW  Elec       q    Type
REMARK                         _______ _______ _______ _____ _____    ______ ____
ROOT
ATOM      1  O   UNL     1      -1.639  -0.111   0.711  0.00  0.00    -0.222 OA
ATOM      2  O   UNL     1      -2.929  -0.781   0.888  0.00  0.00    -0.221 OA
ATOM      3  O   UNL     1      -5.324   1.813   0.396  0.00  0.00    -0.446 OA
ATOM      4  O   UNL     1      -7.338   0.731   0.242  0.00  0.00    -0.250 OA
ATOM      5  C   UNL     1       0.391   0.089  -0.656  0.00  0.00    +0.034 C 
ATOM      6  C   UNL     1       1.234  -0.478   0.583  0.00  0.00    +0.033 C 
ATOM      7  C   UNL     1      -1.102  -0.515  -0.576  0.00  0.00    +0.142 C 
ATOM      8  C   UNL     1       2.628   0.224   0.864  0.00  0.00    +0.045 C 
ATOM      9  C   UNL     1       0.361   1.641  -0.560  0.00  0.00    +0.032 C 
ATOM     10  C   UNL     1       1.256  -2.035   0.558  0.00  0.00    +0.115 C 
ATOM     11  C   UNL     1       2.456   1.762   0.826  0.00  0.00    +0.033 C 
ATOM     12  C   UNL     1       1.737   2.284  -0.406  0.00  0.00    +0.111 C 
ATOM     13  C   UNL     1      -0.972  -2.046  -0.616  0.00  0.00    -0.015 C 
ATOM     14  C   UNL     1      -2.067   0.106  -1.632  0.00  0.00    +0.037 C 
ATOM     15  C   UNL     1      -0.154  -2.634   0.502  0.00  0.00    +0.054 C 
ATOM     16  C   UNL     1       1.003  -0.289  -2.034  0.00  0.00    +0.003 C 
ATOM     17  C   UNL     1       3.140  -0.091   2.297  0.00  0.00    +0.004 C 
ATOM     18  C   UNL     1      -3.551  -0.178  -1.345  0.00  0.00    +0.038 C 
ATOM     19  C   UNL     1      -3.881  -0.028   0.145  0.00  0.00    +0.177 C 
ATOM     20  C   UNL     1      -1.469  -2.855  -1.567  0.00  0.00    -0.007 C 
ATOM     21  C   UNL     1      -5.284  -0.532   0.454  0.00  0.00    +0.144 C 
ATOM     22  C   UNL     1      -3.969   1.414   0.621  0.00  0.00    +0.239 C 
ATOM     23  C   UNL     1      -6.120   0.706   0.342  0.00  0.00    +0.320 C 
ENDROOT
BRANCH  10  24
ATOM     24  O   UNL     1       1.879  -2.585   1.715  0.00  0.00    -0.384 OA
ATOM     25  H   UNL     1       2.779  -2.235   1.795  0.00  0.00    +0.210 HD
ENDBRANCH  10  24
BRANCH  12  26
ATOM     26  O   UNL     1       1.579   3.698  -0.288  0.00  0.00    -0.384 OA
ATOM     27  H   UNL     1       1.121   4.039  -1.072  0.00  0.00    +0.210 HD
ENDBRANCH  12  26
BRANCH   8  28
ATOM     28  C   UNL     1       3.756  -0.208  -0.093  0.00  0.00    +0.208 C 
BRANCH  28  29
ATOM     29  O   UNL     1       4.947   0.427   0.321  0.00  0.00    -0.448 OA
BRANCH  29  31
ATOM     30  O   UNL     1       6.115  -0.580  -1.399  0.00  0.00    -0.250 OA
ATOM     31  C   UNL     1       6.067   0.156  -0.422  0.00  0.00    +0.318 C 
ATOM     32  C   UNL     1       7.248   0.895   0.130  0.00  0.00    +0.121 C 
ENDBRANCH  29  31
ENDBRANCH  28  29
ENDBRANCH   8  28
TORSDOF 5
