REMARK  Name = 10163855
REMARK  8 active torsions:
REMARK  status: ('A' for Active; 'I' for Inactive)
REMARK    1  A    between atoms: C_8  and  C_24
REMARK    2  A    between atoms: C_12  and  O_26
REMARK    3  A    between atoms: O_26  and  C_28
REMARK    4  A    between atoms: C_29  and  O_33
REMARK    5  A    between atoms: C_30  and  O_35
REMARK    6  A    between atoms: C_31  and  O_37
REMARK    7  A    between atoms: C_32  and  C_39
REMARK    8  A    between atoms: C_39  and  O_40
REMARK                            x       y       z     vdW  Elec       q    Type
REMARK                         _______ _______ _______ _____ _____    ______ ____
ROOT
ATOM      1  O   UNL     1      -2.187   0.318  -1.661  0.00  0.00    -0.449 OA
ATOM      2  O   UNL     1       0.888  -2.268  -2.563  0.00  0.00    -0.270 OA
ATOM      3  N   UNL     1       2.314  -1.405  -0.946  0.00  0.00    -0.272 N 
ATOM      4  N   UNL     1       4.499   0.513   1.429  0.00  0.00    -0.355 N 
ATOM      5  C   UNL     1       0.202   0.321   0.024  0.00  0.00    +0.042 C 
ATOM      6  C   UNL     1       2.506  -0.566   0.272  0.00  0.00    +0.114 C 
ATOM      7  C   UNL     1       1.669   0.710   0.189  0.00  0.00    +0.031 C 
ATOM      8  C   UNL     1      -0.768   1.527  -0.014  0.00  0.00    +0.097 C 
ATOM      9  C   UNL     1       0.017  -0.556  -1.177  0.00  0.00    +0.069 C 
ATOM     10  C   UNL     1       3.962  -0.255   0.432  0.00  0.00    +0.048 A 
ATOM     11  C   UNL     1       3.404  -2.338  -1.313  0.00  0.00    +0.099 C 
ATOM     12  C   UNL     1      -2.173   1.038  -0.420  0.00  0.00    +0.294 C 
ATOM     13  C   UNL     1       4.996  -0.715  -0.356  0.00  0.00    -0.006 A 
ATOM     14  C   UNL     1       1.096  -1.492  -1.629  0.00  0.00    +0.248 C 
ATOM     15  C   UNL     1       4.741  -1.609  -1.513  0.00  0.00    +0.049 C 
ATOM     16  C   UNL     1      -1.108  -0.491  -1.906  0.00  0.00    +0.175 C 
ATOM     17  C   UNL     1       6.208  -0.181   0.160  0.00  0.00    +0.013 A 
ATOM     18  C   UNL     1       5.868   0.586   1.279  0.00  0.00    +0.056 A 
ATOM     19  C   UNL     1       7.565  -0.276  -0.209  0.00  0.00    +0.001 C 
ATOM     20  C   UNL     1       6.822   1.264   2.046  0.00  0.00    +0.017 C 
ATOM     21  C   UNL     1       8.529   0.399   0.549  0.00  0.00    +0.000 C 
ATOM     22  C   UNL     1       8.161   1.157   1.659  0.00  0.00    +0.001 C 
ATOM     23  H   UNL     1       3.985   0.949   2.146  0.00  0.00    +0.166 HD
ENDROOT
BRANCH   8  24
ATOM     24  C   UNL     1      -0.325   2.650  -0.910  0.00  0.00    -0.020 C 
ATOM     25  C   UNL     1      -0.063   3.889  -0.482  0.00  0.00    -0.005 C 
ENDBRANCH   8  24
BRANCH  12  26
ATOM     26  O   UNL     1      -2.705   0.236   0.636  0.00  0.00    -0.293 OA
BRANCH  26  28
ATOM     27  O   UNL     1      -4.882   0.888   0.107  0.00  0.00    -0.326 OA
ATOM     28  C   UNL     1      -4.020  -0.226   0.325  0.00  0.00    +0.268 C 
ATOM     29  C   UNL     1      -4.515  -1.064   1.503  0.00  0.00    +0.197 C 
ATOM     30  C   UNL     1      -5.976  -1.475   1.318  0.00  0.00    +0.172 C 
ATOM     31  C   UNL     1      -6.843  -0.277   0.927  0.00  0.00    +0.169 C 
ATOM     32  C   UNL     1      -6.212   0.493  -0.235  0.00  0.00    +0.176 C 
BRANCH  29  33
ATOM     33  O   UNL     1      -3.702  -2.234   1.593  0.00  0.00    -0.378 OA
ATOM     34  H   UNL     1      -2.775  -1.975   1.711  0.00  0.00    +0.211 HD
ENDBRANCH  29  33
BRANCH  30  35
ATOM     35  O   UNL     1      -6.481  -2.004   2.545  0.00  0.00    -0.379 OA
ATOM     36  H   UNL     1      -5.945  -2.767   2.813  0.00  0.00    +0.211 HD
ENDBRANCH  30  35
BRANCH  31  37
ATOM     37  O   UNL     1      -8.135  -0.736   0.542  0.00  0.00    -0.379 OA
ATOM     38  H   UNL     1      -8.537  -1.225   1.277  0.00  0.00    +0.211 HD
ENDBRANCH  31  37
BRANCH  32  39
ATOM     39  C   UNL     1      -6.997   1.759  -0.566  0.00  0.00    +0.169 C 
BRANCH  39  40
ATOM     40  O   UNL     1      -6.352   2.422  -1.638  0.00  0.00    -0.379 OA
ATOM     41  H   UNL     1      -6.841   3.230  -1.859  0.00  0.00    +0.211 HD
ENDBRANCH  39  40
ENDBRANCH  32  39
ENDBRANCH  26  28
ENDBRANCH  12  26
TORSDOF 8
