REMARK  Name = 101656410
REMARK  3 active torsions:
REMARK  status: ('A' for Active; 'I' for Inactive)
REMARK    1  A    between atoms: C_4  and  C_13
REMARK    2  A    between atoms: C_14  and  O_20
REMARK    3  A    between atoms: C_15  and  S_17
REMARK                            x       y       z     vdW  Elec       q    Type
REMARK                         _______ _______ _______ _____ _____    ______ ____
ROOT
ATOM      1  N   UNL     1       1.660  -1.393  -0.024  0.00  0.00    -0.313 N 
ATOM      2  N   UNL     1       1.251   0.796   0.040  0.00  0.00    -0.299 N 
ATOM      3  N   UNL     1       3.564   1.526   0.142  0.00  0.00    -0.228 NA
ATOM      4  C   UNL     1       0.714  -0.403  -0.019  0.00  0.00    +0.178 C 
ATOM      5  C   UNL     1       2.887  -0.791   0.038  0.00  0.00    +0.078 C 
ATOM      6  C   UNL     1       2.604   0.570   0.077  0.00  0.00    +0.143 C 
ATOM      7  C   UNL     1       4.191  -1.272   0.064  0.00  0.00    +0.019 C 
ATOM      8  C   UNL     1       5.188  -0.302   0.131  0.00  0.00    +0.022 C 
ATOM      9  C   UNL     1       4.828   1.040   0.167  0.00  0.00    +0.100 C 
ATOM     10  H   UNL     1       1.489  -2.361  -0.063  0.00  0.00    +0.149 HD
ATOM     11  H   UNL     1       0.786   1.663   0.055  0.00  0.00    +0.150 HD
ENDROOT
BRANCH   4  13
ATOM     12  S   UNL     1      -1.242  -2.280  -0.148  0.00  0.00    -0.084 S 
ATOM     13  C   UNL     1      -0.675  -0.666  -0.074  0.00  0.00    +0.078 C 
ATOM     14  C   UNL     1      -1.708   0.245  -0.076  0.00  0.00    +0.152 C 
ATOM     15  C   UNL     1      -2.982  -0.391  -0.138  0.00  0.00    +0.097 C 
ATOM     16  C   UNL     1      -2.874  -1.763  -0.182  0.00  0.00    +0.047 C 
BRANCH  15  17
ATOM     17  S   UNL     1      -4.542   0.473  -0.158  0.00  0.00    +0.069 S 
ATOM     18  O   UNL     1      -5.622  -0.563   0.013  0.00  0.00    -0.251 OA
ATOM     19  C   UNL     1      -4.374   1.325   1.435  0.00  0.00    +0.111 C 
ENDBRANCH  15  17
BRANCH  14  20
ATOM     20  O   UNL     1      -1.504   1.575  -0.023  0.00  0.00    -0.471 OA
ATOM     21  C   UNL     1      -1.364   2.275  -1.266  0.00  0.00    +0.253 C 
ENDBRANCH  14  20
ENDBRANCH   4  13
TORSDOF 3
