101630837
  -OEChem-03292013293D

 33 35  0     1  0  0  0  0  0999 V2000
    0.0586   -1.6852    1.9528 O   0  0  0  0  0  0  0  0  0  0  0  0
    2.0956   -1.7339    0.8242 O   0  0  0  0  0  0  0  0  0  0  0  0
   -1.0880   -0.7038   -0.5417 N   0  0  0  0  0  0  0  0  0  0  0  0
    1.1975   -0.0422   -1.1217 N   0  0  0  0  0  0  0  0  0  0  0  0
    1.6555    1.5437    0.4427 N   0  0  0  0  0  0  0  0  0  0  0  0
   -2.0623    1.4298   -0.0692 N   0  0  0  0  0  0  0  0  0  0  0  0
   -3.3840   -0.3226   -0.7730 N   0  0  0  0  0  0  0  0  0  0  0  0
    3.1608    1.1874   -1.3890 N   0  0  0  0  0  0  0  0  0  0  0  0
    0.2503   -0.3617   -0.0763 C   0  0  2  0  0  0  0  0  0  0  0  0
    0.6904   -1.6419    0.6753 C   0  0  0  0  0  0  0  0  0  0  0  0
    0.2904    0.9588    0.7162 C   0  0  2  0  0  0  0  0  0  0  0  0
    0.1291   -2.7301   -0.2430 C   0  0  0  0  0  0  0  0  0  0  0  0
   -1.2281   -2.1625   -0.6639 C   0  0  0  0  0  0  0  0  0  0  0  0
   -0.7345    1.9899    0.1944 C   0  0  2  0  0  0  0  0  0  0  0  0
   -2.1478    0.1895   -0.4484 C   0  0  0  0  0  0  0  0  0  0  0  0
    2.0261    0.9508   -0.6728 C   0  0  0  0  0  0  0  0  0  0  0  0
   -0.9094    3.1342    1.1934 C   0  0  0  0  0  0  0  0  0  0  0  0
    0.1694    0.7949    1.7922 H   0  0  0  0  0  0  0  0  0  0  0  0
    0.0191   -3.6996    0.2536 H   0  0  0  0  0  0  0  0  0  0  0  0
    0.7745   -2.8790   -1.1171 H   0  0  0  0  0  0  0  0  0  0  0  0
   -1.4840   -2.4558   -1.6867 H   0  0  0  0  0  0  0  0  0  0  0  0
   -2.0024   -2.5290    0.0200 H   0  0  0  0  0  0  0  0  0  0  0  0
   -0.3802    2.4344   -0.7453 H   0  0  0  0  0  0  0  0  0  0  0  0
    1.4149   -0.6741   -1.8828 H   0  0  0  0  0  0  0  0  0  0  0  0
   -1.3079    2.7691    2.1465 H   0  0  0  0  0  0  0  0  0  0  0  0
   -1.6141    3.8792    0.8078 H   0  0  0  0  0  0  0  0  0  0  0  0
    0.0416    3.6396    1.3893 H   0  0  0  0  0  0  0  0  0  0  0  0
    2.3305   -2.6766    0.8545 H   0  0  0  0  0  0  0  0  0  0  0  0
   -0.0387   -2.6179    2.2078 H   0  0  0  0  0  0  0  0  0  0  0  0
   -4.2131    0.2596   -0.7204 H   0  0  0  0  0  0  0  0  0  0  0  0
   -3.5091   -1.2626   -1.1300 H   0  0  0  0  0  0  0  0  0  0  0  0
    3.8272    1.8957   -1.1013 H   0  0  0  0  0  0  0  0  0  0  0  0
    3.3675    0.6708   -2.2368 H   0  0  0  0  0  0  0  0  0  0  0  0
  1 10  1  0  0  0  0
  1 29  1  0  0  0  0
  2 10  1  0  0  0  0
  2 28  1  0  0  0  0
  3  9  1  0  0  0  0
  3 13  1  0  0  0  0
  3 15  1  0  0  0  0
  4  9  1  0  0  0  0
  4 16  1  0  0  0  0
  4 24  1  0  0  0  0
  5 11  1  0  0  0  0
  5 16  2  0  0  0  0
  6 14  1  0  0  0  0
  6 15  2  0  0  0  0
  7 15  1  0  0  0  0
  7 30  1  0  0  0  0
  7 31  1  0  0  0  0
  8 16  1  0  0  0  0
  8 32  1  0  0  0  0
  8 33  1  0  0  0  0
  9 10  1  0  0  0  0
  9 11  1  0  0  0  0
 10 12  1  0  0  0  0
 11 14  1  0  0  0  0
 11 18  1  0  0  0  0
 12 13  1  0  0  0  0
 12 19  1  0  0  0  0
 12 20  1  0  0  0  0
 13 21  1  0  0  0  0
 13 22  1  0  0  0  0
 14 17  1  0  0  0  0
 14 23  1  0  0  0  0
 17 25  1  0  0  0  0
 17 26  1  0  0  0  0
 17 27  1  0  0  0  0
M  END
> <PUBCHEM_COMPOUND_CID>
101630837

> <PUBCHEM_CONFORMER_RMSD>
0.6

> <PUBCHEM_CONFORMER_DIVERSEORDER>
1
4
2
3

> <PUBCHEM_MMFF94_PARTIAL_CHARGES>
22
1 -0.68
10 0.56
11 0.25
13 0.37
14 0.25
15 0.55
16 0.55
2 -0.68
24 0.4
28 0.4
29 0.4
3 -0.79
30 0.4
31 0.4
32 0.4
33 0.4
4 -0.82
5 -0.7
6 -0.7
7 -0.85
8 -0.85
9 0.74

> <PUBCHEM_EFFECTIVE_ROTOR_COUNT>
1

> <PUBCHEM_PHARMACOPHORE_FEATURES>
12
1 1 acceptor
1 1 donor
1 2 acceptor
1 2 donor
1 4 donor
1 7 donor
1 8 donor
4 3 6 7 15 cation
4 4 5 8 16 cation
5 3 9 10 12 13 rings
5 4 5 9 11 16 rings
6 3 6 9 11 14 15 rings

> <PUBCHEM_HEAVY_ATOM_COUNT>
17

> <PUBCHEM_ATOM_DEF_STEREO_COUNT>
3

> <PUBCHEM_ATOM_UDEF_STEREO_COUNT>
0

> <PUBCHEM_BOND_DEF_STEREO_COUNT>
0

> <PUBCHEM_BOND_UDEF_STEREO_COUNT>
0

> <PUBCHEM_ISOTOPIC_ATOM_COUNT>
0

> <PUBCHEM_COMPONENT_COUNT>
1

> <PUBCHEM_CACTVS_TAUTO_COUNT>
6

> <PUBCHEM_CONFORMER_ID>
060EC37500000001

> <PUBCHEM_MMFF94_ENERGY>
60.1006

> <PUBCHEM_FEATURE_SELFOVERLAP>
61.313

> <PUBCHEM_SHAPE_FINGERPRINT>
12423570 1 17399803696209116328
13024252 1 17534637198081277830
13140716 1 18411409610036998499
13380536 167 18123755244512111756
14181834 199 17685165639713151471
14761567 1 18193256701785916551
14817 1 15590989979003050170
15490181 8 18191045425194195656
16945 1 18341327915392014501
20511035 2 16978424652672922669
20588541 1 16104724739914262245
20645476 183 17678175099518456388
22112679 90 18059281085772299077
22802520 49 18057618757007988580
2334 1 18339915017518167663
23388829 49 18123170321595622935
23419403 2 15249706650740568405
23559900 14 16836561264775827742
2748010 2 16823046629854112135
3250762 1 17332527281245252205
353137 74 18411426106679250253
394222 165 18040710351158417129
5255222 1 18192694860218712231
576247 118 16819711768295364158
81228 2 18124055643542444824

> <PUBCHEM_SHAPE_MULTIPOLES>
308.23
3.23
3.17
1.24
0.62
0.24
-0.27
-0.55
-1.16
0.51
1.62
-0.18
0.35
0.3

> <PUBCHEM_SHAPE_SELFOVERLAP>
668.267

> <PUBCHEM_SHAPE_VOLUME>
167.8

> <PUBCHEM_COORDINATE_TYPE>
2
5
10

$$$$
