REMARK  Name = 101643013
REMARK  5 active torsions:
REMARK  status: ('A' for Active; 'I' for Inactive)
REMARK    1  A    between atoms: C_8  and  O_24
REMARK    2  A    between atoms: C_11  and  O_26
REMARK    3  A    between atoms: C_19  and  O_28
REMARK    4  A    between atoms: C_21  and  C_30
REMARK    5  A    between atoms: C_30  and  O_32
REMARK                            x       y       z     vdW  Elec       q    Type
REMARK                         _______ _______ _______ _____ _____    ______ ____
ROOT
ATOM      1  O   UNL     1       1.926   1.196   0.889  0.00  0.00    -0.354 OA
ATOM      2  O   UNL     1      -2.799   0.112  -0.866  0.00  0.00    -0.448 OA
ATOM      3  O   UNL     1      -3.196   0.470   1.386  0.00  0.00    -0.247 OA
ATOM      4  C   UNL     1       1.964  -0.272  -0.966  0.00  0.00    +0.062 C 
ATOM      5  C   UNL     1       1.009   0.375   0.088  0.00  0.00    +0.114 C 
ATOM      6  C   UNL     1       2.834   0.950  -1.280  0.00  0.00    +0.056 C 
ATOM      7  C   UNL     1       3.166   1.359   0.156  0.00  0.00    +0.146 C 
ATOM      8  C   UNL     1       2.915  -1.401  -0.489  0.00  0.00    +0.116 C 
ATOM      9  C   UNL     1       0.045   1.389  -0.666  0.00  0.00    +0.053 C 
ATOM     10  C   UNL     1       3.750  -1.050   0.762  0.00  0.00    +0.056 C 
ATOM     11  C   UNL     1       4.222   0.421   0.758  0.00  0.00    +0.140 C 
ATOM     12  C   UNL     1       2.065   2.050  -1.957  0.00  0.00    -0.028 C 
ATOM     13  C   UNL     1       0.226  -0.578   1.016  0.00  0.00    -0.024 C 
ATOM     14  C   UNL     1       0.773   2.251  -1.677  0.00  0.00    -0.028 C 
ATOM     15  C   UNL     1      -0.792   2.284   0.281  0.00  0.00    +0.048 C 
ATOM     16  C   UNL     1       4.904  -2.039   0.963  0.00  0.00    +0.005 C 
ATOM     17  C   UNL     1      -0.713  -1.483   0.655  0.00  0.00    -0.029 C 
ATOM     18  C   UNL     1       0.462  -0.415   2.508  0.00  0.00    +0.028 C 
ATOM     19  C   UNL     1      -2.301   2.238  -0.010  0.00  0.00    +0.214 C 
ATOM     20  C   UNL     1      -1.288  -1.824  -0.701  0.00  0.00    +0.064 C 
ATOM     21  C   UNL     1      -2.760  -1.341  -0.868  0.00  0.00    +0.199 C 
ATOM     22  C   UNL     1      -2.847   0.851   0.278  0.00  0.00    +0.344 C 
ATOM     23  C   UNL     1      -1.176  -3.333  -0.946  0.00  0.00    +0.008 C 
ENDROOT
BRANCH   8  24
ATOM     24  O   UNL     1       2.159  -2.584  -0.259  0.00  0.00    -0.384 OA
ATOM     25  H   UNL     1       1.639  -2.795  -1.051  0.00  0.00    +0.210 HD
ENDBRANCH   8  24
BRANCH  11  26
ATOM     26  O   UNL     1       5.428   0.589   0.017  0.00  0.00    -0.382 OA
ATOM     27  H   UNL     1       5.692   1.522   0.037  0.00  0.00    +0.210 HD
ENDBRANCH  11  26
BRANCH  19  28
ATOM     28  O   UNL     1      -2.946   3.141   0.878  0.00  0.00    -0.342 OA
ATOM     29  C   UNL     1      -4.245   3.487   0.417  0.00  0.00    +0.175 C 
ENDBRANCH  19  28
BRANCH  21  30
ATOM     30  C   UNL     1      -3.805  -1.988   0.040  0.00  0.00    +0.151 C 
ATOM     31  C   UNL     1      -5.200  -1.461  -0.247  0.00  0.00    +0.036 C 
BRANCH  30  32
ATOM     32  O   UNL     1      -3.780  -3.396  -0.158  0.00  0.00    -0.381 OA
ATOM     33  H   UNL     1      -2.889  -3.733   0.026  0.00  0.00    +0.210 HD
ENDBRANCH  30  32
ENDBRANCH  21  30
TORSDOF 5
