REMARK  Name = 101672936
REMARK  3 active torsions:
REMARK  status: ('A' for Active; 'I' for Inactive)
REMARK    1  A    between atoms: C_8  and  C_24
REMARK    2  A    between atoms: C_11  and  O_36
REMARK    3  A    between atoms: C_13  and  C_33
REMARK                            x       y       z     vdW  Elec       q    Type
REMARK                         _______ _______ _______ _____ _____    ______ ____
ROOT
ATOM      1  S   UNL     1       1.600   1.333  -1.864  0.00  0.00    -0.052 S 
ATOM      2  S   UNL     1       3.178   2.078  -0.760  0.00  0.00    -0.054 S 
ATOM      3  O   UNL     1       2.064   0.778   2.336  0.00  0.00    -0.272 OA
ATOM      4  O   UNL     1       2.877  -1.878  -2.168  0.00  0.00    -0.272 OA
ATOM      5  N   UNL     1       1.223  -0.147   0.380  0.00  0.00    -0.247 N 
ATOM      6  N   UNL     1      -0.299  -1.499   1.651  0.00  0.00    -0.318 N 
ATOM      7  N   UNL     1       3.739  -0.582  -0.420  0.00  0.00    -0.263 N 
ATOM      8  C   UNL     1      -1.000  -0.567  -0.505  0.00  0.00    +0.102 C 
ATOM      9  C   UNL     1      -0.154  -0.319   0.808  0.00  0.00    +0.160 C 
ATOM     10  C   UNL     1       1.399  -0.306  -1.057  0.00  0.00    +0.205 C 
ATOM     11  C   UNL     1       0.120  -1.040  -1.510  0.00  0.00    +0.156 C 
ATOM     12  C   UNL     1      -1.881  -1.711  -0.037  0.00  0.00    -0.000 C 
ATOM     13  C   UNL     1       3.506   0.649   0.372  0.00  0.00    +0.178 C 
ATOM     14  C   UNL     1       2.219   0.411   1.174  0.00  0.00    +0.254 C 
ATOM     15  C   UNL     1       2.718  -1.056  -1.267  0.00  0.00    +0.256 C 
ATOM     16  C   UNL     1      -1.432  -2.176   1.206  0.00  0.00    +0.042 C 
ATOM     17  C   UNL     1      -2.953  -2.308  -0.685  0.00  0.00    -0.003 C 
ATOM     18  C   UNL     1       5.071  -1.166  -0.505  0.00  0.00    +0.116 C 
ATOM     19  C   UNL     1      -2.033  -3.268   1.809  0.00  0.00    +0.014 C 
ATOM     20  C   UNL     1      -3.579  -3.390  -0.066  0.00  0.00    -0.000 C 
ATOM     21  C   UNL     1      -3.122  -3.868   1.172  0.00  0.00    +0.001 C 
ATOM     22  H   UNL     1       0.291  -1.766   2.392  0.00  0.00    +0.148 HD
ENDROOT
BRANCH   8  24
ATOM     23  N   UNL     1      -2.725   2.281  -2.133  0.00  0.00    -0.312 N 
ATOM     24  C   UNL     1      -1.838   0.648  -0.919  0.00  0.00    +0.002 C 
ATOM     25  C   UNL     1      -2.736   1.379  -0.093  0.00  0.00    +0.011 C 
ATOM     26  C   UNL     1      -1.853   1.226  -2.168  0.00  0.00    +0.058 C 
ATOM     27  C   UNL     1      -3.280   2.398  -0.878  0.00  0.00    +0.048 C 
ATOM     28  C   UNL     1      -3.141   1.272   1.253  0.00  0.00    +0.001 C 
ATOM     29  C   UNL     1      -4.210   3.318  -0.384  0.00  0.00    +0.015 C 
ATOM     30  C   UNL     1      -4.071   2.186   1.761  0.00  0.00    +0.000 C 
ATOM     31  C   UNL     1      -4.596   3.192   0.954  0.00  0.00    +0.001 C 
ATOM     32  H   UNL     1      -2.927   2.870  -2.895  0.00  0.00    +0.152 HD
ENDBRANCH   8  24
BRANCH  13  33
ATOM     33  C   UNL     1       4.650   1.042   1.312  0.00  0.00    +0.036 C 
ATOM     34  C   UNL     1       5.940   1.246   0.523  0.00  0.00    +0.003 C 
ATOM     35  C   UNL     1       4.288   2.302   2.092  0.00  0.00    +0.003 C 
ENDBRANCH  13  33
BRANCH  11  36
ATOM     36  O   UNL     1       0.313  -2.457  -1.383  0.00  0.00    -0.381 OA
ATOM     37  H   UNL     1      -0.492  -2.919  -1.667  0.00  0.00    +0.210 HD
ENDBRANCH  11  36
TORSDOF 3
