101683882
  -OEChem-03292013293D

 63 65  0     1  0  0  0  0  0999 V2000
   -5.5083   -0.8204    2.4644 O   0  0  0  0  0  0  0  0  0  0  0  0
   -1.3578   -5.0510    0.3743 O   0  0  0  0  0  0  0  0  0  0  0  0
   -0.6519   -5.3633   -1.7619 O   0  0  0  0  0  0  0  0  0  0  0  0
    6.7749   -0.7473    1.3354 O   0  0  0  0  0  0  0  0  0  0  0  0
   -3.0740    4.1449   -3.1988 O   0  0  0  0  0  0  0  0  0  0  0  0
   -2.2168    4.9133   -1.2407 O   0  0  0  0  0  0  0  0  0  0  0  0
    0.5760   -1.2320    1.1966 N   0  0  0  0  0  0  0  0  0  0  0  0
   -3.3777   -0.7749    1.4798 N   0  0  0  0  0  0  0  0  0  0  0  0
    4.5034   -0.7214    0.7533 N   0  0  0  0  0  0  0  0  0  0  0  0
   -0.6872   -1.3650    0.4393 C   0  0  2  0  0  0  0  0  0  0  0  0
    1.6842   -1.3485    0.2227 C   0  0  1  0  0  0  0  0  0  0  0  0
   -0.2853   -1.9099   -0.9031 C   0  0  0  0  0  0  0  0  0  0  0  0
    1.0503   -1.9025   -1.0252 C   0  0  0  0  0  0  0  0  0  0  0  0
   -1.3122   -2.4032   -1.8643 C   0  0  0  0  0  0  0  0  0  0  0  0
   -1.4004   -0.0512    0.3531 C   0  0  0  0  0  0  0  0  0  0  0  0
    2.3497   -0.0248    0.0074 C   0  0  0  0  0  0  0  0  0  0  0  0
    1.8916   -2.3852   -2.1568 C   0  0  0  0  0  0  0  0  0  0  0  0
   -2.6257    0.1687    0.8416 C   0  0  0  0  0  0  0  0  0  0  0  0
   -2.1571   -3.5338   -1.2900 C   0  0  0  0  0  0  0  0  0  0  0  0
   -3.4212    1.3783    0.8252 C   0  0  0  0  0  0  0  0  0  0  0  0
    3.6401    0.2147    0.2642 C   0  0  0  0  0  0  0  0  0  0  0  0
   -4.6040    1.1631    1.4313 C   0  0  0  0  0  0  0  0  0  0  0  0
   -2.9294    2.6420    0.2061 C   0  0  0  0  0  0  0  0  0  0  0  0
    4.4015    1.4435    0.1007 C   0  0  0  0  0  0  0  0  0  0  0  0
   -4.6001   -0.2608    1.8755 C   0  0  0  0  0  0  0  0  0  0  0  0
    5.6779    1.2278    0.4858 C   0  0  0  0  0  0  0  0  0  0  0  0
   -1.3188   -4.7411   -0.9450 C   0  0  0  0  0  0  0  0  0  0  0  0
   -3.2774    2.7432   -1.2741 C   0  0  0  0  0  0  0  0  0  0  0  0
    5.7699   -0.1965    0.9217 C   0  0  0  0  0  0  0  0  0  0  0  0
   -5.7639    2.0503    1.6831 C   0  0  0  0  0  0  0  0  0  0  0  0
    3.9117    2.7066   -0.3889 C   0  0  0  0  0  0  0  0  0  0  0  0
    6.8732    2.1080    0.5337 C   0  0  0  0  0  0  0  0  0  0  0  0
   -2.8046    4.0456   -1.8738 C   0  0  0  0  0  0  0  0  0  0  0  0
    4.2694    3.8827    0.1273 C   0  0  0  0  0  0  0  0  0  0  0  0
   -1.2721   -2.1232    0.9651 H   0  0  0  0  0  0  0  0  0  0  0  0
    2.3683   -2.1085    0.6113 H   0  0  0  0  0  0  0  0  0  0  0  0
    0.6437   -1.9978    1.8682 H   0  0  0  0  0  0  0  0  0  0  0  0
   -1.9715   -1.5718   -2.1420 H   0  0  0  0  0  0  0  0  0  0  0  0
   -0.8496   -2.7408   -2.7974 H   0  0  0  0  0  0  0  0  0  0  0  0
   -0.8707    0.7588   -0.1438 H   0  0  0  0  0  0  0  0  0  0  0  0
    1.7299    0.7828   -0.3781 H   0  0  0  0  0  0  0  0  0  0  0  0
    2.5972   -3.1440   -1.8034 H   0  0  0  0  0  0  0  0  0  0  0  0
    2.4637   -1.5576   -2.5876 H   0  0  0  0  0  0  0  0  0  0  0  0
    1.3041   -2.8347   -2.9608 H   0  0  0  0  0  0  0  0  0  0  0  0
   -2.9051   -3.8562   -2.0239 H   0  0  0  0  0  0  0  0  0  0  0  0
   -2.7211   -3.2092   -0.4090 H   0  0  0  0  0  0  0  0  0  0  0  0
   -3.0925   -1.7309    1.6493 H   0  0  0  0  0  0  0  0  0  0  0  0
   -3.3721    3.4972    0.7343 H   0  0  0  0  0  0  0  0  0  0  0  0
   -1.8495    2.7598    0.3596 H   0  0  0  0  0  0  0  0  0  0  0  0
    4.2636   -1.6802    0.9699 H   0  0  0  0  0  0  0  0  0  0  0  0
   -4.3630    2.6841   -1.4135 H   0  0  0  0  0  0  0  0  0  0  0  0
   -2.8049    1.9255   -1.8304 H   0  0  0  0  0  0  0  0  0  0  0  0
   -6.6708    1.6271    1.2397 H   0  0  0  0  0  0  0  0  0  0  0  0
   -5.6190    3.0458    1.2540 H   0  0  0  0  0  0  0  0  0  0  0  0
   -5.9282    2.1676    2.7588 H   0  0  0  0  0  0  0  0  0  0  0  0
    3.1954    2.6814   -1.2050 H   0  0  0  0  0  0  0  0  0  0  0  0
    7.0086    2.5159    1.5400 H   0  0  0  0  0  0  0  0  0  0  0  0
    6.8149    2.9337   -0.1805 H   0  0  0  0  0  0  0  0  0  0  0  0
    7.7754    1.5434    0.2743 H   0  0  0  0  0  0  0  0  0  0  0  0
   -0.7970   -5.8278    0.5848 H   0  0  0  0  0  0  0  0  0  0  0  0
    3.8547    4.7982   -0.2832 H   0  0  0  0  0  0  0  0  0  0  0  0
    4.9396    3.9870    0.9725 H   0  0  0  0  0  0  0  0  0  0  0  0
   -2.7496    4.9903   -3.5762 H   0  0  0  0  0  0  0  0  0  0  0  0
  1 25  2  0  0  0  0
  2 27  1  0  0  0  0
  2 60  1  0  0  0  0
  3 27  2  0  0  0  0
  4 29  2  0  0  0  0
  5 33  1  0  0  0  0
  5 63  1  0  0  0  0
  6 33  2  0  0  0  0
  7 10  1  0  0  0  0
  7 11  1  0  0  0  0
  7 37  1  0  0  0  0
  8 18  1  0  0  0  0
  8 25  1  0  0  0  0
  8 47  1  0  0  0  0
  9 21  1  0  0  0  0
  9 29  1  0  0  0  0
  9 50  1  0  0  0  0
 10 12  1  0  0  0  0
 10 15  1  0  0  0  0
 10 35  1  0  0  0  0
 11 13  1  0  0  0  0
 11 16  1  0  0  0  0
 11 36  1  0  0  0  0
 12 13  2  0  0  0  0
 12 14  1  0  0  0  0
 13 17  1  0  0  0  0
 14 19  1  0  0  0  0
 14 38  1  0  0  0  0
 14 39  1  0  0  0  0
 15 18  2  0  0  0  0
 15 40  1  0  0  0  0
 16 21  2  0  0  0  0
 16 41  1  0  0  0  0
 17 42  1  0  0  0  0
 17 43  1  0  0  0  0
 17 44  1  0  0  0  0
 18 20  1  0  0  0  0
 19 27  1  0  0  0  0
 19 45  1  0  0  0  0
 19 46  1  0  0  0  0
 20 22  2  0  0  0  0
 20 23  1  0  0  0  0
 21 24  1  0  0  0  0
 22 25  1  0  0  0  0
 22 30  1  0  0  0  0
 23 28  1  0  0  0  0
 23 48  1  0  0  0  0
 23 49  1  0  0  0  0
 24 26  2  0  0  0  0
 24 31  1  0  0  0  0
 26 29  1  0  0  0  0
 26 32  1  0  0  0  0
 28 33  1  0  0  0  0
 28 51  1  0  0  0  0
 28 52  1  0  0  0  0
 30 53  1  0  0  0  0
 30 54  1  0  0  0  0
 30 55  1  0  0  0  0
 31 34  2  0  0  0  0
 31 56  1  0  0  0  0
 32 57  1  0  0  0  0
 32 58  1  0  0  0  0
 32 59  1  0  0  0  0
 34 61  1  0  0  0  0
 34 62  1  0  0  0  0
M  END
> <PUBCHEM_COMPOUND_CID>
101683882

> <PUBCHEM_CONFORMER_RMSD>
1

> <PUBCHEM_CONFORMER_DIVERSEORDER>
1
109
23
220
54
158
124
21
146
108
96
196
119
22
137
6
102
148
200
222
83
142
224
152
16
163
150
90
41
188
178
203
44
144
165
35
55
106
129
208
59
65
103
164
66
86
138
61
182
218
43
192
175
98
197
121
183
117
3
211
87
56
195
201
40
97
155
141
84
104
143
160
111
58
95
72
125
173
149
99
162
198
153
24
130
48
75
214
32
189
76
46
63
215
89
167
230
93
209
33
60
223
10
145
213
180
193
184
116
172
112
199
204
36
62
226
216
28
37
168
225
52
113
140
170
31
73
166
161
171
187
206
5
179
12
34
190
11
131
101
74
30
219
47
77
154
68
156
115
105
88
19
71
228
92
136
135
78
94
50
51
159
202
217
45
227
64
191
53
57
85
205
194
49
67
174
100
185
17
91
4
70
114
169
210
176
132
14
13
151
147
221
157
229
69
123
8
15
126
177
232
133
26
186
231
120
25
110
2
38
107
82
139
128
212
42
122
9
80
207
29
18
39
134
20
81
7
27
127
79
181
118

> <PUBCHEM_MMFF94_PARTIAL_CHARGES>
43
1 -0.57
10 0.55
11 0.55
12 -0.28
13 -0.28
14 0.14
15 -0.29
16 -0.29
17 0.14
18 0.11
19 0.06
2 -0.65
20 -0.14
21 0.11
22 -0.12
23 0.14
25 0.62
26 -0.12
27 0.66
28 0.06
29 0.62
3 -0.57
30 0.14
31 -0.15
32 0.14
33 0.66
34 -0.3
37 0.36
4 -0.57
40 0.15
41 0.15
47 0.37
5 -0.65
50 0.37
56 0.15
6 -0.57
60 0.5
61 0.15
62 0.15
63 0.5
7 -0.9
8 -0.54
9 -0.54

> <PUBCHEM_EFFECTIVE_ROTOR_COUNT>
10

> <PUBCHEM_PHARMACOPHORE_FEATURES>
16
1 1 acceptor
1 2 acceptor
1 3 acceptor
1 34 hydrophobe
1 4 acceptor
1 5 acceptor
1 6 acceptor
1 7 cation
1 7 donor
1 8 donor
1 9 donor
3 2 3 27 anion
3 5 6 33 anion
5 7 10 11 12 13 rings
5 8 18 20 22 25 rings
5 9 21 24 26 29 rings

> <PUBCHEM_HEAVY_ATOM_COUNT>
34

> <PUBCHEM_ATOM_DEF_STEREO_COUNT>
0

> <PUBCHEM_ATOM_UDEF_STEREO_COUNT>
2

> <PUBCHEM_BOND_DEF_STEREO_COUNT>
2

> <PUBCHEM_BOND_UDEF_STEREO_COUNT>
0

> <PUBCHEM_ISOTOPIC_ATOM_COUNT>
0

> <PUBCHEM_COMPONENT_COUNT>
1

> <PUBCHEM_CACTVS_TAUTO_COUNT>
748

> <PUBCHEM_CONFORMER_ID>
060F92AA00000001

> <PUBCHEM_MMFF94_ENERGY>
61.0011

> <PUBCHEM_FEATURE_SELFOVERLAP>
81.314

> <PUBCHEM_SHAPE_FINGERPRINT>
10369192 42 18059584602157760576
11763715 3 17900548083968575430
12107183 9 18341046338344021554
12128747 34 17532091588281841522
12422481 6 18261122871779414057
12788726 201 18127961112844412651
12988421 55 18200596899721135643
13583140 156 17894900785636180490
13911987 19 18130498635773435889
14395042 24 18122067774191353907
14747282 140 16024811113780114140
15815584 197 17839178515930692366
18393751 57 18340783602061586731
19246450 95 17975669742304357058
21133410 32 13757203337906087556
23559900 14 17830766187148374703
24771293 8 18336560318239651585
25019877 29 17702683171374890383
376196 1 17900813860518019865
5081480 168 17486226513144171268
613672 6 8934419780059637420
6608658 132 17903644330192750804
6700243 42 16980437214250052622
7399639 24 18266474118031120235

> <PUBCHEM_SHAPE_MULTIPOLES>
649.55
13.73
6.85
2.14
16.81
2.88
0.89
-11.7
-8.32
-5.36
5.55
-3.09
-0.71
1.13

> <PUBCHEM_SHAPE_SELFOVERLAP>
1380.994

> <PUBCHEM_SHAPE_VOLUME>
363.1

> <PUBCHEM_COORDINATE_TYPE>
2
5
10

$$$$
