REMARK  Name = 101687175
REMARK  10 active torsions:
REMARK  status: ('A' for Active; 'I' for Inactive)
REMARK    1  A    between atoms: C_2  and  O_7
REMARK    2  A    between atoms: C_3  and  O_9
REMARK    3  A    between atoms: C_4  and  C_26
REMARK    4  A    between atoms: C_5  and  O_11
REMARK    5  A    between atoms: C_6  and  O_13
REMARK    6  A    between atoms: O_13  and  C_15
REMARK    7  A    between atoms: C_15  and  C_16
REMARK    8  A    between atoms: C_17  and  O_22
REMARK    9  A    between atoms: C_19  and  O_24
REMARK   10  A    between atoms: C_26  and  O_27
REMARK                            x       y       z     vdW  Elec       q    Type
REMARK                         _______ _______ _______ _____ _____    ______ ____
ROOT
ATOM      1  O   UNL     1       1.994   0.822  -0.330  0.00  0.00    -0.316 OA
ATOM      2  C   UNL     1       4.301   0.091  -0.477  0.00  0.00    +0.169 C 
ATOM      3  C   UNL     1       3.922  -1.253   0.145  0.00  0.00    +0.173 C 
ATOM      4  C   UNL     1       3.339   1.191  -0.021  0.00  0.00    +0.177 C 
ATOM      5  C   UNL     1       2.434  -1.548  -0.039  0.00  0.00    +0.211 C 
ATOM      6  C   UNL     1       1.575  -0.350   0.364  0.00  0.00    +0.321 C 
ENDROOT
BRANCH   2   7
ATOM      7  O   UNL     1       5.628   0.434  -0.087  0.00  0.00    -0.379 OA
ATOM      8  H   UNL     1       6.239  -0.261  -0.375  0.00  0.00    +0.211 HD
ENDBRANCH   2   7
BRANCH   3   9
ATOM      9  O   UNL     1       4.692  -2.269  -0.498  0.00  0.00    -0.379 OA
ATOM     10  H   UNL     1       5.637  -2.082  -0.381  0.00  0.00    +0.211 HD
ENDBRANCH   3   9
BRANCH   5  11
ATOM     11  O   UNL     1       2.066  -2.658   0.780  0.00  0.00    -0.377 OA
ATOM     12  H   UNL     1       2.602  -3.430   0.538  0.00  0.00    +0.211 HD
ENDBRANCH   5  11
BRANCH   6  13
ATOM     13  O   UNL     1       0.219  -0.649   0.031  0.00  0.00    -0.419 OA
BRANCH  13  15
ATOM     14  O   UNL     1      -0.518   0.952   1.512  0.00  0.00    -0.245 OA
ATOM     15  C   UNL     1      -0.725   0.080   0.683  0.00  0.00    +0.346 C 
BRANCH  15  16
ATOM     16  C   UNL     1      -2.086  -0.325   0.250  0.00  0.00    +0.112 C 
ATOM     17  C   UNL     1      -3.140   0.589   0.249  0.00  0.00    +0.174 C 
ATOM     18  C   UNL     1      -2.303  -1.641  -0.160  0.00  0.00    +0.010 C 
ATOM     19  C   UNL     1      -4.412   0.187  -0.162  0.00  0.00    +0.172 C 
ATOM     20  C   UNL     1      -3.574  -2.042  -0.571  0.00  0.00    +0.004 C 
ATOM     21  C   UNL     1      -4.628  -1.129  -0.572  0.00  0.00    +0.040 C 
BRANCH  17  22
ATOM     22  O   UNL     1      -2.936   1.877   0.648  0.00  0.00    -0.503 OA
ATOM     23  H   UNL     1      -2.084   2.152   0.925  0.00  0.00    +0.292 HD
ENDBRANCH  17  22
BRANCH  19  24
ATOM     24  O   UNL     1      -5.450   1.068  -0.168  0.00  0.00    -0.468 OA
ATOM     25  C   UNL     1      -6.716   0.575  -0.602  0.00  0.00    +0.253 C 
ENDBRANCH  19  24
ENDBRANCH  15  16
ENDBRANCH  13  15
ENDBRANCH   6  13
BRANCH   4  26
ATOM     26  C   UNL     1       3.625   2.517  -0.719  0.00  0.00    +0.169 C 
BRANCH  26  27
ATOM     27  O   UNL     1       2.694   3.479  -0.257  0.00  0.00    -0.379 OA
ATOM     28  H   UNL     1       2.864   4.329  -0.694  0.00  0.00    +0.211 HD
ENDBRANCH  26  27
ENDBRANCH   4  26
TORSDOF 10
