REMARK  Name = 101657608
REMARK  5 active torsions:
REMARK  status: ('A' for Active; 'I' for Inactive)
REMARK    1  A    between atoms: C_2  and  O_14
REMARK    2  A    between atoms: C_3  and  O_16
REMARK    3  A    between atoms: C_4  and  C_19
REMARK    4  A    between atoms: C_5  and  N_10
REMARK    5  A    between atoms: C_19  and  O_20
REMARK                            x       y       z     vdW  Elec       q    Type
REMARK                         _______ _______ _______ _____ _____    ______ ____
ROOT
ATOM      1  N   UNL     1       0.247  -0.086  -1.852  0.00  0.00    +0.398 N 
ATOM      2  C   UNL     1      -0.816   0.577   0.793  0.00  0.00    +0.145 C 
ATOM      3  C   UNL     1       0.428   1.274   0.228  0.00  0.00    +0.136 C 
ATOM      4  C   UNL     1      -1.724   0.073  -0.333  0.00  0.00    +0.107 C 
ATOM      5  C   UNL     1       1.153   0.419  -0.817  0.00  0.00    +0.043 C 
ATOM      6  C   UNL     1      -0.931  -0.777  -1.331  0.00  0.00    -0.065 C 
ATOM      7  H   UNL     1       0.766  -0.738  -2.440  0.00  0.00    -0.082 HD
ATOM      8  H   UNL     1      -0.092   0.726  -2.366  0.00  0.00    -0.082 HD
ENDROOT
BRANCH   5  10
ATOM      9  O   UNL     1       3.857   0.471   0.235  0.00  0.00    -0.275 OA
ATOM     10  N   UNL     1       1.879  -0.670  -0.216  0.00  0.00    -0.323 N 
ATOM     11  C   UNL     1       3.175  -0.550   0.261  0.00  0.00    +0.221 C 
ATOM     12  C   UNL     1       3.686  -1.832   0.862  0.00  0.00    +0.095 C 
ATOM     13  H   UNL     1       1.432  -1.545  -0.139  0.00  0.00    +0.147 HD
ENDBRANCH   5  10
BRANCH   2  14
ATOM     14  O   UNL     1      -1.513   1.504   1.624  0.00  0.00    -0.382 OA
ATOM     15  H   UNL     1      -0.924   1.811   2.330  0.00  0.00    +0.210 HD
ENDBRANCH   2  14
BRANCH   3  16
ATOM     16  O   UNL     1       0.067   2.521  -0.375  0.00  0.00    -0.382 OA
ATOM     17  H   UNL     1      -0.393   3.074   0.276  0.00  0.00    +0.210 HD
ENDBRANCH   3  16
BRANCH   4  19
ATOM     18  O   UNL     1      -2.744  -1.456   1.239  0.00  0.00    -0.250 OA
ATOM     19  C   UNL     1      -2.827  -0.776   0.227  0.00  0.00    +0.314 C 
BRANCH  19  20
ATOM     20  O   UNL     1      -3.937  -0.691  -0.546  0.00  0.00    -0.480 OA
ATOM     21  H   UNL     1      -3.934  -0.150  -1.311  0.00  0.00    +0.295 HD
ENDBRANCH  19  20
ENDBRANCH   4  19
TORSDOF 5
