REMARK  Name = 101651045
REMARK  5 active torsions:
REMARK  status: ('A' for Active; 'I' for Inactive)
REMARK    1  A    between atoms: C_6  and  C_31
REMARK    2  A    between atoms: C_17  and  O_25
REMARK    3  A    between atoms: C_19  and  O_27
REMARK    4  A    between atoms: C_21  and  O_29
REMARK    5  A    between atoms: C_31  and  C_32
REMARK                            x       y       z     vdW  Elec       q    Type
REMARK                         _______ _______ _______ _____ _____    ______ ____
ROOT
ATOM      1  O   UNL     1      -0.131  -0.032   2.319  0.00  0.00    -0.275 OA
ATOM      2  O   UNL     1      -0.296   0.981  -2.079  0.00  0.00    -0.295 OA
ATOM      3  N   UNL     1      -2.278   0.238   1.489  0.00  0.00    -0.306 N 
ATOM      4  C   UNL     1      -2.051  -0.767  -0.598  0.00  0.00    +0.037 C 
ATOM      5  C   UNL     1      -0.611  -0.387  -0.088  0.00  0.00    +0.129 C 
ATOM      6  C   UNL     1      -3.005   0.084   0.257  0.00  0.00    +0.073 C 
ATOM      7  C   UNL     1      -2.381  -2.286  -0.515  0.00  0.00    +0.020 C 
ATOM      8  C   UNL     1       0.481  -1.488  -0.398  0.00  0.00    +0.057 C 
ATOM      9  C   UNL     1      -0.925  -0.072   1.390  0.00  0.00    +0.229 C 
ATOM     10  C   UNL     1      -1.308  -3.082  -1.212  0.00  0.00    -0.048 C 
ATOM     11  C   UNL     1      -0.140   0.886  -0.857  0.00  0.00    +0.161 C 
ATOM     12  C   UNL     1      -0.024  -2.704  -1.141  0.00  0.00    -0.030 C 
ATOM     13  C   UNL     1      -2.601  -2.865   0.890  0.00  0.00    +0.004 C 
ATOM     14  C   UNL     1       1.309  -1.948   0.784  0.00  0.00    -0.030 C 
ATOM     15  C   UNL     1       0.557   2.006  -0.096  0.00  0.00    +0.097 C 
ATOM     16  C   UNL     1      -1.736  -4.306  -1.966  0.00  0.00    +0.026 C 
ATOM     17  C   UNL     1       1.798   2.544  -0.819  0.00  0.00    +0.147 C 
ATOM     18  C   UNL     1       2.651  -1.950   0.931  0.00  0.00    -0.048 C 
ATOM     19  C   UNL     1       2.922   1.497  -0.963  0.00  0.00    +0.164 C 
ATOM     20  C   UNL     1       3.659  -1.516  -0.116  0.00  0.00    +0.024 C 
ATOM     21  C   UNL     1       3.548   1.024   0.366  0.00  0.00    +0.140 C 
ATOM     22  C   UNL     1       4.427  -0.230   0.226  0.00  0.00    +0.036 C 
ATOM     23  C   UNL     1       3.255  -2.473   2.211  0.00  0.00    +0.026 C 
ATOM     24  H   UNL     1      -2.700   0.535   2.328  0.00  0.00    +0.149 HD
ENDROOT
BRANCH  17  25
ATOM     25  O   UNL     1       2.287   3.676  -0.100  0.00  0.00    -0.381 OA
ATOM     26  H   UNL     1       1.579   4.333  -0.010  0.00  0.00    +0.210 HD
ENDBRANCH  17  25
BRANCH  19  27
ATOM     27  O   UNL     1       3.933   2.064  -1.803  0.00  0.00    -0.380 OA
ATOM     28  H   UNL     1       3.533   2.359  -2.636  0.00  0.00    +0.211 HD
ENDBRANCH  19  27
BRANCH  21  29
ATOM     29  O   UNL     1       4.348   2.078   0.906  0.00  0.00    -0.382 OA
ATOM     30  H   UNL     1       3.808   2.878   1.001  0.00  0.00    +0.210 HD
ENDBRANCH  21  29
BRANCH   6  31
ATOM     31  C   UNL     1      -3.358   1.437  -0.350  0.00  0.00    +0.020 C 
BRANCH  31  32
ATOM     32  C   UNL     1      -4.683   2.017   0.174  0.00  0.00    +0.002 C 
ATOM     33  C   UNL     1      -4.984   3.341  -0.534  0.00  0.00    +0.000 C 
ATOM     34  C   UNL     1      -4.666   2.233   1.688  0.00  0.00    +0.000 C 
ENDBRANCH  31  32
ENDBRANCH   6  31
TORSDOF 5
