REMARK  Name = 101651022
REMARK  4 active torsions:
REMARK  status: ('A' for Active; 'I' for Inactive)
REMARK    1  A    between atoms: C_1  and  C_5
REMARK    2  A    between atoms: C_1  and  C_26
REMARK    3  A    between atoms: C_5  and  O_19
REMARK    4  A    between atoms: C_28  and  C_38
REMARK                            x       y       z     vdW  Elec       q    Type
REMARK                         _______ _______ _______ _____ _____    ______ ____
ROOT
ATOM      1  C   UNL     1       0.617  -0.818   0.007  0.00  0.00    +0.060 C 
ENDROOT
BRANCH   1   5
ATOM      2  O   UNL     1       4.644   2.549  -1.088  0.00  0.00    -0.277 OA
ATOM      3  N   UNL     1       3.596   0.741  -0.018  0.00  0.00    -0.279 N 
ATOM      4  N   UNL     1       1.833   1.773   0.934  0.00  0.00    +0.406 N 
ATOM      5  C   UNL     1       1.978  -0.843   0.695  0.00  0.00    +0.109 C 
ATOM      6  C   UNL     1       2.605   0.539   1.003  0.00  0.00    +0.052 C 
ATOM      7  C   UNL     1       2.799   2.828   0.516  0.00  0.00    +0.028 C 
ATOM      8  C   UNL     1       3.048  -1.436  -0.210  0.00  0.00    +0.015 C 
ATOM      9  C   UNL     1       3.946  -0.446  -0.633  0.00  0.00    +0.050 C 
ATOM     10  C   UNL     1       3.836   2.061  -0.315  0.00  0.00    +0.209 C 
ATOM     11  C   UNL     1       3.452   3.470   1.738  0.00  0.00    -0.012 C 
ATOM     12  C   UNL     1       2.105   3.881  -0.350  0.00  0.00    -0.012 C 
ATOM     13  C   UNL     1       3.160  -2.729  -0.692  0.00  0.00    -0.001 C 
ATOM     14  C   UNL     1       4.938  -0.691  -1.562  0.00  0.00    +0.015 C 
ATOM     15  C   UNL     1       4.179  -3.007  -1.609  0.00  0.00    -0.000 C 
ATOM     16  C   UNL     1       5.055  -1.996  -2.043  0.00  0.00    +0.001 C 
ATOM     17  H   UNL     1       1.435   1.996   1.846  0.00  0.00    -0.081 HD
ATOM     18  H   UNL     1       1.054   1.694   0.280  0.00  0.00    -0.081 HD
BRANCH   5  19
ATOM     19  O   UNL     1       1.897  -1.612   1.889  0.00  0.00    -0.383 OA
ATOM     20  H   UNL     1       1.216  -1.237   2.469  0.00  0.00    +0.211 HD
ENDBRANCH   5  19
ENDBRANCH   1   5
BRANCH   1  26
ATOM     21  O   UNL     1      -0.250  -2.439   2.633  0.00  0.00    -0.273 OA
ATOM     22  O   UNL     1      -1.043   2.109   1.042  0.00  0.00    -0.274 OA
ATOM     23  N   UNL     1      -1.718  -0.047   0.441  0.00  0.00    -0.229 N 
ATOM     24  N   UNL     1      -1.909  -2.674   1.058  0.00  0.00    -0.298 N 
ATOM     25  N   UNL     1      -3.723  -0.362  -0.803  0.00  0.00    -0.393 NA
ATOM     26  C   UNL     1      -0.515  -0.669   1.017  0.00  0.00    +0.160 C 
ATOM     27  C   UNL     1      -0.884  -1.988   1.681  0.00  0.00    +0.241 C 
ATOM     28  C   UNL     1      -2.353  -2.320  -0.277  0.00  0.00    +0.139 C 
ATOM     29  C   UNL     1      -2.661  -0.832  -0.229  0.00  0.00    +0.184 C 
ATOM     30  C   UNL     1      -1.851   1.346   0.521  0.00  0.00    +0.242 C 
ATOM     31  C   UNL     1      -3.074   1.896  -0.101  0.00  0.00    +0.151 C 
ATOM     32  C   UNL     1      -3.957   1.018  -0.737  0.00  0.00    +0.123 C 
ATOM     33  C   UNL     1      -3.337   3.269  -0.056  0.00  0.00    -0.010 C 
ATOM     34  C   UNL     1      -5.114   1.536  -1.331  0.00  0.00    +0.028 C 
ATOM     35  C   UNL     1      -4.494   3.771  -0.652  0.00  0.00    -0.004 C 
ATOM     36  C   UNL     1      -5.382   2.906  -1.288  0.00  0.00    +0.002 C 
ATOM     37  H   UNL     1      -2.347  -3.418   1.529  0.00  0.00    +0.150 HD
BRANCH  28  38
ATOM     38  C   UNL     1      -3.546  -3.170  -0.693  0.00  0.00    +0.026 C 
ATOM     39  C   UNL     1      -3.162  -4.648  -0.756  0.00  0.00    +0.002 C 
ATOM     40  C   UNL     1      -4.717  -2.964   0.267  0.00  0.00    +0.002 C 
ENDBRANCH  28  38
ENDBRANCH   1  26
TORSDOF 4
