101651045
  -OEChem-03292013293D

 67 69  0     1  0  0  0  0  0999 V2000
   -0.1306   -0.0319    2.3193 O   0  0  0  0  0  0  0  0  0  0  0  0
   -0.2962    0.9812   -2.0786 O   0  0  0  0  0  0  0  0  0  0  0  0
    2.2872    3.6760   -0.0995 O   0  0  0  0  0  0  0  0  0  0  0  0
    3.9330    2.0639   -1.8028 O   0  0  0  0  0  0  0  0  0  0  0  0
    4.3484    2.0777    0.9056 O   0  0  0  0  0  0  0  0  0  0  0  0
   -2.2781    0.2379    1.4893 N   0  0  0  0  0  0  0  0  0  0  0  0
   -2.0515   -0.7666   -0.5983 C   0  0  2  0  0  0  0  0  0  0  0  0
   -0.6110   -0.3872   -0.0885 C   0  0  2  0  0  0  0  0  0  0  0  0
   -3.0050    0.0844    0.2574 C   0  0  2  0  0  0  0  0  0  0  0  0
   -2.3807   -2.2863   -0.5146 C   0  0  1  0  0  0  0  0  0  0  0  0
    0.4814   -1.4878   -0.3978 C   0  0  2  0  0  0  0  0  0  0  0  0
   -0.9246   -0.0716    1.3902 C   0  0  0  0  0  0  0  0  0  0  0  0
   -3.3584    1.4370   -0.3501 C   0  0  0  0  0  0  0  0  0  0  0  0
   -1.3078   -3.0816   -1.2118 C   0  0  0  0  0  0  0  0  0  0  0  0
   -0.1397    0.8856   -0.8569 C   0  0  0  0  0  0  0  0  0  0  0  0
   -0.0237   -2.7037   -1.1408 C   0  0  0  0  0  0  0  0  0  0  0  0
   -2.6007   -2.8650    0.8905 C   0  0  0  0  0  0  0  0  0  0  0  0
    1.3092   -1.9485    0.7844 C   0  0  0  0  0  0  0  0  0  0  0  0
   -4.6825    2.0174    0.1740 C   0  0  0  0  0  0  0  0  0  0  0  0
    0.5573    2.0059   -0.0955 C   0  0  0  0  0  0  0  0  0  0  0  0
   -1.7362   -4.3062   -1.9662 C   0  0  0  0  0  0  0  0  0  0  0  0
    1.7985    2.5437   -0.8185 C   0  0  2  0  0  0  0  0  0  0  0  0
    2.6512   -1.9497    0.9311 C   0  0  0  0  0  0  0  0  0  0  0  0
    2.9221    1.4969   -0.9632 C   0  0  2  0  0  0  0  0  0  0  0  0
   -4.9836    3.3405   -0.5339 C   0  0  0  0  0  0  0  0  0  0  0  0
   -4.6663    2.2333    1.6879 C   0  0  0  0  0  0  0  0  0  0  0  0
    3.6589   -1.5159   -0.1164 C   0  0  0  0  0  0  0  0  0  0  0  0
    3.5476    1.0238    0.3662 C   0  0  1  0  0  0  0  0  0  0  0  0
    4.4266   -0.2298    0.2264 C   0  0  0  0  0  0  0  0  0  0  0  0
    3.2551   -2.4732    2.2113 C   0  0  0  0  0  0  0  0  0  0  0  0
   -2.1700   -0.4980   -1.6569 H   0  0  0  0  0  0  0  0  0  0  0  0
   -3.9318   -0.4601    0.4653 H   0  0  0  0  0  0  0  0  0  0  0  0
   -3.3225   -2.4221   -1.0650 H   0  0  0  0  0  0  0  0  0  0  0  0
    1.1674   -1.0397   -1.1223 H   0  0  0  0  0  0  0  0  0  0  0  0
   -2.7083    0.4864    2.3737 H   0  0  0  0  0  0  0  0  0  0  0  0
   -2.5541    2.1642   -0.1873 H   0  0  0  0  0  0  0  0  0  0  0  0
   -3.4636    1.3237   -1.4369 H   0  0  0  0  0  0  0  0  0  0  0  0
    0.7312   -3.3050   -1.6448 H   0  0  0  0  0  0  0  0  0  0  0  0
   -1.7190   -2.7529    1.5282 H   0  0  0  0  0  0  0  0  0  0  0  0
   -2.8268   -3.9366    0.8389 H   0  0  0  0  0  0  0  0  0  0  0  0
   -3.4485   -2.3954    1.3969 H   0  0  0  0  0  0  0  0  0  0  0  0
    0.7219   -2.3557    1.6076 H   0  0  0  0  0  0  0  0  0  0  0  0
   -5.4958    1.3201   -0.0645 H   0  0  0  0  0  0  0  0  0  0  0  0
   -0.1755    2.8108    0.0389 H   0  0  0  0  0  0  0  0  0  0  0  0
    0.8341    1.6974    0.9117 H   0  0  0  0  0  0  0  0  0  0  0  0
   -2.2281   -5.0185   -1.2968 H   0  0  0  0  0  0  0  0  0  0  0  0
   -0.8892   -4.8203   -2.4328 H   0  0  0  0  0  0  0  0  0  0  0  0
   -2.4379   -4.0346   -2.7614 H   0  0  0  0  0  0  0  0  0  0  0  0
    1.5204    2.9070   -1.8154 H   0  0  0  0  0  0  0  0  0  0  0  0
    2.5226    0.6415   -1.5108 H   0  0  0  0  0  0  0  0  0  0  0  0
   -5.0311    3.2002   -1.6190 H   0  0  0  0  0  0  0  0  0  0  0  0
   -5.5495    2.7979    2.0073 H   0  0  0  0  0  0  0  0  0  0  0  0
   -4.6965    1.2816    2.2257 H   0  0  0  0  0  0  0  0  0  0  0  0
   -5.9481    3.7456   -0.2094 H   0  0  0  0  0  0  0  0  0  0  0  0
   -3.7802    2.7929    2.0051 H   0  0  0  0  0  0  0  0  0  0  0  0
   -4.2130    4.0895   -0.3217 H   0  0  0  0  0  0  0  0  0  0  0  0
    4.3911   -2.3267   -0.2317 H   0  0  0  0  0  0  0  0  0  0  0  0
    3.2036   -1.4245   -1.1057 H   0  0  0  0  0  0  0  0  0  0  0  0
    2.7665    0.8164    1.1018 H   0  0  0  0  0  0  0  0  0  0  0  0
    4.9962   -0.3777    1.1529 H   0  0  0  0  0  0  0  0  0  0  0  0
    5.1881   -0.0532   -0.5443 H   0  0  0  0  0  0  0  0  0  0  0  0
    2.4993   -2.8624    2.9018 H   0  0  0  0  0  0  0  0  0  0  0  0
    3.7964   -1.6785    2.7338 H   0  0  0  0  0  0  0  0  0  0  0  0
    3.9529   -3.2894    1.9970 H   0  0  0  0  0  0  0  0  0  0  0  0
    1.5721    4.3340   -0.0652 H   0  0  0  0  0  0  0  0  0  0  0  0
    3.5229    2.2723   -2.6595 H   0  0  0  0  0  0  0  0  0  0  0  0
    4.6780    1.7833    1.7718 H   0  0  0  0  0  0  0  0  0  0  0  0
  1 12  2  0  0  0  0
  2 15  2  0  0  0  0
  3 22  1  0  0  0  0
  3 65  1  0  0  0  0
  4 24  1  0  0  0  0
  4 66  1  0  0  0  0
  5 28  1  0  0  0  0
  5 67  1  0  0  0  0
  6  9  1  0  0  0  0
  6 12  1  0  0  0  0
  6 35  1  0  0  0  0
  7  8  1  0  0  0  0
  7  9  1  0  0  0  0
  7 10  1  0  0  0  0
  7 31  1  0  0  0  0
  8 11  1  0  0  0  0
  8 12  1  0  0  0  0
  8 15  1  0  0  0  0
  9 13  1  0  0  0  0
  9 32  1  0  0  0  0
 10 14  1  0  0  0  0
 10 17  1  0  0  0  0
 10 33  1  0  0  0  0
 11 16  1  0  0  0  0
 11 18  1  0  0  0  0
 11 34  1  0  0  0  0
 13 19  1  0  0  0  0
 13 36  1  0  0  0  0
 13 37  1  0  0  0  0
 14 16  2  0  0  0  0
 14 21  1  0  0  0  0
 15 20  1  0  0  0  0
 16 38  1  0  0  0  0
 17 39  1  0  0  0  0
 17 40  1  0  0  0  0
 17 41  1  0  0  0  0
 18 23  2  0  0  0  0
 18 42  1  0  0  0  0
 19 25  1  0  0  0  0
 19 26  1  0  0  0  0
 19 43  1  0  0  0  0
 20 22  1  0  0  0  0
 20 44  1  0  0  0  0
 20 45  1  0  0  0  0
 21 46  1  0  0  0  0
 21 47  1  0  0  0  0
 21 48  1  0  0  0  0
 22 24  1  0  0  0  0
 22 49  1  0  0  0  0
 23 27  1  0  0  0  0
 23 30  1  0  0  0  0
 24 28  1  0  0  0  0
 24 50  1  0  0  0  0
 25 51  1  0  0  0  0
 25 54  1  0  0  0  0
 25 56  1  0  0  0  0
 26 52  1  0  0  0  0
 26 53  1  0  0  0  0
 26 55  1  0  0  0  0
 27 29  1  0  0  0  0
 27 57  1  0  0  0  0
 27 58  1  0  0  0  0
 28 29  1  0  0  0  0
 28 59  1  0  0  0  0
 29 60  1  0  0  0  0
 29 61  1  0  0  0  0
 30 62  1  0  0  0  0
 30 63  1  0  0  0  0
 30 64  1  0  0  0  0
M  END
> <PUBCHEM_COMPOUND_CID>
101651045

> <PUBCHEM_CONFORMER_RMSD>
0.8

> <PUBCHEM_CONFORMER_DIVERSEORDER>
1
21
16
25
8
4
29
13
9
2
22
14
24
12
5
26
7
30
17
28
20
15
23
18
27
3
11
19
6
10

> <PUBCHEM_MMFF94_PARTIAL_CHARGES>
29
1 -0.57
10 0.14
11 0.28
12 0.57
14 -0.28
15 0.45
16 -0.29
18 -0.29
2 -0.57
20 0.06
21 0.14
22 0.28
23 -0.28
24 0.28
27 0.14
28 0.28
3 -0.68
30 0.14
35 0.37
38 0.15
4 -0.68
42 0.15
5 -0.68
6 -0.73
65 0.4
66 0.4
67 0.4
8 0.12
9 0.3

> <PUBCHEM_EFFECTIVE_ROTOR_COUNT>
3.8

> <PUBCHEM_PHARMACOPHORE_FEATURES>
12
1 1 acceptor
1 2 acceptor
1 3 acceptor
1 3 donor
1 4 acceptor
1 4 donor
1 5 acceptor
1 5 donor
1 6 donor
3 19 25 26 hydrophobe
5 6 7 8 9 12 rings
6 7 8 10 11 14 16 rings

> <PUBCHEM_HEAVY_ATOM_COUNT>
30

> <PUBCHEM_ATOM_DEF_STEREO_COUNT>
5

> <PUBCHEM_ATOM_UDEF_STEREO_COUNT>
3

> <PUBCHEM_BOND_DEF_STEREO_COUNT>
1

> <PUBCHEM_BOND_UDEF_STEREO_COUNT>
0

> <PUBCHEM_ISOTOPIC_ATOM_COUNT>
0

> <PUBCHEM_COMPONENT_COUNT>
1

> <PUBCHEM_CACTVS_TAUTO_COUNT>
4

> <PUBCHEM_CONFORMER_ID>
060F126500000001

> <PUBCHEM_MMFF94_ENERGY>
85.6456

> <PUBCHEM_FEATURE_SELFOVERLAP>
61.031

> <PUBCHEM_SHAPE_FINGERPRINT>
10863032 1 18411980290672699682
1100329 8 18336264548614045570
11578080 2 17986936621957406344
12035759 4 18049987076796294951
12422481 6 17969502598168132405
12596599 1 18129678481914386006
12633257 1 18190170196416128482
12788726 201 17618506922740637836
13140716 1 18336538344300358266
133893 2 17169802661469421954
13583140 156 17968389969857583651
13965767 371 18125131902486195858
14117953 113 17980754939963130678
14178342 30 18124016078409118176
14790565 3 18342174415071172077
14955137 171 18194701271307844467
15081414 286 17619918258159070461
15420108 30 18412543185055400957
1601671 61 18266460897335721517
16728300 4 16669067169036529954
16752209 62 18059006306254457839
19319366 153 17750808653541362290
20642791 35 18336267834780972236
20691752 17 17458339758505417078
20715895 44 18124589787060424193
20739085 24 17979365152828041041
23227448 37 18409450280247528211
23419403 2 17533206462796840077
23558518 356 18121218946202013196
23559900 14 17844534309746851702
340366 18 18338797806177248914
34934 24 18261672584790724482
3493558 16 16619260357302044753
350125 39 18341894108921262131
463206 1 17328297459940020710
474 4 18056196878405134747
7832392 63 18409444791453228306
9862522 239 18410016571975474341

> <PUBCHEM_SHAPE_MULTIPOLES>
583.06
8.41
4.85
1.8
2.13
1.6
0.33
-6.78
1.85
1.15
-1.8
-0.18
0.61
-1.95

> <PUBCHEM_SHAPE_SELFOVERLAP>
1206.748

> <PUBCHEM_SHAPE_VOLUME>
328.8

> <PUBCHEM_COORDINATE_TYPE>
2
5
10

$$$$
