REMARK  Name = 101643005
REMARK  10 active torsions:
REMARK  status: ('A' for Active; 'I' for Inactive)
REMARK    1  A    between atoms: O_1  and  C_8
REMARK    2  A    between atoms: O_1  and  C_19
REMARK    3  A    between atoms: C_6  and  O_12
REMARK    4  A    between atoms: C_9  and  C_15
REMARK    5  A    between atoms: C_15  and  O_16
REMARK    6  A    between atoms: C_20  and  O_24
REMARK    7  A    between atoms: C_21  and  O_26
REMARK    8  A    between atoms: C_22  and  O_28
REMARK    9  A    between atoms: C_23  and  C_30
REMARK   10  A    between atoms: C_30  and  O_31
REMARK                            x       y       z     vdW  Elec       q    Type
REMARK                         _______ _______ _______ _____ _____    ______ ____
ROOT
ATOM      1  O   UNL     1      -0.891  -1.059  -0.659  0.00  0.00    -0.293 OA
ENDROOT
BRANCH   1   8
ATOM      2  O   UNL     1       0.502   0.730  -1.157  0.00  0.00    -0.449 OA
ATOM      3  C   UNL     1       1.473  -1.387  -0.305  0.00  0.00    +0.077 C 
ATOM      4  C   UNL     1       2.815  -0.683  -0.035  0.00  0.00    +0.065 C 
ATOM      5  C   UNL     1       1.480  -2.480   0.780  0.00  0.00    +0.009 C 
ATOM      6  C   UNL     1       2.952  -0.670   1.498  0.00  0.00    +0.115 C 
ATOM      7  C   UNL     1       2.019  -1.766   2.025  0.00  0.00    +0.030 C 
ATOM      8  C   UNL     1       0.303  -0.382  -0.270  0.00  0.00    +0.290 C 
ATOM      9  C   UNL     1       2.851   0.680  -0.644  0.00  0.00    +0.093 C 
ATOM     10  C   UNL     1       0.169  -3.202   1.043  0.00  0.00    +0.000 C 
ATOM     11  C   UNL     1       1.764   1.260  -1.163  0.00  0.00    +0.177 C 
BRANCH   6  12
ATOM     12  O   UNL     1       4.300  -0.950   1.854  0.00  0.00    -0.384 OA
ATOM     13  H   UNL     1       4.876  -0.248   1.514  0.00  0.00    +0.210 HD
ENDBRANCH   6  12
BRANCH   9  15
ATOM     14  O   UNL     1       4.218   2.610  -0.788  0.00  0.00    -0.245 OA
ATOM     15  C   UNL     1       4.123   1.392  -0.757  0.00  0.00    +0.340 C 
BRANCH  15  16
ATOM     16  O   UNL     1       5.129   0.482  -0.819  0.00  0.00    -0.441 OA
ATOM     17  C   UNL     1       6.447   1.028  -0.933  0.00  0.00    +0.256 C 
ENDBRANCH  15  16
ENDBRANCH   9  15
ENDBRANCH   1   8
BRANCH   1  19
ATOM     18  O   UNL     1      -2.200   0.360   0.651  0.00  0.00    -0.326 OA
ATOM     19  C   UNL     1      -2.012  -0.176  -0.657  0.00  0.00    +0.268 C 
ATOM     20  C   UNL     1      -3.241  -0.975  -1.090  0.00  0.00    +0.197 C 
ATOM     21  C   UNL     1      -4.517  -0.141  -0.971  0.00  0.00    +0.172 C 
ATOM     22  C   UNL     1      -4.603   0.547   0.391  0.00  0.00    +0.169 C 
ATOM     23  C   UNL     1      -3.296   1.274   0.716  0.00  0.00    +0.176 C 
BRANCH  20  24
ATOM     24  O   UNL     1      -3.060  -1.372  -2.449  0.00  0.00    -0.378 OA
ATOM     25  H   UNL     1      -2.251  -1.901  -2.526  0.00  0.00    +0.211 HD
ENDBRANCH  20  24
BRANCH  21  26
ATOM     26  O   UNL     1      -5.656  -0.993  -1.109  0.00  0.00    -0.379 OA
ATOM     27  H   UNL     1      -5.622  -1.441  -1.968  0.00  0.00    +0.211 HD
ENDBRANCH  21  26
BRANCH  22  28
ATOM     28  O   UNL     1      -5.675   1.486   0.378  0.00  0.00    -0.379 OA
ATOM     29  H   UNL     1      -6.504   1.028   0.172  0.00  0.00    +0.211 HD
ENDBRANCH  22  28
BRANCH  23  30
ATOM     30  C   UNL     1      -3.315   1.871   2.119  0.00  0.00    +0.169 C 
BRANCH  30  31
ATOM     31  O   UNL     1      -2.076   2.515   2.352  0.00  0.00    -0.379 OA
ATOM     32  H   UNL     1      -2.074   2.900   3.243  0.00  0.00    +0.211 HD
ENDBRANCH  30  31
ENDBRANCH  23  30
ENDBRANCH   1  19
TORSDOF 10
