101647999
  -OEChem-03292013293D

 62 67  0     1  0  0  0  0  0999 V2000
    0.1062   -0.0750   -2.6362 O   0  0  0  0  0  0  0  0  0  0  0  0
   -1.8671    1.6970   -1.9606 O   0  0  0  0  0  0  0  0  0  0  0  0
    0.4013    2.8665   -1.1770 O   0  0  0  0  0  0  0  0  0  0  0  0
   -3.9984    1.6418    0.2320 O   0  0  0  0  0  0  0  0  0  0  0  0
    1.1738   -1.7609    2.3428 O   0  0  0  0  0  0  0  0  0  0  0  0
   -4.3011   -1.4876    0.0386 O   0  0  0  0  0  0  0  0  0  0  0  0
    1.8799   -1.3473   -0.6082 N   0  0  2  0  0  0  0  0  0  0  0  0
    0.7955    0.2452    0.9603 C   0  0  1  0  0  0  0  0  0  0  0  0
   -0.5997    0.7930    1.4533 C   0  0  1  0  0  0  0  0  0  0  0  0
    0.0324    0.3771   -1.2881 C   0  0  2  0  0  0  0  0  0  0  0  0
    0.5995   -0.6804   -0.2775 C   0  0  1  0  0  0  0  0  0  0  0  0
    1.6776    1.3458    0.2618 C   0  0  2  0  0  0  0  0  0  0  0  0
   -1.5376    1.4468    0.4169 C   0  0  1  0  0  0  0  0  0  0  0  0
   -1.4527    0.7440   -0.9578 C   0  0  1  0  0  0  0  0  0  0  0  0
    1.0038    1.5845   -1.1199 C   0  0  2  0  0  0  0  0  0  0  0  0
    3.1092    0.7517    0.0126 C   0  0  2  0  0  0  0  0  0  0  0  0
   -1.5086   -0.2643    2.1383 C   0  0  0  0  0  0  0  0  0  0  0  0
   -2.8813   -0.1633    1.4563 C   0  0  1  0  0  0  0  0  0  0  0  0
   -2.9168    1.3085    1.0742 C   0  0  2  0  0  0  0  0  0  0  0  0
    1.5087   -0.3784    2.2155 C   0  0  2  0  0  0  0  0  0  0  0  0
   -2.4493   -0.4426   -1.0893 C   0  0  0  0  0  0  0  0  0  0  0  0
    3.0025   -0.4637   -0.9558 C   0  0  0  0  0  0  0  0  0  0  0  0
   -2.9398   -1.0811    0.2214 C   0  0  2  0  0  0  0  0  0  0  0  0
    3.7292    0.2611    1.2992 C   0  0  0  0  0  0  0  0  0  0  0  0
    2.9966   -0.2597    2.2843 C   0  0  0  0  0  0  0  0  0  0  0  0
    4.0537    1.8223   -0.5689 C   0  0  0  0  0  0  0  0  0  0  0  0
    1.7508   -2.4548   -1.5452 C   0  0  0  0  0  0  0  0  0  0  0  0
    3.0086   -3.3070   -1.5645 C   0  0  0  0  0  0  0  0  0  0  0  0
   -4.3770   -2.7192   -0.6586 C   0  0  0  0  0  0  0  0  0  0  0  0
   -0.3854    1.5646    2.2088 H   0  0  0  0  0  0  0  0  0  0  0  0
   -0.1353   -1.4604   -0.0625 H   0  0  0  0  0  0  0  0  0  0  0  0
    1.7268    2.2570    0.8704 H   0  0  0  0  0  0  0  0  0  0  0  0
   -1.3311    2.5173    0.3195 H   0  0  0  0  0  0  0  0  0  0  0  0
    1.7127    1.5958   -1.9504 H   0  0  0  0  0  0  0  0  0  0  0  0
   -1.1281   -1.2856    2.1019 H   0  0  0  0  0  0  0  0  0  0  0  0
   -1.6087   -0.0047    3.2002 H   0  0  0  0  0  0  0  0  0  0  0  0
   -3.6885   -0.4176    2.1524 H   0  0  0  0  0  0  0  0  0  0  0  0
   -2.9763    1.9424    1.9683 H   0  0  0  0  0  0  0  0  0  0  0  0
    1.1346    0.1222    3.1179 H   0  0  0  0  0  0  0  0  0  0  0  0
   -2.0321   -1.2360   -1.7187 H   0  0  0  0  0  0  0  0  0  0  0  0
   -3.3269   -0.1098   -1.6631 H   0  0  0  0  0  0  0  0  0  0  0  0
    2.9137   -0.1287   -1.9965 H   0  0  0  0  0  0  0  0  0  0  0  0
    3.9524   -1.0107   -0.9043 H   0  0  0  0  0  0  0  0  0  0  0  0
   -2.3453   -1.9788    0.4335 H   0  0  0  0  0  0  0  0  0  0  0  0
    4.8106    0.2774    1.4074 H   0  0  0  0  0  0  0  0  0  0  0  0
    3.4967   -0.6227    3.1781 H   0  0  0  0  0  0  0  0  0  0  0  0
   -0.3081   -0.9506   -2.6930 H   0  0  0  0  0  0  0  0  0  0  0  0
    3.7150    2.1999   -1.5380 H   0  0  0  0  0  0  0  0  0  0  0  0
    5.0631    1.4213   -0.7227 H   0  0  0  0  0  0  0  0  0  0  0  0
    4.1381    2.6817    0.1069 H   0  0  0  0  0  0  0  0  0  0  0  0
   -2.7403    2.0405   -1.7046 H   0  0  0  0  0  0  0  0  0  0  0  0
    0.9197   -3.1014   -1.2386 H   0  0  0  0  0  0  0  0  0  0  0  0
    1.5399   -2.1163   -2.5643 H   0  0  0  0  0  0  0  0  0  0  0  0
    1.0975    3.5253   -1.0130 H   0  0  0  0  0  0  0  0  0  0  0  0
   -4.8167    1.3980    0.6969 H   0  0  0  0  0  0  0  0  0  0  0  0
    1.5431   -2.0840    3.1826 H   0  0  0  0  0  0  0  0  0  0  0  0
    3.8379   -2.8162   -2.0831 H   0  0  0  0  0  0  0  0  0  0  0  0
    3.3313   -3.5748   -0.5525 H   0  0  0  0  0  0  0  0  0  0  0  0
    2.8103   -4.2409   -2.1021 H   0  0  0  0  0  0  0  0  0  0  0  0
   -5.4330   -2.9840   -0.7644 H   0  0  0  0  0  0  0  0  0  0  0  0
   -3.8831   -3.5175   -0.0956 H   0  0  0  0  0  0  0  0  0  0  0  0
   -3.9470   -2.6410   -1.6611 H   0  0  0  0  0  0  0  0  0  0  0  0
  1 10  1  0  0  0  0
  1 47  1  0  0  0  0
  2 14  1  0  0  0  0
  2 51  1  0  0  0  0
  3 15  1  0  0  0  0
  3 54  1  0  0  0  0
  4 19  1  0  0  0  0
  4 55  1  0  0  0  0
  5 20  1  0  0  0  0
  5 56  1  0  0  0  0
  6 23  1  0  0  0  0
  6 29  1  0  0  0  0
  7 11  1  0  0  0  0
  7 22  1  0  0  0  0
  7 27  1  0  0  0  0
  8  9  1  0  0  0  0
  8 11  1  0  0  0  0
  8 12  1  0  0  0  0
  8 20  1  0  0  0  0
  9 13  1  0  0  0  0
  9 17  1  0  0  0  0
  9 30  1  0  0  0  0
 10 11  1  0  0  0  0
 10 14  1  0  0  0  0
 10 15  1  0  0  0  0
 11 31  1  0  0  0  0
 12 15  1  0  0  0  0
 12 16  1  0  0  0  0
 12 32  1  0  0  0  0
 13 14  1  0  0  0  0
 13 19  1  0  0  0  0
 13 33  1  0  0  0  0
 14 21  1  0  0  0  0
 15 34  1  0  0  0  0
 16 22  1  0  0  0  0
 16 24  1  0  0  0  0
 16 26  1  0  0  0  0
 17 18  1  0  0  0  0
 17 35  1  0  0  0  0
 17 36  1  0  0  0  0
 18 19  1  0  0  0  0
 18 23  1  0  0  0  0
 18 37  1  0  0  0  0
 19 38  1  0  0  0  0
 20 25  1  0  0  0  0
 20 39  1  0  0  0  0
 21 23  1  0  0  0  0
 21 40  1  0  0  0  0
 21 41  1  0  0  0  0
 22 42  1  0  0  0  0
 22 43  1  0  0  0  0
 23 44  1  0  0  0  0
 24 25  2  0  0  0  0
 24 45  1  0  0  0  0
 25 46  1  0  0  0  0
 26 48  1  0  0  0  0
 26 49  1  0  0  0  0
 26 50  1  0  0  0  0
 27 28  1  0  0  0  0
 27 52  1  0  0  0  0
 27 53  1  0  0  0  0
 28 57  1  0  0  0  0
 28 58  1  0  0  0  0
 28 59  1  0  0  0  0
 29 60  1  0  0  0  0
 29 61  1  0  0  0  0
 29 62  1  0  0  0  0
M  END
> <PUBCHEM_COMPOUND_CID>
101647999

> <PUBCHEM_CONFORMER_RMSD>
0.8

> <PUBCHEM_CONFORMER_DIVERSEORDER>
1

> <PUBCHEM_MMFF94_PARTIAL_CHARGES>
27
1 -0.68
10 0.28
11 0.27
14 0.28
15 0.28
16 0.14
19 0.28
2 -0.68
20 0.42
22 0.27
23 0.28
24 -0.29
25 -0.29
27 0.27
29 0.28
3 -0.68
4 -0.68
45 0.15
46 0.15
47 0.4
5 -0.68
51 0.4
54 0.4
55 0.4
56 0.4
6 -0.56
7 -0.81

> <PUBCHEM_EFFECTIVE_ROTOR_COUNT>
3.6

> <PUBCHEM_PHARMACOPHORE_FEATURES>
16
1 1 acceptor
1 1 donor
1 2 acceptor
1 2 donor
1 3 acceptor
1 3 donor
1 4 acceptor
1 4 donor
1 5 acceptor
1 5 donor
1 6 acceptor
1 7 cation
6 8 12 16 20 24 25 rings
8 7 8 10 11 12 15 16 22 rings
8 8 9 10 11 12 13 14 15 rings
8 9 13 14 17 18 19 21 23 rings

> <PUBCHEM_HEAVY_ATOM_COUNT>
29

> <PUBCHEM_ATOM_DEF_STEREO_COUNT>
13

> <PUBCHEM_ATOM_UDEF_STEREO_COUNT>
0

> <PUBCHEM_BOND_DEF_STEREO_COUNT>
0

> <PUBCHEM_BOND_UDEF_STEREO_COUNT>
0

> <PUBCHEM_ISOTOPIC_ATOM_COUNT>
0

> <PUBCHEM_COMPONENT_COUNT>
1

> <PUBCHEM_CACTVS_TAUTO_COUNT>
1

> <PUBCHEM_CONFORMER_ID>
060F067F00000001

> <PUBCHEM_MMFF94_ENERGY>
155.1918

> <PUBCHEM_FEATURE_SELFOVERLAP>
82.673

> <PUBCHEM_SHAPE_FINGERPRINT>
10064457 181 17487898019599705542
10863032 1 17988372476742270193
10948715 1 18339649940594977681
11578080 2 18200041624679580229
11796584 16 18190734431520040367
12011746 2 17095798944888336200
12553582 1 16588320370768699829
12596599 1 18334580114053930739
12788726 201 18410292536873193521
13140716 1 17488753250635684611
13224815 77 17917709101907928082
13583140 156 17346310488417420457
14178342 30 18271802402122364730
14223421 5 17560808718670017391
14289901 80 18272382965836958945
14787075 74 17969790867941477884
16945 1 17917135195693505012
17357779 13 16443610372740430347
18769570 83 11531296988711004398
18981168 100 17845920845437989280
200 152 17749659788005894929
20600515 1 17168730599093796244
20691752 17 18041007202028584363
20775530 9 18271816674626802791
21731516 1 17822296764547438683
23419403 2 16620373075811498952
23559900 14 18129665179683193366
25222932 49 17389382928960856955
296302 2 18113622317281309657
35225 105 17559381659803958814
392239 28 17059201730032673994
469060 322 17628886179505009239
57527452 28 16611866451133481082

> <PUBCHEM_SHAPE_MULTIPOLES>
556.61
6.72
2.67
2.32
2.8
2.5
0.48
1.54
0.78
-0.4
-0.84
-0.63
-0.48
0.27

> <PUBCHEM_SHAPE_SELFOVERLAP>
1239.176

> <PUBCHEM_SHAPE_VOLUME>
289.7

> <PUBCHEM_COORDINATE_TYPE>
2
5
10

$$$$
