101666433
  -OEChem-03292013293D

 52 57  0     1  0  0  0  0  0999 V2000
    1.8550   -3.4391    0.1339 O   0  0  0  0  0  0  0  0  0  0  0  0
   -0.7638    0.6953    2.7127 O   0  0  0  0  0  0  0  0  0  0  0  0
   -2.3930   -2.4867   -1.4645 O   0  0  0  0  0  0  0  0  0  0  0  0
   -3.3230    2.4494    0.2161 O   0  0  0  0  0  0  0  0  0  0  0  0
    3.1922    0.7101   -1.1299 N   0  0  1  0  0  0  0  0  0  0  0  0
    0.7413    1.0613    0.3090 N   0  0  1  0  0  0  0  0  0  0  0  0
    0.3519   -1.7486    0.8170 N   0  0  2  0  0  0  0  0  0  0  0  0
    1.7777    4.0971   -1.0761 N   0  0  0  0  0  0  0  0  0  0  0  0
   -5.4930    0.8908   -0.3157 N   0  0  0  0  0  0  0  0  0  0  0  0
    2.2954   -0.4486   -1.0213 C   0  0  2  0  0  0  0  0  0  0  0  0
    0.8571    0.0890   -0.7946 C   0  0  1  0  0  0  0  0  0  0  0  0
    2.7973   -1.2034    0.2104 C   0  0  1  0  0  0  0  0  0  0  0  0
    3.2154    1.2035    0.2599 C   0  0  2  0  0  0  0  0  0  0  0  0
   -0.0740   -1.1024   -0.4556 C   0  0  2  0  0  0  0  0  0  0  0  0
    3.2696   -0.0685    1.1367 C   0  0  0  0  0  0  0  0  0  0  0  0
    1.7659   -2.1667    0.8028 C   0  0  2  0  0  0  0  0  0  0  0  0
    1.8832    1.9708    0.4824 C   0  0  1  0  0  0  0  0  0  0  0  0
   -0.6120    1.6129    0.5124 C   0  0  1  0  0  0  0  0  0  0  0  0
   -1.4944   -0.5622   -0.3871 C   0  0  0  0  0  0  0  0  0  0  0  0
   -0.2886   -3.0529    1.0373 C   0  0  0  0  0  0  0  0  0  0  0  0
   -1.7358    0.6903    0.0384 C   0  0  0  0  0  0  0  0  0  0  0  0
    4.5200    0.3873   -1.6411 C   0  0  0  0  0  0  0  0  0  0  0  0
    0.5417   -4.0130    0.2051 C   0  0  0  0  0  0  0  0  0  0  0  0
   -0.7965    1.9187    2.0088 C   0  0  0  0  0  0  0  0  0  0  0  0
    1.8241    3.1621   -0.3908 C   0  0  0  0  0  0  0  0  0  0  0  0
   -2.5940   -1.3972   -0.9370 C   0  0  0  0  0  0  0  0  0  0  0  0
   -3.1144    1.2634   -0.0298 C   0  0  0  0  0  0  0  0  0  0  0  0
   -3.9677   -0.8757   -0.8307 C   0  0  0  0  0  0  0  0  0  0  0  0
   -4.2375    0.3631   -0.4088 C   0  0  0  0  0  0  0  0  0  0  0  0
    2.3150   -1.0751   -1.9214 H   0  0  0  0  0  0  0  0  0  0  0  0
    0.5362    0.5718   -1.7303 H   0  0  0  0  0  0  0  0  0  0  0  0
    3.6789   -1.7945   -0.0752 H   0  0  0  0  0  0  0  0  0  0  0  0
    4.0636    1.8709    0.4575 H   0  0  0  0  0  0  0  0  0  0  0  0
    0.0032   -1.8070   -1.2943 H   0  0  0  0  0  0  0  0  0  0  0  0
    2.6665    0.0207    2.0468 H   0  0  0  0  0  0  0  0  0  0  0  0
    4.3024   -0.2681    1.4472 H   0  0  0  0  0  0  0  0  0  0  0  0
    2.0698   -2.3642    1.8407 H   0  0  0  0  0  0  0  0  0  0  0  0
    1.9028    2.3198    1.5213 H   0  0  0  0  0  0  0  0  0  0  0  0
   -0.7067    2.5439   -0.0598 H   0  0  0  0  0  0  0  0  0  0  0  0
   -1.3571   -3.1030    0.8191 H   0  0  0  0  0  0  0  0  0  0  0  0
   -0.1865   -3.3090    2.1003 H   0  0  0  0  0  0  0  0  0  0  0  0
    4.4444   -0.0415   -2.6463 H   0  0  0  0  0  0  0  0  0  0  0  0
    5.0848   -0.3094   -1.0139 H   0  0  0  0  0  0  0  0  0  0  0  0
    5.1127    1.3041   -1.7352 H   0  0  0  0  0  0  0  0  0  0  0  0
    0.6056   -5.0065    0.6580 H   0  0  0  0  0  0  0  0  0  0  0  0
    0.1602   -4.1121   -0.8160 H   0  0  0  0  0  0  0  0  0  0  0  0
   -1.7597    2.4000    2.2053 H   0  0  0  0  0  0  0  0  0  0  0  0
   -0.0245    2.5849    2.4039 H   0  0  0  0  0  0  0  0  0  0  0  0
   -4.7658   -1.5457   -1.1365 H   0  0  0  0  0  0  0  0  0  0  0  0
   -0.8877    0.9010    3.6549 H   0  0  0  0  0  0  0  0  0  0  0  0
   -6.2973    0.3305   -0.5687 H   0  0  0  0  0  0  0  0  0  0  0  0
   -5.6179    1.8432    0.0037 H   0  0  0  0  0  0  0  0  0  0  0  0
  1 16  1  0  0  0  0
  1 23  1  0  0  0  0
  2 24  1  0  0  0  0
  2 50  1  0  0  0  0
  3 26  2  0  0  0  0
  4 27  2  0  0  0  0
  5 10  1  0  0  0  0
  5 13  1  0  0  0  0
  5 22  1  0  0  0  0
  6 11  1  0  0  0  0
  6 17  1  0  0  0  0
  6 18  1  0  0  0  0
  7 14  1  0  0  0  0
  7 16  1  0  0  0  0
  7 20  1  0  0  0  0
  8 25  3  0  0  0  0
  9 29  1  0  0  0  0
  9 51  1  0  0  0  0
  9 52  1  0  0  0  0
 10 11  1  0  0  0  0
 10 12  1  0  0  0  0
 10 30  1  0  0  0  0
 11 14  1  0  0  0  0
 11 31  1  0  0  0  0
 12 15  1  0  0  0  0
 12 16  1  0  0  0  0
 12 32  1  0  0  0  0
 13 15  1  0  0  0  0
 13 17  1  0  0  0  0
 13 33  1  0  0  0  0
 14 19  1  0  0  0  0
 14 34  1  0  0  0  0
 15 35  1  0  0  0  0
 15 36  1  0  0  0  0
 16 37  1  0  0  0  0
 17 25  1  0  0  0  0
 17 38  1  0  0  0  0
 18 21  1  0  0  0  0
 18 24  1  0  0  0  0
 18 39  1  0  0  0  0
 19 21  2  0  0  0  0
 19 26  1  0  0  0  0
 20 23  1  0  0  0  0
 20 40  1  0  0  0  0
 20 41  1  0  0  0  0
 21 27  1  0  0  0  0
 22 42  1  0  0  0  0
 22 43  1  0  0  0  0
 22 44  1  0  0  0  0
 23 45  1  0  0  0  0
 23 46  1  0  0  0  0
 24 47  1  0  0  0  0
 24 48  1  0  0  0  0
 26 28  1  0  0  0  0
 27 29  1  0  0  0  0
 28 29  2  0  0  0  0
 28 49  1  0  0  0  0
M  END
> <PUBCHEM_COMPOUND_CID>
101666433

> <PUBCHEM_CONFORMER_RMSD>
0.6

> <PUBCHEM_CONFORMER_DIVERSEORDER>
1
2

> <PUBCHEM_MMFF94_PARTIAL_CHARGES>
31
1 -0.56
10 0.27
11 0.27
13 0.27
14 0.41
16 0.55
17 0.47
18 0.41
19 -0.12
2 -0.68
20 0.27
21 -0.12
22 0.27
23 0.28
24 0.28
25 0.36
26 0.54
27 0.54
28 -0.14
29 0.11
3 -0.57
4 -0.57
49 0.15
5 -0.81
50 0.4
51 0.4
52 0.4
6 -0.81
7 -0.81
8 -0.56
9 -0.9

> <PUBCHEM_EFFECTIVE_ROTOR_COUNT>
2.4

> <PUBCHEM_PHARMACOPHORE_FEATURES>
16
1 1 acceptor
1 2 acceptor
1 2 donor
1 3 acceptor
1 4 acceptor
1 5 cation
1 6 cation
1 7 cation
1 8 acceptor
1 9 cation
1 9 donor
5 1 7 16 20 23 rings
6 19 21 26 27 28 29 rings
6 6 11 14 18 19 21 rings
6 7 10 11 12 14 16 rings
8 5 6 10 11 12 13 15 17 rings

> <PUBCHEM_HEAVY_ATOM_COUNT>
29

> <PUBCHEM_ATOM_DEF_STEREO_COUNT>
8

> <PUBCHEM_ATOM_UDEF_STEREO_COUNT>
0

> <PUBCHEM_BOND_DEF_STEREO_COUNT>
0

> <PUBCHEM_BOND_UDEF_STEREO_COUNT>
0

> <PUBCHEM_ISOTOPIC_ATOM_COUNT>
0

> <PUBCHEM_COMPONENT_COUNT>
1

> <PUBCHEM_CACTVS_TAUTO_COUNT>
3

> <PUBCHEM_CONFORMER_ID>
060F4E8100000001

> <PUBCHEM_MMFF94_ENERGY>
96.0339

> <PUBCHEM_FEATURE_SELFOVERLAP>
81.933

> <PUBCHEM_SHAPE_FINGERPRINT>
10675989 125 18411128113659752353
10759866 29 18338239245785723951
10863032 1 18412259502196260203
10967382 1 18338792317050750071
1100329 8 18339917207851125514
11370993 70 18264197174782597301
11578080 2 17409049558402306256
12035759 4 18200040529509898746
12592029 89 18408606933528066369
12788726 201 16313866115347143620
13009979 54 17483959276769910091
13140716 1 18341043133596525617
13583140 156 18114474400597027665
14178342 30 18268972272130086408
14713325 29 17108475411639298204
14787075 74 17844511417607781888
14790565 3 18335709347162123276
15420108 30 17265555551456890152
16728300 4 12848916062540732091
16945 1 18264487476165144546
18186145 218 18337664325536961301
19591789 44 18122624118215931163
20600515 1 17485633871670180481
20691752 17 18115568483079932925
20775438 99 16691294294824279926
20905425 154 18128813053887054549
21421861 104 17972592191297412875
22393880 68 18341895160381563813
2255824 54 18408039641004233292
22907989 373 17683548472967821334
23419403 2 15971331958999331081
23557571 272 17418083356246676554
23558518 356 18051965106761945725
23559900 14 18131634512831193812
238 59 18260557739739233776
2748010 2 16181845576234337633
3380486 145 15963440068214400104
34934 24 18059562607766835807
394222 165 17967247615999699154
4340502 62 17894634721777607515
474 4 18335977666210283765
484985 159 13250066596202563844
484989 97 18047761673967875911
633830 44 18340482391108374469
9709674 26 18053103118740385108
9981440 41 17832978726217523800

> <PUBCHEM_SHAPE_MULTIPOLES>
548.42
6.98
4.13
1.48
4.84
1.24
0.54
-2.19
-2.53
-1.36
0.23
-0.32
-0.24
-1.1

> <PUBCHEM_SHAPE_SELFOVERLAP>
1226.115

> <PUBCHEM_SHAPE_VOLUME>
283.6

> <PUBCHEM_COORDINATE_TYPE>
2
5
10

$$$$
