101615523
  -OEChem-03292013293D

 68 69  0     1  0  0  0  0  0999 V2000
   -2.2548   -1.9383   -1.4624 O   0  0  0  0  0  0  0  0  0  0  0  0
   -2.3784   -5.1106   -1.5977 O   0  0  0  0  0  0  0  0  0  0  0  0
    2.0601   -3.9480   -1.3467 O   0  0  0  0  0  0  0  0  0  0  0  0
   -2.2424    0.3937    2.8497 O   0  0  0  0  0  0  0  0  0  0  0  0
    0.9419    1.4215   -1.4125 O   0  0  0  0  0  0  0  0  0  0  0  0
   -2.6776   -0.2570    0.6636 N   0  0  0  0  0  0  0  0  0  0  0  0
   -0.0887   -4.7484   -1.6946 N   0  0  0  0  0  0  0  0  0  0  0  0
   -0.0458    2.0476    0.5967 N   0  0  0  0  0  0  0  0  0  0  0  0
   -1.2750   -3.5989   -0.0581 C   0  0  1  0  0  0  0  0  0  0  0  0
    0.2229   -3.3119    0.1173 C   0  0  1  0  0  0  0  0  0  0  0  0
   -2.7116   -1.6815    0.9017 C   0  0  2  0  0  0  0  0  0  0  0  0
   -2.1102   -2.3708   -0.3187 C   0  0  0  0  0  0  0  0  0  0  0  0
   -4.1154   -2.2167    1.2403 C   0  0  0  0  0  0  0  0  0  0  0  0
   -1.3528   -4.5837   -1.1909 C   0  0  0  0  0  0  0  0  0  0  0  0
    0.8752   -4.0145   -1.0523 C   0  0  0  0  0  0  0  0  0  0  0  0
    0.6485   -1.8529    0.1879 C   0  0  0  0  0  0  0  0  0  0  0  0
   -4.5320   -1.9565    2.6916 C   0  0  0  0  0  0  0  0  0  0  0  0
   -5.1663   -1.6368    0.2884 C   0  0  0  0  0  0  0  0  0  0  0  0
   -2.4430    0.6691    1.6701 C   0  0  0  0  0  0  0  0  0  0  0  0
   -2.4496    2.0929    1.1309 C   0  0  0  0  0  0  0  0  0  0  0  0
   -1.3607    2.3543    0.0792 C   0  0  1  0  0  0  0  0  0  0  0  0
   -1.4092    3.7793   -0.4335 C   0  0  0  0  0  0  0  0  0  0  0  0
   -2.1932    4.0954   -1.5428 C   0  0  0  0  0  0  0  0  0  0  0  0
   -0.6694    4.7750    0.2042 C   0  0  0  0  0  0  0  0  0  0  0  0
    0.9959    1.6054   -0.2009 C   0  0  0  0  0  0  0  0  0  0  0  0
   -2.2376    5.4074   -2.0147 C   0  0  0  0  0  0  0  0  0  0  0  0
   -0.7136    6.0868   -0.2675 C   0  0  0  0  0  0  0  0  0  0  0  0
   -1.4977    6.4031   -1.3770 C   0  0  0  0  0  0  0  0  0  0  0  0
    2.2350    1.3655    0.5904 C   0  0  0  0  0  0  0  0  0  0  0  0
    3.3490    0.9331   -0.0165 C   0  0  0  0  0  0  0  0  0  0  0  0
    4.5817    0.6822    0.6990 C   0  0  0  0  0  0  0  0  0  0  0  0
    5.7008    0.2492    0.0987 C   0  0  0  0  0  0  0  0  0  0  0  0
    6.9320   -0.0019    0.8145 C   0  0  0  0  0  0  0  0  0  0  0  0
    8.0522   -0.4347    0.2175 C   0  0  0  0  0  0  0  0  0  0  0  0
    9.3297   -0.6982    0.9449 C   0  0  0  0  0  0  0  0  0  0  0  0
   -1.6663   -4.1069    0.8318 H   0  0  0  0  0  0  0  0  0  0  0  0
    0.5745   -3.8242    1.0227 H   0  0  0  0  0  0  0  0  0  0  0  0
   -2.0419   -1.8883    1.7457 H   0  0  0  0  0  0  0  0  0  0  0  0
   -4.1091   -3.3063    1.1027 H   0  0  0  0  0  0  0  0  0  0  0  0
    0.1968   -1.3444    1.0438 H   0  0  0  0  0  0  0  0  0  0  0  0
    0.3906   -1.3137   -0.7290 H   0  0  0  0  0  0  0  0  0  0  0  0
    1.7356   -1.7829    0.3032 H   0  0  0  0  0  0  0  0  0  0  0  0
   -2.8791    0.0712   -0.2764 H   0  0  0  0  0  0  0  0  0  0  0  0
    0.1117   -5.3396   -2.4937 H   0  0  0  0  0  0  0  0  0  0  0  0
   -4.6560   -0.8877    2.8911 H   0  0  0  0  0  0  0  0  0  0  0  0
   -5.2957   -0.5579    0.4245 H   0  0  0  0  0  0  0  0  0  0  0  0
   -4.9072   -1.8245   -0.7582 H   0  0  0  0  0  0  0  0  0  0  0  0
   -6.1400   -2.1056    0.4700 H   0  0  0  0  0  0  0  0  0  0  0  0
   -3.7854   -2.3526    3.3874 H   0  0  0  0  0  0  0  0  0  0  0  0
   -5.4862   -2.4476    2.9111 H   0  0  0  0  0  0  0  0  0  0  0  0
   -3.4448    2.2933    0.7142 H   0  0  0  0  0  0  0  0  0  0  0  0
   -2.3247    2.7676    1.9879 H   0  0  0  0  0  0  0  0  0  0  0  0
   -1.5157    1.6898   -0.7804 H   0  0  0  0  0  0  0  0  0  0  0  0
    0.1176    2.2066    1.5872 H   0  0  0  0  0  0  0  0  0  0  0  0
   -2.7758    3.3289   -2.0471 H   0  0  0  0  0  0  0  0  0  0  0  0
   -0.0627    4.5642    1.0804 H   0  0  0  0  0  0  0  0  0  0  0  0
   -2.8487    5.6537   -2.8781 H   0  0  0  0  0  0  0  0  0  0  0  0
   -0.1408    6.8632    0.2312 H   0  0  0  0  0  0  0  0  0  0  0  0
   -1.5329    7.4248   -1.7436 H   0  0  0  0  0  0  0  0  0  0  0  0
    2.2089    1.5480    1.6603 H   0  0  0  0  0  0  0  0  0  0  0  0
    3.3599    0.7531   -1.0884 H   0  0  0  0  0  0  0  0  0  0  0  0
    4.5749    0.8599    1.7722 H   0  0  0  0  0  0  0  0  0  0  0  0
    5.7078    0.0712   -0.9745 H   0  0  0  0  0  0  0  0  0  0  0  0
    6.9303    0.1739    1.8873 H   0  0  0  0  0  0  0  0  0  0  0  0
    8.0639   -0.6135   -0.8550 H   0  0  0  0  0  0  0  0  0  0  0  0
   10.1256   -0.0652    0.5409 H   0  0  0  0  0  0  0  0  0  0  0  0
    9.2460   -0.4980    2.0178 H   0  0  0  0  0  0  0  0  0  0  0  0
    9.6230   -1.7445    0.8152 H   0  0  0  0  0  0  0  0  0  0  0  0
  1 12  2  0  0  0  0
  2 14  2  0  0  0  0
  3 15  2  0  0  0  0
  4 19  2  0  0  0  0
  5 25  2  0  0  0  0
  6 11  1  0  0  0  0
  6 19  1  0  0  0  0
  6 43  1  0  0  0  0
  7 14  1  0  0  0  0
  7 15  1  0  0  0  0
  7 44  1  0  0  0  0
  8 21  1  0  0  0  0
  8 25  1  0  0  0  0
  8 54  1  0  0  0  0
  9 10  1  0  0  0  0
  9 12  1  0  0  0  0
  9 14  1  0  0  0  0
  9 36  1  0  0  0  0
 10 15  1  0  0  0  0
 10 16  1  0  0  0  0
 10 37  1  0  0  0  0
 11 12  1  0  0  0  0
 11 13  1  0  0  0  0
 11 38  1  0  0  0  0
 13 17  1  0  0  0  0
 13 18  1  0  0  0  0
 13 39  1  0  0  0  0
 16 40  1  0  0  0  0
 16 41  1  0  0  0  0
 16 42  1  0  0  0  0
 17 45  1  0  0  0  0
 17 49  1  0  0  0  0
 17 50  1  0  0  0  0
 18 46  1  0  0  0  0
 18 47  1  0  0  0  0
 18 48  1  0  0  0  0
 19 20  1  0  0  0  0
 20 21  1  0  0  0  0
 20 51  1  0  0  0  0
 20 52  1  0  0  0  0
 21 22  1  0  0  0  0
 21 53  1  0  0  0  0
 22 23  2  0  0  0  0
 22 24  1  0  0  0  0
 23 26  1  0  0  0  0
 23 55  1  0  0  0  0
 24 27  2  0  0  0  0
 24 56  1  0  0  0  0
 25 29  1  0  0  0  0
 26 28  2  0  0  0  0
 26 57  1  0  0  0  0
 27 28  1  0  0  0  0
 27 58  1  0  0  0  0
 28 59  1  0  0  0  0
 29 30  2  0  0  0  0
 29 60  1  0  0  0  0
 30 31  1  0  0  0  0
 30 61  1  0  0  0  0
 31 32  2  0  0  0  0
 31 62  1  0  0  0  0
 32 33  1  0  0  0  0
 32 63  1  0  0  0  0
 33 34  2  0  0  0  0
 33 64  1  0  0  0  0
 34 35  1  0  0  0  0
 34 65  1  0  0  0  0
 35 66  1  0  0  0  0
 35 67  1  0  0  0  0
 35 68  1  0  0  0  0
M  END
> <PUBCHEM_COMPOUND_CID>
101615523

> <PUBCHEM_CONFORMER_RMSD>
1.2

> <PUBCHEM_CONFORMER_DIVERSEORDER>
1
28
15
55
172
141
202
143
168
153
179
84
111
188
210
114
178
98
217
134
124
39
33
106
156
180
164
82
16
151
161
13
49
25
149
197
24
69
218
65
147
148
86
174
154
163
80
195
4
136
165
166
40
175
133
150
105
74
214
120
31
144
162
131
108
170
177
46
193
29
155
132
66
173
17
18
220
85
93
89
129
199
160
54
212
22
181
116
96
152
184
211
45
122
183
50
52
90
119
125
103
146
126
58
37
67
34
59
61
159
128
27
171
190
117
60
95
10
213
26
135
192
75
130
68
158
201
92
189
56
206
127
5
99
87
185
43
167
209
57
140
121
94
208
196
109
142
62
21
71
107
187
100
191
35
63
110
76
73
64
219
139
36
216
112
8
203
182
88
48
38
97
42
41
2
72
12
83
6
7
20
115
194
205
91
53
118
44
215
138
79
32
198
30
77
51
9
70
101
104
204
14
78
200
207
176
3
81
47
123
186
157
19
23
11
113
137
145
102
169

> <PUBCHEM_MMFF94_PARTIAL_CHARGES>
45
1 -0.57
10 0.06
11 0.36
12 0.45
14 0.57
15 0.57
19 0.57
2 -0.57
20 0.06
21 0.44
22 -0.14
23 -0.15
24 -0.15
25 0.62
26 -0.15
27 -0.15
28 -0.15
29 -0.14
3 -0.57
30 -0.15
31 -0.15
32 -0.15
33 -0.15
34 -0.29
35 0.14
4 -0.57
43 0.37
44 0.37
5 -0.57
54 0.37
55 0.15
56 0.15
57 0.15
58 0.15
59 0.15
6 -0.73
60 0.15
61 0.15
62 0.15
63 0.15
64 0.15
65 0.15
7 -0.49
8 -0.73
9 0.12

> <PUBCHEM_EFFECTIVE_ROTOR_COUNT>
13.6

> <PUBCHEM_PHARMACOPHORE_FEATURES>
13
1 1 acceptor
1 2 acceptor
1 3 acceptor
1 35 hydrophobe
1 4 acceptor
1 5 acceptor
1 6 donor
1 7 donor
1 8 donor
1 9 anion
3 13 17 18 hydrophobe
5 7 9 10 14 15 rings
6 22 23 24 26 27 28 rings

> <PUBCHEM_HEAVY_ATOM_COUNT>
35

> <PUBCHEM_ATOM_DEF_STEREO_COUNT>
4

> <PUBCHEM_ATOM_UDEF_STEREO_COUNT>
0

> <PUBCHEM_BOND_DEF_STEREO_COUNT>
3

> <PUBCHEM_BOND_UDEF_STEREO_COUNT>
0

> <PUBCHEM_ISOTOPIC_ATOM_COUNT>
0

> <PUBCHEM_COMPONENT_COUNT>
1

> <PUBCHEM_CACTVS_TAUTO_COUNT>
273

> <PUBCHEM_CONFORMER_ID>
060E87A300000001

> <PUBCHEM_MMFF94_ENERGY>
65.532

> <PUBCHEM_FEATURE_SELFOVERLAP>
65.972

> <PUBCHEM_SHAPE_FINGERPRINT>
10319688 45 18339076099079208408
10319688 77 18048864484335984200
11069576 57 16972785798357138782
12522641 33 17975122155191198397
1361 2 16827825597077807229
14117953 113 18412547639068232295
14202776 33 18114475496199044148
15326921 28 18196071276303655848
15406563 190 17899447245380754716
15406563 228 18124585638886953215
15439362 3 17546157507682955452
16993438 75 18335416803906750872
20771845 165 17830173498509437508
21796203 349 17757312457338513544
22113638 7 18124038085536550219
229767 44 18271815665509499826
23559900 14 17041756492215581424
25019877 29 17131287864365927615
4403749 210 18338506453683333352
4409770 3 18336817628674884460
56638632 33 17912365625726658753
6058803 2 17406285798634448147

> <PUBCHEM_SHAPE_MULTIPOLES>
675.99
12.79
10.23
1.88
46.47
8.63
0.43
-3.57
6.33
-11.99
-7.27
-2.17
-0.66
2.25

> <PUBCHEM_SHAPE_SELFOVERLAP>
1394.73

> <PUBCHEM_SHAPE_VOLUME>
384.9

> <PUBCHEM_COORDINATE_TYPE>
2
5
10

$$$$
