REMARK  Name = 101630837
REMARK  2 active torsions:
REMARK  status: ('A' for Active; 'I' for Inactive)
REMARK    1  A    between atoms: C_8  and  O_21
REMARK    2  A    between atoms: C_8  and  O_23
REMARK                            x       y       z     vdW  Elec       q    Type
REMARK                         _______ _______ _______ _____ _____    ______ ____
ROOT
ATOM      1  N   UNL     1      -1.088  -0.704  -0.542  0.00  0.00    -0.265 N 
ATOM      2  N   UNL     1       1.198  -0.042  -1.122  0.00  0.00    -0.290 N 
ATOM      3  N   UNL     1       1.655   1.544   0.443  0.00  0.00    -0.240 NA
ATOM      4  N   UNL     1      -2.062   1.430  -0.069  0.00  0.00    -0.244 NA
ATOM      5  N   UNL     1      -3.384  -0.323  -0.773  0.00  0.00    -0.331 N 
ATOM      6  N   UNL     1       3.161   1.187  -1.389  0.00  0.00    -0.331 N 
ATOM      7  C   UNL     1       0.250  -0.362  -0.076  0.00  0.00    +0.190 C 
ATOM      8  C   UNL     1       0.690  -1.642   0.675  0.00  0.00    +0.216 C 
ATOM      9  C   UNL     1       0.290   0.959   0.716  0.00  0.00    +0.167 C 
ATOM     10  C   UNL     1       0.129  -2.730  -0.243  0.00  0.00    +0.081 C 
ATOM     11  C   UNL     1      -1.228  -2.163  -0.664  0.00  0.00    +0.100 C 
ATOM     12  C   UNL     1      -0.735   1.990   0.194  0.00  0.00    +0.132 C 
ATOM     13  C   UNL     1      -2.148   0.190  -0.448  0.00  0.00    +0.179 C 
ATOM     14  C   UNL     1       2.026   0.951  -0.673  0.00  0.00    +0.175 C 
ATOM     15  C   UNL     1      -0.909   3.134   1.193  0.00  0.00    +0.029 C 
ATOM     16  H   UNL     1       1.239  -0.468  -2.008  0.00  0.00    +0.151 HD
ATOM     17  H   UNL     1      -3.468  -1.260  -1.062  0.00  0.00    +0.145 HD
ATOM     18  H   UNL     1      -4.184   0.249  -0.716  0.00  0.00    +0.145 HD
ATOM     19  H   UNL     1       3.336   0.681  -2.215  0.00  0.00    +0.145 HD
ATOM     20  H   UNL     1       3.805   1.865  -1.081  0.00  0.00    +0.145 HD
ENDROOT
BRANCH   8  21
ATOM     21  O   UNL     1       0.059  -1.685   1.953  0.00  0.00    -0.361 OA
ATOM     22  H   UNL     1      -0.875  -1.634   2.016  0.00  0.00    +0.213 HD
ENDBRANCH   8  21
BRANCH   8  23
ATOM     23  O   UNL     1       2.096  -1.734   0.824  0.00  0.00    -0.361 OA
ATOM     24  H   UNL     1       2.649  -1.719   0.068  0.00  0.00    +0.213 HD
ENDBRANCH   8  23
TORSDOF 2
