REMARK  Name = 101626292
REMARK  10 active torsions:
REMARK  status: ('A' for Active; 'I' for Inactive)
REMARK    1  A    between atoms: C_2  and  C_22
REMARK    2  A    between atoms: C_5  and  C_9
REMARK    3  A    between atoms: N_8  and  C_9
REMARK    4  A    between atoms: N_8  and  N_11
REMARK    5  A    between atoms: N_12  and  C_16
REMARK    6  A    between atoms: C_22  and  C_23
REMARK    7  A    between atoms: C_24  and  C_25
REMARK    8  A    between atoms: C_25  and  C_26
REMARK    9  A    between atoms: C_26  and  C_28
REMARK   10  A    between atoms: C_28  and  O_29
REMARK                            x       y       z     vdW  Elec       q    Type
REMARK                         _______ _______ _______ _____ _____    ______ ____
ROOT
ATOM      1  O   UNL     1      -2.162   2.861  -0.051  0.00  0.00    -0.359 OA
ATOM      2  C   UNL     1      -1.186   0.776  -0.278  0.00  0.00    +0.035 C 
ATOM      3  C   UNL     1      -2.308   1.662  -0.847  0.00  0.00    +0.116 C 
ATOM      4  C   UNL     1      -0.779   3.133  -0.388  0.00  0.00    +0.117 C 
ATOM      5  C   UNL     1      -0.096   1.825   0.030  0.00  0.00    +0.049 C 
ATOM      6  C   UNL     1      -1.936   2.188  -2.235  0.00  0.00    +0.032 C 
ATOM      7  C   UNL     1      -0.865   3.229  -1.909  0.00  0.00    +0.032 C 
ENDROOT
BRANCH   5   8
ATOM      8  C   UNL     1       0.323   1.899   1.468  0.00  0.00    +0.114 C 
BRANCH   8   9
ATOM      9  N   UNL     1       1.342   1.228   1.889  0.00  0.00    -0.130 NA
BRANCH   9  11
ATOM     10  O   UNL     1       4.011   0.672   1.942  0.00  0.00    -0.251 OA
ATOM     11  N   UNL     1       1.946   0.495   0.927  0.00  0.00    -0.216 N 
ATOM     12  N   UNL     1       3.746  -0.520  -0.063  0.00  0.00    -0.267 N 
ATOM     13  C   UNL     1       3.316   0.251   1.020  0.00  0.00    +0.319 C 
ATOM     14  H   UNL     1       1.425   0.138   0.171  0.00  0.00    +0.172 HD
ATOM     15  H   UNL     1       3.054  -0.774  -0.715  0.00  0.00    +0.156 HD
BRANCH  12  16
ATOM     16  C   UNL     1       5.055  -0.979  -0.337  0.00  0.00    +0.052 C 
ATOM     17  C   UNL     1       5.301  -1.744  -1.477  0.00  0.00    +0.015 C 
ATOM     18  C   UNL     1       6.100  -0.667   0.532  0.00  0.00    +0.015 C 
ATOM     19  C   UNL     1       6.592  -2.198  -1.747  0.00  0.00    +0.001 C 
ATOM     20  C   UNL     1       7.391  -1.121   0.262  0.00  0.00    +0.001 C 
ATOM     21  C   UNL     1       7.637  -1.886  -0.877  0.00  0.00    +0.000 C 
ENDBRANCH  12  16
ENDBRANCH   9  11
ENDBRANCH   8   9
ENDBRANCH   5   8
BRANCH   2  22
ATOM     22  C   UNL     1      -1.676  -0.033   0.921  0.00  0.00    +0.028 C 
BRANCH  22  23
ATOM     23  C   UNL     1      -2.799  -0.946   0.535  0.00  0.00    -0.031 C 
ATOM     24  C   UNL     1      -4.026  -0.885   1.073  0.00  0.00    -0.030 C 
BRANCH  24  25
ATOM     25  C   UNL     1      -5.147  -1.809   0.699  0.00  0.00    +0.037 C 
BRANCH  25  26
ATOM     26  C   UNL     1      -6.330  -1.038   0.114  0.00  0.00    +0.114 C 
BRANCH  26  28
ATOM     27  O   UNL     1      -7.480  -3.171  -0.122  0.00  0.00    -0.250 OA
ATOM     28  C   UNL     1      -7.468  -1.957  -0.269  0.00  0.00    +0.314 C 
BRANCH  28  29
ATOM     29  O   UNL     1      -8.503  -1.264  -0.812  0.00  0.00    -0.480 OA
ATOM     30  H   UNL     1      -8.447  -0.334  -0.905  0.00  0.00    +0.295 HD
ENDBRANCH  28  29
ENDBRANCH  26  28
ENDBRANCH  25  26
ENDBRANCH  24  25
ENDBRANCH  22  23
ENDBRANCH   2  22
TORSDOF 10
