REMARK  Name = 101603086
REMARK  6 active torsions:
REMARK  status: ('A' for Active; 'I' for Inactive)
REMARK    1  A    between atoms: C_3  and  C_16
REMARK    2  A    between atoms: C_7  and  O_14
REMARK    3  A    between atoms: C_9  and  N_13
REMARK    4  A    between atoms: C_16  and  O_17
REMARK    5  A    between atoms: O_17  and  N_19
REMARK    6  A    between atoms: N_19  and  O_20
REMARK                            x       y       z     vdW  Elec       q    Type
REMARK                         _______ _______ _______ _____ _____    ______ ____
ROOT
ATOM      1  O   UNL     1      -0.735   0.020  -0.147  0.00  0.00    -0.467 OA
ATOM      2  O   UNL     1       0.049  -2.737   0.149  0.00  0.00    -0.468 OA
ATOM      3  C   UNL     1      -1.642  -1.006   0.279  0.00  0.00    +0.241 C 
ATOM      4  C   UNL     1      -1.237  -2.338  -0.337  0.00  0.00    +0.251 C 
ATOM      5  C   UNL     1       0.574  -0.373  -0.045  0.00  0.00    +0.207 C 
ATOM      6  C   UNL     1       0.953  -1.708   0.110  0.00  0.00    +0.176 C 
ATOM      7  C   UNL     1       1.545   0.626  -0.111  0.00  0.00    +0.194 C 
ATOM      8  C   UNL     1       2.301  -2.041   0.242  0.00  0.00    +0.042 C 
ATOM      9  C   UNL     1       2.894   0.291   0.008  0.00  0.00    +0.180 C 
ATOM     10  C   UNL     1       3.271  -1.040   0.190  0.00  0.00    +0.031 C 
ENDROOT
BRANCH   9  13
ATOM     11  O   UNL     1       4.394   1.596  -1.160  0.00  0.00    -0.126 OA
ATOM     12  O   UNL     1       4.264   1.847   1.017  0.00  0.00    -0.126 OA
ATOM     13  N   UNL     1       3.901   1.294  -0.048  0.00  0.00    +0.061 N 
ENDBRANCH   9  13
BRANCH   7  14
ATOM     14  O   UNL     1       1.169   1.927  -0.280  0.00  0.00    -0.502 OA
ATOM     15  H   UNL     1       0.262   2.147  -0.359  0.00  0.00    +0.292 HD
ENDBRANCH   7  14
BRANCH   3  16
ATOM     16  C   UNL     1      -3.042  -0.597  -0.156  0.00  0.00    +0.219 C 
BRANCH  16  17
ATOM     17  O   UNL     1      -3.365   0.640   0.456  0.00  0.00    -0.230 OA
BRANCH  17  19
ATOM     18  O   UNL     1      -5.164   2.188   0.533  0.00  0.00    -0.062 OA
ATOM     19  N   UNL     1      -4.677   1.097   0.094  0.00  0.00    +0.108 NA
BRANCH  19  20
ATOM     20  O   UNL     1      -5.453   0.310  -0.796  0.00  0.00    -0.263 OA
ATOM     21  H   UNL     1      -5.110  -0.496  -1.129  0.00  0.00    +0.242 HD
ENDBRANCH  19  20
ENDBRANCH  17  19
ENDBRANCH  16  17
ENDBRANCH   3  16
TORSDOF 6
