REMARK  Name = 101659926
REMARK  11 active torsions:
REMARK  status: ('A' for Active; 'I' for Inactive)
REMARK    1  A    between atoms: N_1  and  C_4
REMARK    2  A    between atoms: N_1  and  C_19
REMARK    3  A    between atoms: C_4  and  C_6
REMARK    4  A    between atoms: C_6  and  C_7
REMARK    5  A    between atoms: C_7  and  C_8
REMARK    6  A    between atoms: C_13  and  C_16
REMARK    7  A    between atoms: C_19  and  C_20
REMARK    8  A    between atoms: C_20  and  C_21
REMARK    9  A    between atoms: C_20  and  O_31
REMARK   10  A    between atoms: C_24  and  O_27
REMARK   11  A    between atoms: C_26  and  O_29
REMARK                            x       y       z     vdW  Elec       q    Type
REMARK                         _______ _______ _______ _____ _____    ______ ____
ROOT
ATOM      1  N   UNL     1      -2.363   2.298  -0.166  0.00  0.00    +0.387 N 
ATOM      2  H   UNL     1      -2.026   1.483  -0.679  0.00  0.00    -0.084 HD
ATOM      3  H   UNL     1      -3.180   2.695  -0.630  0.00  0.00    -0.084 HD
ENDROOT
BRANCH   1   4
ATOM      4  C   UNL     1      -1.307   3.310  -0.127  0.00  0.00    -0.062 C 
ATOM      5  C   UNL     1      -1.267   4.060  -1.459  0.00  0.00    -0.023 C 
BRANCH   4   6
ATOM      6  C   UNL     1       0.061   2.666   0.169  0.00  0.00    -0.017 C 
BRANCH   6   7
ATOM      7  C   UNL     1       0.521   1.621  -0.859  0.00  0.00    +0.024 C 
BRANCH   7   8
ATOM      8  C   UNL     1       1.837   0.968  -0.517  0.00  0.00    -0.022 C 
ATOM      9  C   UNL     1       1.858  -0.195   0.253  0.00  0.00    -0.004 C 
ATOM     10  C   UNL     1       3.032   1.526  -0.971  0.00  0.00    -0.004 C 
ATOM     11  C   UNL     1       3.074  -0.800   0.569  0.00  0.00    +0.004 C 
ATOM     12  C   UNL     1       4.248   0.920  -0.655  0.00  0.00    +0.004 C 
ATOM     13  C   UNL     1       4.269  -0.242   0.115  0.00  0.00    +0.053 C 
BRANCH  13  16
ATOM     14  O   UNL     1       6.620  -0.390   0.066  0.00  0.00    -0.270 OA
ATOM     15  N   UNL     1       5.504  -2.032   1.214  0.00  0.00    -0.325 N 
ATOM     16  C   UNL     1       5.538  -0.874   0.444  0.00  0.00    +0.243 C 
ATOM     17  H   UNL     1       6.343  -2.487   1.456  0.00  0.00    +0.145 HD
ATOM     18  H   UNL     1       4.642  -2.397   1.516  0.00  0.00    +0.145 HD
ENDBRANCH  13  16
ENDBRANCH   7   8
ENDBRANCH   6   7
ENDBRANCH   4   6
ENDBRANCH   1   4
BRANCH   1  19
ATOM     19  C   UNL     1      -2.739   1.894   1.179  0.00  0.00    -0.047 C 
BRANCH  19  20
ATOM     20  C   UNL     1      -3.844   0.832   1.141  0.00  0.00    +0.112 C 
BRANCH  20  21
ATOM     21  C   UNL     1      -3.398  -0.407   0.395  0.00  0.00    +0.005 C 
ATOM     22  C   UNL     1      -2.265  -1.103   0.817  0.00  0.00    +0.038 C 
ATOM     23  C   UNL     1      -4.117  -0.852  -0.714  0.00  0.00    +0.001 C 
ATOM     24  C   UNL     1      -1.853  -2.245   0.130  0.00  0.00    +0.167 C 
ATOM     25  C   UNL     1      -3.705  -1.993  -1.401  0.00  0.00    +0.040 C 
ATOM     26  C   UNL     1      -2.573  -2.690  -0.979  0.00  0.00    +0.167 C 
BRANCH  24  27
ATOM     27  O   UNL     1      -0.745  -2.917   0.551  0.00  0.00    -0.503 OA
ATOM     28  H   UNL     1      -0.267  -2.611   1.297  0.00  0.00    +0.292 HD
ENDBRANCH  24  27
BRANCH  26  29
ATOM     29  O   UNL     1      -2.179  -3.802  -1.659  0.00  0.00    -0.503 OA
ATOM     30  H   UNL     1      -1.419  -4.276  -1.383  0.00  0.00    +0.292 HD
ENDBRANCH  26  29
ENDBRANCH  20  21
BRANCH  20  31
ATOM     31  O   UNL     1      -4.208   0.448   2.466  0.00  0.00    -0.382 OA
ATOM     32  H   UNL     1      -4.498   1.230   2.961  0.00  0.00    +0.211 HD
ENDBRANCH  20  31
ENDBRANCH  19  20
ENDBRANCH   1  19
TORSDOF 11
