REMARK  Name = 101672955
REMARK  8 active torsions:
REMARK  status: ('A' for Active; 'I' for Inactive)
REMARK    1  A    between atoms: C_4  and  C_22
REMARK    2  A    between atoms: C_7  and  O_31
REMARK    3  A    between atoms: C_8  and  C_35
REMARK    4  A    between atoms: C_9  and  O_33
REMARK    5  A    between atoms: C_19  and  N_25
REMARK    6  A    between atoms: C_21  and  O_29
REMARK    7  A    between atoms: C_35  and  C_37
REMARK    8  A    between atoms: C_37  and  O_38
REMARK                            x       y       z     vdW  Elec       q    Type
REMARK                         _______ _______ _______ _____ _____    ______ ____
ROOT
ATOM      1  O   UNL     1      -4.731   0.957   0.783  0.00  0.00    -0.351 OA
ATOM      2  O   UNL     1      -0.750   2.301   0.230  0.00  0.00    -0.287 OA
ATOM      3  O   UNL     1      -1.730  -2.945  -0.014  0.00  0.00    -0.287 OA
ATOM      4  C   UNL     1       2.475  -0.279  -0.428  0.00  0.00    +0.038 C 
ATOM      5  C   UNL     1      -2.611  -0.751   0.163  0.00  0.00    +0.047 C 
ATOM      6  C   UNL     1      -2.375   0.571   0.195  0.00  0.00    +0.045 C 
ATOM      7  C   UNL     1      -4.011  -1.295   0.286  0.00  0.00    +0.163 C 
ATOM      8  C   UNL     1      -5.066  -0.211   0.026  0.00  0.00    +0.158 C 
ATOM      9  C   UNL     1       1.425   0.619  -0.232  0.00  0.00    +0.135 C 
ATOM     10  C   UNL     1       0.114   0.145  -0.094  0.00  0.00    +0.075 C 
ATOM     11  C   UNL     1      -3.497   1.575   0.377  0.00  0.00    +0.140 C 
ATOM     12  C   UNL     1      -0.138  -1.224  -0.151  0.00  0.00    +0.045 C 
ATOM     13  C   UNL     1       2.222  -1.647  -0.486  0.00  0.00    +0.001 C 
ATOM     14  C   UNL     1      -0.986   1.103   0.117  0.00  0.00    +0.197 C 
ATOM     15  C   UNL     1      -1.511  -1.739  -0.001  0.00  0.00    +0.194 C 
ATOM     16  C   UNL     1       0.918  -2.123  -0.347  0.00  0.00    +0.003 C 
ATOM     17  C   UNL     1      -3.742   2.428  -0.870  0.00  0.00    +0.037 C 
ENDROOT
BRANCH   4  22
ATOM     18  O   UNL     1       4.608  -0.653  -1.474  0.00  0.00    -0.352 OA
ATOM     19  C   UNL     1       6.122  -0.026   0.633  0.00  0.00    -0.026 C 
ATOM     20  C   UNL     1       4.625   0.287   0.773  0.00  0.00    +0.016 C 
ATOM     21  C   UNL     1       6.661   0.500  -0.703  0.00  0.00    +0.119 C 
ATOM     22  C   UNL     1       3.899   0.210  -0.582  0.00  0.00    +0.138 C 
ATOM     23  C   UNL     1       5.884  -0.130  -1.879  0.00  0.00    +0.140 C 
ATOM     24  C   UNL     1       6.649  -1.303  -2.482  0.00  0.00    +0.035 C 
BRANCH  19  25
ATOM     25  N   UNL     1       6.857   0.501   1.781  0.00  0.00    +0.387 N 
ATOM     26  C   UNL     1       6.327  -0.060   3.022  0.00  0.00    -0.101 C 
ATOM     27  C   UNL     1       8.281   0.204   1.650  0.00  0.00    -0.101 C 
ATOM     28  H   UNL     1       6.741   1.514   1.810  0.00  0.00    -0.080 HD
ENDBRANCH  19  25
BRANCH  21  29
ATOM     29  O   UNL     1       6.478   1.918  -0.776  0.00  0.00    -0.384 OA
ATOM     30  H   UNL     1       6.956   2.343  -0.047  0.00  0.00    +0.210 HD
ENDBRANCH  21  29
ENDBRANCH   4  22
BRANCH   7  31
ATOM     31  O   UNL     1      -4.162  -1.844   1.595  0.00  0.00    -0.377 OA
ATOM     32  H   UNL     1      -3.488  -2.526   1.740  0.00  0.00    +0.211 HD
ENDBRANCH   7  31
BRANCH   9  33
ATOM     33  O   UNL     1       1.724   1.950  -0.188  0.00  0.00    -0.506 OA
ATOM     34  H   UNL     1       2.612   2.234  -0.283  0.00  0.00    +0.292 HD
ENDBRANCH   9  33
BRANCH   8  35
ATOM     35  C   UNL     1      -6.470  -0.640   0.434  0.00  0.00    +0.142 C 
BRANCH  35  37
ATOM     36  O   UNL     1      -7.322   1.148  -0.976  0.00  0.00    -0.250 OA
ATOM     37  C   UNL     1      -7.532   0.212  -0.216  0.00  0.00    +0.320 C 
BRANCH  37  38
ATOM     38  O   UNL     1      -8.759  -0.235   0.184  0.00  0.00    -0.444 OA
ATOM     39  C   UNL     1      -9.879   0.477  -0.351  0.00  0.00    +0.256 C 
ENDBRANCH  37  38
ENDBRANCH  35  37
ENDBRANCH   8  35
TORSDOF 8
