REMARK  Name = 101600054
REMARK  8 active torsions:
REMARK  status: ('A' for Active; 'I' for Inactive)
REMARK    1  A    between atoms: C_3  and  O_31
REMARK    2  A    between atoms: C_4  and  O_21
REMARK    3  A    between atoms: C_7  and  O_23
REMARK    4  A    between atoms: C_10  and  O_25
REMARK    5  A    between atoms: C_12  and  O_27
REMARK    6  A    between atoms: C_16  and  O_29
REMARK    7  A    between atoms: O_31  and  C_33
REMARK    8  A    between atoms: C_33  and  C_34
REMARK                            x       y       z     vdW  Elec       q    Type
REMARK                         _______ _______ _______ _____ _____    ______ ____
ROOT
ATOM      1  C   UNL     1       0.948   0.730   0.798  0.00  0.00    +0.044 C 
ATOM      2  C   UNL     1       0.207   1.962   0.147  0.00  0.00    +0.028 C 
ATOM      3  C   UNL     1       1.669  -0.051  -0.314  0.00  0.00    +0.171 C 
ATOM      4  C   UNL     1      -1.018   1.721  -0.838  0.00  0.00    +0.091 C 
ATOM      5  C   UNL     1      -1.739   0.346  -0.766  0.00  0.00    +0.054 C 
ATOM      6  C   UNL     1       2.861   0.885  -0.613  0.00  0.00    +0.065 C 
ATOM      7  C   UNL     1      -2.218  -0.218   0.594  0.00  0.00    +0.117 C 
ATOM      8  C   UNL     1       2.170   1.257   1.679  0.00  0.00    +0.031 C 
ATOM      9  C   UNL     1       0.075  -0.073   1.786  0.00  0.00    +0.035 C 
ATOM     10  C   UNL     1       3.426   1.164   0.794  0.00  0.00    +0.092 C 
ATOM     11  C   UNL     1       1.261   2.902  -0.523  0.00  0.00    +0.003 C 
ATOM     12  C   UNL     1      -1.061  -0.961   1.287  0.00  0.00    +0.135 C 
ATOM     13  C   UNL     1      -3.467  -1.110   0.223  0.00  0.00    +0.050 C 
ATOM     14  C   UNL     1       2.342   2.151  -1.318  0.00  0.00    +0.006 C 
ATOM     15  C   UNL     1      -2.950   0.216  -1.741  0.00  0.00    +0.034 C 
ATOM     16  C   UNL     1      -4.124  -0.277  -0.904  0.00  0.00    +0.113 C 
ATOM     17  C   UNL     1      -1.976   2.933  -0.681  0.00  0.00    +0.029 C 
ATOM     18  C   UNL     1       4.365   2.357   0.931  0.00  0.00    +0.029 C 
ATOM     19  C   UNL     1      -4.453  -1.341   1.383  0.00  0.00    +0.005 C 
ATOM     20  C   UNL     1      -3.079  -2.493  -0.357  0.00  0.00    +0.005 C 
ENDROOT
BRANCH   4  21
ATOM     21  O   UNL     1      -0.551   1.757  -2.206  0.00  0.00    -0.387 OA
ATOM     22  H   UNL     1       0.055   1.016  -2.360  0.00  0.00    +0.210 HD
ENDBRANCH   4  21
BRANCH   7  23
ATOM     23  O   UNL     1      -2.626   0.841   1.460  0.00  0.00    -0.384 OA
ATOM     24  H   UNL     1      -1.858   1.387   1.687  0.00  0.00    +0.210 HD
ENDBRANCH   7  23
BRANCH  10  25
ATOM     25  O   UNL     1       4.178   0.018   1.225  0.00  0.00    -0.387 OA
ATOM     26  H   UNL     1       3.624  -0.776   1.157  0.00  0.00    +0.210 HD
ENDBRANCH  10  25
BRANCH  12  27
ATOM     27  O   UNL     1      -1.551  -1.616   2.464  0.00  0.00    -0.382 OA
ATOM     28  H   UNL     1      -2.284  -2.205   2.225  0.00  0.00    +0.210 HD
ENDBRANCH  12  27
BRANCH  16  29
ATOM     29  O   UNL     1      -4.817   0.864  -0.408  0.00  0.00    -0.384 OA
ATOM     30  H   UNL     1      -5.571   0.576   0.129  0.00  0.00    +0.210 HD
ENDBRANCH  16  29
BRANCH   3  31
ATOM     31  O   UNL     1       2.104  -1.325   0.141  0.00  0.00    -0.452 OA
BRANCH  31  33
ATOM     32  O   UNL     1       2.086  -2.118  -2.026  0.00  0.00    -0.250 OA
ATOM     33  C   UNL     1       2.275  -2.279  -0.829  0.00  0.00    +0.317 C 
BRANCH  33  34
ATOM     34  C   UNL     1       2.737  -3.566  -0.185  0.00  0.00    +0.110 C 
ATOM     35  C   UNL     1       2.929  -4.676  -1.203  0.00  0.00    +0.012 C 
ENDBRANCH  33  34
ENDBRANCH  31  33
ENDBRANCH   3  31
TORSDOF 8
