REMARK  Name = 101683883
REMARK  11 active torsions:
REMARK  status: ('A' for Active; 'I' for Inactive)
REMARK    1  A    between atoms: C_2  and  C_11
REMARK    2  A    between atoms: C_3  and  C_26
REMARK    3  A    between atoms: C_4  and  C_35
REMARK    4  A    between atoms: C_13  and  C_18
REMARK    5  A    between atoms: C_18  and  C_19
REMARK    6  A    between atoms: C_19  and  C_21
REMARK    7  A    between atoms: C_21  and  O_22
REMARK    8  A    between atoms: C_29  and  C_33
REMARK    9  A    between atoms: C_35  and  C_36
REMARK   10  A    between atoms: C_36  and  C_38
REMARK   11  A    between atoms: C_38  and  O_39
REMARK                            x       y       z     vdW  Elec       q    Type
REMARK                         _______ _______ _______ _____ _____    ______ ____
ROOT
ATOM      1  N   UNL     1       0.467  -1.232   1.206  0.00  0.00    +0.396 N 
ATOM      2  C   UNL     1      -0.791  -1.333   0.435  0.00  0.00    -0.018 C 
ATOM      3  C   UNL     1       1.582  -1.357   0.241  0.00  0.00    -0.018 C 
ATOM      4  C   UNL     1      -0.386  -1.869  -0.910  0.00  0.00    -0.069 C 
ATOM      5  C   UNL     1       0.951  -1.885  -1.019  0.00  0.00    -0.069 C 
ATOM      6  C   UNL     1       1.794  -2.369  -2.148  0.00  0.00    +0.024 C 
ATOM      7  H   UNL     1       0.515  -1.982   1.896  0.00  0.00    -0.082 HD
ATOM      8  H   UNL     1       0.516  -0.343   1.703  0.00  0.00    -0.082 HD
ENDROOT
BRANCH   2  11
ATOM      9  O   UNL     1      -5.621  -0.724   2.421  0.00  0.00    -0.270 OA
ATOM     10  N   UNL     1      -3.481  -0.706   1.457  0.00  0.00    -0.281 N 
ATOM     11  C   UNL     1      -1.480  -0.005   0.358  0.00  0.00    -0.030 C 
ATOM     12  C   UNL     1      -2.705   0.231   0.837  0.00  0.00    +0.040 C 
ATOM     13  C   UNL     1      -3.478   1.455   0.828  0.00  0.00    -0.008 C 
ATOM     14  C   UNL     1      -4.671   1.254   1.420  0.00  0.00    +0.029 C 
ATOM     15  C   UNL     1      -4.697  -0.174   1.847  0.00  0.00    +0.245 C 
ATOM     16  C   UNL     1      -5.817   2.160   1.671  0.00  0.00    +0.036 C 
ATOM     17  H   UNL     1      -3.209  -1.640   1.607  0.00  0.00    +0.155 HD
BRANCH  13  18
ATOM     18  C   UNL     1      -2.958   2.717   0.228  0.00  0.00    +0.039 C 
BRANCH  18  19
ATOM     19  C   UNL     1      -3.289   2.842  -1.254  0.00  0.00    +0.114 C 
BRANCH  19  21
ATOM     20  O   UNL     1      -2.190   4.992  -1.184  0.00  0.00    -0.250 OA
ATOM     21  C   UNL     1      -2.787   4.143  -1.833  0.00  0.00    +0.314 C 
BRANCH  21  22
ATOM     22  O   UNL     1      -3.042   4.262  -3.159  0.00  0.00    -0.480 OA
ATOM     23  H   UNL     1      -3.503   3.583  -3.611  0.00  0.00    +0.295 HD
ENDBRANCH  21  22
ENDBRANCH  19  21
ENDBRANCH  18  19
ENDBRANCH  13  18
ENDBRANCH   2  11
BRANCH   3  26
ATOM     24  O   UNL     1       6.679  -0.852   1.408  0.00  0.00    -0.270 OA
ATOM     25  N   UNL     1       4.413  -0.783   0.807  0.00  0.00    -0.281 N 
ATOM     26  C   UNL     1       2.274  -0.043   0.048  0.00  0.00    -0.030 C 
ATOM     27  C   UNL     1       3.566   0.170   0.320  0.00  0.00    +0.041 C 
ATOM     28  C   UNL     1       4.350   1.379   0.181  0.00  0.00    -0.004 C 
ATOM     29  C   UNL     1       5.620   1.154   0.570  0.00  0.00    +0.051 C 
ATOM     30  C   UNL     1       5.688  -0.277   0.992  0.00  0.00    +0.249 C 
ATOM     31  C   UNL     1       3.754   2.649  -0.329  0.00  0.00    +0.032 C 
ATOM     32  H   UNL     1       4.151  -1.712   1.002  0.00  0.00    +0.155 HD
BRANCH  29  33
ATOM     33  C   UNL     1       6.742   2.036   0.610  0.00  0.00    +0.004 C 
ATOM     34  C   UNL     1       7.016   2.941  -0.340  0.00  0.00    +0.000 C 
ENDBRANCH  29  33
ENDBRANCH   3  26
BRANCH   4  35
ATOM     35  C   UNL     1      -1.412  -2.332  -1.887  0.00  0.00    +0.031 C 
BRANCH  35  36
ATOM     36  C   UNL     1      -2.283  -3.454  -1.334  0.00  0.00    +0.114 C 
BRANCH  36  38
ATOM     37  O   UNL     1      -0.807  -5.305  -1.813  0.00  0.00    -0.250 OA
ATOM     38  C   UNL     1      -1.470  -4.680  -0.995  0.00  0.00    +0.314 C 
BRANCH  38  39
ATOM     39  O   UNL     1      -1.528  -5.005   0.320  0.00  0.00    -0.480 OA
ATOM     40  H   UNL     1      -2.051  -4.494   0.906  0.00  0.00    +0.295 HD
ENDBRANCH  38  39
ENDBRANCH  36  38
ENDBRANCH  35  36
ENDBRANCH   4  35
TORSDOF 11
