REMARK  Name = 101607250
REMARK  9 active torsions:
REMARK  status: ('A' for Active; 'I' for Inactive)
REMARK    1  A    between atoms: C_1  and  C_4
REMARK    2  A    between atoms: C_1  and  C_16
REMARK    3  A    between atoms: C_1  and  C_19
REMARK    4  A    between atoms: C_12  and  O_13
REMARK    5  A    between atoms: C_16  and  O_17
REMARK    6  A    between atoms: C_19  and  C_20
REMARK    7  A    between atoms: C_19  and  C_28
REMARK    8  A    between atoms: C_25  and  O_26
REMARK    9  A    between atoms: C_33  and  O_34
REMARK                            x       y       z     vdW  Elec       q    Type
REMARK                         _______ _______ _______ _____ _____    ______ ____
ROOT
ATOM      1  C   UNL     1      -0.461  -0.975   0.272  0.00  0.00    +0.135 C 
ENDROOT
BRANCH   1   4
ATOM      2  O   UNL     1       2.649   0.074  -1.643  0.00  0.00    -0.450 OA
ATOM      3  O   UNL     1       1.750  -1.509   2.009  0.00  0.00    -0.287 OA
ATOM      4  C   UNL     1       0.965  -0.710  -0.084  0.00  0.00    +0.065 C 
ATOM      5  C   UNL     1       2.017  -1.034   0.913  0.00  0.00    +0.198 C 
ATOM      6  C   UNL     1       1.359  -0.194  -1.255  0.00  0.00    +0.179 C 
ATOM      7  C   UNL     1       3.407  -0.752   0.511  0.00  0.00    +0.073 C 
ATOM      8  C   UNL     1       3.652  -0.210  -0.751  0.00  0.00    +0.151 C 
ATOM      9  C   UNL     1       4.468  -1.022   1.379  0.00  0.00    +0.009 C 
ATOM     10  C   UNL     1       4.960   0.064  -1.152  0.00  0.00    +0.074 C 
ATOM     11  C   UNL     1       5.775  -0.747   0.975  0.00  0.00    +0.037 C 
ATOM     12  C   UNL     1       6.021  -0.205  -0.287  0.00  0.00    +0.137 C 
BRANCH  12  13
ATOM     13  O   UNL     1       7.298   0.061  -0.676  0.00  0.00    -0.505 OA
ATOM     14  H   UNL     1       7.464   0.425  -1.523  0.00  0.00    +0.292 HD
ENDBRANCH  12  13
ENDBRANCH   1   4
BRANCH   1  16
ATOM     15  O   UNL     1      -0.680  -2.900  -1.220  0.00  0.00    -0.250 OA
ATOM     16  C   UNL     1      -0.711  -2.433  -0.090  0.00  0.00    +0.318 C 
BRANCH  16  17
ATOM     17  O   UNL     1      -1.006  -3.164   1.015  0.00  0.00    -0.480 OA
ATOM     18  H   UNL     1      -1.017  -2.756   1.858  0.00  0.00    +0.295 HD
ENDBRANCH  16  17
ENDBRANCH   1  16
BRANCH   1  19
ATOM     19  C   UNL     1      -1.466  -0.049  -0.481  0.00  0.00    +0.059 C 
BRANCH  19  20
ATOM     20  C   UNL     1      -1.287   1.440  -0.188  0.00  0.00    -0.017 C 
ATOM     21  C   UNL     1      -1.520   2.382  -1.190  0.00  0.00    -0.001 C 
ATOM     22  C   UNL     1      -0.892   1.857   1.083  0.00  0.00    -0.001 C 
ATOM     23  C   UNL     1      -1.358   3.741  -0.921  0.00  0.00    +0.036 C 
ATOM     24  C   UNL     1      -0.729   3.216   1.352  0.00  0.00    +0.036 C 
ATOM     25  C   UNL     1      -0.962   4.158   0.350  0.00  0.00    +0.134 C 
BRANCH  25  26
ATOM     26  O   UNL     1      -0.804   5.484   0.612  0.00  0.00    -0.506 OA
ATOM     27  H   UNL     1      -0.960   6.116  -0.061  0.00  0.00    +0.292 HD
ENDBRANCH  25  26
ENDBRANCH  19  20
BRANCH  19  28
ATOM     28  C   UNL     1      -2.926  -0.459  -0.295  0.00  0.00    -0.017 C 
ATOM     29  C   UNL     1      -3.673  -0.899  -1.388  0.00  0.00    -0.001 C 
ATOM     30  C   UNL     1      -3.513  -0.393   0.969  0.00  0.00    -0.001 C 
ATOM     31  C   UNL     1      -5.005  -1.273  -1.217  0.00  0.00    +0.036 C 
ATOM     32  C   UNL     1      -4.845  -0.767   1.140  0.00  0.00    +0.036 C 
ATOM     33  C   UNL     1      -5.592  -1.207   0.047  0.00  0.00    +0.134 C 
BRANCH  33  34
ATOM     34  O   UNL     1      -6.892  -1.573   0.213  0.00  0.00    -0.506 OA
ATOM     35  H   UNL     1      -7.393  -1.868  -0.521  0.00  0.00    +0.292 HD
ENDBRANCH  33  34
ENDBRANCH  19  28
ENDBRANCH   1  19
TORSDOF 9
