REMARK  Name = 101663894
REMARK  10 active torsions:
REMARK  status: ('A' for Active; 'I' for Inactive)
REMARK    1  A    between atoms: N_2  and  C_5
REMARK    2  A    between atoms: C_3  and  C_20
REMARK    3  A    between atoms: C_5  and  C_6
REMARK    4  A    between atoms: C_5  and  C_10
REMARK    5  A    between atoms: C_10  and  C_14
REMARK    6  A    between atoms: C_20  and  C_21
REMARK    7  A    between atoms: C_21  and  C_22
REMARK    8  A    between atoms: C_21  and  N_29
REMARK    9  A    between atoms: C_30  and  C_32
REMARK   10  A    between atoms: C_33  and  C_34
REMARK                            x       y       z     vdW  Elec       q    Type
REMARK                         _______ _______ _______ _____ _____    ______ ____
ROOT
ATOM      1  O   UNL     1       0.150  -1.905  -2.784  0.00  0.00    -0.275 OA
ATOM      2  N   UNL     1      -0.547  -2.138  -0.581  0.00  0.00    -0.300 N 
ATOM      3  C   UNL     1       0.403  -2.071  -1.594  0.00  0.00    +0.225 C 
ATOM      4  H   UNL     1      -0.239  -2.274   0.344  0.00  0.00    +0.150 HD
ENDROOT
BRANCH   2   5
ATOM      5  C   UNL     1      -1.962  -2.018  -0.823  0.00  0.00    +0.130 C 
BRANCH   5   6
ATOM      6  C   UNL     1      -2.659  -3.366  -1.086  0.00  0.00    +0.025 C 
ATOM      7  C   UNL     1      -2.205  -4.424  -0.074  0.00  0.00    +0.002 C 
ATOM      8  C   UNL     1      -2.452  -3.890  -2.511  0.00  0.00    +0.002 C 
ENDBRANCH   5   6
BRANCH   5  10
ATOM      9  O   UNL     1      -2.159  -1.404   1.511  0.00  0.00    -0.294 OA
ATOM     10  C   UNL     1      -2.574  -1.274   0.359  0.00  0.00    +0.177 C 
BRANCH  10  14
ATOM     11  O   UNL     1      -5.324  -1.147   1.638  0.00  0.00    -0.274 OA
ATOM     12  O   UNL     1      -3.649   3.103   1.148  0.00  0.00    -0.275 OA
ATOM     13  N   UNL     1      -4.695   1.086   1.610  0.00  0.00    -0.255 N 
ATOM     14  C   UNL     1      -3.696  -0.316   0.047  0.00  0.00    +0.144 C 
ATOM     15  C   UNL     1      -3.235   1.126  -0.209  0.00  0.00    +0.093 C 
ATOM     16  C   UNL     1      -4.681  -0.215   1.178  0.00  0.00    +0.235 C 
ATOM     17  C   UNL     1      -3.854   1.920   0.919  0.00  0.00    +0.229 C 
ATOM     18  C   UNL     1      -1.737   1.373  -0.296  0.00  0.00    +0.011 C 
ATOM     19  H   UNL     1      -5.261   1.395   2.354  0.00  0.00    +0.158 HD
ENDBRANCH  10  14
ENDBRANCH   5  10
ENDBRANCH   2   5
BRANCH   3  20
ATOM     20  C   UNL     1       1.817  -2.214  -1.048  0.00  0.00    +0.109 C 
BRANCH  20  21
ATOM     21  C   UNL     1       2.206  -1.107  -0.057  0.00  0.00    +0.103 C 
BRANCH  21  22
ATOM     22  C   UNL     1       3.616  -1.294   0.464  0.00  0.00    -0.004 C 
ATOM     23  C   UNL     1       4.691  -0.712  -0.209  0.00  0.00    -0.003 C 
ATOM     24  C   UNL     1       3.840  -2.047   1.617  0.00  0.00    -0.003 C 
ATOM     25  C   UNL     1       5.989  -0.884   0.271  0.00  0.00    -0.000 C 
ATOM     26  C   UNL     1       5.139  -2.218   2.096  0.00  0.00    -0.000 C 
ATOM     27  C   UNL     1       6.213  -1.637   1.423  0.00  0.00    -0.000 C 
ENDBRANCH  21  22
BRANCH  21  29
ATOM     28  O   UNL     1       1.553   1.367   1.301  0.00  0.00    -0.270 OA
ATOM     29  N   UNL     1       2.055   0.205  -0.648  0.00  0.00    -0.298 N 
ATOM     30  C   UNL     1       1.740   1.333   0.089  0.00  0.00    +0.246 C 
ATOM     31  H   UNL     1       2.182   0.300  -1.620  0.00  0.00    +0.150 HD
BRANCH  30  32
ATOM     32  C   UNL     1       1.646   2.546  -0.769  0.00  0.00    +0.058 C 
ATOM     33  C   UNL     1       1.349   3.735  -0.226  0.00  0.00    +0.004 C 
BRANCH  33  34
ATOM     34  C   UNL     1       1.242   4.947  -1.009  0.00  0.00    -0.004 C 
ATOM     35  C   UNL     1       0.946   6.141  -0.475  0.00  0.00    -0.026 C 
ATOM     36  C   UNL     1       0.833   7.399  -1.273  0.00  0.00    +0.031 C 
ENDBRANCH  33  34
ENDBRANCH  30  32
ENDBRANCH  21  29
ENDBRANCH  20  21
ENDBRANCH   3  20
TORSDOF 10
