101683883
  -OEChem-03292013293D

 63 65  0     1  0  0  0  0  0999 V2000
   -5.6211   -0.7242    2.4205 O   0  0  0  0  0  0  0  0  0  0  0  0
   -1.5280   -5.0049    0.3197 O   0  0  0  0  0  0  0  0  0  0  0  0
   -0.8071   -5.3048   -1.8134 O   0  0  0  0  0  0  0  0  0  0  0  0
    6.6790   -0.8517    1.4083 O   0  0  0  0  0  0  0  0  0  0  0  0
   -3.0419    4.2623   -3.1593 O   0  0  0  0  0  0  0  0  0  0  0  0
   -2.1901    4.9917   -1.1840 O   0  0  0  0  0  0  0  0  0  0  0  0
    0.4668   -1.2318    1.2059 N   0  0  0  0  0  0  0  0  0  0  0  0
   -3.4806   -0.7060    1.4569 N   0  0  0  0  0  0  0  0  0  0  0  0
    4.4130   -0.7831    0.8068 N   0  0  0  0  0  0  0  0  0  0  0  0
   -0.7912   -1.3327    0.4353 C   0  0  2  0  0  0  0  0  0  0  0  0
    1.5821   -1.3572    0.2414 C   0  0  1  0  0  0  0  0  0  0  0  0
   -0.3861   -1.8691   -0.9098 C   0  0  0  0  0  0  0  0  0  0  0  0
    0.9505   -1.8847   -1.0191 C   0  0  0  0  0  0  0  0  0  0  0  0
   -1.4124   -2.3322   -1.8866 C   0  0  0  0  0  0  0  0  0  0  0  0
   -1.4796   -0.0053    0.3579 C   0  0  0  0  0  0  0  0  0  0  0  0
    2.2736   -0.0432    0.0484 C   0  0  0  0  0  0  0  0  0  0  0  0
    1.7939   -2.3692   -2.1483 C   0  0  0  0  0  0  0  0  0  0  0  0
   -2.7054    0.2312    0.8372 C   0  0  0  0  0  0  0  0  0  0  0  0
   -2.2834   -3.4539   -1.3339 C   0  0  0  0  0  0  0  0  0  0  0  0
   -3.4784    1.4552    0.8277 C   0  0  0  0  0  0  0  0  0  0  0  0
    3.5656    0.1695    0.3203 C   0  0  0  0  0  0  0  0  0  0  0  0
   -4.6709    1.2545    1.4199 C   0  0  0  0  0  0  0  0  0  0  0  0
   -2.9578    2.7170    0.2284 C   0  0  0  0  0  0  0  0  0  0  0  0
    4.3502    1.3793    0.1806 C   0  0  0  0  0  0  0  0  0  0  0  0
   -4.6973   -0.1743    1.8470 C   0  0  0  0  0  0  0  0  0  0  0  0
   -1.4704   -4.6802   -0.9954 C   0  0  0  0  0  0  0  0  0  0  0  0
    5.6200    1.1544    0.5702 C   0  0  0  0  0  0  0  0  0  0  0  0
   -3.2895    2.8420   -1.2535 C   0  0  0  0  0  0  0  0  0  0  0  0
    5.6884   -0.2770    0.9916 C   0  0  0  0  0  0  0  0  0  0  0  0
   -5.8170    2.1597    1.6712 C   0  0  0  0  0  0  0  0  0  0  0  0
    3.7544    2.6490   -0.3292 C   0  0  0  0  0  0  0  0  0  0  0  0
    6.7423    2.0361    0.6102 C   0  0  0  0  0  0  0  0  0  0  0  0
   -2.7873    4.1425   -1.8330 C   0  0  0  0  0  0  0  0  0  0  0  0
    7.0156    2.9410   -0.3400 C   0  0  0  0  0  0  0  0  0  0  0  0
   -1.3948   -2.0863    0.9463 H   0  0  0  0  0  0  0  0  0  0  0  0
    2.2498   -2.1331    0.6276 H   0  0  0  0  0  0  0  0  0  0  0  0
    0.5140   -2.0065    1.8690 H   0  0  0  0  0  0  0  0  0  0  0  0
   -2.0537   -1.4857   -2.1606 H   0  0  0  0  0  0  0  0  0  0  0  0
   -0.9469   -2.6673   -2.8192 H   0  0  0  0  0  0  0  0  0  0  0  0
   -0.9304    0.8007   -0.1242 H   0  0  0  0  0  0  0  0  0  0  0  0
    1.6715    0.7771   -0.3377 H   0  0  0  0  0  0  0  0  0  0  0  0
    2.4821   -3.1450   -1.7972 H   0  0  0  0  0  0  0  0  0  0  0  0
    2.3852   -1.5472   -2.5636 H   0  0  0  0  0  0  0  0  0  0  0  0
    1.2062   -2.7984   -2.9632 H   0  0  0  0  0  0  0  0  0  0  0  0
   -3.0299   -3.7539   -2.0788 H   0  0  0  0  0  0  0  0  0  0  0  0
   -2.8499   -3.1294   -0.4546 H   0  0  0  0  0  0  0  0  0  0  0  0
   -3.2144   -1.6690    1.6177 H   0  0  0  0  0  0  0  0  0  0  0  0
   -3.3900    3.5738    0.7627 H   0  0  0  0  0  0  0  0  0  0  0  0
   -1.8776    2.8132    0.3936 H   0  0  0  0  0  0  0  0  0  0  0  0
    4.1574   -1.7407    1.0110 H   0  0  0  0  0  0  0  0  0  0  0  0
   -4.3746    2.8044   -1.4040 H   0  0  0  0  0  0  0  0  0  0  0  0
   -2.8266    2.0225   -1.8151 H   0  0  0  0  0  0  0  0  0  0  0  0
   -6.7270    1.7585    1.2141 H   0  0  0  0  0  0  0  0  0  0  0  0
   -5.6498    3.1575    1.2555 H   0  0  0  0  0  0  0  0  0  0  0  0
   -5.9896    2.2674    2.7466 H   0  0  0  0  0  0  0  0  0  0  0  0
    3.5623    2.5778   -1.4046 H   0  0  0  0  0  0  0  0  0  0  0  0
    4.3871    3.5216   -0.1498 H   0  0  0  0  0  0  0  0  0  0  0  0
    2.8055    2.8604    0.1764 H   0  0  0  0  0  0  0  0  0  0  0  0
    7.4156    1.9415    1.4572 H   0  0  0  0  0  0  0  0  0  0  0  0
   -0.9835   -5.7943    0.5262 H   0  0  0  0  0  0  0  0  0  0  0  0
    7.8927    3.5734   -0.2464 H   0  0  0  0  0  0  0  0  0  0  0  0
    6.4112    3.0621   -1.2318 H   0  0  0  0  0  0  0  0  0  0  0  0
   -2.6985    5.1060   -3.5234 H   0  0  0  0  0  0  0  0  0  0  0  0
  1 25  2  0  0  0  0
  2 26  1  0  0  0  0
  2 60  1  0  0  0  0
  3 26  2  0  0  0  0
  4 29  2  0  0  0  0
  5 33  1  0  0  0  0
  5 63  1  0  0  0  0
  6 33  2  0  0  0  0
  7 10  1  0  0  0  0
  7 11  1  0  0  0  0
  7 37  1  0  0  0  0
  8 18  1  0  0  0  0
  8 25  1  0  0  0  0
  8 47  1  0  0  0  0
  9 21  1  0  0  0  0
  9 29  1  0  0  0  0
  9 50  1  0  0  0  0
 10 12  1  0  0  0  0
 10 15  1  0  0  0  0
 10 35  1  0  0  0  0
 11 13  1  0  0  0  0
 11 16  1  0  0  0  0
 11 36  1  0  0  0  0
 12 13  2  0  0  0  0
 12 14  1  0  0  0  0
 13 17  1  0  0  0  0
 14 19  1  0  0  0  0
 14 38  1  0  0  0  0
 14 39  1  0  0  0  0
 15 18  2  0  0  0  0
 15 40  1  0  0  0  0
 16 21  2  0  0  0  0
 16 41  1  0  0  0  0
 17 42  1  0  0  0  0
 17 43  1  0  0  0  0
 17 44  1  0  0  0  0
 18 20  1  0  0  0  0
 19 26  1  0  0  0  0
 19 45  1  0  0  0  0
 19 46  1  0  0  0  0
 20 22  2  0  0  0  0
 20 23  1  0  0  0  0
 21 24  1  0  0  0  0
 22 25  1  0  0  0  0
 22 30  1  0  0  0  0
 23 28  1  0  0  0  0
 23 48  1  0  0  0  0
 23 49  1  0  0  0  0
 24 27  2  0  0  0  0
 24 31  1  0  0  0  0
 27 29  1  0  0  0  0
 27 32  1  0  0  0  0
 28 33  1  0  0  0  0
 28 51  1  0  0  0  0
 28 52  1  0  0  0  0
 30 53  1  0  0  0  0
 30 54  1  0  0  0  0
 30 55  1  0  0  0  0
 31 56  1  0  0  0  0
 31 57  1  0  0  0  0
 31 58  1  0  0  0  0
 32 34  2  0  0  0  0
 32 59  1  0  0  0  0
 34 61  1  0  0  0  0
 34 62  1  0  0  0  0
M  END
> <PUBCHEM_COMPOUND_CID>
101683883

> <PUBCHEM_CONFORMER_RMSD>
1

> <PUBCHEM_CONFORMER_DIVERSEORDER>
1
166
128
109
50
191
91
144
169
113
127
171
58
82
70
59
125
72
16
112
92
103
75
126
164
47
83
158
162
157
9
155
181
53
38
30
142
175
129
71
28
52
123
102
100
43
107
68
116
177
36
139
37
190
173
178
165
8
105
149
118
67
135
17
77
183
79
44
187
150
89
88
57
170
4
119
168
184
45
148
73
95
6
159
111
90
27
110
156
29
41
154
174
176
2
65
74
99
106
60
20
167
93
138
160
180
186
101
66
124
39
193
163
115
117
140
131
143
21
81
97
130
147
55
87
104
78
51
18
114
64
76
185
96
56
25
85
146
86
19
192
134
136
69
182
13
122
153
31
145
49
63
188
32
179
108
46
40
161
35
42
5
34
120
23
151
121
137
189
26
141
14
48
11
94
172
22
80
61
133
10
54
84
132
62
98
7
33
12
152
15
3
24

> <PUBCHEM_MMFF94_PARTIAL_CHARGES>
44
1 -0.57
10 0.55
11 0.55
12 -0.28
13 -0.28
14 0.14
15 -0.29
16 -0.29
17 0.14
18 0.11
19 0.06
2 -0.65
20 -0.14
21 0.11
22 -0.12
23 0.14
24 -0.14
25 0.62
26 0.66
27 0.01
28 0.06
29 0.62
3 -0.57
30 0.14
31 0.14
32 -0.15
33 0.66
34 -0.3
37 0.36
4 -0.57
40 0.15
41 0.15
47 0.37
5 -0.65
50 0.37
59 0.15
6 -0.57
60 0.5
61 0.15
62 0.15
63 0.5
7 -0.9
8 -0.54
9 -0.54

> <PUBCHEM_EFFECTIVE_ROTOR_COUNT>
10

> <PUBCHEM_PHARMACOPHORE_FEATURES>
16
1 1 acceptor
1 2 acceptor
1 3 acceptor
1 34 hydrophobe
1 4 acceptor
1 5 acceptor
1 6 acceptor
1 7 cation
1 7 donor
1 8 donor
1 9 donor
3 2 3 26 anion
3 5 6 33 anion
5 7 10 11 12 13 rings
5 8 18 20 22 25 rings
5 9 21 24 27 29 rings

> <PUBCHEM_HEAVY_ATOM_COUNT>
34

> <PUBCHEM_ATOM_DEF_STEREO_COUNT>
0

> <PUBCHEM_ATOM_UDEF_STEREO_COUNT>
2

> <PUBCHEM_BOND_DEF_STEREO_COUNT>
2

> <PUBCHEM_BOND_UDEF_STEREO_COUNT>
0

> <PUBCHEM_ISOTOPIC_ATOM_COUNT>
0

> <PUBCHEM_COMPONENT_COUNT>
1

> <PUBCHEM_CACTVS_TAUTO_COUNT>
748

> <PUBCHEM_CONFORMER_ID>
060F92AB00000001

> <PUBCHEM_MMFF94_ENERGY>
59.7972

> <PUBCHEM_FEATURE_SELFOVERLAP>
81.314

> <PUBCHEM_SHAPE_FINGERPRINT>
10290309 65 18339644434725985376
10369192 42 18059585710211895640
11763715 3 17900828459386217982
11991303 11 18343862229770718254
12107183 9 18341045221652596074
12128747 34 17532655620546065346
12788726 201 18126836320938899266
12988421 55 18272373018856108473
13911987 19 18130782318358146409
14294032 229 17846226613034868027
14395042 24 18121788489711222291
16992828 155 18334568062249962204
18393751 57 18411427189675290043
19246450 95 17975950104852967514
21133410 32 13685144644287960052
24771293 8 18337123289625659409
25019877 29 17702963546861026807
3418910 222 17614560771931344988
376196 1 17900533480742216873
57527585 21 17772459106760118369
6608658 132 17975421531575144716
6700243 42 16980155734957275670
7399639 24 18266473014245572203

> <PUBCHEM_SHAPE_MULTIPOLES>
649.55
14.65
6.66
2.14
21.86
2.85
0.87
-13.63
-8.18
-6.41
5.73
-2.97
-0.72
0.68

> <PUBCHEM_SHAPE_SELFOVERLAP>
1380.835

> <PUBCHEM_SHAPE_VOLUME>
363.1

> <PUBCHEM_COORDINATE_TYPE>
2
5
10

$$$$
