REMARK  Name = 101689645
REMARK  3 active torsions:
REMARK  status: ('A' for Active; 'I' for Inactive)
REMARK    1  A    between atoms: C_8  and  O_27
REMARK    2  A    between atoms: C_12  and  O_29
REMARK    3  A    between atoms: C_23  and  O_31
REMARK                            x       y       z     vdW  Elec       q    Type
REMARK                         _______ _______ _______ _____ _____    ______ ____
ROOT
ATOM      1  O   UNL     1      -2.187  -0.414   0.024  0.00  0.00    -0.327 OA
ATOM      2  O   UNL     1      -1.489   1.533  -1.176  0.00  0.00    -0.331 OA
ATOM      3  O   UNL     1      -0.883  -3.017   0.320  0.00  0.00    -0.445 OA
ATOM      4  O   UNL     1       1.127   2.325  -0.136  0.00  0.00    -0.287 OA
ATOM      5  O   UNL     1       2.042  -2.855  -0.808  0.00  0.00    -0.287 OA
ATOM      6  O   UNL     1      -2.691  -4.184   1.116  0.00  0.00    -0.250 OA
ATOM      7  C   UNL     1      -1.246   0.676  -0.046  0.00  0.00    +0.238 C 
ATOM      8  C   UNL     1      -1.449   1.486   1.266  0.00  0.00    +0.193 C 
ATOM      9  C   UNL     1      -2.005  -1.426  -0.960  0.00  0.00    +0.173 C 
ATOM     10  C   UNL     1      -0.668  -2.102  -0.763  0.00  0.00    +0.222 C 
ATOM     11  C   UNL     1       0.186   0.151  -0.180  0.00  0.00    +0.072 C 
ATOM     12  C   UNL     1      -2.817   2.179   1.320  0.00  0.00    +0.145 C 
ATOM     13  C   UNL     1       0.439  -1.144  -0.440  0.00  0.00    +0.062 C 
ATOM     14  C   UNL     1      -2.789   2.132  -1.200  0.00  0.00    +0.121 C 
ATOM     15  C   UNL     1      -3.020   2.995   0.045  0.00  0.00    +0.062 C 
ATOM     16  C   UNL     1      -2.974  -2.548  -0.653  0.00  0.00    +0.143 C 
ATOM     17  C   UNL     1       1.324   1.116  -0.086  0.00  0.00    +0.199 C 
ATOM     18  C   UNL     1       1.824  -1.686  -0.511  0.00  0.00    +0.195 C 
ATOM     19  C   UNL     1      -2.211  -3.347   0.368  0.00  0.00    +0.320 C 
ATOM     20  C   UNL     1      -2.880   2.974  -2.466  0.00  0.00    +0.032 C 
ATOM     21  C   UNL     1       2.691   0.579   0.016  0.00  0.00    +0.075 C 
ATOM     22  C   UNL     1       2.934  -0.776  -0.192  0.00  0.00    +0.045 C 
ATOM     23  C   UNL     1       3.756   1.442   0.306  0.00  0.00    +0.137 C 
ATOM     24  C   UNL     1       4.240  -1.275  -0.110  0.00  0.00    +0.003 C 
ATOM     25  C   UNL     1       5.056   0.943   0.390  0.00  0.00    +0.037 C 
ATOM     26  C   UNL     1       5.298  -0.413   0.182  0.00  0.00    +0.003 C 
ENDROOT
BRANCH   8  27
ATOM     27  O   UNL     1      -1.318   0.652   2.415  0.00  0.00    -0.377 OA
ATOM     28  H   UNL     1      -0.457   0.206   2.395  0.00  0.00    +0.211 HD
ENDBRANCH   8  27
BRANCH  12  29
ATOM     29  O   UNL     1      -3.876   1.231   1.429  0.00  0.00    -0.382 OA
ATOM     30  H   UNL     1      -3.758   0.705   2.235  0.00  0.00    +0.210 HD
ENDBRANCH  12  29
BRANCH  23  31
ATOM     31  O   UNL     1       3.584   2.775   0.532  0.00  0.00    -0.505 OA
ATOM     32  H   UNL     1       2.727   3.152   0.486  0.00  0.00    +0.292 HD
ENDBRANCH  23  31
TORSDOF 3
