REMARK  Name = 101607566
REMARK  6 active torsions:
REMARK  status: ('A' for Active; 'I' for Inactive)
REMARK    1  A    between atoms: C_11  and  O_27
REMARK    2  A    between atoms: C_16  and  C_23
REMARK    3  A    between atoms: C_18  and  O_31
REMARK    4  A    between atoms: C_23  and  C_26
REMARK    5  A    between atoms: O_27  and  C_29
REMARK    6  A    between atoms: O_31  and  C_33
REMARK                            x       y       z     vdW  Elec       q    Type
REMARK                         _______ _______ _______ _____ _____    ______ ____
ROOT
ATOM      1  O   UNL     1       2.491   2.530  -0.649  0.00  0.00    -0.338 OA
ATOM      2  O   UNL     1       3.604   0.579   1.134  0.00  0.00    -0.448 OA
ATOM      3  O   UNL     1       3.577  -3.131  -0.194  0.00  0.00    -0.348 OA
ATOM      4  O   UNL     1       1.886   1.345   2.468  0.00  0.00    -0.247 OA
ATOM      5  O   UNL     1       0.274  -1.381   0.575  0.00  0.00    -0.456 OA
ATOM      6  C   UNL     1       1.747   1.538   0.087  0.00  0.00    +0.246 C 
ATOM      7  C   UNL     1       2.738   1.162  -0.978  0.00  0.00    +0.194 C 
ATOM      8  C   UNL     1       3.923   0.575  -0.282  0.00  0.00    +0.201 C 
ATOM      9  C   UNL     1       3.271  -1.861  -0.800  0.00  0.00    +0.129 C 
ATOM     10  C   UNL     1       4.369  -0.828  -0.714  0.00  0.00    +0.076 C 
ATOM     11  C   UNL     1       0.247   1.650  -0.085  0.00  0.00    +0.207 C 
ATOM     12  C   UNL     1       2.607  -2.342   0.498  0.00  0.00    +0.196 C 
ATOM     13  C   UNL     1       2.384   1.161   1.369  0.00  0.00    +0.348 C 
ATOM     14  C   UNL     1      -0.329   0.843  -1.262  0.00  0.00    +0.055 C 
ATOM     15  C   UNL     1       2.651  -2.074  -2.157  0.00  0.00    +0.033 C 
ATOM     16  C   UNL     1      -1.769   0.282  -1.067  0.00  0.00    +0.077 C 
ATOM     17  C   UNL     1       1.076  -2.464   0.433  0.00  0.00    +0.151 C 
ATOM     18  C   UNL     1      -1.975  -0.643   0.167  0.00  0.00    +0.229 C 
ATOM     19  C   UNL     1      -0.986  -1.755   0.232  0.00  0.00    +0.159 C 
ATOM     20  C   UNL     1       0.325  -3.578   0.139  0.00  0.00    +0.034 C 
ATOM     21  C   UNL     1      -1.012  -3.116  -0.001  0.00  0.00    +0.015 C 
ATOM     22  C   UNL     1      -2.172  -3.946  -0.379  0.00  0.00    +0.034 C 
ENDROOT
BRANCH  16  23
ATOM     23  C   UNL     1      -2.768   1.406  -1.063  0.00  0.00    +0.024 C 
ATOM     24  C   UNL     1      -3.230   1.999   0.045  0.00  0.00    -0.001 C 
BRANCH  23  26
ATOM     25  O   UNL     1      -2.932   1.431  -3.439  0.00  0.00    -0.283 OA
ATOM     26  C   UNL     1      -3.284   1.899  -2.362  0.00  0.00    +0.230 C 
ENDBRANCH  23  26
ENDBRANCH  16  23
BRANCH  11  27
ATOM     27  O   UNL     1      -0.094   3.030  -0.228  0.00  0.00    -0.449 OA
BRANCH  27  29
ATOM     28  O   UNL     1      -0.149   3.267   2.069  0.00  0.00    -0.250 OA
ATOM     29  C   UNL     1      -0.263   3.718   0.938  0.00  0.00    +0.318 C 
ATOM     30  C   UNL     1      -0.617   5.143   0.634  0.00  0.00    +0.121 C 
ENDBRANCH  27  29
ENDBRANCH  11  27
BRANCH  18  31
ATOM     31  O   UNL     1      -3.261  -1.261   0.098  0.00  0.00    -0.444 OA
BRANCH  31  33
ATOM     32  O   UNL     1      -3.339  -1.385   2.403  0.00  0.00    -0.250 OA
ATOM     33  C   UNL     1      -3.827  -1.579   1.298  0.00  0.00    +0.318 C 
ATOM     34  C   UNL     1      -5.165  -2.216   1.072  0.00  0.00    +0.121 C 
ENDBRANCH  31  33
ENDBRANCH  18  31
TORSDOF 6
