REMARK  Name = 101689646
REMARK  6 active torsions:
REMARK  status: ('A' for Active; 'I' for Inactive)
REMARK    1  A    between atoms: C_6  and  O_23
REMARK    2  A    between atoms: C_7  and  O_25
REMARK    3  A    between atoms: C_11  and  C_29
REMARK    4  A    between atoms: C_19  and  O_27
REMARK    5  A    between atoms: C_29  and  C_31
REMARK    6  A    between atoms: C_31  and  O_32
REMARK                            x       y       z     vdW  Elec       q    Type
REMARK                         _______ _______ _______ _____ _____    ______ ____
ROOT
ATOM      1  O   UNL     1       1.201   1.216   1.031  0.00  0.00    -0.331 OA
ATOM      2  O   UNL     1       1.922  -0.381  -0.585  0.00  0.00    -0.331 OA
ATOM      3  O   UNL     1      -1.485   1.998   0.511  0.00  0.00    -0.287 OA
ATOM      4  O   UNL     1      -2.126  -3.236  -0.233  0.00  0.00    -0.287 OA
ATOM      5  C   UNL     1       0.913   0.592  -0.235  0.00  0.00    +0.238 C 
ATOM      6  C   UNL     1       0.940   1.665  -1.357  0.00  0.00    +0.193 C 
ATOM      7  C   UNL     1       2.244   2.473  -1.365  0.00  0.00    +0.145 C 
ATOM      8  C   UNL     1      -0.474  -0.053  -0.107  0.00  0.00    +0.069 C 
ATOM      9  C   UNL     1       2.506   3.026   0.034  0.00  0.00    +0.062 C 
ATOM     10  C   UNL     1       2.453   1.909   1.082  0.00  0.00    +0.121 C 
ATOM     11  C   UNL     1       1.804  -1.617   0.110  0.00  0.00    +0.134 C 
ATOM     12  C   UNL     1      -0.647  -1.383  -0.216  0.00  0.00    +0.023 C 
ATOM     13  C   UNL     1       0.530  -2.305  -0.372  0.00  0.00    +0.060 C 
ATOM     14  C   UNL     1      -1.646   0.822   0.204  0.00  0.00    +0.199 C 
ATOM     15  C   UNL     1       2.602   2.476   2.488  0.00  0.00    +0.032 C 
ATOM     16  C   UNL     1      -1.988  -2.021  -0.148  0.00  0.00    +0.192 C 
ATOM     17  C   UNL     1      -2.994   0.227   0.174  0.00  0.00    +0.075 C 
ATOM     18  C   UNL     1      -3.160  -1.145   0.006  0.00  0.00    +0.045 C 
ATOM     19  C   UNL     1      -4.117   1.050   0.328  0.00  0.00    +0.137 C 
ATOM     20  C   UNL     1      -4.446  -1.699  -0.010  0.00  0.00    +0.003 C 
ATOM     21  C   UNL     1      -5.397   0.497   0.310  0.00  0.00    +0.037 C 
ATOM     22  C   UNL     1      -5.562  -0.875   0.142  0.00  0.00    +0.003 C 
ENDROOT
BRANCH   6  23
ATOM     23  O   UNL     1       0.767   1.075  -2.643  0.00  0.00    -0.377 OA
ATOM     24  H   UNL     1      -0.055   0.560  -2.654  0.00  0.00    +0.211 HD
ENDBRANCH   6  23
BRANCH   7  25
ATOM     25  O   UNL     1       3.353   1.664  -1.750  0.00  0.00    -0.382 OA
ATOM     26  H   UNL     1       3.199   1.307  -2.638  0.00  0.00    +0.210 HD
ENDBRANCH   7  25
BRANCH  19  27
ATOM     27  O   UNL     1      -4.027   2.402   0.489  0.00  0.00    -0.505 OA
ATOM     28  H   UNL     1      -3.187   2.816   0.507  0.00  0.00    +0.292 HD
ENDBRANCH  19  27
BRANCH  11  29
ATOM     29  C   UNL     1       3.036  -2.454  -0.204  0.00  0.00    +0.139 C 
BRANCH  29  31
ATOM     30  O   UNL     1       4.257  -1.121   1.430  0.00  0.00    -0.250 OA
ATOM     31  C   UNL     1       4.231  -2.020   0.603  0.00  0.00    +0.316 C 
BRANCH  31  32
ATOM     32  O   UNL     1       5.308  -2.782   0.282  0.00  0.00    -0.480 OA
ATOM     33  H   UNL     1       5.229  -3.459  -0.361  0.00  0.00    +0.295 HD
ENDBRANCH  31  32
ENDBRANCH  29  31
ENDBRANCH  11  29
TORSDOF 6
