REMARK  Name = 101649339
REMARK  10 active torsions:
REMARK  status: ('A' for Active; 'I' for Inactive)
REMARK    1  A    between atoms: C_5  and  C_31
REMARK    2  A    between atoms: C_7  and  O_17
REMARK    3  A    between atoms: O_17  and  C_19
REMARK    4  A    between atoms: C_19  and  C_20
REMARK    5  A    between atoms: C_21  and  C_22
REMARK    6  A    between atoms: C_23  and  C_24
REMARK    7  A    between atoms: C_24  and  O_25
REMARK    8  A    between atoms: C_24  and  C_27
REMARK    9  A    between atoms: C_27  and  O_29
REMARK   10  A    between atoms: C_31  and  O_32
REMARK                            x       y       z     vdW  Elec       q    Type
REMARK                         _______ _______ _______ _____ _____    ______ ____
ROOT
ATOM      1  O   UNL     1      -0.927   0.351  -2.785  0.00  0.00    -0.351 OA
ATOM      2  O   UNL     1      -2.340  -1.997  -0.392  0.00  0.00    -0.352 OA
ATOM      3  C   UNL     1      -1.943   0.839  -0.547  0.00  0.00    +0.069 C 
ATOM      4  C   UNL     1      -1.734  -0.123  -1.697  0.00  0.00    +0.148 C 
ATOM      5  C   UNL     1      -3.200   0.276   0.273  0.00  0.00    +0.062 C 
ATOM      6  C   UNL     1      -1.239  -1.377  -1.066  0.00  0.00    +0.146 C 
ATOM      7  C   UNL     1      -0.601   0.585   0.246  0.00  0.00    +0.174 C 
ATOM      8  C   UNL     1      -2.276  -0.021  -3.101  0.00  0.00    +0.172 C 
ATOM      9  C   UNL     1      -0.176  -0.870  -0.080  0.00  0.00    +0.076 C 
ATOM     10  C   UNL     1      -2.941  -1.225   0.666  0.00  0.00    +0.139 C 
ATOM     11  C   UNL     1      -2.103   2.303  -0.977  0.00  0.00    +0.006 C 
ATOM     12  C   UNL     1      -4.509   0.326  -0.574  0.00  0.00    +0.010 C 
ATOM     13  C   UNL     1      -4.175  -1.986   1.073  0.00  0.00    -0.006 C 
ATOM     14  C   UNL     1      -5.729  -0.280   0.134  0.00  0.00    +0.022 C 
ATOM     15  C   UNL     1      -5.433  -1.567   0.854  0.00  0.00    -0.046 C 
ATOM     16  C   UNL     1      -6.622  -2.354   1.318  0.00  0.00    +0.026 C 
ENDROOT
BRANCH   7  17
ATOM     17  O   UNL     1       0.449   1.446  -0.191  0.00  0.00    -0.449 OA
BRANCH  17  19
ATOM     18  O   UNL     1       1.499   1.243   1.857  0.00  0.00    -0.245 OA
ATOM     19  C   UNL     1       1.432   1.686   0.721  0.00  0.00    +0.341 C 
BRANCH  19  20
ATOM     20  C   UNL     1       2.420   2.591   0.093  0.00  0.00    +0.082 C 
ATOM     21  C   UNL     1       3.693   2.195  -0.043  0.00  0.00    +0.006 C 
BRANCH  21  22
ATOM     22  C   UNL     1       4.161   0.900   0.403  0.00  0.00    -0.002 C 
ATOM     23  C   UNL     1       5.435   0.498   0.270  0.00  0.00    +0.005 C 
BRANCH  23  24
ATOM     24  C   UNL     1       6.007  -0.830   0.713  0.00  0.00    +0.159 C 
BRANCH  24  25
ATOM     25  O   UNL     1       7.002  -0.635   1.714  0.00  0.00    -0.378 OA
ATOM     26  H   UNL     1       6.619  -0.146   2.459  0.00  0.00    +0.211 HD
ENDBRANCH  24  25
BRANCH  24  27
ATOM     27  C   UNL     1       6.599  -1.605  -0.476  0.00  0.00    +0.141 C 
ATOM     28  C   UNL     1       7.221  -2.938  -0.066  0.00  0.00    +0.035 C 
BRANCH  27  29
ATOM     29  O   UNL     1       7.617  -0.811  -1.086  0.00  0.00    -0.382 OA
ATOM     30  H   UNL     1       7.243   0.043  -1.355  0.00  0.00    +0.210 HD
ENDBRANCH  27  29
ENDBRANCH  24  27
ENDBRANCH  23  24
ENDBRANCH  21  22
ENDBRANCH  19  20
ENDBRANCH  17  19
ENDBRANCH   7  17
BRANCH   5  31
ATOM     31  C   UNL     1      -3.433   1.115   1.559  0.00  0.00    +0.140 C 
BRANCH  31  32
ATOM     32  O   UNL     1      -4.153   2.266   1.188  0.00  0.00    -0.382 OA
ATOM     33  H   UNL     1      -4.315   2.813   1.972  0.00  0.00    +0.210 HD
ENDBRANCH  31  32
ENDBRANCH   5  31
TORSDOF 10
