REMARK  Name = 101610367
REMARK  4 active torsions:
REMARK  status: ('A' for Active; 'I' for Inactive)
REMARK    1  A    between atoms: C_5  and  C_16
REMARK    2  A    between atoms: C_7  and  C_29
REMARK    3  A    between atoms: C_16  and  C_20
REMARK    4  A    between atoms: C_29  and  S_30
REMARK                            x       y       z     vdW  Elec       q    Type
REMARK                         _______ _______ _______ _____ _____    ______ ____
ROOT
ATOM      1  O   UNL     1       1.146  -2.775   2.080  0.00  0.00    -0.273 OA
ATOM      2  O   UNL     1       4.585   1.067  -1.364  0.00  0.00    -0.287 OA
ATOM      3  N   UNL     1       0.695  -0.562   1.681  0.00  0.00    -0.300 N 
ATOM      4  N   UNL     1       2.553  -0.565  -0.285  0.00  0.00    -0.328 N 
ATOM      5  C   UNL     1       0.695   0.603   0.799  0.00  0.00    +0.108 C 
ATOM      6  C   UNL     1       2.014   0.657   0.059  0.00  0.00    +0.039 C 
ATOM      7  C   UNL     1       1.917  -1.841  -0.017  0.00  0.00    +0.157 C 
ATOM      8  C   UNL     1       2.608   1.833  -0.198  0.00  0.00    +0.032 C 
ATOM      9  C   UNL     1       1.238  -1.791   1.348  0.00  0.00    +0.241 C 
ATOM     10  C   UNL     1       2.152   3.209   0.151  0.00  0.00    +0.057 C 
ATOM     11  C   UNL     1       3.900   1.967  -0.917  0.00  0.00    +0.193 C 
ATOM     12  C   UNL     1       3.235   4.079  -0.403  0.00  0.00    -0.018 C 
ATOM     13  C   UNL     1       4.221   3.404  -1.003  0.00  0.00    +0.038 C 
ATOM     14  H   UNL     1       0.282  -0.467   2.569  0.00  0.00    +0.150 HD
ATOM     15  H   UNL     1       3.425  -0.571  -0.743  0.00  0.00    +0.147 HD
ENDROOT
BRANCH   5  16
ATOM     16  C   UNL     1      -0.504   0.579  -0.145  0.00  0.00    +0.036 C 
ATOM     17  C   UNL     1      -0.776   1.983  -0.689  0.00  0.00    +0.003 C 
BRANCH  16  20
ATOM     18  O   UNL     1      -2.011   1.847   2.167  0.00  0.00    -0.274 OA
ATOM     19  N   UNL     1      -3.801   1.147   0.797  0.00  0.00    -0.257 N 
ATOM     20  C   UNL     1      -1.733   0.021   0.553  0.00  0.00    +0.102 C 
ATOM     21  C   UNL     1      -2.773  -0.504  -0.394  0.00  0.00    -0.000 C 
ATOM     22  C   UNL     1      -2.493   1.132   1.301  0.00  0.00    +0.233 C 
ATOM     23  C   UNL     1      -3.973   0.184  -0.205  0.00  0.00    +0.050 C 
ATOM     24  C   UNL     1      -2.677  -1.516  -1.333  0.00  0.00    -0.003 C 
ATOM     25  C   UNL     1      -5.106  -0.108  -0.945  0.00  0.00    +0.015 C 
ATOM     26  C   UNL     1      -4.852   2.038   1.229  0.00  0.00    +0.120 C 
ATOM     27  C   UNL     1      -3.811  -1.825  -2.090  0.00  0.00    -0.000 C 
ATOM     28  C   UNL     1      -5.014  -1.126  -1.898  0.00  0.00    +0.001 C 
ENDBRANCH  16  20
ENDBRANCH   5  16
BRANCH   7  29
ATOM     29  C   UNL     1       2.953  -2.956  -0.084  0.00  0.00    +0.086 C 
BRANCH  29  30
ATOM     30  S   UNL     1       2.145  -4.548  -0.390  0.00  0.00    -0.137 S 
ATOM     31  C   UNL     1       3.467  -5.634   0.195  0.00  0.00    +0.069 C 
ENDBRANCH  29  30
ENDBRANCH   7  29
TORSDOF 4
