REMARK  Name = 101650001
REMARK  8 active torsions:
REMARK  status: ('A' for Active; 'I' for Inactive)
REMARK    1  A    between atoms: N_2  and  C_5
REMARK    2  A    between atoms: C_3  and  C_14
REMARK    3  A    between atoms: C_5  and  C_7
REMARK    4  A    between atoms: C_7  and  S_8
REMARK    5  A    between atoms: S_8  and  C_10
REMARK    6  A    between atoms: C_10  and  S_11
REMARK    7  A    between atoms: S_11  and  C_12
REMARK    8  A    between atoms: C_15  and  C_20
REMARK                            x       y       z     vdW  Elec       q    Type
REMARK                         _______ _______ _______ _____ _____    ______ ____
ROOT
ATOM      1  O   UNL     1       0.081   2.365  -1.568  0.00  0.00    -0.270 OA
ATOM      2  N   UNL     1      -1.136   1.618   0.264  0.00  0.00    -0.302 N 
ATOM      3  C   UNL     1      -0.012   1.700  -0.541  0.00  0.00    +0.246 C 
ATOM      4  H   UNL     1      -1.105   1.053   1.069  0.00  0.00    +0.150 HD
ENDROOT
BRANCH   2   5
ATOM      5  C   UNL     1      -2.352   2.336  -0.040  0.00  0.00    +0.085 C 
ATOM      6  C   UNL     1      -2.287   3.734   0.565  0.00  0.00    +0.022 C 
BRANCH   5   7
ATOM      7  C   UNL     1      -3.581   1.585   0.471  0.00  0.00    +0.112 C 
BRANCH   7   8
ATOM      8  S   UNL     1      -3.999   0.175  -0.607  0.00  0.00    +0.055 S 
ATOM      9  O   UNL     1      -2.935  -0.857  -0.404  0.00  0.00    -0.255 OA
BRANCH   8  10
ATOM     10  C   UNL     1      -5.463  -0.333   0.345  0.00  0.00    +0.149 C 
BRANCH  10  11
ATOM     11  S   UNL     1      -6.239  -1.801  -0.385  0.00  0.00    -0.126 S 
BRANCH  11  12
ATOM     12  C   UNL     1      -7.598  -1.999   0.792  0.00  0.00    +0.059 C 
ATOM     13  C   UNL     1      -8.453  -3.196   0.422  0.00  0.00    +0.013 C 
ENDBRANCH  11  12
ENDBRANCH  10  11
ENDBRANCH   8  10
ENDBRANCH   7   8
ENDBRANCH   5   7
ENDBRANCH   2   5
BRANCH   3  14
ATOM     14  C   UNL     1       1.106   0.868  -0.019  0.00  0.00    +0.058 C 
ATOM     15  C   UNL     1       2.267   0.832  -0.676  0.00  0.00    +0.011 C 
BRANCH  15  20
ATOM     16  O   UNL     1       3.396  -1.218  -2.261  0.00  0.00    -0.267 OA
ATOM     17  O   UNL     1       6.570  -2.288   0.881  0.00  0.00    -0.247 OA
ATOM     18  N   UNL     1       5.081  -0.597   1.321  0.00  0.00    -0.310 N 
ATOM     19  N   UNL     1       4.981  -1.758  -0.695  0.00  0.00    -0.275 N 
ATOM     20  C   UNL     1       3.393   0.044  -0.227  0.00  0.00    +0.068 A 
ATOM     21  C   UNL     1       4.012   0.199   0.964  0.00  0.00    +0.042 A 
ATOM     22  C   UNL     1       3.905  -1.020  -1.159  0.00  0.00    +0.262 A 
ATOM     23  C   UNL     1       3.652   1.206   2.025  0.00  0.00    +0.050 C 
ATOM     24  C   UNL     1       5.613  -1.596   0.530  0.00  0.00    +0.327 A 
ATOM     25  H   UNL     1       5.494  -0.441   2.202  0.00  0.00    +0.170 HD
ATOM     26  H   UNL     1       5.330  -2.461  -1.289  0.00  0.00    +0.173 HD
ENDBRANCH  15  20
ENDBRANCH   3  14
TORSDOF 8
