REMARK  Name = 101666433
REMARK  4 active torsions:
REMARK  status: ('A' for Active; 'I' for Inactive)
REMARK    1  A    between atoms: C_14  and  C_32
REMARK    2  A    between atoms: C_15  and  C_33
REMARK    3  A    between atoms: C_24  and  N_28
REMARK    4  A    between atoms: C_33  and  O_34
REMARK                            x       y       z     vdW  Elec       q    Type
REMARK                         _______ _______ _______ _____ _____    ______ ____
ROOT
ATOM      1  O   UNL     1       1.855  -3.439   0.134  0.00  0.00    -0.379 OA
ATOM      2  O   UNL     1      -2.393  -2.487  -1.464  0.00  0.00    -0.287 OA
ATOM      3  O   UNL     1      -3.323   2.449   0.216  0.00  0.00    -0.286 OA
ATOM      4  N   UNL     1       3.192   0.710  -1.130  0.00  0.00    +0.386 N 
ATOM      5  N   UNL     1       0.741   1.061   0.309  0.00  0.00    +0.400 N 
ATOM      6  N   UNL     1       0.352  -1.749   0.817  0.00  0.00    +0.409 N 
ATOM      7  C   UNL     1       2.295  -0.449  -1.021  0.00  0.00    -0.079 C 
ATOM      8  C   UNL     1       0.857   0.089  -0.795  0.00  0.00    -0.090 C 
ATOM      9  C   UNL     1       2.797  -1.203   0.210  0.00  0.00    -0.015 C 
ATOM     10  C   UNL     1       3.215   1.204   0.260  0.00  0.00    -0.064 C 
ATOM     11  C   UNL     1      -0.074  -1.102  -0.456  0.00  0.00    -0.049 C 
ATOM     12  C   UNL     1       3.270  -0.069   1.137  0.00  0.00    -0.024 C 
ATOM     13  C   UNL     1       1.766  -2.167   0.803  0.00  0.00    +0.062 C 
ATOM     14  C   UNL     1       1.883   1.971   0.482  0.00  0.00    +0.018 C 
ATOM     15  C   UNL     1      -0.612   1.613   0.512  0.00  0.00    -0.001 C 
ATOM     16  C   UNL     1      -1.494  -0.562  -0.387  0.00  0.00    -0.007 C 
ATOM     17  C   UNL     1      -0.289  -3.053   1.037  0.00  0.00    -0.041 C 
ATOM     18  C   UNL     1      -1.736   0.690   0.038  0.00  0.00    -0.002 C 
ATOM     19  C   UNL     1       4.520   0.387  -1.641  0.00  0.00    -0.101 C 
ATOM     20  C   UNL     1       0.542  -4.013   0.205  0.00  0.00    +0.117 C 
ATOM     21  C   UNL     1      -2.594  -1.397  -0.937  0.00  0.00    +0.191 C 
ATOM     22  C   UNL     1      -3.114   1.263  -0.030  0.00  0.00    +0.202 C 
ATOM     23  C   UNL     1      -3.968  -0.876  -0.831  0.00  0.00    +0.059 C 
ATOM     24  C   UNL     1      -4.237   0.363  -0.409  0.00  0.00    +0.084 C 
ATOM     25  H   UNL     1       2.870   1.399  -1.809  0.00  0.00    -0.080 HD
ATOM     26  H   UNL     1       0.847   0.492   1.149  0.00  0.00    -0.078 HD
ATOM     27  H   UNL     1       0.122  -1.035   1.509  0.00  0.00    -0.075 HD
ENDROOT
BRANCH  24  28
ATOM     28  N   UNL     1      -5.493   0.891  -0.316  0.00  0.00    -0.354 N 
ATOM     29  H   UNL     1      -5.617   1.814   0.004  0.00  0.00    +0.142 HD
ATOM     30  H   UNL     1      -6.275   0.349  -0.569  0.00  0.00    +0.142 HD
ENDBRANCH  24  28
BRANCH  14  32
ATOM     31  N   UNL     1       1.778   4.097  -1.076  0.00  0.00    -0.198 NA
ATOM     32  C   UNL     1       1.824   3.162  -0.391  0.00  0.00    +0.049 C 
ENDBRANCH  14  32
BRANCH  15  33
ATOM     33  C   UNL     1      -0.796   1.919   2.009  0.00  0.00    +0.121 C 
BRANCH  33  34
ATOM     34  O   UNL     1      -0.764   0.695   2.713  0.00  0.00    -0.384 OA
ATOM     35  H   UNL     1      -0.879   0.865   3.661  0.00  0.00    +0.210 HD
ENDBRANCH  33  34
ENDBRANCH  15  33
TORSDOF 4
