REMARK  Name = 101659189
REMARK  9 active torsions:
REMARK  status: ('A' for Active; 'I' for Inactive)
REMARK    1  A    between atoms: C_2  and  C_15
REMARK    2  A    between atoms: C_3  and  O_9
REMARK    3  A    between atoms: C_4  and  O_11
REMARK    4  A    between atoms: C_5  and  O_13
REMARK    5  A    between atoms: C_6  and  S_7
REMARK    6  A    between atoms: C_15  and  N_17
REMARK    7  A    between atoms: C_15  and  C_23
REMARK    8  A    between atoms: C_18  and  C_22
REMARK    9  A    between atoms: C_23  and  O_25
REMARK                            x       y       z     vdW  Elec       q    Type
REMARK                         _______ _______ _______ _____ _____    ______ ____
ROOT
ATOM      1  O   UNL     1      -1.649   0.769  -0.755  0.00  0.00    -0.341 OA
ATOM      2  C   UNL     1      -0.647   0.193   0.097  0.00  0.00    +0.166 C 
ATOM      3  C   UNL     1      -0.748  -1.337   0.110  0.00  0.00    +0.168 C 
ATOM      4  C   UNL     1      -2.159  -1.771   0.513  0.00  0.00    +0.170 C 
ATOM      5  C   UNL     1      -3.197  -1.089  -0.379  0.00  0.00    +0.177 C 
ATOM      6  C   UNL     1      -3.001   0.434  -0.413  0.00  0.00    +0.192 C 
ENDROOT
BRANCH   6   7
ATOM      7  S   UNL     1      -3.581   1.300   1.095  0.00  0.00    -0.109 S 
ATOM      8  C   UNL     1      -3.739   2.951   0.385  0.00  0.00    +0.072 C 
ENDBRANCH   6   7
BRANCH   3   9
ATOM      9  O   UNL     1      -0.450  -1.832  -1.198  0.00  0.00    -0.379 OA
ATOM     10  H   UNL     1       0.444  -1.555  -1.452  0.00  0.00    +0.211 HD
ENDBRANCH   3   9
BRANCH   4  11
ATOM     11  O   UNL     1      -2.287  -3.185   0.384  0.00  0.00    -0.379 OA
ATOM     12  H   UNL     1      -1.631  -3.622   0.949  0.00  0.00    +0.211 HD
ENDBRANCH   4  11
BRANCH   5  13
ATOM     13  O   UNL     1      -4.518  -1.418   0.037  0.00  0.00    -0.379 OA
ATOM     14  H   UNL     1      -4.622  -2.383   0.052  0.00  0.00    +0.211 HD
ENDBRANCH   5  13
BRANCH   2  15
ATOM     15  C   UNL     1       0.707   0.679  -0.413  0.00  0.00    +0.128 C 
BRANCH  15  17
ATOM     16  O   UNL     1       3.314  -0.065  -1.346  0.00  0.00    -0.272 OA
ATOM     17  N   UNL     1       1.764   0.082   0.372  0.00  0.00    -0.299 N 
ATOM     18  C   UNL     1       2.996  -0.244  -0.171  0.00  0.00    +0.253 C 
ATOM     19  H   UNL     1       1.602  -0.100   1.326  0.00  0.00    +0.150 HD
BRANCH  18  22
ATOM     20 CL   UNL     1       5.366   0.183   0.961  0.00  0.00    -0.087 Cl
ATOM     21 CL   UNL     1       4.367  -2.478   0.286  0.00  0.00    -0.087 Cl
ATOM     22  C   UNL     1       3.934  -0.854   0.844  0.00  0.00    +0.234 C 
ENDBRANCH  18  22
ENDBRANCH  15  17
BRANCH  15  23
ATOM     23  C   UNL     1       0.813   2.215  -0.427  0.00  0.00    +0.131 C 
ATOM     24  C   UNL     1       0.642   2.830   0.958  0.00  0.00    +0.034 C 
BRANCH  23  25
ATOM     25  O   UNL     1       2.073   2.638  -0.941  0.00  0.00    -0.383 OA
ATOM     26  H   UNL     1       2.205   2.258  -1.824  0.00  0.00    +0.210 HD
ENDBRANCH  23  25
ENDBRANCH  15  23
ENDBRANCH   2  15
TORSDOF 9
