REMARK  Name = 101686384
REMARK  5 active torsions:
REMARK  status: ('A' for Active; 'I' for Inactive)
REMARK    1  A    between atoms: S_1  and  N_5
REMARK    2  A    between atoms: S_1  and  C_15
REMARK    3  A    between atoms: N_5  and  O_11
REMARK    4  A    between atoms: O_11  and  C_13
REMARK    5  A    between atoms: C_20  and  N_21
REMARK                            x       y       z     vdW  Elec       q    Type
REMARK                         _______ _______ _______ _____ _____    ______ ____
ROOT
ATOM      1  S   UNL     1       0.160  -1.690   0.748  0.00  0.00    +0.114 S 
ATOM      2  O   UNL     1       0.240  -3.045   0.234  0.00  0.00    -0.145 OA
ATOM      3  O   UNL     1       0.335  -1.444   2.167  0.00  0.00    -0.145 OA
ENDROOT
BRANCH   1   5
ATOM      4  O   UNL     1       1.481   2.694   0.972  0.00  0.00    -0.356 OA
ATOM      5  N   UNL     1       1.214  -0.673  -0.168  0.00  0.00    -0.044 N 
ATOM      6  N   UNL     1       1.843   1.354   1.050  0.00  0.00    -0.055 NA
ATOM      7  C   UNL     1       1.135   0.749   0.093  0.00  0.00    +0.240 C 
ATOM      8  C   UNL     1       0.316   1.647  -0.614  0.00  0.00    +0.081 C 
ATOM      9  C   UNL     1       0.572   2.855  -0.022  0.00  0.00    +0.157 C 
ATOM     10  C   UNL     1       0.077   4.219  -0.245  0.00  0.00    +0.075 C 
BRANCH   5  11
ATOM     11  O   UNL     1       2.539  -1.117   0.178  0.00  0.00    -0.316 OA
BRANCH  11  13
ATOM     12  O   UNL     1       3.196  -0.272  -1.873  0.00  0.00    -0.248 OA
ATOM     13  C   UNL     1       3.437  -0.831  -0.811  0.00  0.00    +0.345 C 
ATOM     14  C   UNL     1       4.796  -1.312  -0.404  0.00  0.00    +0.124 C 
ENDBRANCH  11  13
ENDBRANCH   5  11
ENDBRANCH   1   5
BRANCH   1  15
ATOM     15  C   UNL     1      -1.433  -1.073   0.284  0.00  0.00    +0.131 C 
ATOM     16  C   UNL     1      -1.916  -1.290  -1.006  0.00  0.00    +0.022 C 
ATOM     17  C   UNL     1      -2.205  -0.370   1.209  0.00  0.00    +0.022 C 
ATOM     18  C   UNL     1      -3.171  -0.804  -1.371  0.00  0.00    +0.015 C 
ATOM     19  C   UNL     1      -3.460   0.116   0.844  0.00  0.00    +0.015 C 
ATOM     20  C   UNL     1      -3.943  -0.101  -0.447  0.00  0.00    +0.042 C 
BRANCH  20  21
ATOM     21  N   UNL     1      -5.213   0.389  -0.817  0.00  0.00    -0.357 N 
ATOM     22  H   UNL     1      -5.553   0.236  -1.728  0.00  0.00    +0.142 HD
ATOM     23  H   UNL     1      -5.758   0.885  -0.165  0.00  0.00    +0.142 HD
ENDBRANCH  20  21
ENDBRANCH   1  15
TORSDOF 5
