101603086
  -OEChem-03292013293D

 28 29  0     1  0  0  0  0  0999 V2000
   -0.7348    0.0202   -0.1474 O   0  0  0  0  0  0  0  0  0  0  0  0
    0.0489   -2.7370    0.1489 O   0  0  0  0  0  0  0  0  0  0  0  0
   -3.3647    0.6401    0.4558 O   0  0  0  0  0  0  0  0  0  0  0  0
    1.1694    1.9275   -0.2796 O   0  0  0  0  0  0  0  0  0  0  0  0
    4.3940    1.5963   -1.1598 O   0  5  0  0  0  0  0  0  0  0  0  0
    4.2645    1.8472    1.0171 O   0  0  0  0  0  0  0  0  0  0  0  0
   -5.4531    0.3100   -0.7960 O   0  0  0  0  0  0  0  0  0  0  0  0
   -5.1644    2.1879    0.5332 O   0  0  0  0  0  0  0  0  0  0  0  0
    3.9006    1.2944   -0.0476 N   0  3  0  0  0  0  0  0  0  0  0  0
   -4.6771    1.0975    0.0938 N   0  3  0  0  0  0  0  0  0  0  0  0
   -1.6419   -1.0055    0.2794 C   0  0  2  0  0  0  0  0  0  0  0  0
   -1.2369   -2.3381   -0.3367 C   0  0  0  0  0  0  0  0  0  0  0  0
    0.5735   -0.3731   -0.0446 C   0  0  0  0  0  0  0  0  0  0  0  0
   -3.0415   -0.5967   -0.1558 C   0  0  0  0  0  0  0  0  0  0  0  0
    0.9527   -1.7082    0.1098 C   0  0  0  0  0  0  0  0  0  0  0  0
    1.5448    0.6262   -0.1108 C   0  0  0  0  0  0  0  0  0  0  0  0
    2.3011   -2.0408    0.2424 C   0  0  0  0  0  0  0  0  0  0  0  0
    2.8938    0.2914    0.0081 C   0  0  0  0  0  0  0  0  0  0  0  0
    3.2711   -1.0395    0.1898 C   0  0  0  0  0  0  0  0  0  0  0  0
   -1.5945   -1.0460    1.3764 H   0  0  0  0  0  0  0  0  0  0  0  0
   -1.9482   -3.1242   -0.0624 H   0  0  0  0  0  0  0  0  0  0  0  0
   -1.1933   -2.2866   -1.4322 H   0  0  0  0  0  0  0  0  0  0  0  0
   -3.7654   -1.3617    0.1473 H   0  0  0  0  0  0  0  0  0  0  0  0
   -3.0684   -0.4707   -1.2449 H   0  0  0  0  0  0  0  0  0  0  0  0
    2.6040   -3.0758    0.3754 H   0  0  0  0  0  0  0  0  0  0  0  0
    4.3191   -1.3125    0.2879 H   0  0  0  0  0  0  0  0  0  0  0  0
    1.9450    2.5103   -0.3097 H   0  0  0  0  0  0  0  0  0  0  0  0
   -6.2648    0.8396   -0.8684 H   0  0  0  0  0  0  0  0  0  0  0  0
  1 11  1  0  0  0  0
  1 13  1  0  0  0  0
  2 12  1  0  0  0  0
  2 15  1  0  0  0  0
  3 10  1  0  0  0  0
  3 14  1  0  0  0  0
  4 16  1  0  0  0  0
  4 27  1  0  0  0  0
  5  9  1  0  0  0  0
  6  9  2  0  0  0  0
  7 10  1  0  0  0  0
  7 28  1  0  0  0  0
  8 10  2  0  0  0  0
  9 18  1  0  0  0  0
 11 12  1  0  0  0  0
 11 14  1  0  0  0  0
 11 20  1  0  0  0  0
 12 21  1  0  0  0  0
 12 22  1  0  0  0  0
 13 15  2  0  0  0  0
 13 16  1  0  0  0  0
 14 23  1  0  0  0  0
 14 24  1  0  0  0  0
 15 17  1  0  0  0  0
 16 18  2  0  0  0  0
 17 19  2  0  0  0  0
 17 25  1  0  0  0  0
 18 19  1  0  0  0  0
 19 26  1  0  0  0  0
M  CHG  3   5  -1   9   1  10   1
M  END
> <PUBCHEM_COMPOUND_CID>
101603086

> <PUBCHEM_CONFORMER_RMSD>
0.6

> <PUBCHEM_CONFORMER_DIVERSEORDER>
1
28
50
58
42
59
37
57
52
12
26
14
24
54
36
49
55
7
51
56
5
48
8
41
19
62
63
18
9
23
61
32
47
64
44
17
38
25
16
2
46
30
22
39
31
43
53
21
60
6
10
20
34
29
3
35
4
27
11
13
45
15
33
40

> <PUBCHEM_MMFF94_PARTIAL_CHARGES>
23
1 -0.36
10 0.92
11 0.28
12 0.28
13 0.08
14 0.28
15 0.08
16 0.08
17 -0.15
18 0.13
19 -0.15
2 -0.36
25 0.15
26 0.15
27 0.45
28 0.4
3 -0.42
4 -0.53
5 -0.52
6 -0.52
7 -0.54
8 -0.63
9 0.91

> <PUBCHEM_EFFECTIVE_ROTOR_COUNT>
4.8

> <PUBCHEM_PHARMACOPHORE_FEATURES>
10
1 1 acceptor
1 2 acceptor
1 4 donor
1 5 acceptor
1 5 anion
1 6 acceptor
1 7 acceptor
1 8 acceptor
6 1 2 11 12 13 15 rings
6 13 15 16 17 18 19 rings

> <PUBCHEM_HEAVY_ATOM_COUNT>
19

> <PUBCHEM_ATOM_DEF_STEREO_COUNT>
0

> <PUBCHEM_ATOM_UDEF_STEREO_COUNT>
1

> <PUBCHEM_BOND_DEF_STEREO_COUNT>
0

> <PUBCHEM_BOND_UDEF_STEREO_COUNT>
0

> <PUBCHEM_ISOTOPIC_ATOM_COUNT>
0

> <PUBCHEM_COMPONENT_COUNT>
1

> <PUBCHEM_CACTVS_TAUTO_COUNT>
1

> <PUBCHEM_CONFORMER_ID>
060E570E00000001

> <PUBCHEM_MMFF94_ENERGY>
58.6488

> <PUBCHEM_FEATURE_SELFOVERLAP>
50.919

> <PUBCHEM_SHAPE_FINGERPRINT>
10382601 240 17967810514001958522
10411042 1 17401487048728461027
10967382 1 18409729539020951686
10980938 120 18335137600861913186
11089746 13 18060412530381979936
11471102 20 18409164381354146039
11543360 7 15841270466719856004
122479 349 18334579070050265394
12390115 104 18266759019584559465
12500047 106 18270397320972991090
12507560 40 18261121785289429043
13140716 1 18335976524145083442
14123255 52 18412262869434776577
14178342 30 18121766486213729210
14790565 3 18190191263568929828
14897335 6 18411697711852652555
15196674 1 18410012147742603347
15342168 16 18260552250776239477
15475509 35 16298948619800736274
1601671 61 18187651331663153316
16945 1 17904765832142765274
17834072 32 18336551632670715628
20645477 70 18341050718261090903
212916 134 18270663372727248192
21452121 103 18340197514881633410
23402655 69 18343862221291053191
23559900 14 18272650100414370170
25 1 18408884053139101558
25147074 1 18265032760839495242
2748010 2 18262510386965552190
293599 30 18409454717080529452
335352 9 18410293589045371750
34934 24 18339355366162705712
350125 39 18264489495079374516
474 4 18260267468801317393
495365 180 17561075930582440954
5104073 3 18334857220927875035
633830 44 18342174419445287135
7832392 63 18411417349546771742
8272917 22 18269277859412230639
9999458 23 18115311064162936158

> <PUBCHEM_SHAPE_MULTIPOLES>
334.09
9.56
2.63
0.74
9.68
0.54
-0.03
-7.51
-0.18
-0.53
0.12
-0.22
-0.17
-0.51

> <PUBCHEM_SHAPE_SELFOVERLAP>
708.264

> <PUBCHEM_SHAPE_VOLUME>
184.5

> <PUBCHEM_COORDINATE_TYPE>
2
5
10

$$$$
