REMARK  Name = 101647999
REMARK  7 active torsions:
REMARK  status: ('A' for Active; 'I' for Inactive)
REMARK    1  A    between atoms: N_1  and  C_34
REMARK    2  A    between atoms: C_4  and  O_22
REMARK    3  A    between atoms: C_8  and  O_24
REMARK    4  A    between atoms: C_9  and  O_26
REMARK    5  A    between atoms: C_13  and  O_28
REMARK    6  A    between atoms: C_14  and  O_30
REMARK    7  A    between atoms: C_17  and  O_32
REMARK                            x       y       z     vdW  Elec       q    Type
REMARK                         _______ _______ _______ _____ _____    ______ ____
ROOT
ATOM      1  N   UNL     1       1.880  -1.347  -0.608  0.00  0.00    +0.390 N 
ATOM      2  C   UNL     1       0.795   0.245   0.960  0.00  0.00    +0.017 C 
ATOM      3  C   UNL     1      -0.600   0.793   1.453  0.00  0.00    +0.006 C 
ATOM      4  C   UNL     1       0.032   0.377  -1.288  0.00  0.00    +0.118 C 
ATOM      5  C   UNL     1       0.600  -0.680  -0.278  0.00  0.00    -0.025 C 
ATOM      6  C   UNL     1       1.678   1.346   0.262  0.00  0.00    +0.032 C 
ATOM      7  C   UNL     1      -1.538   1.447   0.417  0.00  0.00    +0.054 C 
ATOM      8  C   UNL     1      -1.453   0.744  -0.958  0.00  0.00    +0.115 C 
ATOM      9  C   UNL     1       1.004   1.585  -1.120  0.00  0.00    +0.135 C 
ATOM     10  C   UNL     1       3.109   0.752   0.013  0.00  0.00    +0.002 C 
ATOM     11  C   UNL     1      -1.509  -0.264   2.138  0.00  0.00    +0.005 C 
ATOM     12  C   UNL     1      -2.881  -0.163   1.456  0.00  0.00    +0.054 C 
ATOM     13  C   UNL     1      -2.917   1.308   1.074  0.00  0.00    +0.115 C 
ATOM     14  C   UNL     1       1.509  -0.378   2.216  0.00  0.00    +0.130 C 
ATOM     15  C   UNL     1      -2.449  -0.443  -1.089  0.00  0.00    +0.059 C 
ATOM     16  C   UNL     1       3.002  -0.464  -0.956  0.00  0.00    -0.073 C 
ATOM     17  C   UNL     1      -2.940  -1.081   0.221  0.00  0.00    +0.120 C 
ATOM     18  C   UNL     1       3.729   0.261   1.299  0.00  0.00    -0.031 C 
ATOM     19  C   UNL     1       2.997  -0.260   2.284  0.00  0.00    -0.002 C 
ATOM     20  C   UNL     1       4.054   1.822  -0.569  0.00  0.00    +0.002 C 
ATOM     21  H   UNL     1       2.140  -1.747   0.293  0.00  0.00    -0.079 HD
ENDROOT
BRANCH   4  22
ATOM     22  O   UNL     1       0.106  -0.075  -2.636  0.00  0.00    -0.384 OA
ATOM     23  H   UNL     1      -0.493  -0.828  -2.758  0.00  0.00    +0.210 HD
ENDBRANCH   4  22
BRANCH   8  24
ATOM     24  O   UNL     1      -1.867   1.697  -1.961  0.00  0.00    -0.384 OA
ATOM     25  H   UNL     1      -1.282   2.470  -1.933  0.00  0.00    +0.210 HD
ENDBRANCH   8  24
BRANCH   9  26
ATOM     26  O   UNL     1       0.401   2.866  -1.177  0.00  0.00    -0.382 OA
ATOM     27  H   UNL     1      -0.011   2.992  -2.046  0.00  0.00    +0.210 HD
ENDBRANCH   9  26
BRANCH  13  28
ATOM     28  O   UNL     1      -3.998   1.642   0.232  0.00  0.00    -0.384 OA
ATOM     29  H   UNL     1      -3.967   2.589   0.025  0.00  0.00    +0.210 HD
ENDBRANCH  13  28
BRANCH  14  30
ATOM     30  O   UNL     1       1.174  -1.761   2.343  0.00  0.00    -0.380 OA
ATOM     31  H   UNL     1       0.210  -1.865   2.301  0.00  0.00    +0.211 HD
ENDBRANCH  14  30
BRANCH  17  32
ATOM     32  O   UNL     1      -4.301  -1.488   0.039  0.00  0.00    -0.353 OA
ATOM     33  C   UNL     1      -4.377  -2.719  -0.659  0.00  0.00    +0.174 C 
ENDBRANCH  17  32
BRANCH   1  34
ATOM     34  C   UNL     1       1.751  -2.455  -1.545  0.00  0.00    -0.077 C 
ATOM     35  C   UNL     1       3.009  -3.307  -1.565  0.00  0.00    -0.025 C 
ENDBRANCH   1  34
TORSDOF 7
