REMARK  Name = 101649993
REMARK  10 active torsions:
REMARK  status: ('A' for Active; 'I' for Inactive)
REMARK    1  A    between atoms: CA_1  and  N_3
REMARK    2  A    between atoms: CA_1  and  C_16
REMARK    3  A    between atoms: CA_1  and  C_28
REMARK    4  A    between atoms: C_4  and  C_9
REMARK    5  A    between atoms: C_7  and  C_13
REMARK    6  A    between atoms: C_13  and  C_14
REMARK    7  A    between atoms: C_16  and  C_17
REMARK    8  A    between atoms: C_16  and  O_26
REMARK    9  A    between atoms: C_22  and  N_25
REMARK   10  A    between atoms: C_28  and  O_29
REMARK                            x       y       z     vdW  Elec       q    Type
REMARK                         _______ _______ _______ _____ _____    ______ ____
ROOT
ATOM      1  CA  UNL     1       0.420  -0.039  -0.025  0.00  0.00    +0.132 C 
ENDROOT
BRANCH   1   3
ATOM      2  O   UNL     1      -1.841   1.029  -1.500  0.00  0.00    -0.277 OA
ATOM      3  N   UNL     1      -0.911   0.220   0.475  0.00  0.00    -0.303 N 
ATOM      4  C   UNL     1      -1.928   0.733  -0.311  0.00  0.00    +0.203 C 
ATOM      5  H   UNL     1      -1.103   0.021   1.419  0.00  0.00    +0.149 HD
BRANCH   4   9
ATOM      6  N   UNL     1      -3.974   1.948  -0.207  0.00  0.00    +0.392 N 
ATOM      7  C   UNL     1      -5.288   0.063  -0.476  0.00  0.00    -0.022 C 
ATOM      8  C   UNL     1      -4.072  -0.379   0.335  0.00  0.00    -0.014 C 
ATOM      9  C   UNL     1      -3.209   0.880   0.446  0.00  0.00    +0.020 C 
ATOM     10  C   UNL     1      -5.381   1.547  -0.154  0.00  0.00    -0.077 C 
ATOM     11  C   UNL     1      -3.752   3.258   0.390  0.00  0.00    -0.100 C 
ATOM     12  H   UNL     1      -3.663   2.060  -1.172  0.00  0.00    -0.079 HD
BRANCH   7  13
ATOM     13  C   UNL     1      -6.554  -0.708  -0.139  0.00  0.00    -0.002 C 
BRANCH  13  14
ATOM     14  C   UNL     1      -6.399  -2.198  -0.435  0.00  0.00    -0.000 C 
ATOM     15  C   UNL     1      -7.655  -2.973  -0.071  0.00  0.00    -0.000 C 
ENDBRANCH  13  14
ENDBRANCH   7  13
ENDBRANCH   4   9
ENDBRANCH   1   3
BRANCH   1  16
ATOM     16  C   UNL     1       1.450   0.181   1.104  0.00  0.00    +0.153 C 
BRANCH  16  17
ATOM     17  C   UNL     1       2.888   0.062   0.654  0.00  0.00    +0.006 C 
ATOM     18  C   UNL     1       3.743  -0.844   1.280  0.00  0.00    -0.000 C 
ATOM     19  C   UNL     1       3.360   0.860  -0.389  0.00  0.00    -0.000 C 
ATOM     20  C   UNL     1       5.071  -0.953   0.865  0.00  0.00    +0.024 C 
ATOM     21  C   UNL     1       4.687   0.751  -0.805  0.00  0.00    +0.024 C 
ATOM     22  C   UNL     1       5.542  -0.155  -0.178  0.00  0.00    +0.143 C 
BRANCH  22  25
ATOM     23  O   UNL     1       7.646  -1.086  -0.023  0.00  0.00    -0.126 OA
ATOM     24  O   UNL     1       7.298   0.462  -1.540  0.00  0.00    -0.126 OA
ATOM     25  N   UNL     1       6.893  -0.265  -0.601  0.00  0.00    +0.058 N 
ENDBRANCH  22  25
ENDBRANCH  16  17
BRANCH  16  26
ATOM     26  O   UNL     1       1.287   1.495   1.647  0.00  0.00    -0.378 OA
ATOM     27  H   UNL     1       0.372   1.610   1.948  0.00  0.00    +0.211 HD
ENDBRANCH  16  26
ENDBRANCH   1  16
BRANCH   1  28
ATOM     28  C   UNL     1       0.465  -1.438  -0.652  0.00  0.00    +0.159 C 
BRANCH  28  29
ATOM     29  O   UNL     1       0.215  -2.452   0.312  0.00  0.00    -0.380 OA
ATOM     30  H   UNL     1       0.251  -3.322  -0.117  0.00  0.00    +0.211 HD
ENDBRANCH  28  29
ENDBRANCH   1  28
TORSDOF 10
