101672955
  -OEChem-03292013293D

 66 69  0     1  0  0  0  0  0999 V2000
    4.6076   -0.6531   -1.4739 O   0  0  0  0  0  0  0  0  0  0  0  0
    6.4777    1.9178   -0.7758 O   0  0  0  0  0  0  0  0  0  0  0  0
   -4.7306    0.9566    0.7832 O   0  0  0  0  0  0  0  0  0  0  0  0
   -4.1622   -1.8440    1.5954 O   0  0  0  0  0  0  0  0  0  0  0  0
    1.7243    1.9498   -0.1875 O   0  0  0  0  0  0  0  0  0  0  0  0
   -0.7501    2.3007    0.2295 O   0  0  0  0  0  0  0  0  0  0  0  0
   -1.7300   -2.9447   -0.0143 O   0  0  0  0  0  0  0  0  0  0  0  0
   -8.7587   -0.2350    0.1843 O   0  0  0  0  0  0  0  0  0  0  0  0
   -7.3215    1.1477   -0.9759 O   0  0  0  0  0  0  0  0  0  0  0  0
    6.8572    0.5006    1.7812 N   0  0  0  0  0  0  0  0  0  0  0  0
    6.1221   -0.0258    0.6329 C   0  0  1  0  0  0  0  0  0  0  0  0
    4.6247    0.2869    0.7734 C   0  0  0  0  0  0  0  0  0  0  0  0
    6.6609    0.4998   -0.7030 C   0  0  1  0  0  0  0  0  0  0  0  0
    3.8987    0.2099   -0.5819 C   0  0  2  0  0  0  0  0  0  0  0  0
    5.8840   -0.1297   -1.8786 C   0  0  1  0  0  0  0  0  0  0  0  0
    2.4754   -0.2787   -0.4282 C   0  0  0  0  0  0  0  0  0  0  0  0
    6.6494   -1.3029   -2.4819 C   0  0  0  0  0  0  0  0  0  0  0  0
   -2.6107   -0.7508    0.1625 C   0  0  0  0  0  0  0  0  0  0  0  0
   -2.3754    0.5709    0.1954 C   0  0  0  0  0  0  0  0  0  0  0  0
   -4.0107   -1.2948    0.2862 C   0  0  2  0  0  0  0  0  0  0  0  0
   -5.0658   -0.2108    0.0260 C   0  0  1  0  0  0  0  0  0  0  0  0
    1.4252    0.6185   -0.2319 C   0  0  0  0  0  0  0  0  0  0  0  0
    0.1143    0.1447   -0.0936 C   0  0  0  0  0  0  0  0  0  0  0  0
   -3.4968    1.5749    0.3768 C   0  0  1  0  0  0  0  0  0  0  0  0
   -0.1384   -1.2245   -0.1508 C   0  0  0  0  0  0  0  0  0  0  0  0
    2.2221   -1.6472   -0.4859 C   0  0  0  0  0  0  0  0  0  0  0  0
   -0.9859    1.1030    0.1170 C   0  0  0  0  0  0  0  0  0  0  0  0
   -1.5107   -1.7387   -0.0013 C   0  0  0  0  0  0  0  0  0  0  0  0
    6.3268   -0.0596    3.0217 C   0  0  0  0  0  0  0  0  0  0  0  0
    8.2814    0.2043    1.6496 C   0  0  0  0  0  0  0  0  0  0  0  0
    0.9181   -2.1227   -0.3473 C   0  0  0  0  0  0  0  0  0  0  0  0
   -6.4702   -0.6405    0.4342 C   0  0  0  0  0  0  0  0  0  0  0  0
   -3.7418    2.4279   -0.8700 C   0  0  0  0  0  0  0  0  0  0  0  0
   -7.5315    0.2121   -0.2163 C   0  0  0  0  0  0  0  0  0  0  0  0
   -9.8786    0.4773   -0.3511 C   0  0  0  0  0  0  0  0  0  0  0  0
    6.2290   -1.1215    0.6148 H   0  0  0  0  0  0  0  0  0  0  0  0
    4.4489    1.2844    1.1988 H   0  0  0  0  0  0  0  0  0  0  0  0
    4.1753   -0.4280    1.4755 H   0  0  0  0  0  0  0  0  0  0  0  0
    7.7288    0.3130   -0.8463 H   0  0  0  0  0  0  0  0  0  0  0  0
    3.8813    1.2007   -1.0543 H   0  0  0  0  0  0  0  0  0  0  0  0
    5.7010    0.6083   -2.6691 H   0  0  0  0  0  0  0  0  0  0  0  0
    7.6201   -0.9856   -2.8749 H   0  0  0  0  0  0  0  0  0  0  0  0
    6.0754   -1.7545   -3.2985 H   0  0  0  0  0  0  0  0  0  0  0  0
    6.8110   -2.0912   -1.7384 H   0  0  0  0  0  0  0  0  0  0  0  0
   -4.1750   -2.1072   -0.4322 H   0  0  0  0  0  0  0  0  0  0  0  0
   -5.0579    0.0381   -1.0427 H   0  0  0  0  0  0  0  0  0  0  0  0
   -3.2347    2.2483    1.2015 H   0  0  0  0  0  0  0  0  0  0  0  0
    3.0237   -2.3677   -0.6241 H   0  0  0  0  0  0  0  0  0  0  0  0
    6.8709    2.2215   -1.6118 H   0  0  0  0  0  0  0  0  0  0  0  0
    8.8119    0.4562    2.5764 H   0  0  0  0  0  0  0  0  0  0  0  0
    8.7588    0.8231    0.8838 H   0  0  0  0  0  0  0  0  0  0  0  0
    8.4758   -0.8534    1.4373 H   0  0  0  0  0  0  0  0  0  0  0  0
    6.9352    0.2622    3.8758 H   0  0  0  0  0  0  0  0  0  0  0  0
    6.3177   -1.1559    3.0167 H   0  0  0  0  0  0  0  0  0  0  0  0
    5.3187    0.3044    3.2434 H   0  0  0  0  0  0  0  0  0  0  0  0
    0.7465   -3.1949   -0.3923 H   0  0  0  0  0  0  0  0  0  0  0  0
   -6.5975   -0.5626    1.5201 H   0  0  0  0  0  0  0  0  0  0  0  0
   -6.6498   -1.6736    0.1146 H   0  0  0  0  0  0  0  0  0  0  0  0
   -3.9175    1.8116   -1.7580 H   0  0  0  0  0  0  0  0  0  0  0  0
   -2.8922    3.0831   -1.0848 H   0  0  0  0  0  0  0  0  0  0  0  0
   -4.6316    3.0525   -0.7352 H   0  0  0  0  0  0  0  0  0  0  0  0
   -3.5468   -2.5926    1.6773 H   0  0  0  0  0  0  0  0  0  0  0  0
    0.9181    2.4863   -0.2080 H   0  0  0  0  0  0  0  0  0  0  0  0
   -9.8444    1.5258   -0.0401 H   0  0  0  0  0  0  0  0  0  0  0  0
   -9.8916    0.3975   -1.4423 H   0  0  0  0  0  0  0  0  0  0  0  0
  -10.7910    0.0234    0.0448 H   0  0  0  0  0  0  0  0  0  0  0  0
  1 14  1  0  0  0  0
  1 15  1  0  0  0  0
  2 13  1  0  0  0  0
  2 49  1  0  0  0  0
  3 21  1  0  0  0  0
  3 24  1  0  0  0  0
  4 20  1  0  0  0  0
  4 62  1  0  0  0  0
  5 22  1  0  0  0  0
  5 63  1  0  0  0  0
  6 27  2  0  0  0  0
  7 28  2  0  0  0  0
  8 34  1  0  0  0  0
  8 35  1  0  0  0  0
  9 34  2  0  0  0  0
 10 11  1  0  0  0  0
 10 29  1  0  0  0  0
 10 30  1  0  0  0  0
 11 12  1  0  0  0  0
 11 13  1  0  0  0  0
 11 36  1  0  0  0  0
 12 14  1  0  0  0  0
 12 37  1  0  0  0  0
 12 38  1  0  0  0  0
 13 15  1  0  0  0  0
 13 39  1  0  0  0  0
 14 16  1  0  0  0  0
 14 40  1  0  0  0  0
 15 17  1  0  0  0  0
 15 41  1  0  0  0  0
 16 22  2  0  0  0  0
 16 26  1  0  0  0  0
 17 42  1  0  0  0  0
 17 43  1  0  0  0  0
 17 44  1  0  0  0  0
 18 19  2  0  0  0  0
 18 20  1  0  0  0  0
 18 28  1  0  0  0  0
 19 24  1  0  0  0  0
 19 27  1  0  0  0  0
 20 21  1  0  0  0  0
 20 45  1  0  0  0  0
 21 32  1  0  0  0  0
 21 46  1  0  0  0  0
 22 23  1  0  0  0  0
 23 25  2  0  0  0  0
 23 27  1  0  0  0  0
 24 33  1  0  0  0  0
 24 47  1  0  0  0  0
 25 28  1  0  0  0  0
 25 31  1  0  0  0  0
 26 31  2  0  0  0  0
 26 48  1  0  0  0  0
 29 53  1  0  0  0  0
 29 54  1  0  0  0  0
 29 55  1  0  0  0  0
 30 50  1  0  0  0  0
 30 51  1  0  0  0  0
 30 52  1  0  0  0  0
 31 56  1  0  0  0  0
 32 34  1  0  0  0  0
 32 57  1  0  0  0  0
 32 58  1  0  0  0  0
 33 59  1  0  0  0  0
 33 60  1  0  0  0  0
 33 61  1  0  0  0  0
 35 64  1  0  0  0  0
 35 65  1  0  0  0  0
 35 66  1  0  0  0  0
M  END
> <PUBCHEM_COMPOUND_CID>
101672955

> <PUBCHEM_CONFORMER_RMSD>
1

> <PUBCHEM_CONFORMER_DIVERSEORDER>
1
39
42
47
7
43
28
26
23
45
36
11
9
12
18
46
17
10
33
32
40
38
37
29
16
41
20
30
14
4
31
15
44
5
6
27
35
24
22
21
3
19
8
25
2
13
34

> <PUBCHEM_MMFF94_PARTIAL_CHARGES>
37
1 -0.56
10 -0.81
11 0.27
13 0.28
14 0.42
15 0.28
16 -0.14
18 -0.12
19 -0.12
2 -0.68
20 0.42
21 0.28
22 0.08
23 0.09
24 0.42
25 0.09
26 -0.15
27 0.47
28 0.47
29 0.27
3 -0.56
30 0.27
31 -0.15
32 0.06
34 0.66
35 0.28
4 -0.68
48 0.15
49 0.4
5 -0.53
56 0.15
6 -0.57
62 0.4
63 0.45
7 -0.57
8 -0.43
9 -0.57

> <PUBCHEM_EFFECTIVE_ROTOR_COUNT>
7

> <PUBCHEM_PHARMACOPHORE_FEATURES>
15
1 1 acceptor
1 10 cation
1 2 acceptor
1 2 donor
1 3 acceptor
1 4 acceptor
1 4 donor
1 5 donor
1 6 acceptor
1 7 acceptor
1 9 acceptor
6 1 11 12 13 14 15 rings
6 16 22 23 25 26 31 rings
6 18 19 23 25 27 28 rings
6 3 18 19 20 21 24 rings

> <PUBCHEM_HEAVY_ATOM_COUNT>
35

> <PUBCHEM_ATOM_DEF_STEREO_COUNT>
7

> <PUBCHEM_ATOM_UDEF_STEREO_COUNT>
0

> <PUBCHEM_BOND_DEF_STEREO_COUNT>
0

> <PUBCHEM_BOND_UDEF_STEREO_COUNT>
0

> <PUBCHEM_ISOTOPIC_ATOM_COUNT>
0

> <PUBCHEM_COMPONENT_COUNT>
1

> <PUBCHEM_CACTVS_TAUTO_COUNT>
10

> <PUBCHEM_CONFORMER_ID>
060F67FB00000001

> <PUBCHEM_MMFF94_ENERGY>
101.2214

> <PUBCHEM_FEATURE_SELFOVERLAP>
76.167

> <PUBCHEM_SHAPE_FINGERPRINT>
10 15 18409727396264878992
11181472 205 16371288813991005583
11719270 70 18408322172796379058
12089408 11 16008751321348968871
12107698 1 16298389071740923069
12133447 93 18270694047658794805
12236239 1 17603585253472571442
12664476 115 17989489624244644744
12838862 33 18339911667897097519
13560911 43 18187083962209840553
13617811 41 18409452475229251692
13782708 43 17560530504159073446
13811026 1 18343303639208472174
13914758 101 15936404503548839733
14117953 113 18335140895645207365
14294032 229 17970356922903352549
15131766 46 16372999847684434142
15183329 4 18040161712294229044
15320294 125 17895461584465731618
15849732 13 17847063294391744669
16087824 20 18337956685343518821
18608769 82 18409730690705209383
19301679 30 17168972393379316674
20554085 129 18342166774298323666
21033648 29 17846492669495490338
21057603 130 16660636368384595880
21150785 3 14333407865218783075
21267235 1 18341344348664720271
21792934 111 18340199709641797330
21792938 131 18188210872104183890
22311459 1 18410293618302702621
23559900 14 18341895255287633929
23576562 1 18043822085624888973
24771293 8 18272937098961402609
24893992 56 18187366571727310827
3004659 81 18261121794232629284
335352 9 18410577314547593519
3383291 50 18341335573846769883
34797466 226 16200433559563578780
350125 39 18408888468402431213
4093350 32 16702307823562422716
5104073 3 18339648819508215874
5283156 175 17167859755450613048
59755656 215 18410578366435058623
6201320 215 16154252916388940045

> <PUBCHEM_SHAPE_MULTIPOLES>
662.48
25.64
2.05
1.61
16.27
0.23
0.44
-4.17
1.48
0.96
-0.27
-4.65
0.15
1.85

> <PUBCHEM_SHAPE_SELFOVERLAP>
1427.196

> <PUBCHEM_SHAPE_VOLUME>
362.4

> <PUBCHEM_COORDINATE_TYPE>
2
5
10

$$$$
