REMARK  Name = 101653444
REMARK  4 active torsions:
REMARK  status: ('A' for Active; 'I' for Inactive)
REMARK    1  A    between atoms: C_12  and  C_24
REMARK    2  A    between atoms: C_13  and  O_28
REMARK    3  A    between atoms: C_16  and  O_30
REMARK    4  A    between atoms: C_18  and  O_32
REMARK                            x       y       z     vdW  Elec       q    Type
REMARK                         _______ _______ _______ _____ _____    ______ ____
ROOT
ATOM      1  O   UNL     1      -0.507   0.399  -1.733  0.00  0.00    -0.312 OA
ATOM      2  O   UNL     1       0.357   2.737   0.557  0.00  0.00    -0.448 OA
ATOM      3  O   UNL     1      -0.040  -1.918  -1.557  0.00  0.00    -0.423 OA
ATOM      4  O   UNL     1      -3.340  -0.393   1.702  0.00  0.00    -0.450 OA
ATOM      5  O   UNL     1      -0.704   3.231  -1.403  0.00  0.00    -0.247 OA
ATOM      6  O   UNL     1       0.081  -3.765  -0.206  0.00  0.00    -0.247 OA
ATOM      7  O   UNL     1      -4.889  -1.550   0.476  0.00  0.00    -0.250 OA
ATOM      8  C   UNL     1       0.063   0.361   0.599  0.00  0.00    +0.086 C 
ATOM      9  C   UNL     1       1.154  -0.398  -0.186  0.00  0.00    +0.108 C 
ATOM     10  C   UNL     1      -0.823   0.986  -0.479  0.00  0.00    +0.214 C 
ATOM     11  C   UNL     1       0.732   1.560   1.285  0.00  0.00    +0.198 C 
ATOM     12  C   UNL     1       2.344   0.604  -0.215  0.00  0.00    +0.039 C 
ATOM     13  C   UNL     1      -2.289   0.790  -0.045  0.00  0.00    +0.167 C 
ATOM     14  C   UNL     1      -0.898  -0.388   1.526  0.00  0.00    +0.053 C 
ATOM     15  C   UNL     1       0.515  -0.593  -1.557  0.00  0.00    +0.294 C 
ATOM     16  C   UNL     1       2.233   1.341   1.126  0.00  0.00    +0.151 C 
ATOM     17  C   UNL     1      -2.195   0.412   1.425  0.00  0.00    +0.197 C 
ATOM     18  C   UNL     1       1.496  -1.831   0.206  0.00  0.00    +0.216 C 
ATOM     19  C   UNL     1      -0.403   2.432  -0.528  0.00  0.00    +0.344 C 
ATOM     20  C   UNL     1      -3.053  -0.397  -0.639  0.00  0.00    +0.130 C 
ATOM     21  C   UNL     1       0.444  -2.637  -0.502  0.00  0.00    +0.346 C 
ATOM     22  C   UNL     1      -3.892  -0.848   0.535  0.00  0.00    +0.319 C 
ATOM     23  C   UNL     1      -3.902  -0.080  -1.859  0.00  0.00    +0.014 C 
ENDROOT
BRANCH  12  24
ATOM     24  C   UNL     1       3.730   0.025  -0.471  0.00  0.00    +0.003 C 
ATOM     25  C   UNL     1       3.767  -0.653  -1.852  0.00  0.00    +0.000 C 
ATOM     26  C   UNL     1       4.069  -1.017   0.610  0.00  0.00    +0.000 C 
ATOM     27  C   UNL     1       4.781   1.149  -0.433  0.00  0.00    +0.000 C 
ENDBRANCH  12  24
BRANCH  13  28
ATOM     28  O   UNL     1      -3.060   1.981  -0.156  0.00  0.00    -0.380 OA
ATOM     29  H   UNL     1      -2.564   2.723   0.224  0.00  0.00    +0.211 HD
ENDBRANCH  13  28
BRANCH  16  30
ATOM     30  O   UNL     1       2.722   0.540   2.191  0.00  0.00    -0.381 OA
ATOM     31  H   UNL     1       2.641   1.028   3.026  0.00  0.00    +0.210 HD
ENDBRANCH  16  30
BRANCH  18  32
ATOM     32  O   UNL     1       1.504  -2.084   1.585  0.00  0.00    -0.374 OA
ATOM     33  H   UNL     1       2.193  -1.548   2.009  0.00  0.00    +0.211 HD
ENDBRANCH  18  32
TORSDOF 4
