REMARK  Name = 101683882
REMARK  11 active torsions:
REMARK  status: ('A' for Active; 'I' for Inactive)
REMARK    1  A    between atoms: C_2  and  C_11
REMARK    2  A    between atoms: C_3  and  C_26
REMARK    3  A    between atoms: C_4  and  C_35
REMARK    4  A    between atoms: C_13  and  C_18
REMARK    5  A    between atoms: C_18  and  C_19
REMARK    6  A    between atoms: C_19  and  C_21
REMARK    7  A    between atoms: C_21  and  O_22
REMARK    8  A    between atoms: C_28  and  C_33
REMARK    9  A    between atoms: C_35  and  C_36
REMARK   10  A    between atoms: C_36  and  C_38
REMARK   11  A    between atoms: C_38  and  O_39
REMARK                            x       y       z     vdW  Elec       q    Type
REMARK                         _______ _______ _______ _____ _____    ______ ____
ROOT
ATOM      1  N   UNL     1       0.576  -1.232   1.197  0.00  0.00    +0.396 N 
ATOM      2  C   UNL     1      -0.687  -1.365   0.439  0.00  0.00    -0.018 C 
ATOM      3  C   UNL     1       1.684  -1.349   0.223  0.00  0.00    -0.018 C 
ATOM      4  C   UNL     1      -0.285  -1.910  -0.903  0.00  0.00    -0.069 C 
ATOM      5  C   UNL     1       1.050  -1.903  -1.025  0.00  0.00    -0.069 C 
ATOM      6  C   UNL     1       1.892  -2.385  -2.157  0.00  0.00    +0.024 C 
ATOM      7  H   UNL     1       0.645  -1.973   1.895  0.00  0.00    -0.082 HD
ATOM      8  H   UNL     1       0.614  -0.336   1.683  0.00  0.00    -0.082 HD
ENDROOT
BRANCH   2  11
ATOM      9  O   UNL     1      -5.508  -0.820   2.464  0.00  0.00    -0.270 OA
ATOM     10  N   UNL     1      -3.378  -0.775   1.480  0.00  0.00    -0.281 N 
ATOM     11  C   UNL     1      -1.400  -0.051   0.353  0.00  0.00    -0.030 C 
ATOM     12  C   UNL     1      -2.626   0.169   0.842  0.00  0.00    +0.040 C 
ATOM     13  C   UNL     1      -3.421   1.378   0.825  0.00  0.00    -0.008 C 
ATOM     14  C   UNL     1      -4.604   1.163   1.431  0.00  0.00    +0.029 C 
ATOM     15  C   UNL     1      -4.600  -0.261   1.875  0.00  0.00    +0.245 C 
ATOM     16  C   UNL     1      -5.764   2.050   1.683  0.00  0.00    +0.036 C 
ATOM     17  H   UNL     1      -3.088  -1.702   1.638  0.00  0.00    +0.155 HD
BRANCH  13  18
ATOM     18  C   UNL     1      -2.929   2.642   0.206  0.00  0.00    +0.039 C 
BRANCH  18  19
ATOM     19  C   UNL     1      -3.277   2.743  -1.274  0.00  0.00    +0.114 C 
BRANCH  19  21
ATOM     20  O   UNL     1      -2.217   4.913  -1.241  0.00  0.00    -0.250 OA
ATOM     21  C   UNL     1      -2.805   4.046  -1.874  0.00  0.00    +0.314 C 
BRANCH  21  22
ATOM     22  O   UNL     1      -3.074   4.145  -3.199  0.00  0.00    -0.480 OA
ATOM     23  H   UNL     1      -3.527   3.452  -3.638  0.00  0.00    +0.295 HD
ENDBRANCH  21  22
ENDBRANCH  19  21
ENDBRANCH  18  19
ENDBRANCH  13  18
ENDBRANCH   2  11
BRANCH   3  26
ATOM     24  O   UNL     1       6.775  -0.747   1.335  0.00  0.00    -0.270 OA
ATOM     25  N   UNL     1       4.503  -0.721   0.753  0.00  0.00    -0.281 N 
ATOM     26  C   UNL     1       2.350  -0.025   0.007  0.00  0.00    -0.029 C 
ATOM     27  C   UNL     1       3.640   0.215   0.264  0.00  0.00    +0.044 C 
ATOM     28  C   UNL     1       4.402   1.444   0.101  0.00  0.00    +0.013 C 
ATOM     29  C   UNL     1       5.678   1.228   0.486  0.00  0.00    +0.033 C 
ATOM     30  C   UNL     1       5.770  -0.197   0.922  0.00  0.00    +0.246 C 
ATOM     31  C   UNL     1       6.873   2.108   0.534  0.00  0.00    +0.036 C 
ATOM     32  H   UNL     1       4.256  -1.652   0.960  0.00  0.00    +0.155 HD
BRANCH  28  33
ATOM     33  C   UNL     1       3.912   2.707  -0.389  0.00  0.00    +0.001 C 
ATOM     34  C   UNL     1       4.269   3.883   0.127  0.00  0.00    +0.000 C 
ENDBRANCH  28  33
ENDBRANCH   3  26
BRANCH   4  35
ATOM     35  C   UNL     1      -1.312  -2.403  -1.864  0.00  0.00    +0.031 C 
BRANCH  35  36
ATOM     36  C   UNL     1      -2.157  -3.534  -1.290  0.00  0.00    +0.114 C 
BRANCH  36  38
ATOM     37  O   UNL     1      -0.652  -5.363  -1.762  0.00  0.00    -0.250 OA
ATOM     38  C   UNL     1      -1.319  -4.741  -0.945  0.00  0.00    +0.314 C 
BRANCH  38  39
ATOM     39  O   UNL     1      -1.358  -5.051   0.374  0.00  0.00    -0.480 OA
ATOM     40  H   UNL     1      -1.885  -4.543   0.959  0.00  0.00    +0.295 HD
ENDBRANCH  38  39
ENDBRANCH  36  38
ENDBRANCH  35  36
ENDBRANCH   4  35
TORSDOF 11
