REMARK  Name = 101638
REMARK  9 active torsions:
REMARK  status: ('A' for Active; 'I' for Inactive)
REMARK    1  A    between atoms: N_2  and  CA_5
REMARK    2  A    between atoms: C_3  and  CA_18
REMARK    3  A    between atoms: CA_5  and  C_7
REMARK    4  A    between atoms: CA_5  and  CB_10
REMARK    5  A    between atoms: C_7  and  O_8
REMARK    6  A    between atoms: CB_10  and  CG_13
REMARK    7  A    between atoms: CA_18  and  N_19
REMARK    8  A    between atoms: CA_18  and  CB_23
REMARK    9  A    between atoms: CB_23  and  CG_26
REMARK                            x       y       z     vdW  Elec       q    Type
REMARK                         _______ _______ _______ _____ _____    ______ ____
ROOT
ATOM      1  O   HIS A   1       0.691   0.495   1.456  0.00  0.00    -0.277 OA
ATOM      2  N   HIS A   2      -0.443  -0.034  -0.495  0.00  0.00    -0.298 N 
ATOM      3  C   HIS A   1       0.465   0.689   0.263  0.00  0.00    +0.203 C 
ATOM      4  H   HIS A   2      -0.559   0.193  -1.446  0.00  0.00    +0.150 HD
ENDROOT
BRANCH   2   5
ATOM      5  CA  HIS A   2      -1.225  -1.108   0.068  0.00  0.00    +0.177 C 
BRANCH   5   7
ATOM      6  OXT HIS A   2      -0.877  -3.457   0.530  0.00  0.00    -0.248 OA
ATOM      7  C   HIS A   2      -0.454  -2.420   0.031  0.00  0.00    +0.332 C 
BRANCH   7   8
ATOM      8  O   HIS A   2       0.746  -2.357  -0.594  0.00  0.00    -0.479 OA
ATOM      9  H   HIS A   2       1.039  -1.548  -0.965  0.00  0.00    +0.295 HD
ENDBRANCH   7   8
ENDBRANCH   5   7
BRANCH   5  10
ATOM     10  CB  HIS A   2      -2.567  -1.268  -0.660  0.00  0.00    +0.073 C 
BRANCH  10  13
ATOM     11  ND1 HIS A   2      -3.332   1.083  -0.358  0.00  0.00    -0.319 N 
ATOM     12  NE2 HIS A   2      -5.362   0.874   0.519  0.00  0.00    -0.315 N 
ATOM     13  CG  HIS A   2      -3.582  -0.233  -0.235  0.00  0.00    +0.040 C 
ATOM     14  CD2 HIS A   2      -4.813  -0.365   0.298  0.00  0.00    +0.069 C 
ATOM     15  CE1 HIS A   2      -4.444   1.724   0.113  0.00  0.00    +0.182 C 
ATOM     16  HD1 HIS A   2      -2.515   1.500  -0.716  0.00  0.00    +0.148 HD
ATOM     17  HE2 HIS A   2      -6.247   1.080   0.898  0.00  0.00    +0.148 HD
ENDBRANCH  10  13
ENDBRANCH   5  10
ENDBRANCH   2   5
BRANCH   3  18
ATOM     18  CA  HIS A   1       1.192   1.755  -0.552  0.00  0.00    +0.019 C 
BRANCH  18  19
ATOM     19  N   HIS A   1       0.371   2.965  -0.488  0.00  0.00    +0.388 N 
ATOM     20  H1  HIS A   1       0.820   3.709  -1.021  0.00  0.00    -0.089 HD
ATOM     21  H2  HIS A   1       0.271   3.257   0.485  0.00  0.00    -0.089 HD
ATOM     22  H3  HIS A   1      -0.550   2.772  -0.881  0.00  0.00    -0.089 HD
ENDBRANCH  18  19
BRANCH  18  23
ATOM     23  CB  HIS A   1       2.584   2.037   0.034  0.00  0.00    +0.029 C 
BRANCH  23  26
ATOM     24  ND1 HIS A   1       4.426   0.614   0.922  0.00  0.00    -0.319 N 
ATOM     25  NE2 HIS A   1       4.541  -1.070  -0.520  0.00  0.00    -0.315 N 
ATOM     26  CG  HIS A   1       3.486   0.824  -0.016  0.00  0.00    +0.036 C 
ATOM     27  CD2 HIS A   1       3.551  -0.195  -0.894  0.00  0.00    +0.069 C 
ATOM     28  CE1 HIS A   1       5.048  -0.553   0.577  0.00  0.00    +0.182 C 
ATOM     29  HD1 HIS A   1       4.625   1.185   1.699  0.00  0.00    +0.148 HD
ATOM     30  HE2 HIS A   1       4.811  -1.901  -0.974  0.00  0.00    +0.148 HD
ENDBRANCH  23  26
ENDBRANCH  18  23
ENDBRANCH   3  18
TORSDOF 9
