REMARK  Name = 10168
REMARK  4 active torsions:
REMARK  status: ('A' for Active; 'I' for Inactive)
REMARK    1  A    between atoms: C_9  and  O_17
REMARK    2  A    between atoms: C_11  and  O_19
REMARK    3  A    between atoms: C_12  and  C_22
REMARK    4  A    between atoms: C_22  and  O_23
REMARK                            x       y       z     vdW  Elec       q    Type
REMARK                         _______ _______ _______ _____ _____    ______ ____
ROOT
ATOM      1  O   UNL     1      -1.266  -2.430   0.002  0.00  0.00    -0.286 OA
ATOM      2  O   UNL     1      -0.218   2.810   0.001  0.00  0.00    -0.287 OA
ATOM      3  C   UNL     1       0.369  -0.745   0.000  0.00  0.00    +0.076 C 
ATOM      4  C   UNL     1       0.643   0.624   0.000  0.00  0.00    +0.045 C 
ATOM      5  C   UNL     1      -2.127  -0.245   0.000  0.00  0.00    +0.076 C 
ATOM      6  C   UNL     1      -1.853   1.124   0.000  0.00  0.00    +0.045 C 
ATOM      7  C   UNL     1      -1.026  -1.230   0.000  0.00  0.00    +0.202 C 
ATOM      8  C   UNL     1      -0.458   1.609   0.000  0.00  0.00    +0.196 C 
ATOM      9  C   UNL     1       1.422  -1.668   0.000  0.00  0.00    +0.137 C 
ATOM     10  C   UNL     1       1.970   1.071   0.000  0.00  0.00    +0.010 C 
ATOM     11  C   UNL     1      -3.454  -0.691   0.000  0.00  0.00    +0.137 C 
ATOM     12  C   UNL     1       3.017   0.148   0.000  0.00  0.00    +0.079 C 
ATOM     13  C   UNL     1      -2.906   2.047   0.000  0.00  0.00    +0.003 C 
ATOM     14  C   UNL     1       2.743  -1.218   0.000  0.00  0.00    +0.043 C 
ATOM     15  C   UNL     1      -4.500   0.232  -0.001  0.00  0.00    +0.037 C 
ATOM     16  C   UNL     1      -4.227   1.598   0.000  0.00  0.00    +0.003 C 
ENDROOT
BRANCH   9  17
ATOM     17  O   UNL     1       1.227  -3.017  -0.001  0.00  0.00    -0.505 OA
ATOM     18  H   UNL     1       0.357  -3.365  -0.001  0.00  0.00    +0.292 HD
ENDBRANCH   9  17
BRANCH  11  19
ATOM     19  O   UNL     1      -3.794  -2.012   0.000  0.00  0.00    -0.505 OA
ATOM     20  H   UNL     1      -3.125  -2.668   0.000  0.00  0.00    +0.292 HD
ENDBRANCH  11  19
BRANCH  12  22
ATOM     21  O   UNL     1       4.752   1.795  -0.001  0.00  0.00    -0.245 OA
ATOM     22  C   UNL     1       4.395   0.612   0.000  0.00  0.00    +0.338 C 
BRANCH  22  23
ATOM     23  O   UNL     1       5.290  -0.414   0.001  0.00  0.00    -0.477 OA
ATOM     24  H   UNL     1       4.986  -1.300   0.001  0.00  0.00    +0.295 HD
ENDBRANCH  22  23
ENDBRANCH  12  22
TORSDOF 4
