REMARK  Name = 101626738
REMARK  5 active torsions:
REMARK  status: ('A' for Active; 'I' for Inactive)
REMARK    1  A    between atoms: C_5  and  O_19
REMARK    2  A    between atoms: C_6  and  O_21
REMARK    3  A    between atoms: C_7  and  N_12
REMARK    4  A    between atoms: C_9  and  C_24
REMARK    5  A    between atoms: C_24  and  O_25
REMARK                            x       y       z     vdW  Elec       q    Type
REMARK                         _______ _______ _______ _____ _____    ______ ____
ROOT
ATOM      1  O   UNL     1      -0.283  -0.139   1.729  0.00  0.00    -0.333 OA
ATOM      2  O   UNL     1       2.306  -0.644  -0.689  0.00  0.00    -0.342 OA
ATOM      3  C   UNL     1       1.080  -0.135   1.308  0.00  0.00    +0.173 C 
ATOM      4  C   UNL     1       1.013  -0.377  -0.183  0.00  0.00    +0.176 C 
ATOM      5  C   UNL     1       0.005  -1.503  -0.234  0.00  0.00    +0.187 C 
ATOM      6  C   UNL     1       1.870   1.129   1.602  0.00  0.00    +0.143 C 
ATOM      7  C   UNL     1      -0.990  -1.048   0.846  0.00  0.00    +0.229 C 
ATOM      8  C   UNL     1       3.252   0.968   0.947  0.00  0.00    +0.073 C 
ATOM      9  C   UNL     1       3.149   0.506  -0.520  0.00  0.00    +0.216 C 
ENDROOT
BRANCH   7  12
ATOM     10  O   UNL     1      -3.462  -2.255   0.204  0.00  0.00    -0.252 OA
ATOM     11  O   UNL     1      -5.232   1.732  -1.284  0.00  0.00    -0.270 OA
ATOM     12  N   UNL     1      -2.115  -0.348   0.290  0.00  0.00    -0.217 N 
ATOM     13  N   UNL     1      -4.341  -0.269  -0.536  0.00  0.00    -0.236 N 
ATOM     14  C   UNL     1      -3.310  -1.048   0.004  0.00  0.00    +0.315 C 
ATOM     15  C   UNL     1      -2.026   1.015   0.036  0.00  0.00    +0.076 C 
ATOM     16  C   UNL     1      -3.018   1.745  -0.479  0.00  0.00    +0.074 C 
ATOM     17  C   UNL     1      -4.300   1.090  -0.808  0.00  0.00    +0.254 C 
ATOM     18  H   UNL     1      -5.183  -0.735  -0.745  0.00  0.00    +0.159 HD
ENDBRANCH   7  12
BRANCH   5  19
ATOM     19  O   UNL     1       0.611  -2.730   0.160  0.00  0.00    -0.378 OA
ATOM     20  H   UNL     1       1.238  -3.015  -0.524  0.00  0.00    +0.211 HD
ENDBRANCH   5  19
BRANCH   6  21
ATOM     21  O   UNL     1       1.203   2.259   1.046  0.00  0.00    -0.382 OA
ATOM     22  H   UNL     1       0.332   2.357   1.462  0.00  0.00    +0.210 HD
ENDBRANCH   6  21
BRANCH   9  24
ATOM     23  O   UNL     1       4.739  -1.077  -1.407  0.00  0.00    -0.248 OA
ATOM     24  C   UNL     1       4.479   0.055  -1.026  0.00  0.00    +0.341 C 
BRANCH  24  25
ATOM     25  O   UNL     1       5.370   1.077  -1.006  0.00  0.00    -0.479 OA
ATOM     26  H   UNL     1       5.106   1.923  -0.702  0.00  0.00    +0.295 HD
ENDBRANCH  24  25
ENDBRANCH   9  24
TORSDOF 5
