REMARK  Name = 101683950
REMARK  4 active torsions:
REMARK  status: ('A' for Active; 'I' for Inactive)
REMARK    1  A    between atoms: C_8  and  C_28
REMARK    2  A    between atoms: C_10  and  O_24
REMARK    3  A    between atoms: C_12  and  O_26
REMARK    4  A    between atoms: C_28  and  O_29
REMARK                            x       y       z     vdW  Elec       q    Type
REMARK                         _______ _______ _______ _____ _____    ______ ____
ROOT
ATOM      1  O   UNL     1      -0.887  -0.123   0.688  0.00  0.00    -0.222 OA
ATOM      2  O   UNL     1      -2.153  -0.823   0.913  0.00  0.00    -0.221 OA
ATOM      3  O   UNL     1      -4.620   1.728   0.575  0.00  0.00    -0.446 OA
ATOM      4  O   UNL     1      -6.616   0.606   0.495  0.00  0.00    -0.250 OA
ATOM      5  C   UNL     1       1.073   0.142  -0.767  0.00  0.00    +0.034 C 
ATOM      6  C   UNL     1       1.985  -0.427   0.422  0.00  0.00    +0.032 C 
ATOM      7  C   UNL     1      -0.402  -0.495  -0.629  0.00  0.00    +0.142 C 
ATOM      8  C   UNL     1       3.376   0.299   0.650  0.00  0.00    +0.032 C 
ATOM      9  C   UNL     1       1.017   1.691  -0.643  0.00  0.00    +0.032 C 
ATOM     10  C   UNL     1       2.037  -1.983   0.370  0.00  0.00    +0.115 C 
ATOM     11  C   UNL     1       3.170   1.834   0.647  0.00  0.00    +0.032 C 
ATOM     12  C   UNL     1       2.385   2.360  -0.542  0.00  0.00    +0.111 C 
ATOM     13  C   UNL     1      -1.427   0.122  -1.629  0.00  0.00    +0.037 C 
ATOM     14  C   UNL     1      -0.242  -2.023  -0.700  0.00  0.00    -0.015 C 
ATOM     15  C   UNL     1       0.639  -2.611   0.369  0.00  0.00    +0.054 C 
ATOM     16  C   UNL     1       1.629  -0.202  -2.177  0.00  0.00    +0.003 C 
ATOM     17  C   UNL     1       3.960  -0.027   2.054  0.00  0.00    +0.003 C 
ATOM     18  C   UNL     1      -2.889  -0.198  -1.279  0.00  0.00    +0.038 C 
ATOM     19  C   UNL     1      -3.153  -0.079   0.227  0.00  0.00    +0.177 C 
ATOM     20  C   UNL     1      -0.766  -2.827  -1.641  0.00  0.00    -0.007 C 
ATOM     21  C   UNL     1      -4.529  -0.617   0.592  0.00  0.00    +0.144 C 
ATOM     22  C   UNL     1      -3.248   1.353   0.731  0.00  0.00    +0.239 C 
ATOM     23  C   UNL     1      -5.396   0.605   0.538  0.00  0.00    +0.320 C 
ENDROOT
BRANCH  10  24
ATOM     24  O   UNL     1       2.723  -2.538   1.488  0.00  0.00    -0.384 OA
ATOM     25  H   UNL     1       3.620  -2.170   1.533  0.00  0.00    +0.210 HD
ENDBRANCH  10  24
BRANCH  12  26
ATOM     26  O   UNL     1       2.204   3.768  -0.394  0.00  0.00    -0.384 OA
ATOM     27  H   UNL     1       1.703   4.112  -1.150  0.00  0.00    +0.210 HD
ENDBRANCH  12  26
BRANCH   8  28
ATOM     28  C   UNL     1       4.467  -0.094  -0.363  0.00  0.00    +0.137 C 
BRANCH  28  29
ATOM     29  O   UNL     1       5.662   0.560   0.006  0.00  0.00    -0.382 OA
ATOM     30  H   UNL     1       6.365   0.326  -0.620  0.00  0.00    +0.210 HD
ENDBRANCH  28  29
ENDBRANCH   8  28
TORSDOF 4
