REMARK  Name = 101668599
REMARK  6 active torsions:
REMARK  status: ('A' for Active; 'I' for Inactive)
REMARK    1  A    between atoms: N_2  and  CA_9
REMARK    2  A    between atoms: C_3  and  CA_19
REMARK    3  A    between atoms: CA_11  and  C_16
REMARK    4  A    between atoms: C_16  and  O_17
REMARK    5  A    between atoms: CA_19  and  C_20
REMARK    6  A    between atoms: CA_19  and  N_26
REMARK                            x       y       z     vdW  Elec       q    Type
REMARK                         _______ _______ _______ _____ _____    ______ ____
ROOT
ATOM      1  O   UNL     1      -2.152   2.063   1.551  0.00  0.00    -0.277 OA
ATOM      2  N   UNL     1      -0.637   1.410  -0.080  0.00  0.00    -0.298 N 
ATOM      3  C   UNL     1      -1.920   1.689   0.402  0.00  0.00    +0.206 C 
ATOM      4  H   UNL     1      -0.540   1.115  -1.014  0.00  0.00    +0.150 HD
ENDROOT
BRANCH   2   9
ATOM      5  S   UNL     1       0.427  -1.350   0.913  0.00  0.00    -0.114 S 
ATOM      6  O   UNL     1       2.327   2.523  -0.842  0.00  0.00    -0.273 OA
ATOM      7  N   UNL     1       2.272   0.468   0.313  0.00  0.00    -0.242 N 
ATOM      8  C   UNL     1       1.212   0.238   1.281  0.00  0.00    +0.155 C 
ATOM      9  CA  UNL     1       0.562   1.536   0.738  0.00  0.00    +0.178 C 
ATOM     10  C   UNL     1       1.871   1.695  -0.088  0.00  0.00    +0.251 C 
ATOM     11  CA  UNL     1       3.259  -0.424   0.042  0.00  0.00    +0.124 C 
ATOM     12  C   UNL     1       1.965  -2.298   1.158  0.00  0.00    +0.083 C 
ATOM     13  C   UNL     1       3.185  -1.712   0.454  0.00  0.00    -0.013 C 
ATOM     14  C   UNL     1       4.277  -2.738   0.264  0.00  0.00    +0.029 C 
BRANCH  11  16
ATOM     15  OXT UNL     1       4.679  -0.387  -1.864  0.00  0.00    -0.244 OA
ATOM     16  C   UNL     1       4.386   0.055  -0.771  0.00  0.00    +0.351 C 
BRANCH  16  17
ATOM     17  O   UNL     1       5.024   1.044  -0.114  0.00  0.00    -0.476 OA
ATOM     18  H   UNL     1       4.720   1.317   0.730  0.00  0.00    +0.295 HD
ENDBRANCH  16  17
ENDBRANCH  11  16
ENDBRANCH   2   9
BRANCH   3  19
ATOM     19  CA  UNL     1      -3.017   1.485  -0.634  0.00  0.00    +0.032 C 
BRANCH  19  20
ATOM     20  C   UNL     1      -3.489   0.063  -0.556  0.00  0.00    -0.060 C 
ATOM     21  C   UNL     1      -4.033  -0.385   0.778  0.00  0.00    +0.020 C 
ATOM     22  C   UNL     1      -4.788  -1.715   0.717  0.00  0.00    +0.005 C 
ATOM     23  C   UNL     1      -4.049  -2.731  -0.146  0.00  0.00    +0.005 C 
ATOM     24  C   UNL     1      -3.853  -2.204  -1.568  0.00  0.00    +0.025 C 
ATOM     25  C   UNL     1      -3.428  -0.766  -1.613  0.00  0.00    -0.036 C 
ENDBRANCH  19  20
BRANCH  19  26
ATOM     26  N   UNL     1      -4.079   2.441  -0.333  0.00  0.00    +0.390 N 
ATOM     27  H1  UNL     1      -4.835   2.333  -1.009  0.00  0.00    -0.088 HD
ATOM     28  H2  UNL     1      -3.708   3.389  -0.386  0.00  0.00    -0.088 HD
ATOM     29  H3  UNL     1      -4.436   2.267   0.607  0.00  0.00    -0.088 HD
ENDBRANCH  19  26
ENDBRANCH   3  19
TORSDOF 6
