REMARK  Name = 101650359
REMARK  6 active torsions:
REMARK  status: ('A' for Active; 'I' for Inactive)
REMARK    1  A    between atoms: C_4  and  O_29
REMARK    2  A    between atoms: C_5  and  O_23
REMARK    3  A    between atoms: C_7  and  O_25
REMARK    4  A    between atoms: C_20  and  O_27
REMARK    5  A    between atoms: O_29  and  C_31
REMARK    6  A    between atoms: C_35  and  O_37
REMARK                            x       y       z     vdW  Elec       q    Type
REMARK                         _______ _______ _______ _____ _____    ______ ____
ROOT
ATOM      1  O   UNL     1       2.241  -0.477  -2.657  0.00  0.00    -0.293 OA
ATOM      2  O   UNL     1      -0.507   0.278  -2.238  0.00  0.00    -0.287 OA
ATOM      3  O   UNL     1      -2.271  -0.929   2.628  0.00  0.00    -0.286 OA
ATOM      4  C   UNL     1       1.584  -0.342  -0.327  0.00  0.00    +0.193 C 
ATOM      5  C   UNL     1       2.529  -0.894   0.798  0.00  0.00    +0.142 C 
ATOM      6  C   UNL     1       3.114  -2.300   0.482  0.00  0.00    +0.062 C 
ATOM      7  C   UNL     1       2.171  -3.224  -0.302  0.00  0.00    +0.098 C 
ATOM      8  C   UNL     1       1.779  -2.591  -1.643  0.00  0.00    +0.094 C 
ATOM      9  C   UNL     1       1.915  -1.079  -1.631  0.00  0.00    +0.184 C 
ATOM     10  C   UNL     1       0.085  -0.427  -0.036  0.00  0.00    +0.053 C 
ATOM     11  C   UNL     1       1.860  -0.917   2.151  0.00  0.00    +0.003 C 
ATOM     12  C   UNL     1      -0.381  -0.676   1.203  0.00  0.00    +0.041 C 
ATOM     13  C   UNL     1       2.836  -4.587  -0.528  0.00  0.00    +0.030 C 
ATOM     14  C   UNL     1       0.536  -0.817   2.317  0.00  0.00    +0.001 C 
ATOM     15  C   UNL     1      -0.876  -0.154  -1.151  0.00  0.00    +0.195 C 
ATOM     16  C   UNL     1      -1.843  -0.774   1.489  0.00  0.00    +0.198 C 
ATOM     17  C   UNL     1      -2.309  -0.401  -0.920  0.00  0.00    +0.045 C 
ATOM     18  C   UNL     1      -2.776  -0.698   0.356  0.00  0.00    +0.076 C 
ATOM     19  C   UNL     1      -3.208  -0.320  -1.991  0.00  0.00    +0.003 C 
ATOM     20  C   UNL     1      -4.144  -0.916   0.567  0.00  0.00    +0.137 C 
ATOM     21  C   UNL     1      -4.569  -0.540  -1.780  0.00  0.00    +0.003 C 
ATOM     22  C   UNL     1      -5.037  -0.838  -0.502  0.00  0.00    +0.037 C 
ENDROOT
BRANCH   5  23
ATOM     23  O   UNL     1       3.657  -0.008   0.917  0.00  0.00    -0.380 OA
ATOM     24  H   UNL     1       4.122   0.040   0.067  0.00  0.00    +0.211 HD
ENDBRANCH   5  23
BRANCH   7  25
ATOM     25  O   UNL     1       0.998  -3.460   0.477  0.00  0.00    -0.386 OA
ATOM     26  H   UNL     1       0.546  -2.619   0.643  0.00  0.00    +0.210 HD
ENDBRANCH   7  25
BRANCH  20  27
ATOM     27  O   UNL     1      -4.667  -1.204   1.792  0.00  0.00    -0.505 OA
ATOM     28  H   UNL     1      -4.105  -1.267   2.539  0.00  0.00    +0.292 HD
ENDBRANCH  20  27
BRANCH   4  29
ATOM     29  O   UNL     1       1.847   1.048  -0.541  0.00  0.00    -0.321 OA
BRANCH  29  31
ATOM     30  O   UNL     1       0.146   2.243   0.605  0.00  0.00    -0.331 OA
ATOM     31  C   UNL     1       1.511   1.821   0.608  0.00  0.00    +0.236 C 
ATOM     32  C   UNL     1       2.452   3.019   0.713  0.00  0.00    +0.064 C 
ATOM     33  C   UNL     1       2.161   4.050  -0.377  0.00  0.00    +0.037 C 
ATOM     34  C   UNL     1      -0.182   3.132  -0.469  0.00  0.00    +0.144 C 
ATOM     35  C   UNL     1       0.675   4.403  -0.408  0.00  0.00    +0.138 C 
ATOM     36  C   UNL     1      -1.673   3.434  -0.368  0.00  0.00    +0.035 C 
BRANCH  35  37
ATOM     37  O   UNL     1       0.346   5.146   0.765  0.00  0.00    -0.382 OA
ATOM     38  H   UNL     1       0.889   5.949   0.802  0.00  0.00    +0.210 HD
ENDBRANCH  35  37
ENDBRANCH  29  31
ENDBRANCH   4  29
TORSDOF 6
