101717793
  -OEChem-03292013293D

 65 71  0     1  0  0  0  0  0999 V2000
   -4.3369   -1.5460    0.3717 O   0  0  0  0  0  0  0  0  0  0  0  0
   -4.8833    0.7206    0.8585 O   0  0  0  0  0  0  0  0  0  0  0  0
   -5.5935   -0.2498   -1.1845 O   0  0  0  0  0  0  0  0  0  0  0  0
    2.1382   -1.5541    0.0777 O   0  0  0  0  0  0  0  0  0  0  0  0
   -1.2351    2.8988    0.3679 O   0  0  0  0  0  0  0  0  0  0  0  0
    1.2673    3.1242   -0.1936 O   0  0  0  0  0  0  0  0  0  0  0  0
   -2.7819   -1.1519    2.5522 O   0  0  0  0  0  0  0  0  0  0  0  0
    5.8311   -1.5996   -0.4713 O   0  0  0  0  0  0  0  0  0  0  0  0
    7.8349   -1.6111    0.6022 O   0  0  0  0  0  0  0  0  0  0  0  0
   -2.5497    0.1156    0.4985 C   0  0  2  0  0  0  0  0  0  0  0  0
   -1.0995    0.4776   -0.0037 C   0  0  2  0  0  0  0  0  0  0  0  0
   -0.1326   -0.7396    0.1586 C   0  0  2  0  0  0  0  0  0  0  0  0
   -3.0726   -1.1740   -0.2165 C   0  0  1  0  0  0  0  0  0  0  0  0
    1.3179   -0.4412   -0.3165 C   0  0  1  0  0  0  0  0  0  0  0  0
    1.9384    0.8440    0.2854 C   0  0  1  0  0  0  0  0  0  0  0  0
   -3.6455    1.2026    0.2853 C   0  0  1  0  0  0  0  0  0  0  0  0
   -0.6934   -2.0132   -0.5140 C   0  0  0  0  0  0  0  0  0  0  0  0
   -2.1091   -2.3529   -0.0653 C   0  0  0  0  0  0  0  0  0  0  0  0
   -0.4890    1.7274    0.6639 C   0  0  1  0  0  0  0  0  0  0  0  0
   -3.3582   -0.9132   -1.7221 C   0  0  0  0  0  0  0  0  0  0  0  0
   -4.4060    0.1910   -1.8574 C   0  0  2  0  0  0  0  0  0  0  0  0
    1.4744   -0.2463   -1.8395 C   0  0  0  0  0  0  0  0  0  0  0  0
    3.1577    1.1141   -0.6490 C   0  0  2  0  0  0  0  0  0  0  0  0
   -3.9233    1.4839   -1.1962 C   0  0  0  0  0  0  0  0  0  0  0  0
    0.9295    2.0002    0.1836 C   0  0  0  0  0  0  0  0  0  0  0  0
    2.6354    0.7359   -2.0439 C   0  0  0  0  0  0  0  0  0  0  0  0
   -5.2957   -0.4871    0.2011 C   0  0  1  0  0  0  0  0  0  0  0  0
   -2.4808   -0.0970    2.0040 C   0  0  0  0  0  0  0  0  0  0  0  0
    2.3349    0.7279    1.7659 C   0  0  0  0  0  0  0  0  0  0  0  0
    4.4110    0.3500   -0.3290 C   0  0  0  0  0  0  0  0  0  0  0  0
   -6.5864   -0.9426    0.8660 C   0  0  0  0  0  0  0  0  0  0  0  0
    5.4063    0.9776    0.5005 C   0  0  0  0  0  0  0  0  0  0  0  0
    4.6611   -0.8869   -0.7702 C   0  0  0  0  0  0  0  0  0  0  0  0
    6.5389    0.3411    0.8145 C   0  0  0  0  0  0  0  0  0  0  0  0
    6.7955   -1.0261    0.3153 C   0  0  0  0  0  0  0  0  0  0  0  0
   -1.1761    0.7024   -1.0735 H   0  0  0  0  0  0  0  0  0  0  0  0
   -0.0658   -0.9743    1.2309 H   0  0  0  0  0  0  0  0  0  0  0  0
   -3.4178    2.1290    0.8174 H   0  0  0  0  0  0  0  0  0  0  0  0
   -0.0585   -2.8759   -0.2827 H   0  0  0  0  0  0  0  0  0  0  0  0
   -0.6752   -1.9048   -1.6040 H   0  0  0  0  0  0  0  0  0  0  0  0
   -2.4774   -3.2085   -0.6472 H   0  0  0  0  0  0  0  0  0  0  0  0
   -2.0860   -2.7259    0.9638 H   0  0  0  0  0  0  0  0  0  0  0  0
   -0.4411    1.6369    1.7513 H   0  0  0  0  0  0  0  0  0  0  0  0
   -3.7682   -1.8289   -2.1686 H   0  0  0  0  0  0  0  0  0  0  0  0
   -2.4567   -0.6468   -2.2811 H   0  0  0  0  0  0  0  0  0  0  0  0
   -4.6540    0.3638   -2.9092 H   0  0  0  0  0  0  0  0  0  0  0  0
    0.5765    0.1791   -2.2989 H   0  0  0  0  0  0  0  0  0  0  0  0
    1.6871   -1.1894   -2.3551 H   0  0  0  0  0  0  0  0  0  0  0  0
    3.4191    2.1803   -0.6738 H   0  0  0  0  0  0  0  0  0  0  0  0
   -3.0419    1.8819   -1.7069 H   0  0  0  0  0  0  0  0  0  0  0  0
   -4.7233    2.2315   -1.2666 H   0  0  0  0  0  0  0  0  0  0  0  0
    3.3910    0.3482   -2.7356 H   0  0  0  0  0  0  0  0  0  0  0  0
    2.2364    1.6369   -2.5296 H   0  0  0  0  0  0  0  0  0  0  0  0
   -2.1892    0.7732    2.6142 H   0  0  0  0  0  0  0  0  0  0  0  0
    1.4635    0.5432    2.4029 H   0  0  0  0  0  0  0  0  0  0  0  0
    2.7943    1.6583    2.1193 H   0  0  0  0  0  0  0  0  0  0  0  0
    3.0363   -0.0897    1.9575 H   0  0  0  0  0  0  0  0  0  0  0  0
    1.9412   -2.3075   -0.5028 H   0  0  0  0  0  0  0  0  0  0  0  0
   -1.2884    2.9845   -0.5992 H   0  0  0  0  0  0  0  0  0  0  0  0
   -6.4300   -1.1381    1.9325 H   0  0  0  0  0  0  0  0  0  0  0  0
   -6.9607   -1.8637    0.4062 H   0  0  0  0  0  0  0  0  0  0  0  0
   -7.3664   -0.1790    0.7743 H   0  0  0  0  0  0  0  0  0  0  0  0
    5.2272    1.9806    0.8732 H   0  0  0  0  0  0  0  0  0  0  0  0
    4.0520   -1.4945   -1.4221 H   0  0  0  0  0  0  0  0  0  0  0  0
    7.2927    0.8065    1.4389 H   0  0  0  0  0  0  0  0  0  0  0  0
  1 13  1  0  0  0  0
  1 27  1  0  0  0  0
  2 16  1  0  0  0  0
  2 27  1  0  0  0  0
  3 21  1  0  0  0  0
  3 27  1  0  0  0  0
  4 14  1  0  0  0  0
  4 58  1  0  0  0  0
  5 19  1  0  0  0  0
  5 59  1  0  0  0  0
  6 25  2  0  0  0  0
  7 28  2  0  0  0  0
  8 33  1  0  0  0  0
  8 35  1  0  0  0  0
  9 35  2  0  0  0  0
 10 11  1  0  0  0  0
 10 13  1  0  0  0  0
 10 16  1  0  0  0  0
 10 28  1  0  0  0  0
 11 12  1  0  0  0  0
 11 19  1  0  0  0  0
 11 36  1  0  0  0  0
 12 14  1  0  0  0  0
 12 17  1  0  0  0  0
 12 37  1  0  0  0  0
 13 18  1  0  0  0  0
 13 20  1  0  0  0  0
 14 15  1  0  0  0  0
 14 22  1  0  0  0  0
 15 23  1  0  0  0  0
 15 25  1  0  0  0  0
 15 29  1  0  0  0  0
 16 24  1  0  0  0  0
 16 38  1  0  0  0  0
 17 18  1  0  0  0  0
 17 39  1  0  0  0  0
 17 40  1  0  0  0  0
 18 41  1  0  0  0  0
 18 42  1  0  0  0  0
 19 25  1  0  0  0  0
 19 43  1  0  0  0  0
 20 21  1  0  0  0  0
 20 44  1  0  0  0  0
 20 45  1  0  0  0  0
 21 24  1  0  0  0  0
 21 46  1  0  0  0  0
 22 26  1  0  0  0  0
 22 47  1  0  0  0  0
 22 48  1  0  0  0  0
 23 26  1  0  0  0  0
 23 30  1  0  0  0  0
 23 49  1  0  0  0  0
 24 50  1  0  0  0  0
 24 51  1  0  0  0  0
 26 52  1  0  0  0  0
 26 53  1  0  0  0  0
 27 31  1  0  0  0  0
 28 54  1  0  0  0  0
 29 55  1  0  0  0  0
 29 56  1  0  0  0  0
 29 57  1  0  0  0  0
 30 32  1  0  0  0  0
 30 33  2  0  0  0  0
 31 60  1  0  0  0  0
 31 61  1  0  0  0  0
 31 62  1  0  0  0  0
 32 34  2  0  0  0  0
 32 63  1  0  0  0  0
 33 64  1  0  0  0  0
 34 35  1  0  0  0  0
 34 65  1  0  0  0  0
M  END
> <PUBCHEM_COMPOUND_CID>
101717793

> <PUBCHEM_CONFORMER_RMSD>
0.8

> <PUBCHEM_CONFORMER_DIVERSEORDER>
1
4
3
2

> <PUBCHEM_MMFF94_PARTIAL_CHARGES>
31
1 -0.56
10 0.06
13 0.28
14 0.28
15 0.06
16 0.28
19 0.34
2 -0.56
21 0.28
23 0.14
25 0.45
27 0.84
28 0.45
3 -0.56
30 -0.14
32 -0.15
33 -0.07
34 -0.14
35 0.71
4 -0.68
5 -0.68
54 0.06
58 0.4
59 0.4
6 -0.57
63 0.15
64 0.15
65 0.15
7 -0.57
8 -0.23
9 -0.57

> <PUBCHEM_EFFECTIVE_ROTOR_COUNT>
4.2

> <PUBCHEM_PHARMACOPHORE_FEATURES>
18
1 1 acceptor
1 2 acceptor
1 3 acceptor
1 4 acceptor
1 4 donor
1 5 acceptor
1 5 donor
1 6 acceptor
1 7 acceptor
1 9 acceptor
5 14 15 22 23 26 rings
6 1 2 10 13 16 27 rings
6 1 3 13 20 21 27 rings
6 10 11 12 13 17 18 rings
6 10 13 16 20 21 24 rings
6 11 12 14 15 19 25 rings
6 2 3 16 21 24 27 rings
6 8 30 32 33 34 35 rings

> <PUBCHEM_HEAVY_ATOM_COUNT>
35

> <PUBCHEM_ATOM_DEF_STEREO_COUNT>
11

> <PUBCHEM_ATOM_UDEF_STEREO_COUNT>
0

> <PUBCHEM_BOND_DEF_STEREO_COUNT>
0

> <PUBCHEM_BOND_UDEF_STEREO_COUNT>
0

> <PUBCHEM_ISOTOPIC_ATOM_COUNT>
0

> <PUBCHEM_COMPONENT_COUNT>
1

> <PUBCHEM_CACTVS_TAUTO_COUNT>
1

> <PUBCHEM_CONFORMER_ID>
0610172100000001

> <PUBCHEM_MMFF94_ENERGY>
131.4474

> <PUBCHEM_FEATURE_SELFOVERLAP>
105.58

> <PUBCHEM_SHAPE_FINGERPRINT>
10165383 225 17023181579684482573
10675989 125 16826147737776259317
10906281 52 18059029374734456972
10930396 42 18194936683472703384
11315181 36 18261112980432073812
11456790 92 18340218440226044281
11578080 2 16445011043887267543
11796584 16 17385443250207063490
12107698 1 15195564606492437082
12166972 35 17967536800089356196
12236239 1 17966971629980473860
12422481 6 17489588931487039228
12516196 113 18342455950404037864
12788726 201 17459174205857768708
13140716 1 18198626737903195784
13224815 77 17632863053043850509
13782708 43 17677060164827060379
13811026 1 18343862195199398678
14068700 675 16702009924725853937
14394314 77 18270685259659776512
14849402 71 15338539661857029130
14856354 85 15574720192035919530
15131766 46 15049729873706746442
15183329 4 15068621574429744616
15788980 27 18333736831643089124
17349148 13 17988651782570592180
17980427 23 17132124562506910176
18608769 82 18334577997078867091
19377110 9 15913332381658569926
20511986 3 17560793308200563822
21033648 29 18336250306339332009
21236236 1 18272651199408767080
21267235 1 18410299115850395994
23198884 109 16081088181843088607
23402539 116 18272649034977033788
23559900 14 18340477992946188728
23569917 315 18411423929147616927
3004659 81 18186239537716694380
3178227 256 18339093665421427555
335352 9 18411981372983320709
3383291 50 18335703862051127691
392239 28 17132117944331195672
4015057 19 18270109240215773201
4340502 62 14908183045386647556
5265222 85 16371021744941598194
59755656 215 18336826399583756262
7226269 152 18410008836581053668

> <PUBCHEM_SHAPE_MULTIPOLES>
667.46
15.44
2.2
1.63
14.17
0.66
0
-5.31
1.63
0.22
0.03
-1.01
-0.05
0.25

> <PUBCHEM_SHAPE_SELFOVERLAP>
1505.158

> <PUBCHEM_SHAPE_VOLUME>
343.8

> <PUBCHEM_COORDINATE_TYPE>
2
5
10

$$$$
