REMARK  Name = 10172878
REMARK  4 active torsions:
REMARK  status: ('A' for Active; 'I' for Inactive)
REMARK    1  A    between atoms: C_3  and  C_18
REMARK    2  A    between atoms: C_5  and  C_20
REMARK    3  A    between atoms: C_25  and  C_27
REMARK    4  A    between atoms: C_27  and  O_28
REMARK                            x       y       z     vdW  Elec       q    Type
REMARK                         _______ _______ _______ _____ _____    ______ ____
ROOT
ATOM      1  S   UNL     1      -1.780   2.492  -0.145  0.00  0.00    -0.075 S 
ATOM      2  N   UNL     1      -1.096   0.003  -0.009  0.00  0.00    -0.397 NA
ATOM      3  C   UNL     1       0.065   0.752  -0.047  0.00  0.00    +0.148 C 
ATOM      4  C   UNL     1      -0.106   2.120  -0.120  0.00  0.00    +0.126 C 
ATOM      5  C   UNL     1      -2.130   0.814  -0.055  0.00  0.00    +0.157 C 
ENDROOT
BRANCH   3  18
ATOM      6  N   UNL     1       2.420   0.959  -0.053  0.00  0.00    -0.405 NA
ATOM      7  N   UNL     1       2.718  -1.800   0.100  0.00  0.00    -0.265 NA
ATOM      8  C   UNL     1       4.838   1.355  -0.051  0.00  0.00    +0.048 C 
ATOM      9  C   UNL     1       5.165  -1.671   0.089  0.00  0.00    +0.037 C 
ATOM     10  C   UNL     1       6.159   0.623  -0.375  0.00  0.00    +0.007 C 
ATOM     11  C   UNL     1       6.300  -0.675   0.411  0.00  0.00    +0.006 C 
ATOM     12  C   UNL     1       3.656   0.396  -0.027  0.00  0.00    +0.121 C 
ATOM     13  C   UNL     1       3.805  -0.987   0.069  0.00  0.00    +0.079 C 
ATOM     14  C   UNL     1       4.933   2.044   1.326  0.00  0.00    +0.007 C 
ATOM     15  C   UNL     1       4.631   2.442  -1.127  0.00  0.00    +0.007 C 
ATOM     16  C   UNL     1       5.400  -2.325  -1.288  0.00  0.00    +0.006 C 
ATOM     17  C   UNL     1       5.196  -2.778   1.165  0.00  0.00    +0.006 C 
ATOM     18  C   UNL     1       1.358   0.137  -0.011  0.00  0.00    +0.159 C 
ATOM     19  C   UNL     1       1.504  -1.223   0.062  0.00  0.00    +0.186 C 
ENDBRANCH   3  18
BRANCH   5  20
ATOM     20  C   UNL     1      -3.511   0.396  -0.035  0.00  0.00    +0.036 C 
ATOM     21  C   UNL     1      -3.848  -0.913  -0.379  0.00  0.00    +0.003 C 
ATOM     22  C   UNL     1      -4.507   1.301   0.329  0.00  0.00    +0.003 C 
ATOM     23  C   UNL     1      -5.182  -1.317  -0.359  0.00  0.00    +0.007 C 
ATOM     24  C   UNL     1      -5.842   0.897   0.349  0.00  0.00    +0.007 C 
ATOM     25  C   UNL     1      -6.180  -0.412   0.006  0.00  0.00    +0.075 C 
BRANCH  25  27
ATOM     26  O   UNL     1      -7.982  -1.964  -0.257  0.00  0.00    -0.245 OA
ATOM     27  C   UNL     1      -7.571  -0.834   0.028  0.00  0.00    +0.338 C 
BRANCH  27  28
ATOM     28  O   UNL     1      -8.413   0.167   0.405  0.00  0.00    -0.477 OA
ATOM     29  H   UNL     1      -8.070   1.014   0.614  0.00  0.00    +0.295 HD
ENDBRANCH  27  28
ENDBRANCH  25  27
ENDBRANCH   5  20
TORSDOF 4
