REMARK  Name = 101712120
REMARK  4 active torsions:
REMARK  status: ('A' for Active; 'I' for Inactive)
REMARK    1  A    between atoms: C_9  and  O_20
REMARK    2  A    between atoms: C_12  and  C_22
REMARK    3  A    between atoms: C_22  and  O_23
REMARK    4  A    between atoms: O_23  and  C_26
REMARK                            x       y       z     vdW  Elec       q    Type
REMARK                         _______ _______ _______ _____ _____    ______ ____
ROOT
ATOM      1  N   UNL     1       0.953  -0.778  -1.026  0.00  0.00    -0.267 N 
ATOM      2  N   UNL     1       2.685   0.276   0.251  0.00  0.00    -0.292 N 
ATOM      3  N   UNL     1       1.379   2.064   0.737  0.00  0.00    -0.240 NA
ATOM      4  N   UNL     1      -0.632   0.955  -1.389  0.00  0.00    -0.240 NA
ATOM      5  N   UNL     1       0.243  -0.251  -3.175  0.00  0.00    -0.331 N 
ATOM      6  N   UNL     1       3.705   2.365   0.271  0.00  0.00    -0.331 N 
ATOM      7  C   UNL     1       1.381  -0.344   0.296  0.00  0.00    +0.167 C 
ATOM      8  C   UNL     1       0.531   0.820   0.838  0.00  0.00    +0.168 C 
ATOM      9  C   UNL     1       1.378  -1.640   1.101  0.00  0.00    +0.148 C 
ATOM     10  C   UNL     1       1.897  -2.649   0.077  0.00  0.00    +0.054 C 
ATOM     11  C   UNL     1       1.250  -2.195  -1.235  0.00  0.00    +0.097 C 
ATOM     12  C   UNL     1      -0.777   1.065   0.076  0.00  0.00    +0.175 C 
ATOM     13  C   UNL     1       0.154   0.014  -1.829  0.00  0.00    +0.179 C 
ATOM     14  C   UNL     1       2.576   1.621   0.437  0.00  0.00    +0.175 C 
ATOM     15  H   UNL     1       3.531  -0.205   0.105  0.00  0.00    +0.151 HD
ATOM     16  H   UNL     1       0.839  -0.964  -3.498  0.00  0.00    +0.145 HD
ATOM     17  H   UNL     1      -0.290   0.272  -3.816  0.00  0.00    +0.145 HD
ATOM     18  H   UNL     1       4.556   1.924   0.045  0.00  0.00    +0.145 HD
ATOM     19  H   UNL     1       3.671   3.343   0.377  0.00  0.00    +0.145 HD
ENDROOT
BRANCH   9  20
ATOM     20  O   UNL     1       2.195  -1.580   2.252  0.00  0.00    -0.381 OA
ATOM     21  H   UNL     1       1.831  -0.930   2.873  0.00  0.00    +0.210 HD
ENDBRANCH   9  20
BRANCH  12  22
ATOM     22  C   UNL     1      -1.891   0.118   0.525  0.00  0.00    +0.236 C 
BRANCH  22  23
ATOM     23  O   UNL     1      -3.134   0.685   0.158  0.00  0.00    -0.433 OA
BRANCH  23  26
ATOM     24  O   UNL     1      -4.241  -1.118   1.066  0.00  0.00    -0.227 OA
ATOM     25  N   UNL     1      -5.394   0.610   0.082  0.00  0.00    -0.295 N 
ATOM     26  C   UNL     1      -4.254  -0.037   0.487  0.00  0.00    +0.399 C 
ATOM     27  H   UNL     1      -5.331   1.478  -0.379  0.00  0.00    +0.148 HD
ATOM     28  H   UNL     1      -6.276   0.207   0.253  0.00  0.00    +0.148 HD
ENDBRANCH  23  26
ENDBRANCH  22  23
ENDBRANCH  12  22
TORSDOF 4
