REMARK  Name = 101758709
REMARK  6 active torsions:
REMARK  status: ('A' for Active; 'I' for Inactive)
REMARK    1  A    between atoms: C_3  and  C_16
REMARK    2  A    between atoms: C_12  and  O_26
REMARK    3  A    between atoms: C_13  and  O_28
REMARK    4  A    between atoms: C_14  and  O_30
REMARK    5  A    between atoms: C_19  and  C_23
REMARK    6  A    between atoms: C_23  and  O_24
REMARK                            x       y       z     vdW  Elec       q    Type
REMARK                         _______ _______ _______ _____ _____    ______ ____
ROOT
ATOM      1  O   UNL     1      -2.831   0.996  -0.341  0.00  0.00    -0.474 OA
ATOM      2  O   UNL     1      -1.196   5.403  -0.362  0.00  0.00    -0.288 OA
ATOM      3  C   UNL     1      -0.190   0.070   0.272  0.00  0.00    +0.003 C 
ATOM      4  C   UNL     1      -1.340  -0.857   0.113  0.00  0.00    +0.025 C 
ATOM      5  C   UNL     1      -0.426   1.402   0.116  0.00  0.00    +0.033 C 
ATOM      6  C   UNL     1      -2.603  -0.344  -0.186  0.00  0.00    +0.213 C 
ATOM      7  C   UNL     1      -1.778   1.888  -0.199  0.00  0.00    +0.125 C 
ATOM      8  C   UNL     1      -1.209  -2.249   0.252  0.00  0.00    +0.039 C 
ATOM      9  C   UNL     1       0.638   2.408   0.252  0.00  0.00    +0.042 C 
ATOM     10  C   UNL     1      -3.709  -1.185  -0.344  0.00  0.00    +0.061 C 
ATOM     11  C   UNL     1      -2.029   3.196  -0.355  0.00  0.00    +0.136 C 
ATOM     12  C   UNL     1      -2.312  -3.093   0.095  0.00  0.00    +0.167 C 
ATOM     13  C   UNL     1      -3.562  -2.561  -0.202  0.00  0.00    +0.167 C 
ATOM     14  C   UNL     1       0.411   3.722   0.100  0.00  0.00    +0.169 C 
ATOM     15  C   UNL     1      -0.956   4.209  -0.218  0.00  0.00    +0.214 C 
ENDROOT
BRANCH   3  16
ATOM     16  C   UNL     1       1.165  -0.396   0.586  0.00  0.00    +0.000 C 
ATOM     17  C   UNL     1       2.050  -0.713  -0.445  0.00  0.00    +0.006 C 
ATOM     18  C   UNL     1       1.569  -0.522   1.915  0.00  0.00    -0.000 C 
ATOM     19  C   UNL     1       3.338  -1.156  -0.147  0.00  0.00    +0.075 C 
ATOM     20  C   UNL     1       2.858  -0.965   2.213  0.00  0.00    +0.000 C 
ATOM     21  C   UNL     1       3.743  -1.282   1.182  0.00  0.00    +0.006 C 
BRANCH  19  23
ATOM     22  O   UNL     1       4.008  -1.413  -2.429  0.00  0.00    -0.245 OA
ATOM     23  C   UNL     1       4.260  -1.488  -1.222  0.00  0.00    +0.338 C 
BRANCH  23  24
ATOM     24  O   UNL     1       5.471  -1.903  -0.760  0.00  0.00    -0.477 OA
ATOM     25  H   UNL     1       5.630  -1.949   0.162  0.00  0.00    +0.295 HD
ENDBRANCH  23  24
ENDBRANCH  19  23
ENDBRANCH   3  16
BRANCH  12  26
ATOM     26  O   UNL     1      -2.149  -4.439   0.238  0.00  0.00    -0.503 OA
ATOM     27  H   UNL     1      -1.304  -4.790   0.438  0.00  0.00    +0.292 HD
ENDBRANCH  12  26
BRANCH  13  28
ATOM     28  O   UNL     1      -4.645  -3.372  -0.357  0.00  0.00    -0.503 OA
ATOM     29  H   UNL     1      -5.483  -3.002  -0.557  0.00  0.00    +0.292 HD
ENDBRANCH  13  28
BRANCH  14  30
ATOM     30  O   UNL     1       1.427   4.644   0.233  0.00  0.00    -0.503 OA
ATOM     31  H   UNL     1       2.296   4.357   0.433  0.00  0.00    +0.292 HD
ENDBRANCH  14  30
TORSDOF 6
