REMARK  Name = 101744249
REMARK  9 active torsions:
REMARK  status: ('A' for Active; 'I' for Inactive)
REMARK    1  A    between atoms: C_2  and  N_19
REMARK    2  A    between atoms: C_3  and  O_30
REMARK    3  A    between atoms: C_4  and  C_32
REMARK    4  A    between atoms: C_5  and  N_6
REMARK    5  A    between atoms: C_20  and  C_22
REMARK    6  A    between atoms: C_22  and  N_23
REMARK    7  A    between atoms: C_22  and  C_27
REMARK    8  A    between atoms: C_27  and  S_28
REMARK    9  A    between atoms: C_32  and  O_33
REMARK                            x       y       z     vdW  Elec       q    Type
REMARK                         _______ _______ _______ _____ _____    ______ ____
ROOT
ATOM      1  O   UNL     1      -0.650   1.372  -0.852  0.00  0.00    -0.334 OA
ATOM      2  C   UNL     1      -2.032   0.813   1.008  0.00  0.00    +0.132 C 
ATOM      3  C   UNL     1      -0.617   0.330   1.273  0.00  0.00    +0.178 C 
ATOM      4  C   UNL     1      -1.822   1.808  -0.131  0.00  0.00    +0.167 C 
ATOM      5  C   UNL     1      -0.018   0.298  -0.128  0.00  0.00    +0.224 C 
ENDROOT
BRANCH   5   6
ATOM      6  N   UNL     1       1.485   0.443  -0.133  0.00  0.00    -0.247 N 
ATOM      7  N   UNL     1       3.484   1.431  -0.153  0.00  0.00    -0.242 NA
ATOM      8  N   UNL     1       2.172  -1.887  -0.093  0.00  0.00    -0.228 NA
ATOM      9  N   UNL     1       6.055  -0.192  -0.128  0.00  0.00    -0.289 N 
ATOM     10  N   UNL     1       4.604  -2.094  -0.093  0.00  0.00    -0.228 NA
ATOM     11  C   UNL     1       2.406  -0.566  -0.117  0.00  0.00    +0.152 C 
ATOM     12  C   UNL     1       2.181   1.623  -0.154  0.00  0.00    +0.223 C 
ATOM     13  C   UNL     1       3.638   0.067  -0.129  0.00  0.00    +0.140 C 
ATOM     14  C   UNL     1       4.765  -0.749  -0.117  0.00  0.00    +0.149 C 
ATOM     15  C   UNL     1       3.336  -2.572  -0.083  0.00  0.00    +0.253 C 
ATOM     16  C   UNL     1       7.229  -1.046  -0.107  0.00  0.00    +0.114 C 
ATOM     17  C   UNL     1       6.238   1.248  -0.152  0.00  0.00    +0.114 C 
ENDBRANCH   5   6
BRANCH   2  19
ATOM     18  O   UNL     1      -4.875   0.695   1.361  0.00  0.00    -0.277 OA
ATOM     19  N   UNL     1      -2.907  -0.262   0.594  0.00  0.00    -0.303 N 
ATOM     20  C   UNL     1      -4.275  -0.226   0.810  0.00  0.00    +0.203 C 
ATOM     21  H   UNL     1      -2.517  -1.045   0.143  0.00  0.00    +0.149 HD
BRANCH  20  22
ATOM     22  C   UNL     1      -4.975  -1.488   0.313  0.00  0.00    +0.024 C 
BRANCH  22  23
ATOM     23  N   UNL     1      -5.533  -2.123   1.510  0.00  0.00    +0.388 N 
ATOM     24  H   UNL     1      -4.782  -2.326   2.169  0.00  0.00    -0.089 HD
ATOM     25  H   UNL     1      -6.000  -2.991   1.248  0.00  0.00    -0.089 HD
ATOM     26  H   UNL     1      -6.207  -1.493   1.945  0.00  0.00    -0.089 HD
ENDBRANCH  22  23
BRANCH  22  27
ATOM     27  C   UNL     1      -6.109  -1.188  -0.669  0.00  0.00    +0.045 C 
BRANCH  27  28
ATOM     28  S   UNL     1      -5.489  -0.337  -2.156  0.00  0.00    -0.141 S 
ATOM     29  C   UNL     1      -4.765  -1.768  -2.987  0.00  0.00    +0.069 C 
ENDBRANCH  27  28
ENDBRANCH  22  27
ENDBRANCH  20  22
ENDBRANCH   2  19
BRANCH   3  30
ATOM     30  O   UNL     1      -0.563  -0.933   1.905  0.00  0.00    -0.379 OA
ATOM     31  H   UNL     1      -0.953  -0.869   2.791  0.00  0.00    +0.211 HD
ENDBRANCH   3  30
BRANCH   4  32
ATOM     32  C   UNL     1      -1.578   3.228   0.364  0.00  0.00    +0.168 C 
BRANCH  32  33
ATOM     33  O   UNL     1      -1.385   4.072  -0.757  0.00  0.00    -0.379 OA
ATOM     34  H   UNL     1      -1.229   4.980  -0.455  0.00  0.00    +0.211 HD
ENDBRANCH  32  33
ENDBRANCH   4  32
TORSDOF 9
