REMARK  Name = 101700650
REMARK  10 active torsions:
REMARK  status: ('A' for Active; 'I' for Inactive)
REMARK    1  A    between atoms: C_4  and  C_21
REMARK    2  A    between atoms: C_7  and  S_25
REMARK    3  A    between atoms: C_8  and  C_11
REMARK    4  A    between atoms: C_11  and  O_12
REMARK    5  A    between atoms: O_12  and  C_13
REMARK    6  A    between atoms: C_13  and  O_14
REMARK    7  A    between atoms: O_14  and  C_16
REMARK    8  A    between atoms: C_16  and  C_17
REMARK    9  A    between atoms: C_21  and  O_23
REMARK   10  A    between atoms: S_25  and  C_28
REMARK                            x       y       z     vdW  Elec       q    Type
REMARK                         _______ _______ _______ _____ _____    ______ ____
ROOT
ATOM      1  O   UNL     1      -1.954   1.471  -0.906  0.00  0.00    -0.274 OA
ATOM      2  N   UNL     1      -0.485   1.959   0.875  0.00  0.00    -0.254 N 
ATOM      3  C   UNL     1       0.482   3.063   0.713  0.00  0.00    +0.095 C 
ATOM      4  C   UNL     1      -0.203   3.323  -0.673  0.00  0.00    +0.123 C 
ATOM      5  C   UNL     1       1.855   2.398   0.950  0.00  0.00    +0.049 C 
ATOM      6  C   UNL     1      -1.110   2.116  -0.326  0.00  0.00    +0.233 C 
ATOM      7  C   UNL     1       1.467   1.003   1.410  0.00  0.00    +0.024 C 
ATOM      8  C   UNL     1       0.142   0.828   1.313  0.00  0.00    +0.132 C 
ATOM      9  C   UNL     1       2.639   3.196   1.990  0.00  0.00    +0.007 C 
ENDROOT
BRANCH   8  11
ATOM     10  O   UNL     1      -0.182  -1.519   1.346  0.00  0.00    -0.243 OA
ATOM     11  C   UNL     1      -0.625  -0.399   1.543  0.00  0.00    +0.358 C 
BRANCH  11  12
ATOM     12  O   UNL     1      -1.859  -0.060   1.995  0.00  0.00    -0.404 OA
BRANCH  12  13
ATOM     13  C   UNL     1      -2.750  -1.152   2.277  0.00  0.00    +0.433 C 
BRANCH  13  14
ATOM     14  O   UNL     1      -3.359  -1.711   1.101  0.00  0.00    -0.408 OA
BRANCH  14  16
ATOM     15  O   UNL     1      -4.381   0.298   0.641  0.00  0.00    -0.250 OA
ATOM     16  C   UNL     1      -4.155  -0.875   0.370  0.00  0.00    +0.319 C 
BRANCH  16  17
ATOM     17  C   UNL     1      -4.738  -1.613  -0.838  0.00  0.00    +0.090 C 
ATOM     18  C   UNL     1      -5.578  -2.805  -0.357  0.00  0.00    +0.011 C 
ATOM     19  C   UNL     1      -5.602  -0.645  -1.657  0.00  0.00    +0.011 C 
ATOM     20  C   UNL     1      -3.594  -2.134  -1.723  0.00  0.00    +0.011 C 
ENDBRANCH  16  17
ENDBRANCH  14  16
ENDBRANCH  13  14
ENDBRANCH  12  13
ENDBRANCH  11  12
ENDBRANCH   8  11
BRANCH   4  21
ATOM     21  C   UNL     1       0.624   3.170  -1.934  0.00  0.00    +0.121 C 
ATOM     22  C   UNL     1      -0.203   3.496  -3.171  0.00  0.00    +0.032 C 
BRANCH  21  23
ATOM     23  O   UNL     1       1.744   4.051  -1.885  0.00  0.00    -0.384 OA
ATOM     24  H   UNL     1       2.278   3.852  -1.100  0.00  0.00    +0.210 HD
ENDBRANCH  21  23
ENDBRANCH   4  21
BRANCH   7  25
ATOM     25  S   UNL     1       2.627  -0.193   1.833  0.00  0.00    -0.115 S 
BRANCH  25  28
ATOM     26  N   UNL     1       3.139  -2.007  -1.036  0.00  0.00    -0.273 N 
ATOM     27  N   UNL     1       4.465  -3.668  -0.430  0.00  0.00    -0.232 NA
ATOM     28  C   UNL     1       3.663  -0.185   0.321  0.00  0.00    +0.079 C 
ATOM     29  C   UNL     1       2.821  -0.599  -0.911  0.00  0.00    +0.108 C 
ATOM     30  C   UNL     1       4.800  -1.246   0.432  0.00  0.00    +0.074 C 
ATOM     31  C   UNL     1       4.220  -2.389  -0.304  0.00  0.00    +0.113 C 
ATOM     32  C   UNL     1       2.624  -3.071  -1.672  0.00  0.00    +0.087 C 
ATOM     33  C   UNL     1       3.466  -4.102  -1.288  0.00  0.00    +0.116 C 
ENDBRANCH  25  28
ENDBRANCH   7  25
TORSDOF 10
