REMARK  Name = 10172827
REMARK  5 active torsions:
REMARK  status: ('A' for Active; 'I' for Inactive)
REMARK    1  A    between atoms: C_6  and  O_23
REMARK    2  A    between atoms: C_7  and  O_25
REMARK    3  A    between atoms: C_20  and  O_27
REMARK    4  A    between atoms: C_21  and  N_29
REMARK    5  A    between atoms: N_29  and  C_31
REMARK                            x       y       z     vdW  Elec       q    Type
REMARK                         _______ _______ _______ _____ _____    ______ ____
ROOT
ATOM      1  O   UNL     1      -0.359  -1.972   0.652  0.00  0.00    -0.449 OA
ATOM      2  O   UNL     1      -3.966   0.772   0.627  0.00  0.00    -0.289 OA
ATOM      3  O   UNL     1       0.024  -2.171  -1.618  0.00  0.00    -0.245 OA
ATOM      4  C   UNL     1      -2.804  -2.093   0.530  0.00  0.00    +0.062 C 
ATOM      5  C   UNL     1      -1.481  -2.895   0.654  0.00  0.00    +0.173 C 
ATOM      6  C   UNL     1      -2.476   3.213   0.063  0.00  0.00    +0.149 C 
ATOM      7  C   UNL     1      -2.794   2.143  -0.991  0.00  0.00    +0.199 C 
ATOM      8  C   UNL     1      -2.985  -1.595  -0.888  0.00  0.00    -0.020 C 
ATOM      9  C   UNL     1      -4.041  -2.918   0.897  0.00  0.00    +0.008 C 
ATOM     10  C   UNL     1      -1.499   2.772   1.163  0.00  0.00    +0.058 C 
ATOM     11  C   UNL     1      -1.359  -3.662   1.969  0.00  0.00    +0.048 C 
ATOM     12  C   UNL     1      -3.373   0.843  -0.445  0.00  0.00    +0.202 C 
ATOM     13  C   UNL     1      -3.212  -0.348  -1.323  0.00  0.00    +0.036 C 
ATOM     14  C   UNL     1       1.478  -0.899  -0.234  0.00  0.00    +0.109 C 
ATOM     15  C   UNL     1       1.426   0.345   0.425  0.00  0.00    +0.010 C 
ATOM     16  C   UNL     1      -0.221   2.184   0.641  0.00  0.00    -0.024 C 
ATOM     17  C   UNL     1       0.292  -1.736  -0.511  0.00  0.00    +0.344 C 
ATOM     18  C   UNL     1       0.177   0.935   0.928  0.00  0.00    -0.004 C 
ATOM     19  C   UNL     1       2.632   1.043   0.619  0.00  0.00    +0.015 C 
ATOM     20  C   UNL     1       2.697  -1.401  -0.713  0.00  0.00    +0.141 C 
ATOM     21  C   UNL     1       3.845   0.533   0.152  0.00  0.00    +0.048 C 
ATOM     22  C   UNL     1       3.877  -0.686  -0.517  0.00  0.00    +0.051 C 
ENDROOT
BRANCH   6  23
ATOM     23  O   UNL     1      -3.680   3.673   0.683  0.00  0.00    -0.381 OA
ATOM     24  H   UNL     1      -4.308   3.955  -0.001  0.00  0.00    +0.210 HD
ENDBRANCH   6  23
BRANCH   7  25
ATOM     25  O   UNL     1      -3.739   2.680  -1.908  0.00  0.00    -0.375 OA
ATOM     26  H   UNL     1      -3.398   3.512  -2.273  0.00  0.00    +0.211 HD
ENDBRANCH   7  25
BRANCH  20  27
ATOM     27  O   UNL     1       2.779  -2.602  -1.355  0.00  0.00    -0.505 OA
ATOM     28  H   UNL     1       2.004  -3.108  -1.503  0.00  0.00    +0.292 HD
ENDBRANCH  20  27
BRANCH  21  29
ATOM     29  N   UNL     1       5.039   1.256   0.357  0.00  0.00    -0.333 N 
ATOM     30  H   UNL     1       4.992   2.117   0.832  0.00  0.00    +0.147 HD
BRANCH  29  31
ATOM     31  C   UNL     1       6.314   0.793  -0.094  0.00  0.00    +0.087 C 
ATOM     32  C   UNL     1       7.410   1.792   0.237  0.00  0.00    +0.023 C 
ENDBRANCH  29  31
ENDBRANCH  21  29
TORSDOF 5
