101790888
  -OEChem-03292013293D

 62 70  0     1  0  0  0  0  0999 V2000
   -1.1098    0.2144    1.8116 O   0  0  0  0  0  0  0  0  0  0  0  0
   -1.0401   -1.9964    1.3913 O   0  0  0  0  0  0  0  0  0  0  0  0
   -2.2578   -0.1625   -2.8325 O   0  0  0  0  0  0  0  0  0  0  0  0
    2.3743    1.5468    1.4759 O   0  0  0  0  0  0  0  0  0  0  0  0
   -3.3803    2.0009    0.6588 O   0  0  0  0  0  0  0  0  0  0  0  0
   -3.3669   -2.1390    1.0054 O   0  0  0  0  0  0  0  0  0  0  0  0
   -2.5133    2.8738   -1.2679 O   0  0  0  0  0  0  0  0  0  0  0  0
    4.7548   -0.3745    0.0274 O   0  0  0  0  0  0  0  0  0  0  0  0
    4.7926   -2.6239   -0.1792 O   0  0  0  0  0  0  0  0  0  0  0  0
   -1.7852    0.6871   -0.4843 C   0  0  2  0  0  0  0  0  0  0  0  0
   -2.2833   -0.3827   -1.4277 C   0  0  2  0  0  0  0  0  0  0  0  0
   -1.7676   -1.6875   -0.8794 C   0  0  2  0  0  0  0  0  0  0  0  0
   -0.2128    0.8516   -0.5847 C   0  0  2  0  0  0  0  0  0  0  0  0
   -2.1631    0.0199    0.8713 C   0  0  1  0  0  0  0  0  0  0  0  0
    0.4030   -0.5280   -0.0208 C   0  0  2  0  0  0  0  0  0  0  0  0
   -2.1570   -1.5216    0.6263 C   0  0  2  0  0  0  0  0  0  0  0  0
   -0.1957   -1.6744   -0.9506 C   0  0  0  0  0  0  0  0  0  0  0  0
   -0.1975   -0.8294    1.4574 C   0  0  1  0  0  0  0  0  0  0  0  0
   -3.5614   -0.2462   -2.2368 C   0  0  0  0  0  0  0  0  0  0  0  0
    0.3152    2.0675    0.2389 C   0  0  0  0  0  0  0  0  0  0  0  0
    1.9496   -0.4851   -0.0154 C   0  0  0  0  0  0  0  0  0  0  0  0
   -3.4615    0.6954    1.2569 C   0  0  1  0  0  0  0  0  0  0  0  0
    2.6297    0.8122    0.2636 C   0  0  1  0  0  0  0  0  0  0  0  0
    1.8069    2.0921    0.2856 C   0  0  2  0  0  0  0  0  0  0  0  0
   -2.5716    1.9728   -0.4447 C   0  0  0  0  0  0  0  0  0  0  0  0
   -2.2942   -2.9532   -1.5471 C   0  0  0  0  0  0  0  0  0  0  0  0
    0.2174    1.1526   -2.0566 C   0  0  0  0  0  0  0  0  0  0  0  0
    0.7697   -1.0574    2.6076 C   0  0  0  0  0  0  0  0  0  0  0  0
    4.0756    0.8912   -0.2205 C   0  0  0  0  0  0  0  0  0  0  0  0
   -3.6881    0.8466    2.7506 C   0  0  0  0  0  0  0  0  0  0  0  0
    2.6869   -1.5900   -0.2293 C   0  0  0  0  0  0  0  0  0  0  0  0
    4.9247    1.9363    0.5185 C   0  0  0  0  0  0  0  0  0  0  0  0
    4.1510    1.1666   -1.7300 C   0  0  0  0  0  0  0  0  0  0  0  0
    4.1560   -1.5762   -0.1398 C   0  0  0  0  0  0  0  0  0  0  0  0
    0.1475   -1.5793   -1.9859 H   0  0  0  0  0  0  0  0  0  0  0  0
    0.1638   -2.6554   -0.6127 H   0  0  0  0  0  0  0  0  0  0  0  0
   -4.1546   -1.1212   -2.4639 H   0  0  0  0  0  0  0  0  0  0  0  0
   -4.1393    0.6668   -2.1834 H   0  0  0  0  0  0  0  0  0  0  0  0
   -0.0751    2.1163    1.2580 H   0  0  0  0  0  0  0  0  0  0  0  0
   -0.0200    3.0013   -0.2307 H   0  0  0  0  0  0  0  0  0  0  0  0
   -4.3307    0.2056    0.8026 H   0  0  0  0  0  0  0  0  0  0  0  0
    2.2260    3.0127   -0.0965 H   0  0  0  0  0  0  0  0  0  0  0  0
   -3.3847   -3.0240   -1.4863 H   0  0  0  0  0  0  0  0  0  0  0  0
   -1.8838   -3.8492   -1.0686 H   0  0  0  0  0  0  0  0  0  0  0  0
   -2.0213   -2.9822   -2.6076 H   0  0  0  0  0  0  0  0  0  0  0  0
   -0.3242    2.0198   -2.4498 H   0  0  0  0  0  0  0  0  0  0  0  0
    0.0503    0.3280   -2.7488 H   0  0  0  0  0  0  0  0  0  0  0  0
    1.2813    1.3871   -2.1415 H   0  0  0  0  0  0  0  0  0  0  0  0
    0.2128   -1.3172    3.5168 H   0  0  0  0  0  0  0  0  0  0  0  0
    1.3451   -0.1644    2.8545 H   0  0  0  0  0  0  0  0  0  0  0  0
    1.4454   -1.8953    2.4122 H   0  0  0  0  0  0  0  0  0  0  0  0
   -3.6147   -1.8096    1.8839 H   0  0  0  0  0  0  0  0  0  0  0  0
   -2.9248    1.4863    3.2070 H   0  0  0  0  0  0  0  0  0  0  0  0
   -3.6931   -0.1188    3.2633 H   0  0  0  0  0  0  0  0  0  0  0  0
   -4.6481    1.3413    2.9351 H   0  0  0  0  0  0  0  0  0  0  0  0
    2.2488   -2.5631   -0.4102 H   0  0  0  0  0  0  0  0  0  0  0  0
    5.9644    1.9091    0.1713 H   0  0  0  0  0  0  0  0  0  0  0  0
    4.9586    1.7250    1.5937 H   0  0  0  0  0  0  0  0  0  0  0  0
    4.5465    2.9536    0.3787 H   0  0  0  0  0  0  0  0  0  0  0  0
    5.1896    1.1422   -2.0797 H   0  0  0  0  0  0  0  0  0  0  0  0
    3.7231    2.1417   -1.9842 H   0  0  0  0  0  0  0  0  0  0  0  0
    3.6160    0.4037   -2.3060 H   0  0  0  0  0  0  0  0  0  0  0  0
  1 14  1  0  0  0  0
  1 18  1  0  0  0  0
  2 16  1  0  0  0  0
  2 18  1  0  0  0  0
  3 11  1  0  0  0  0
  3 19  1  0  0  0  0
  4 23  1  0  0  0  0
  4 24  1  0  0  0  0
  5 22  1  0  0  0  0
  5 25  1  0  0  0  0
  6 16  1  0  0  0  0
  6 52  1  0  0  0  0
  7 25  2  0  0  0  0
  8 29  1  0  0  0  0
  8 34  1  0  0  0  0
  9 34  2  0  0  0  0
 10 11  1  0  0  0  0
 10 13  1  0  0  0  0
 10 14  1  0  0  0  0
 10 25  1  0  0  0  0
 11 12  1  0  0  0  0
 11 19  1  0  0  0  0
 12 16  1  0  0  0  0
 12 17  1  0  0  0  0
 12 26  1  0  0  0  0
 13 15  1  0  0  0  0
 13 20  1  0  0  0  0
 13 27  1  0  0  0  0
 14 16  1  0  0  0  0
 14 22  1  0  0  0  0
 15 17  1  0  0  0  0
 15 18  1  0  0  0  0
 15 21  1  0  0  0  0
 17 35  1  0  0  0  0
 17 36  1  0  0  0  0
 18 28  1  0  0  0  0
 19 37  1  0  0  0  0
 19 38  1  0  0  0  0
 20 24  1  0  0  0  0
 20 39  1  0  0  0  0
 20 40  1  0  0  0  0
 21 23  1  0  0  0  0
 21 31  2  0  0  0  0
 22 30  1  0  0  0  0
 22 41  1  0  0  0  0
 23 24  1  0  0  0  0
 23 29  1  0  0  0  0
 24 42  1  0  0  0  0
 26 43  1  0  0  0  0
 26 44  1  0  0  0  0
 26 45  1  0  0  0  0
 27 46  1  0  0  0  0
 27 47  1  0  0  0  0
 27 48  1  0  0  0  0
 28 49  1  0  0  0  0
 28 50  1  0  0  0  0
 28 51  1  0  0  0  0
 29 32  1  0  0  0  0
 29 33  1  0  0  0  0
 30 53  1  0  0  0  0
 30 54  1  0  0  0  0
 30 55  1  0  0  0  0
 31 34  1  0  0  0  0
 31 56  1  0  0  0  0
 32 57  1  0  0  0  0
 32 58  1  0  0  0  0
 32 59  1  0  0  0  0
 33 60  1  0  0  0  0
 33 61  1  0  0  0  0
 33 62  1  0  0  0  0
M  END
> <PUBCHEM_COMPOUND_CID>
101790888

> <PUBCHEM_CONFORMER_RMSD>
0.8

> <PUBCHEM_CONFORMER_DIVERSEORDER>
1

> <PUBCHEM_MMFF94_PARTIAL_CHARGES>
31
1 -0.56
10 0.16
11 -0.04
12 0.09
14 0.28
15 0.14
16 0.56
18 0.56
19 -0.05
2 -0.56
20 0.09
21 -0.18
22 0.28
23 0.09
24 -0.05
25 0.66
29 0.38
3 -0.3
31 -0.14
34 0.71
37 0.1
38 0.1
4 -0.3
42 0.1
5 -0.43
52 0.4
56 0.15
6 -0.68
7 -0.57
8 -0.43
9 -0.57

> <PUBCHEM_EFFECTIVE_ROTOR_COUNT>
2.2

> <PUBCHEM_PHARMACOPHORE_FEATURES>
13
1 1 acceptor
1 2 acceptor
1 3 acceptor
1 4 acceptor
1 6 acceptor
1 6 donor
1 7 acceptor
1 9 acceptor
11 1 2 10 11 12 13 14 15 16 17 18 rings
3 29 32 33 hydrophobe
5 5 10 14 22 25 rings
6 8 21 23 29 31 34 rings
7 4 13 15 20 21 23 24 rings

> <PUBCHEM_HEAVY_ATOM_COUNT>
34

> <PUBCHEM_ATOM_DEF_STEREO_COUNT>
11

> <PUBCHEM_ATOM_UDEF_STEREO_COUNT>
0

> <PUBCHEM_BOND_DEF_STEREO_COUNT>
0

> <PUBCHEM_BOND_UDEF_STEREO_COUNT>
0

> <PUBCHEM_ISOTOPIC_ATOM_COUNT>
0

> <PUBCHEM_COMPONENT_COUNT>
1

> <PUBCHEM_CACTVS_TAUTO_COUNT>
1

> <PUBCHEM_CONFORMER_ID>
061134A800000001

> <PUBCHEM_MMFF94_ENERGY>
168.0887

> <PUBCHEM_FEATURE_SELFOVERLAP>
66.157

> <PUBCHEM_SHAPE_FINGERPRINT>
10369192 42 17245020312672643740
10863032 1 18202286913364458226
10948715 1 18194120720678690357
1100329 8 16246877690661075136
11135926 11 18334580136409729006
11578080 2 17059189579496003376
12403814 3 18342744018071002539
12422481 6 18197246744185377843
12633257 1 17988366953641122348
12714826 92 16630242618689712159
13140716 1 18340772550778216330
13224815 77 18260831544447529636
13583140 156 17988919024437498024
13911987 19 17328011587027380828
16945 1 18196360635885117061
17349148 13 17896869045047377836
1813 80 17023477441909987436
18393751 57 17619898900762664536
19930381 70 17550937522129402424
20691752 17 17240204331024625882
20775530 9 16123558098377202854
21033648 29 18262513693695491297
23419403 2 16670494859373277523
23559900 14 18113616756200605018
350125 39 18202285827175738067
4340502 62 15286184070769552437
460360 51 17895178979589991810
5104073 3 18413670214902613890

> <PUBCHEM_SHAPE_MULTIPOLES>
646.88
7.95
2.78
2.25
8.03
0.41
-0.13
-0.45
0.14
-0.12
0.3
-2.06
-0.02
-0.49

> <PUBCHEM_SHAPE_SELFOVERLAP>
1501.843

> <PUBCHEM_SHAPE_VOLUME>
331.2

> <PUBCHEM_COORDINATE_TYPE>
2
5
10

$$$$
