REMARK  Name = 101790888
REMARK  1 active torsions:
REMARK  status: ('A' for Active; 'I' for Inactive)
REMARK    1  A    between atoms: C_15  and  O_34
REMARK                            x       y       z     vdW  Elec       q    Type
REMARK                         _______ _______ _______ _____ _____    ______ ____
ROOT
ATOM      1  O   UNL     1      -1.110   0.214   1.812  0.00  0.00    -0.330 OA
ATOM      2  O   UNL     1      -1.040  -1.996   1.391  0.00  0.00    -0.312 OA
ATOM      3  O   UNL     1      -2.258  -0.163  -2.833  0.00  0.00    -0.353 OA
ATOM      4  O   UNL     1       2.374   1.547   1.476  0.00  0.00    -0.349 OA
ATOM      5  O   UNL     1      -3.380   2.001   0.659  0.00  0.00    -0.450 OA
ATOM      6  O   UNL     1      -2.513   2.874  -1.268  0.00  0.00    -0.250 OA
ATOM      7  O   UNL     1       4.755  -0.374   0.027  0.00  0.00    -0.450 OA
ATOM      8  O   UNL     1       4.793  -2.624  -0.179  0.00  0.00    -0.245 OA
ATOM      9  C   UNL     1      -1.785   0.687  -0.484  0.00  0.00    +0.146 C 
ATOM     10  C   UNL     1      -2.283  -0.383  -1.428  0.00  0.00    +0.136 C 
ATOM     11  C   UNL     1      -1.768  -1.688  -0.879  0.00  0.00    +0.076 C 
ATOM     12  C   UNL     1      -0.213   0.852  -0.585  0.00  0.00    +0.024 C 
ATOM     13  C   UNL     1      -2.163   0.020   0.871  0.00  0.00    +0.189 C 
ATOM     14  C   UNL     1       0.403  -0.528  -0.021  0.00  0.00    +0.066 C 
ATOM     15  C   UNL     1      -2.157  -1.522   0.626  0.00  0.00    +0.215 C 
ATOM     16  C   UNL     1      -0.196  -1.674  -0.951  0.00  0.00    +0.016 C 
ATOM     17  C   UNL     1      -0.198  -0.829   1.457  0.00  0.00    +0.193 C 
ATOM     18  C   UNL     1      -3.561  -0.246  -2.237  0.00  0.00    +0.170 C 
ATOM     19  C   UNL     1       0.315   2.067   0.239  0.00  0.00    +0.034 C 
ATOM     20  C   UNL     1       1.950  -0.485  -0.015  0.00  0.00    -0.004 C 
ATOM     21  C   UNL     1      -3.462   0.695   1.257  0.00  0.00    +0.199 C 
ATOM     22  C   UNL     1       2.630   0.812   0.264  0.00  0.00    +0.166 C 
ATOM     23  C   UNL     1       1.807   2.092   0.286  0.00  0.00    +0.147 C 
ATOM     24  C   UNL     1      -2.572   1.973  -0.445  0.00  0.00    +0.321 C 
ATOM     25  C   UNL     1      -2.294  -2.953  -1.547  0.00  0.00    +0.007 C 
ATOM     26  C   UNL     1       0.217   1.153  -2.057  0.00  0.00    +0.001 C 
ATOM     27  C   UNL     1       0.770  -1.057   2.608  0.00  0.00    +0.062 C 
ATOM     28  C   UNL     1       4.076   0.891  -0.221  0.00  0.00    +0.164 C 
ATOM     29  C   UNL     1      -3.688   0.847   2.751  0.00  0.00    +0.050 C 
ATOM     30  C   UNL     1       2.687  -1.590  -0.229  0.00  0.00    +0.076 C 
ATOM     31  C   UNL     1       4.925   1.936   0.518  0.00  0.00    +0.047 C 
ATOM     32  C   UNL     1       4.151   1.167  -1.730  0.00  0.00    +0.047 C 
ATOM     33  C   UNL     1       4.156  -1.576  -0.140  0.00  0.00    +0.341 C 
ENDROOT
BRANCH  15  34
ATOM     34  O   UNL     1      -3.367  -2.139   1.005  0.00  0.00    -0.362 OA
ATOM     35  H   UNL     1      -3.311  -3.092   0.834  0.00  0.00    +0.213 HD
ENDBRANCH  15  34
TORSDOF 1
