101794623
  -OEChem-03292013293D

 40 41  0     1  0  0  0  0  0999 V2000
   -2.0006   -0.7395    1.0493 O   0  0  0  0  0  0  0  0  0  0  0  0
   -0.7484    0.5864   -0.4689 O   0  0  0  0  0  0  0  0  0  0  0  0
   -4.9797    1.3646   -0.9254 O   0  0  0  0  0  0  0  0  0  0  0  0
   -4.6858   -1.4381   -1.3778 O   0  0  0  0  0  0  0  0  0  0  0  0
   -3.6341    1.5817    1.5010 O   0  0  0  0  0  0  0  0  0  0  0  0
    5.1189   -0.8211   -1.4169 O   0  0  0  0  0  0  0  0  0  0  0  0
    6.9186   -0.5394   -0.0154 N   0  0  0  0  0  0  0  0  0  0  0  0
   -3.7485    0.6697   -0.7408 C   0  0  2  0  0  0  0  0  0  0  0  0
   -4.0412   -0.7648   -0.2993 C   0  0  2  0  0  0  0  0  0  0  0  0
   -2.8902    1.3972    0.2955 C   0  0  2  0  0  0  0  0  0  0  0  0
   -2.7340   -1.4804    0.0687 C   0  0  2  0  0  0  0  0  0  0  0  0
   -1.6430    0.5844    0.6382 C   0  0  1  0  0  0  0  0  0  0  0  0
   -2.9865   -2.8668    0.6546 C   0  0  0  0  0  0  0  0  0  0  0  0
    0.5883    0.5113   -0.1804 C   0  0  0  0  0  0  0  0  0  0  0  0
    1.4468    1.5350   -0.5816 C   0  0  0  0  0  0  0  0  0  0  0  0
    1.0914   -0.5890    0.5137 C   0  0  0  0  0  0  0  0  0  0  0  0
    3.3115    0.3579    0.4056 C   0  0  0  0  0  0  0  0  0  0  0  0
    2.8083    1.4582   -0.2886 C   0  0  0  0  0  0  0  0  0  0  0  0
    2.4530   -0.6658    0.8066 C   0  0  0  0  0  0  0  0  0  0  0  0
    4.7669    0.2752    0.7190 C   0  0  0  0  0  0  0  0  0  0  0  0
    5.5882   -0.4169   -0.3569 C   0  0  0  0  0  0  0  0  0  0  0  0
   -3.2399    0.6608   -1.7129 H   0  0  0  0  0  0  0  0  0  0  0  0
   -4.7378   -0.7593    0.5473 H   0  0  0  0  0  0  0  0  0  0  0  0
   -2.6264    2.3911   -0.0840 H   0  0  0  0  0  0  0  0  0  0  0  0
   -2.1073   -1.6117   -0.8229 H   0  0  0  0  0  0  0  0  0  0  0  0
   -1.1578    1.0518    1.5058 H   0  0  0  0  0  0  0  0  0  0  0  0
   -3.5105   -3.5140   -0.0549 H   0  0  0  0  0  0  0  0  0  0  0  0
   -2.0384   -3.3440    0.9257 H   0  0  0  0  0  0  0  0  0  0  0  0
   -3.5789   -2.8003    1.5738 H   0  0  0  0  0  0  0  0  0  0  0  0
   -4.7645    2.2731   -1.1974 H   0  0  0  0  0  0  0  0  0  0  0  0
   -4.0642   -1.4751   -2.1246 H   0  0  0  0  0  0  0  0  0  0  0  0
   -3.0802    2.0963    2.1125 H   0  0  0  0  0  0  0  0  0  0  0  0
    1.0602    2.3942   -1.1229 H   0  0  0  0  0  0  0  0  0  0  0  0
    0.4462   -1.4063    0.8199 H   0  0  0  0  0  0  0  0  0  0  0  0
    3.4671    2.2613   -0.6083 H   0  0  0  0  0  0  0  0  0  0  0  0
    2.8337   -1.5311    1.3427 H   0  0  0  0  0  0  0  0  0  0  0  0
    5.1773    1.2822    0.8689 H   0  0  0  0  0  0  0  0  0  0  0  0
    4.9162   -0.2582    1.6667 H   0  0  0  0  0  0  0  0  0  0  0  0
    7.2857   -0.1961    0.8664 H   0  0  0  0  0  0  0  0  0  0  0  0
    7.5803   -0.9823   -0.6443 H   0  0  0  0  0  0  0  0  0  0  0  0
  1 11  1  0  0  0  0
  1 12  1  0  0  0  0
  2 12  1  0  0  0  0
  2 14  1  0  0  0  0
  3  8  1  0  0  0  0
  3 30  1  0  0  0  0
  4  9  1  0  0  0  0
  4 31  1  0  0  0  0
  5 10  1  0  0  0  0
  5 32  1  0  0  0  0
  6 21  2  0  0  0  0
  7 21  1  0  0  0  0
  7 39  1  0  0  0  0
  7 40  1  0  0  0  0
  8  9  1  0  0  0  0
  8 10  1  0  0  0  0
  8 22  1  0  0  0  0
  9 11  1  0  0  0  0
  9 23  1  0  0  0  0
 10 12  1  0  0  0  0
 10 24  1  0  0  0  0
 11 13  1  0  0  0  0
 11 25  1  0  0  0  0
 12 26  1  0  0  0  0
 13 27  1  0  0  0  0
 13 28  1  0  0  0  0
 13 29  1  0  0  0  0
 14 15  2  0  0  0  0
 14 16  1  0  0  0  0
 15 18  1  0  0  0  0
 15 33  1  0  0  0  0
 16 19  2  0  0  0  0
 16 34  1  0  0  0  0
 17 18  2  0  0  0  0
 17 19  1  0  0  0  0
 17 20  1  0  0  0  0
 18 35  1  0  0  0  0
 19 36  1  0  0  0  0
 20 21  1  0  0  0  0
 20 37  1  0  0  0  0
 20 38  1  0  0  0  0
M  END
> <PUBCHEM_COMPOUND_CID>
101794623

> <PUBCHEM_CONFORMER_RMSD>
0.8

> <PUBCHEM_CONFORMER_DIVERSEORDER>
2
52
64
40
9
71
30
56
37
49
4
69
27
45
15
18
63
21
65
72
10
42
38
17
73
48
58
25
62
68
29
33
35
39
54
59
61
28
51
6
22
14
60
26
46
31
70
19
34
43
8
36
16
41
66
3
67
20
53
12
1
13
50
47
57
44
55
5
11
23
32
7
24

> <PUBCHEM_MMFF94_PARTIAL_CHARGES>
29
1 -0.56
10 0.28
11 0.28
12 0.56
14 0.08
15 -0.15
16 -0.15
17 -0.14
18 -0.15
19 -0.15
2 -0.36
20 0.2
21 0.57
3 -0.68
30 0.4
31 0.4
32 0.4
33 0.15
34 0.15
35 0.15
36 0.15
39 0.37
4 -0.68
40 0.37
5 -0.68
6 -0.57
7 -0.8
8 0.28
9 0.28

> <PUBCHEM_EFFECTIVE_ROTOR_COUNT>
5.2

> <PUBCHEM_PHARMACOPHORE_FEATURES>
12
1 1 acceptor
1 2 acceptor
1 3 acceptor
1 3 donor
1 4 acceptor
1 4 donor
1 5 acceptor
1 5 donor
1 6 acceptor
1 7 donor
6 1 8 9 10 11 12 rings
6 14 15 16 17 18 19 rings

> <PUBCHEM_HEAVY_ATOM_COUNT>
21

> <PUBCHEM_ATOM_DEF_STEREO_COUNT>
5

> <PUBCHEM_ATOM_UDEF_STEREO_COUNT>
0

> <PUBCHEM_BOND_DEF_STEREO_COUNT>
0

> <PUBCHEM_BOND_UDEF_STEREO_COUNT>
0

> <PUBCHEM_ISOTOPIC_ATOM_COUNT>
0

> <PUBCHEM_COMPONENT_COUNT>
1

> <PUBCHEM_CACTVS_TAUTO_COUNT>
5

> <PUBCHEM_CONFORMER_ID>
0611433F00000002

> <PUBCHEM_MMFF94_ENERGY>
63.0416

> <PUBCHEM_FEATURE_SELFOVERLAP>
60.952

> <PUBCHEM_SHAPE_FINGERPRINT>
10291535 26 15697729095170695057
10366900 7 17989197118900082320
10616163 171 18408884074624870947
10680689 15 18113339703985219880
11315181 36 18131912667529165664
11545043 162 17918273160347923474
11595378 159 12463303453377178830
12236239 1 18341609334655612532
12596602 18 13758069693382513070
12616971 3 17676783019430311924
12916754 54 18265057001613204385
13288520 33 18411419522493943565
13583140 156 16558743521019252134
13675066 3 17988923392666917472
13760787 5 16950566575947562096
14573314 32 18059859441794503654
15196674 1 18261393407610921992
15537594 2 17821733806009338642
15788980 27 16343705417757307344
15880784 105 16987992920363850595
17492 89 18046067330591025059
17834072 33 18410856594574800924
17844677 252 17489591181955112528
17870717 6 18410580582390302463
18222031 100 18187357745226586808
18681886 176 18341040913309274304
18927931 339 17703516557621450917
19377110 9 12103847856196306436
19489759 90 18060135423096800553
200 152 18341888627957481893
20567600 75 17346323665962634036
21033648 29 16916770865200510344
21267235 1 18261115209725965275
21682296 61 16988014765242745758
21709351 56 18261105288040301500
221490 88 18117565239150837424
22393880 68 18260540160538376242
23402539 116 18201715150291502933
23402655 69 17894344458490641888
23557571 272 17989211429726084561
23559900 14 18340759437879344336
29717793 49 18342454867608075492
312423 11 18190477136269683141
3545911 37 18408885127001965601
4214541 1 18408039628161308385
4990 188 18411986849831409870
5104073 3 18411138082352057160
542803 24 14923943444716231796
559249 180 18408880720196955079
58051976 100 18260264178872244967
59755656 215 18411418371585464630
59755656 520 18272093734887932873
633830 44 16370727071308788300
7495541 125 15913037777003538122
9709674 26 18411983576565644615

> <PUBCHEM_SHAPE_MULTIPOLES>
391.97
13.26
1.93
1.09
13.39
0.74
0.03
2.22
2.67
-2.38
-0.12
-0.41
0
-0.05

> <PUBCHEM_SHAPE_SELFOVERLAP>
819.248

> <PUBCHEM_SHAPE_VOLUME>
220.5

> <PUBCHEM_COORDINATE_TYPE>
2
5
10

$$$$
