REMARK  Name = 101768787
REMARK  11 active torsions:
REMARK  status: ('A' for Active; 'I' for Inactive)
REMARK    1  A    between atoms: C_3  and  C_14
REMARK    2  A    between atoms: C_3  and  O_21
REMARK    3  A    between atoms: C_6  and  C_27
REMARK    4  A    between atoms: C_11  and  C_24
REMARK    5  A    between atoms: C_15  and  C_17
REMARK    6  A    between atoms: C_17  and  C_19
REMARK    7  A    between atoms: C_24  and  O_25
REMARK    8  A    between atoms: C_28  and  C_29
REMARK    9  A    between atoms: C_30  and  C_31
REMARK   10  A    between atoms: C_32  and  C_34
REMARK   11  A    between atoms: C_34  and  O_35
REMARK                            x       y       z     vdW  Elec       q    Type
REMARK                         _______ _______ _______ _____ _____    ______ ____
ROOT
ATOM      1  O   UNL     1      -2.383   1.256  -2.900  0.00  0.00    -0.354 OA
ATOM      2  C   UNL     1      -1.991   2.027  -1.758  0.00  0.00    +0.142 C 
ATOM      3  C   UNL     1      -0.657   1.602  -1.142  0.00  0.00    +0.141 C 
ATOM      4  C   UNL     1      -3.176   1.085  -1.708  0.00  0.00    +0.142 C 
ATOM      5  C   UNL     1      -3.087  -0.308  -1.156  0.00  0.00    +0.035 C 
ATOM      6  C   UNL     1      -0.576   0.044  -0.960  0.00  0.00    +0.052 C 
ATOM      7  C   UNL     1      -1.844  -0.515  -0.261  0.00  0.00    +0.014 C 
ATOM      8  C   UNL     1      -2.273   3.493  -1.934  0.00  0.00    +0.035 C 
ATOM      9  C   UNL     1      -4.361  -0.682  -0.372  0.00  0.00    +0.035 C 
ATOM     10  C   UNL     1      -1.740  -2.016   0.102  0.00  0.00    +0.026 C 
ATOM     11  C   UNL     1      -4.224  -1.996   0.335  0.00  0.00    +0.049 C 
ATOM     12  C   UNL     1      -3.050  -2.614   0.533  0.00  0.00    -0.024 C 
ENDROOT
BRANCH   3  14
ATOM     13  O   UNL     1       0.186   3.625  -0.032  0.00  0.00    -0.354 OA
ATOM     14  C   UNL     1      -0.409   2.344   0.165  0.00  0.00    +0.142 C 
ATOM     15  C   UNL     1       1.019   2.615   0.553  0.00  0.00    +0.142 C 
ATOM     16  C   UNL     1      -1.522   2.301   1.146  0.00  0.00    +0.035 C 
BRANCH  15  17
ATOM     17  C   UNL     1       1.431   2.884   1.956  0.00  0.00    +0.030 C 
ATOM     18  C   UNL     1       2.421   4.040   2.041  0.00  0.00    +0.003 C 
BRANCH  17  19
ATOM     19  C   UNL     1       2.037   1.615   2.622  0.00  0.00    +0.002 C 
ATOM     20  C   UNL     1       2.496   1.803   4.062  0.00  0.00    +0.000 C 
ENDBRANCH  17  19
ENDBRANCH  15  17
ENDBRANCH   3  14
BRANCH   3  21
ATOM     21  O   UNL     1       0.390   1.952  -2.063  0.00  0.00    -0.382 OA
ATOM     22  H   UNL     1       0.383   2.911  -2.211  0.00  0.00    +0.210 HD
ENDBRANCH   3  21
BRANCH  11  24
ATOM     23  O   UNL     1      -5.558  -3.877   0.884  0.00  0.00    -0.245 OA
ATOM     24  C   UNL     1      -5.437  -2.664   0.814  0.00  0.00    +0.337 C 
BRANCH  24  25
ATOM     25  O   UNL     1      -6.352  -1.718   1.145  0.00  0.00    -0.442 OA
ATOM     26  C   UNL     1      -7.601  -2.218   1.633  0.00  0.00    +0.256 C 
ENDBRANCH  24  25
ENDBRANCH  11  24
BRANCH   6  27
ATOM     27  C   UNL     1       0.699  -0.378  -0.278  0.00  0.00    -0.024 C 
ATOM     28  C   UNL     1       1.847  -0.615  -0.929  0.00  0.00    -0.005 C 
BRANCH  28  29
ATOM     29  C   UNL     1       3.065  -1.020  -0.262  0.00  0.00    -0.000 C 
ATOM     30  C   UNL     1       4.212  -1.257  -0.916  0.00  0.00    +0.000 C 
BRANCH  30  31
ATOM     31  C   UNL     1       5.431  -1.661  -0.250  0.00  0.00    +0.007 C 
ATOM     32  C   UNL     1       6.573  -1.896  -0.910  0.00  0.00    +0.082 C 
BRANCH  32  34
ATOM     33  O   UNL     1       7.863  -2.464   1.043  0.00  0.00    -0.245 OA
ATOM     34  C   UNL     1       7.778  -2.305  -0.163  0.00  0.00    +0.338 C 
BRANCH  34  35
ATOM     35  O   UNL     1       8.793  -2.482  -1.040  0.00  0.00    -0.477 OA
ATOM     36  H   UNL     1       8.651  -2.341  -1.956  0.00  0.00    +0.295 HD
ENDBRANCH  34  35
ENDBRANCH  32  34
ENDBRANCH  30  31
ENDBRANCH  28  29
ENDBRANCH   6  27
TORSDOF 11
