REMARK  Name = 101782929
REMARK  9 active torsions:
REMARK  status: ('A' for Active; 'I' for Inactive)
REMARK    1  A    between atoms: C_1  and  S_19
REMARK    2  A    between atoms: C_4  and  C_10
REMARK    3  A    between atoms: C_11  and  C_12
REMARK    4  A    between atoms: S_19  and  N_22
REMARK    5  A    between atoms: N_22  and  C_24
REMARK    6  A    between atoms: C_24  and  C_25
REMARK    7  A    between atoms: C_25  and  C_27
REMARK    8  A    between atoms: C_27  and  C_29
REMARK    9  A    between atoms: C_29  and  O_30
REMARK                            x       y       z     vdW  Elec       q    Type
REMARK                         _______ _______ _______ _____ _____    ______ ____
ROOT
ATOM      1  C   UNL     1      -2.059   1.200   0.035  0.00  0.00    +0.122 C 
ATOM      2  C   UNL     1      -1.672   0.544   1.204  0.00  0.00    +0.020 C 
ATOM      3  C   UNL     1      -1.109   1.507  -0.940  0.00  0.00    +0.020 C 
ATOM      4  C   UNL     1       0.615   0.504   0.424  0.00  0.00    +0.069 C 
ATOM      5  C   UNL     1      -0.335   0.197   1.399  0.00  0.00    +0.007 C 
ATOM      6  C   UNL     1       0.228   1.159  -0.745  0.00  0.00    +0.007 C 
ENDROOT
BRANCH   4  10
ATOM      7  O   UNL     1       2.275  -0.487   1.796  0.00  0.00    -0.311 OA
ATOM      8  N   UNL     1       3.039   0.335  -0.142  0.00  0.00    -0.309 NA
ATOM      9  N   UNL     1       3.654  -0.737   1.783  0.00  0.00    -0.007 NA
ATOM     10  C   UNL     1       1.997   0.146   0.627  0.00  0.00    +0.317 C 
ATOM     11  C   UNL     1       4.032  -0.224   0.609  0.00  0.00    +0.127 C 
BRANCH  11  12
ATOM     12  C   UNL     1       5.393  -0.252   0.157  0.00  0.00    +0.077 C 
ATOM     13  C   UNL     1       5.728   0.301  -1.080  0.00  0.00    +0.011 C 
ATOM     14  C   UNL     1       6.381  -0.832   0.952  0.00  0.00    +0.011 C 
ATOM     15  C   UNL     1       8.039  -0.308  -0.726  0.00  0.00    -0.022 C 
ATOM     16  C   UNL     1       7.051   0.272  -1.521  0.00  0.00    -0.004 C 
ATOM     17  C   UNL     1       7.704  -0.860   0.511  0.00  0.00    -0.004 C 
ATOM     18  C   UNL     1       9.454  -0.338  -1.197  0.00  0.00    +0.031 C 
ENDBRANCH  11  12
ENDBRANCH   4  10
BRANCH   1  19
ATOM     19  S   UNL     1      -3.753   1.641  -0.212  0.00  0.00    +0.060 S 
ATOM     20  O   UNL     1      -4.375   1.773   1.091  0.00  0.00    -0.153 OA
ATOM     21  O   UNL     1      -3.769   2.753  -1.144  0.00  0.00    -0.153 OA
BRANCH  19  22
ATOM     22  N   UNL     1      -4.363   0.261  -0.993  0.00  0.00    -0.179 NA
ATOM     23  H   UNL     1      -3.848   0.165  -1.868  0.00  0.00    +0.149 HD
BRANCH  22  24
ATOM     24  C   UNL     1      -4.308  -1.055  -0.318  0.00  0.00    +0.092 C 
BRANCH  24  25
ATOM     25  C   UNL     1      -5.427  -1.970  -0.834  0.00  0.00    +0.029 C 
ATOM     26  C   UNL     1      -5.052  -2.565  -2.193  0.00  0.00    +0.002 C 
BRANCH  25  27
ATOM     27  C   UNL     1      -6.814  -1.299  -0.856  0.00  0.00    +0.111 C 
BRANCH  27  29
ATOM     28  O   UNL     1      -7.034  -1.176   1.577  0.00  0.00    -0.250 OA
ATOM     29  C   UNL     1      -7.327  -0.762   0.466  0.00  0.00    +0.314 C 
BRANCH  29  30
ATOM     30  O   UNL     1      -8.191   0.271   0.271  0.00  0.00    -0.480 OA
ATOM     31  H   UNL     1      -8.390   0.559  -0.598  0.00  0.00    +0.295 HD
ENDBRANCH  29  30
ENDBRANCH  27  29
ENDBRANCH  25  27
ENDBRANCH  24  25
ENDBRANCH  22  24
ENDBRANCH  19  22
ENDBRANCH   1  19
TORSDOF 9
