REMARK  Name = 10178
REMARK  5 active torsions:
REMARK  status: ('A' for Active; 'I' for Inactive)
REMARK    1  A    between atoms: C_1  and  N_16
REMARK    2  A    between atoms: C_2  and  N_9
REMARK    3  A    between atoms: C_3  and  N_12
REMARK    4  A    between atoms: C_4  and  N_15
REMARK    5  A    between atoms: N_16  and  N_20
REMARK                            x       y       z     vdW  Elec       q    Type
REMARK                         _______ _______ _______ _____ _____    ______ ____
ROOT
ATOM      1  C   UNL     1       0.515  -0.135  -0.203  0.00  0.00    +0.118 C 
ATOM      2  C   UNL     1      -0.304  -1.261  -0.115  0.00  0.00    +0.161 C 
ATOM      3  C   UNL     1      -0.048   1.141  -0.173  0.00  0.00    +0.161 C 
ATOM      4  C   UNL     1      -2.249   0.166   0.032  0.00  0.00    +0.146 C 
ATOM      5  C   UNL     1      -1.686  -1.110   0.002  0.00  0.00    +0.050 C 
ATOM      6  C   UNL     1      -1.429   1.292  -0.056  0.00  0.00    +0.050 C 
ENDROOT
BRANCH   2   9
ATOM      7  O   UNL     1      -0.536  -3.554  -0.061  0.00  0.00    -0.126 OA
ATOM      8  O   UNL     1       1.483  -2.712  -0.249  0.00  0.00    -0.126 OA
ATOM      9  N   UNL     1       0.241  -2.575  -0.143  0.00  0.00    +0.059 N 
ENDBRANCH   2   9
BRANCH   3  12
ATOM     10  O   UNL     1       0.210   3.432  -0.229  0.00  0.00    -0.126 OA
ATOM     11  O   UNL     1       2.004   2.175  -0.365  0.00  0.00    -0.126 OA
ATOM     12  N   UNL     1       0.763   2.308  -0.260  0.00  0.00    +0.059 N 
ENDBRANCH   3  12
BRANCH   4  15
ATOM     13  O   UNL     1      -4.374  -0.706   0.228  0.00  0.00    -0.126 OA
ATOM     14  O   UNL     1      -4.141   1.476   0.177  0.00  0.00    -0.126 OA
ATOM     15  N   UNL     1      -3.655   0.319   0.151  0.00  0.00    +0.058 N 
ENDBRANCH   4  15
BRANCH   1  16
ATOM     16  N   UNL     1       1.918  -0.289  -0.322  0.00  0.00    -0.158 N 
ATOM     17  C   UNL     1       2.517  -0.385  -1.645  0.00  0.00    +0.145 C 
BRANCH  16  20
ATOM     18  O   UNL     1       2.194  -0.085   1.887  0.00  0.00    -0.109 OA
ATOM     19  O   UNL     1       3.867   0.449   0.572  0.00  0.00    -0.109 OA
ATOM     20  N   UNL     1       2.711   0.054   0.771  0.00  0.00    +0.126 N 
ENDBRANCH  16  20
ENDBRANCH   1  16
TORSDOF 5
