101712120
  -OEChem-03292013293D

 37 39  0     1  0  0  0  0  0999 V2000
    2.1947   -1.5800    2.2521 O   0  0  0  0  0  0  0  0  0  0  0  0
   -3.1344    0.6846    0.1580 O   0  0  0  0  0  0  0  0  0  0  0  0
   -4.2411   -1.1183    1.0662 O   0  0  0  0  0  0  0  0  0  0  0  0
    0.9526   -0.7779   -1.0256 N   0  0  0  0  0  0  0  0  0  0  0  0
    2.6847    0.2756    0.2505 N   0  0  0  0  0  0  0  0  0  0  0  0
    1.3789    2.0645    0.7370 N   0  0  0  0  0  0  0  0  0  0  0  0
   -0.6321    0.9550   -1.3886 N   0  0  0  0  0  0  0  0  0  0  0  0
    0.2426   -0.2511   -3.1751 N   0  0  0  0  0  0  0  0  0  0  0  0
    3.7052    2.3648    0.2707 N   0  0  0  0  0  0  0  0  0  0  0  0
   -5.3944    0.6101    0.0820 N   0  0  0  0  0  0  0  0  0  0  0  0
    1.3809   -0.3440    0.2962 C   0  0  1  0  0  0  0  0  0  0  0  0
    0.5309    0.8202    0.8382 C   0  0  2  0  0  0  0  0  0  0  0  0
    1.3777   -1.6403    1.1010 C   0  0  1  0  0  0  0  0  0  0  0  0
    1.8965   -2.6491    0.0773 C   0  0  0  0  0  0  0  0  0  0  0  0
    1.2500   -2.1947   -1.2351 C   0  0  0  0  0  0  0  0  0  0  0  0
   -0.7773    1.0648    0.0757 C   0  0  2  0  0  0  0  0  0  0  0  0
    0.1536    0.0139   -1.8295 C   0  0  0  0  0  0  0  0  0  0  0  0
    2.5756    1.6210    0.4369 C   0  0  0  0  0  0  0  0  0  0  0  0
   -1.8911    0.1183    0.5252 C   0  0  0  0  0  0  0  0  0  0  0  0
   -4.2536   -0.0374    0.4870 C   0  0  0  0  0  0  0  0  0  0  0  0
    0.3282    0.6881    1.9090 H   0  0  0  0  0  0  0  0  0  0  0  0
    0.3575   -1.9070    1.4038 H   0  0  0  0  0  0  0  0  0  0  0  0
    1.6336   -3.6793    0.3368 H   0  0  0  0  0  0  0  0  0  0  0  0
    2.9906   -2.6071    0.0086 H   0  0  0  0  0  0  0  0  0  0  0  0
    1.9270   -2.3507   -2.0804 H   0  0  0  0  0  0  0  0  0  0  0  0
    0.3207   -2.7473   -1.4117 H   0  0  0  0  0  0  0  0  0  0  0  0
   -1.1035    2.0941    0.2761 H   0  0  0  0  0  0  0  0  0  0  0  0
    3.5086   -0.1953   -0.1034 H   0  0  0  0  0  0  0  0  0  0  0  0
   -1.8720    0.0098    1.6161 H   0  0  0  0  0  0  0  0  0  0  0  0
   -1.7848   -0.8739    0.0709 H   0  0  0  0  0  0  0  0  0  0  0  0
    2.2184   -2.4713    2.6400 H   0  0  0  0  0  0  0  0  0  0  0  0
   -0.3043    0.2767   -3.8467 H   0  0  0  0  0  0  0  0  0  0  0  0
    0.8725   -0.9545   -3.5437 H   0  0  0  0  0  0  0  0  0  0  0  0
    3.6941    3.3724    0.3849 H   0  0  0  0  0  0  0  0  0  0  0  0
    4.5917    1.9331    0.0333 H   0  0  0  0  0  0  0  0  0  0  0  0
   -6.3137    0.2141    0.2468 H   0  0  0  0  0  0  0  0  0  0  0  0
   -5.3532    1.5047   -0.3947 H   0  0  0  0  0  0  0  0  0  0  0  0
  1 13  1  0  0  0  0
  1 31  1  0  0  0  0
  2 19  1  0  0  0  0
  2 20  1  0  0  0  0
  3 20  2  0  0  0  0
  4 11  1  0  0  0  0
  4 15  1  0  0  0  0
  4 17  1  0  0  0  0
  5 11  1  0  0  0  0
  5 18  1  0  0  0  0
  5 28  1  0  0  0  0
  6 12  1  0  0  0  0
  6 18  2  0  0  0  0
  7 16  1  0  0  0  0
  7 17  2  0  0  0  0
  8 17  1  0  0  0  0
  8 32  1  0  0  0  0
  8 33  1  0  0  0  0
  9 18  1  0  0  0  0
  9 34  1  0  0  0  0
  9 35  1  0  0  0  0
 10 20  1  0  0  0  0
 10 36  1  0  0  0  0
 10 37  1  0  0  0  0
 11 12  1  0  0  0  0
 11 13  1  0  0  0  0
 12 16  1  0  0  0  0
 12 21  1  0  0  0  0
 13 14  1  0  0  0  0
 13 22  1  0  0  0  0
 14 15  1  0  0  0  0
 14 23  1  0  0  0  0
 14 24  1  0  0  0  0
 15 25  1  0  0  0  0
 15 26  1  0  0  0  0
 16 19  1  0  0  0  0
 16 27  1  0  0  0  0
 19 29  1  0  0  0  0
 19 30  1  0  0  0  0
M  END
> <PUBCHEM_COMPOUND_CID>
101712120

> <PUBCHEM_CONFORMER_RMSD>
0.6

> <PUBCHEM_CONFORMER_DIVERSEORDER>
1
38
27
44
34
11
23
45
10
16
31
33
6
15
9
21
41
29
12
25
2
32
35
28
14
42
36
37
8
20
19
26
30
4
5
18
7
3
24
17
13
39
40
43
22

> <PUBCHEM_MMFF94_PARTIAL_CHARGES>
27
1 -0.68
10 -0.8
11 0.74
12 0.25
13 0.28
15 0.37
16 0.25
17 0.55
18 0.55
19 0.28
2 -0.43
20 0.78
28 0.4
3 -0.57
31 0.4
32 0.4
33 0.4
34 0.4
35 0.4
36 0.37
37 0.37
4 -0.79
5 -0.82
6 -0.7
7 -0.7
8 -0.85
9 -0.85

> <PUBCHEM_EFFECTIVE_ROTOR_COUNT>
4

> <PUBCHEM_PHARMACOPHORE_FEATURES>
12
1 1 acceptor
1 1 donor
1 10 donor
1 3 acceptor
1 5 donor
1 8 donor
1 9 donor
4 4 7 8 17 cation
4 5 6 9 18 cation
5 4 11 13 14 15 rings
5 5 6 11 12 18 rings
6 4 7 11 12 16 17 rings

> <PUBCHEM_HEAVY_ATOM_COUNT>
20

> <PUBCHEM_ATOM_DEF_STEREO_COUNT>
4

> <PUBCHEM_ATOM_UDEF_STEREO_COUNT>
0

> <PUBCHEM_BOND_DEF_STEREO_COUNT>
0

> <PUBCHEM_BOND_UDEF_STEREO_COUNT>
0

> <PUBCHEM_ISOTOPIC_ATOM_COUNT>
0

> <PUBCHEM_COMPONENT_COUNT>
1

> <PUBCHEM_CACTVS_TAUTO_COUNT>
12

> <PUBCHEM_CONFORMER_ID>
061000F800000001

> <PUBCHEM_MMFF94_ENERGY>
67.6345

> <PUBCHEM_FEATURE_SELFOVERLAP>
61.378

> <PUBCHEM_SHAPE_FINGERPRINT>
10922049 32 18200040675881834036
10948715 1 18198062684380471656
11578080 2 18041838407271023333
12423570 1 16615271385393717192
12532896 13 17842830298968251408
12644460 14 18201445761463234393
12725867 57 16732706017066602390
14142880 1 17180801282594301164
14817 1 17472718282520451478
14863182 85 18041859422593338467
14955137 171 18272358742949345138
15422964 175 17838046009958297234
16945 1 18200580415652522868
17980427 23 17025157586061634917
18186145 218 12391516356658549609
20645477 70 18413103940639099971
22112679 90 17487302011467265652
23419403 2 17678995163478520390
23557571 272 16226317123785056637
23558518 356 17120548019405932736
23559900 14 18198625432633784891
2748010 2 17196274237279458076
276578 36 16415476047465062127
298252 57 17202773742490175932
3060560 45 17775288295716195572
31174 14 18261663779701416696
3797600 57 17917148432893371059
430814 3 18130781321751354652
68419 9 17414395620195936412
7364860 26 18341898463189970810
81228 2 16009868308529240477
81539 233 18340490053150987140
8272917 22 18343023268180963201
9999458 23 18188493587592498548

> <PUBCHEM_SHAPE_MULTIPOLES>
359.12
6.41
2.35
1.85
11.45
0.37
-1.18
-1.3
2.3
-2.75
0.32
-0.56
0.75
0.16

> <PUBCHEM_SHAPE_SELFOVERLAP>
769.988

> <PUBCHEM_SHAPE_VOLUME>
197.6

> <PUBCHEM_COORDINATE_TYPE>
2
5
10

$$$$
