REMARK  Name = 101727402
REMARK  4 active torsions:
REMARK  status: ('A' for Active; 'I' for Inactive)
REMARK    1  A    between atoms: C_6  and  C_16
REMARK    2  A    between atoms: C_19  and  O_24
REMARK    3  A    between atoms: C_20  and  O_22
REMARK    4  A    between atoms: O_24  and  S_25
REMARK                            x       y       z     vdW  Elec       q    Type
REMARK                         _______ _______ _______ _____ _____    ______ ____
ROOT
ATOM      1  N   UNL     1      -2.898  -0.257   2.103  0.00  0.00    -0.299 NA
ATOM      2  C   UNL     1      -2.017   0.114  -0.111  0.00  0.00    +0.019 C 
ATOM      3  C   UNL     1      -1.379   1.422   0.390  0.00  0.00    +0.011 C 
ATOM      4  C   UNL     1      -2.793   0.385  -1.413  0.00  0.00    +0.023 C 
ATOM      5  C   UNL     1      -0.927   1.263   1.858  0.00  0.00    +0.016 C 
ATOM      6  C   UNL     1      -0.325   1.942  -0.648  0.00  0.00    +0.044 C 
ATOM      7  C   UNL     1      -2.923  -0.579   0.862  0.00  0.00    +0.054 C 
ATOM      8  C   UNL     1      -3.386  -0.929  -1.948  0.00  0.00    +0.004 C 
ATOM      9  C   UNL     1      -2.121   0.836   2.727  0.00  0.00    +0.069 C 
ATOM     10  C   UNL     1      -3.740  -1.765   0.439  0.00  0.00    +0.016 C 
ATOM     11  C   UNL     1      -4.371  -1.520  -0.931  0.00  0.00    +0.002 C 
ATOM     12  C   UNL     1      -1.929   1.100  -2.417  0.00  0.00    -0.031 C 
ATOM     13  C   UNL     1      -0.831   1.793  -2.075  0.00  0.00    -0.027 C 
ATOM     14  C   UNL     1      -0.357   2.555   2.451  0.00  0.00    +0.001 C 
ATOM     15  H   UNL     1      -3.457  -0.798   2.707  0.00  0.00    +0.123 HD
ENDROOT
BRANCH   6  16
ATOM     16  C   UNL     1       1.096   1.398  -0.531  0.00  0.00    -0.012 C 
ATOM     17  C   UNL     1       1.334   0.033  -0.687  0.00  0.00    +0.036 C 
ATOM     18  C   UNL     1       2.156   2.265  -0.267  0.00  0.00    +0.033 C 
ATOM     19  C   UNL     1       2.633  -0.466  -0.579  0.00  0.00    +0.178 C 
ATOM     20  C   UNL     1       3.455   1.767  -0.160  0.00  0.00    +0.136 C 
ATOM     21  C   UNL     1       3.693   0.402  -0.316  0.00  0.00    +0.076 C 
BRANCH  20  22
ATOM     22  O   UNL     1       4.489   2.613   0.097  0.00  0.00    -0.505 OA
ATOM     23  H   UNL     1       4.330   3.531   0.202  0.00  0.00    +0.292 HD
ENDBRANCH  20  22
BRANCH  19  24
ATOM     24  O   UNL     1       2.866  -1.798  -0.732  0.00  0.00    -0.322 OA
BRANCH  24  25
ATOM     25  S   UNL     1       2.133  -2.857   0.291  0.00  0.00    +0.282 S 
ATOM     26  O   UNL     1       3.119  -4.158   0.278  0.00  0.00    -0.105 OA
ATOM     27  O   UNL     1       2.145  -2.302   1.633  0.00  0.00    -0.012 OA
ATOM     28  O   UNL     1       0.877  -3.258  -0.315  0.00  0.00    -0.105 OA
ENDBRANCH  24  25
ENDBRANCH  19  24
ENDBRANCH   6  16
TORSDOF 4
