REMARK  Name = 101791305
REMARK  2 active torsions:
REMARK  status: ('A' for Active; 'I' for Inactive)
REMARK    1  A    between atoms: C_13  and  O_26
REMARK    2  A    between atoms: C_16  and  O_28
REMARK                            x       y       z     vdW  Elec       q    Type
REMARK                         _______ _______ _______ _____ _____    ______ ____
ROOT
ATOM      1  O   UNL     1      -1.177  -0.414  -1.052  0.00  0.00    -0.356 OA
ATOM      2  O   UNL     1      -0.429   0.204   2.391  0.00  0.00    -0.453 OA
ATOM      3  O   UNL     1       2.800  -0.119   0.320  0.00  0.00    -0.332 OA
ATOM      4  O   UNL     1       2.000   2.797   0.397  0.00  0.00    -0.294 OA
ATOM      5  O   UNL     1       1.474  -0.959   2.912  0.00  0.00    -0.250 OA
ATOM      6  C   UNL     1      -0.383   0.014   0.067  0.00  0.00    +0.147 C 
ATOM      7  C   UNL     1      -1.312   0.187   1.280  0.00  0.00    +0.162 C 
ATOM      8  C   UNL     1      -1.958   1.524   0.916  0.00  0.00    +0.069 C 
ATOM      9  C   UNL     1       0.135   1.445  -0.277  0.00  0.00    +0.089 C 
ATOM     10  C   UNL     1       0.577  -1.048   0.618  0.00  0.00    +0.178 C 
ATOM     11  C   UNL     1      -2.600  -0.180  -0.887  0.00  0.00    +0.117 C 
ATOM     12  C   UNL     1      -0.739   2.380   0.575  0.00  0.00    +0.016 C 
ATOM     13  C   UNL     1      -2.893   1.245  -0.294  0.00  0.00    +0.138 C 
ATOM     14  C   UNL     1      -2.358  -0.925   1.474  0.00  0.00    +0.045 C 
ATOM     15  C   UNL     1      -3.099  -1.210   0.160  0.00  0.00    +0.031 C 
ATOM     16  C   UNL     1       1.993  -1.270   0.045  0.00  0.00    +0.196 C 
ATOM     17  C   UNL     1       1.619   1.764  -0.162  0.00  0.00    +0.177 C 
ATOM     18  C   UNL     1       0.631  -0.622   2.094  0.00  0.00    +0.324 C 
ATOM     19  C   UNL     1       2.626   0.797  -0.773  0.00  0.00    +0.146 C 
ATOM     20  C   UNL     1       2.148  -1.439  -1.468  0.00  0.00    +0.055 C 
ATOM     21  C   UNL     1      -3.245  -0.382  -2.259  0.00  0.00    +0.032 C 
ATOM     22  C   UNL     1       2.134  -0.012  -1.982  0.00  0.00    +0.039 C 
ATOM     23  C   UNL     1      -2.914  -2.675  -0.251  0.00  0.00    +0.003 C 
ATOM     24  C   UNL     1       3.966   1.473  -1.047  0.00  0.00    +0.037 C 
ATOM     25  C   UNL     1       1.201  -2.401  -2.161  0.00  0.00    +0.005 C 
ENDROOT
BRANCH  13  26
ATOM     26  O   UNL     1      -2.767   2.267  -1.275  0.00  0.00    -0.382 OA
ATOM     27  H   UNL     1      -2.955   3.128  -0.871  0.00  0.00    +0.210 HD
ENDBRANCH  13  26
BRANCH  16  28
ATOM     28  O   UNL     1       2.570  -2.439   0.639  0.00  0.00    -0.363 OA
ATOM     29  H   UNL     1       2.496  -2.381   1.605  0.00  0.00    +0.213 HD
ENDBRANCH  16  28
TORSDOF 2
