101727402
  -OEChem-03292013293D

 50 53  0     1  0  0  0  0  0999 V2000
    2.1334   -2.8566    0.2915 S   0  0  0  0  0  0  0  0  0  0  0  0
    2.8657   -1.7981   -0.7316 O   0  0  0  0  0  0  0  0  0  0  0  0
    4.4895    2.6134    0.0970 O   0  0  0  0  0  0  0  0  0  0  0  0
    3.1190   -4.1580    0.2781 O   0  0  0  0  0  0  0  0  0  0  0  0
    2.1453   -2.3021    1.6326 O   0  0  0  0  0  0  0  0  0  0  0  0
    0.8775   -3.2583   -0.3151 O   0  0  0  0  0  0  0  0  0  0  0  0
   -2.8980   -0.2573    2.1031 N   0  3  0  0  0  0  0  0  0  0  0  0
   -2.0168    0.1142   -0.1105 C   0  0  2  0  0  0  0  0  0  0  0  0
   -1.3790    1.4220    0.3902 C   0  0  1  0  0  0  0  0  0  0  0  0
   -2.7935    0.3847   -1.4130 C   0  0  2  0  0  0  0  0  0  0  0  0
   -0.9274    1.2634    1.8578 C   0  0  2  0  0  0  0  0  0  0  0  0
   -0.3250    1.9424   -0.6479 C   0  0  2  0  0  0  0  0  0  0  0  0
   -2.9226   -0.5787    0.8615 C   0  0  0  0  0  0  0  0  0  0  0  0
   -3.3857   -0.9287   -1.9479 C   0  0  0  0  0  0  0  0  0  0  0  0
   -2.1214    0.8361    2.7266 C   0  0  0  0  0  0  0  0  0  0  0  0
   -3.7396   -1.7649    0.4386 C   0  0  0  0  0  0  0  0  0  0  0  0
   -4.3710   -1.5202   -0.9313 C   0  0  0  0  0  0  0  0  0  0  0  0
   -1.9290    1.1001   -2.4175 C   0  0  0  0  0  0  0  0  0  0  0  0
   -0.8312    1.7931   -2.0748 C   0  0  0  0  0  0  0  0  0  0  0  0
   -0.3571    2.5546    2.4512 C   0  0  0  0  0  0  0  0  0  0  0  0
    1.0961    1.3980   -0.5309 C   0  0  0  0  0  0  0  0  0  0  0  0
    1.3344    0.0325   -0.6867 C   0  0  0  0  0  0  0  0  0  0  0  0
    2.1562    2.2653   -0.2672 C   0  0  0  0  0  0  0  0  0  0  0  0
    2.6327   -0.4656   -0.5790 C   0  0  0  0  0  0  0  0  0  0  0  0
    3.4546    1.7671   -0.1596 C   0  0  0  0  0  0  0  0  0  0  0  0
    3.6929    0.4016   -0.3155 C   0  0  0  0  0  0  0  0  0  0  0  0
   -1.2498   -0.6384   -0.3000 H   0  0  0  0  0  0  0  0  0  0  0  0
   -2.1815    2.1791    0.4034 H   0  0  0  0  0  0  0  0  0  0  0  0
   -3.6395    1.0542   -1.1973 H   0  0  0  0  0  0  0  0  0  0  0  0
   -0.1584    0.4819    1.9167 H   0  0  0  0  0  0  0  0  0  0  0  0
   -0.2649    3.0275   -0.4764 H   0  0  0  0  0  0  0  0  0  0  0  0
   -2.5887   -1.6527   -2.1599 H   0  0  0  0  0  0  0  0  0  0  0  0
   -3.9147   -0.7494   -2.8919 H   0  0  0  0  0  0  0  0  0  0  0  0
   -2.8262    1.6576    2.8944 H   0  0  0  0  0  0  0  0  0  0  0  0
   -1.7774    0.4677    3.6988 H   0  0  0  0  0  0  0  0  0  0  0  0
   -3.0640   -2.6272    0.3822 H   0  0  0  0  0  0  0  0  0  0  0  0
   -4.5203   -1.9996    1.1704 H   0  0  0  0  0  0  0  0  0  0  0  0
   -4.7791   -2.4606   -1.3188 H   0  0  0  0  0  0  0  0  0  0  0  0
   -5.2174   -0.8309   -0.8170 H   0  0  0  0  0  0  0  0  0  0  0  0
   -2.2345    1.0845   -3.4600 H   0  0  0  0  0  0  0  0  0  0  0  0
   -3.4985   -0.7840    2.7455 H   0  0  0  0  0  0  0  0  0  0  0  0
   -0.2716    2.3000   -2.8576 H   0  0  0  0  0  0  0  0  0  0  0  0
   -1.0748    3.3784    2.3716 H   0  0  0  0  0  0  0  0  0  0  0  0
    0.5622    2.8631    1.9509 H   0  0  0  0  0  0  0  0  0  0  0  0
   -0.1166    2.4190    3.5115 H   0  0  0  0  0  0  0  0  0  0  0  0
    0.5484   -0.6534   -0.9659 H   0  0  0  0  0  0  0  0  0  0  0  0
    1.9755    3.3308   -0.1485 H   0  0  0  0  0  0  0  0  0  0  0  0
    4.7046    0.0130   -0.2313 H   0  0  0  0  0  0  0  0  0  0  0  0
    4.1442    3.5192    0.1760 H   0  0  0  0  0  0  0  0  0  0  0  0
    2.8328   -4.9090    0.8493 H   0  0  0  0  0  0  0  0  0  0  0  0
  1  2  1  0  0  0  0
  1  4  1  0  0  0  0
  1  5  2  0  0  0  0
  1  6  2  0  0  0  0
  2 24  1  0  0  0  0
  3 25  1  0  0  0  0
  3 49  1  0  0  0  0
  4 50  1  0  0  0  0
  7 13  2  0  0  0  0
  7 15  1  0  0  0  0
  7 41  1  0  0  0  0
  8  9  1  0  0  0  0
  8 10  1  0  0  0  0
  8 13  1  0  0  0  0
  8 27  1  0  0  0  0
  9 11  1  0  0  0  0
  9 12  1  0  0  0  0
  9 28  1  0  0  0  0
 10 14  1  0  0  0  0
 10 18  1  0  0  0  0
 10 29  1  0  0  0  0
 11 15  1  0  0  0  0
 11 20  1  0  0  0  0
 11 30  1  0  0  0  0
 12 19  1  0  0  0  0
 12 21  1  0  0  0  0
 12 31  1  0  0  0  0
 13 16  1  0  0  0  0
 14 17  1  0  0  0  0
 14 32  1  0  0  0  0
 14 33  1  0  0  0  0
 15 34  1  0  0  0  0
 15 35  1  0  0  0  0
 16 17  1  0  0  0  0
 16 36  1  0  0  0  0
 16 37  1  0  0  0  0
 17 38  1  0  0  0  0
 17 39  1  0  0  0  0
 18 19  2  0  0  0  0
 18 40  1  0  0  0  0
 19 42  1  0  0  0  0
 20 43  1  0  0  0  0
 20 44  1  0  0  0  0
 20 45  1  0  0  0  0
 21 22  1  0  0  0  0
 21 23  2  0  0  0  0
 22 24  2  0  0  0  0
 22 46  1  0  0  0  0
 23 25  1  0  0  0  0
 23 47  1  0  0  0  0
 24 26  1  0  0  0  0
 25 26  2  0  0  0  0
 26 48  1  0  0  0  0
M  CHG  1   7   1
M  END
> <PUBCHEM_COMPOUND_CID>
101727402

> <PUBCHEM_CONFORMER_RMSD>
0.8

> <PUBCHEM_CONFORMER_DIVERSEORDER>
1
10
7
11
6
9
8
2
4
5
3

> <PUBCHEM_MMFF94_PARTIAL_CHARGES>
29
1 1.67
10 0.14
12 0.28
13 0.28
15 0.35
16 0.06
18 -0.29
19 -0.29
2 -0.27
21 -0.14
22 -0.15
23 -0.15
24 0.08
25 0.08
26 -0.15
3 -0.53
4 -0.68
40 0.15
41 0.4
42 0.15
46 0.15
47 0.15
48 0.15
49 0.45
5 -0.65
50 0.5
6 -0.65
7 -0.15
8 0.06

> <PUBCHEM_EFFECTIVE_ROTOR_COUNT>
4.2

> <PUBCHEM_PHARMACOPHORE_FEATURES>
11
1 3 donor
1 4 acceptor
1 5 acceptor
1 6 acceptor
1 7 acceptor
1 7 donor
4 1 4 5 6 anion
6 21 22 23 24 25 26 rings
6 7 8 9 11 13 15 rings
6 8 10 13 14 16 17 rings
6 8 9 10 12 18 19 rings

> <PUBCHEM_HEAVY_ATOM_COUNT>
26

> <PUBCHEM_ATOM_DEF_STEREO_COUNT>
5

> <PUBCHEM_ATOM_UDEF_STEREO_COUNT>
0

> <PUBCHEM_BOND_DEF_STEREO_COUNT>
0

> <PUBCHEM_BOND_UDEF_STEREO_COUNT>
0

> <PUBCHEM_ISOTOPIC_ATOM_COUNT>
0

> <PUBCHEM_COMPONENT_COUNT>
1

> <PUBCHEM_CACTVS_TAUTO_COUNT>
39

> <PUBCHEM_CONFORMER_ID>
06103CAA00000001

> <PUBCHEM_MMFF94_ENERGY>
70.3567

> <PUBCHEM_FEATURE_SELFOVERLAP>
55.94

> <PUBCHEM_SHAPE_FINGERPRINT>
10906281 52 17240770622241655725
11273773 118 13541021661791441394
11370993 70 18192426600481980685
11578080 2 18058990840341385153
11582403 64 16452849654664206884
12293681 25 17458351831341930083
12363563 72 16661500664889202777
12539773 59 16908876182719095735
12553582 1 17762343509563268334
12596599 1 17986683571047879878
12788726 201 17559952113566406177
13583140 156 18129114462503831753
13911987 19 17971764516988227076
14251757 17 17895740834411362959
14659021 117 16823030639976387890
14787075 74 17557427879312916064
14844126 61 16820511654694842202
15375462 189 17702951481807099381
17138139 8 17411323717525324255
20511986 3 18060703905400784977
21285901 2 17676476281461280471
22907989 373 12397173378021552769
23559900 14 15865184875090630572
23598288 3 17703237200085047369
23728640 28 16967163419936704738
238 59 18113332003414826350
34934 24 17631751438188127033
3797600 57 17846217803945732422
392239 28 17557988617484131488
4409770 3 14530120764969638297
469060 322 17680430249238360111
57527573 199 11933886916548759683
7097593 13 17912106970227273536
9709674 26 18042393647599392222

> <PUBCHEM_SHAPE_MULTIPOLES>
504.59
7.11
3.73
2.33
0.89
3.44
-0.8
2.12
0.99
3.88
-0.74
-2.32
-1.19
-0.68

> <PUBCHEM_SHAPE_SELFOVERLAP>
1075.275

> <PUBCHEM_SHAPE_VOLUME>
281.8

> <PUBCHEM_COORDINATE_TYPE>
2
5
10

$$$$
