REMARK  Name = 101712484
REMARK  9 active torsions:
REMARK  status: ('A' for Active; 'I' for Inactive)
REMARK    1  A    between atoms: N_1  and  C_33
REMARK    2  A    between atoms: C_6  and  O_21
REMARK    3  A    between atoms: C_8  and  O_23
REMARK    4  A    between atoms: C_9  and  O_25
REMARK    5  A    between atoms: C_10  and  C_35
REMARK    6  A    between atoms: C_11  and  O_29
REMARK    7  A    between atoms: C_14  and  O_27
REMARK    8  A    between atoms: C_18  and  O_31
REMARK    9  A    between atoms: C_35  and  O_36
REMARK                            x       y       z     vdW  Elec       q    Type
REMARK                         _______ _______ _______ _____ _____    ______ ____
ROOT
ATOM      1  N   UNL     1      -1.623   1.658  -0.892  0.00  0.00    +0.390 N 
ATOM      2  C   UNL     1      -0.700   0.409   1.035  0.00  0.00    +0.013 C 
ATOM      3  C   UNL     1      -1.720  -0.730   0.614  0.00  0.00    +0.030 C 
ATOM      4  C   UNL     1       0.652  -0.144   1.654  0.00  0.00    +0.005 C 
ATOM      5  C   UNL     1      -0.421   0.957  -0.390  0.00  0.00    -0.026 C 
ATOM      6  C   UNL     1      -0.004  -0.373  -1.110  0.00  0.00    +0.119 C 
ATOM      7  C   UNL     1       1.464  -1.160   0.823  0.00  0.00    +0.055 C 
ATOM      8  C   UNL     1       1.435  -0.821  -0.686  0.00  0.00    +0.120 C 
ATOM      9  C   UNL     1      -1.019  -1.433  -0.591  0.00  0.00    +0.135 C 
ATOM     10  C   UNL     1      -3.088  -0.081   0.216  0.00  0.00    +0.011 C 
ATOM     11  C   UNL     1      -1.325   1.406   2.076  0.00  0.00    +0.109 C 
ATOM     12  C   UNL     1       1.721   0.928   2.009  0.00  0.00    +0.005 C 
ATOM     13  C   UNL     1       3.051   0.449   1.407  0.00  0.00    +0.055 C 
ATOM     14  C   UNL     1       2.870  -1.059   1.423  0.00  0.00    +0.120 C 
ATOM     15  C   UNL     1       2.556   0.154  -1.131  0.00  0.00    +0.059 C 
ATOM     16  C   UNL     1      -2.848   0.855  -1.008  0.00  0.00    -0.075 C 
ATOM     17  C   UNL     1      -3.646   0.704   1.426  0.00  0.00    +0.003 C 
ATOM     18  C   UNL     1       3.220   0.992  -0.025  0.00  0.00    +0.120 C 
ATOM     19  C   UNL     1      -2.764   1.846   1.860  0.00  0.00    +0.029 C 
ATOM     20  H   UNL     1      -1.819   2.300  -0.125  0.00  0.00    -0.080 HD
ENDROOT
BRANCH   6  21
ATOM     21  O   UNL     1      -0.043  -0.217  -2.520  0.00  0.00    -0.384 OA
ATOM     22  H   UNL     1       0.606   0.452  -2.789  0.00  0.00    +0.210 HD
ENDBRANCH   6  21
BRANCH   8  23
ATOM     23  O   UNL     1       1.708  -2.068  -1.366  0.00  0.00    -0.353 OA
ATOM     24  C   UNL     1       1.687  -1.884  -2.765  0.00  0.00    +0.174 C 
ENDBRANCH   8  23
BRANCH   9  25
ATOM     25  O   UNL     1      -1.868  -1.909  -1.615  0.00  0.00    -0.382 OA
ATOM     26  H   UNL     1      -2.481  -2.565  -1.248  0.00  0.00    +0.210 HD
ENDBRANCH   9  25
BRANCH  14  27
ATOM     27  O   UNL     1       3.862  -1.746   0.691  0.00  0.00    -0.353 OA
ATOM     28  C   UNL     1       5.071  -1.883   1.432  0.00  0.00    +0.174 C 
ENDBRANCH  14  27
BRANCH  11  29
ATOM     29  O   UNL     1      -0.570   2.607   2.214  0.00  0.00    -0.385 OA
ATOM     30  H   UNL     1       0.364   2.388   2.356  0.00  0.00    +0.210 HD
ENDBRANCH  11  29
BRANCH  18  31
ATOM     31  O   UNL     1       4.618   1.094  -0.318  0.00  0.00    -0.353 OA
ATOM     32  C   UNL     1       4.863   2.087  -1.298  0.00  0.00    +0.174 C 
ENDBRANCH  18  31
BRANCH   1  33
ATOM     33  C   UNL     1      -1.387   2.471  -2.077  0.00  0.00    -0.077 C 
ATOM     34  C   UNL     1      -2.535   3.436  -2.319  0.00  0.00    -0.025 C 
ENDBRANCH   1  33
BRANCH  10  35
ATOM     35  C   UNL     1      -4.181  -1.124  -0.115  0.00  0.00    +0.140 C 
BRANCH  35  36
ATOM     36  O   UNL     1      -4.034  -2.199   0.785  0.00  0.00    -0.351 OA
ATOM     37  C   UNL     1      -5.003  -3.220   0.559  0.00  0.00    +0.174 C 
ENDBRANCH  35  36
ENDBRANCH  10  35
TORSDOF 9
