REMARK  Name = 101790375
REMARK  10 active torsions:
REMARK  status: ('A' for Active; 'I' for Inactive)
REMARK    1  A    between atoms: C_2  and  C_13
REMARK    2  A    between atoms: C_5  and  O_11
REMARK    3  A    between atoms: C_7  and  O_18
REMARK    4  A    between atoms: C_14  and  C_16
REMARK    5  A    between atoms: O_18  and  C_20
REMARK    6  A    between atoms: C_21  and  O_25
REMARK    7  A    between atoms: C_22  and  O_27
REMARK    8  A    between atoms: C_23  and  C_31
REMARK    9  A    between atoms: C_24  and  O_29
REMARK   10  A    between atoms: C_31  and  O_32
REMARK                            x       y       z     vdW  Elec       q    Type
REMARK                         _______ _______ _______ _____ _____    ______ ____
ROOT
ATOM      1  O   UNL     1       2.702  -1.667   0.866  0.00  0.00    -0.352 OA
ATOM      2  C   UNL     1       2.683  -0.364   0.258  0.00  0.00    +0.136 C 
ATOM      3  C   UNL     1       2.064  -1.605  -0.423  0.00  0.00    +0.146 C 
ATOM      4  C   UNL     1       1.776   0.621   1.019  0.00  0.00    +0.031 C 
ATOM      5  C   UNL     1       0.580  -1.889  -0.330  0.00  0.00    +0.165 C 
ATOM      6  C   UNL     1       0.439  -0.050   1.419  0.00  0.00    +0.035 C 
ATOM      7  C   UNL     1      -0.245  -0.732   0.238  0.00  0.00    +0.147 C 
ATOM      8  C   UNL     1       2.831  -2.399  -1.450  0.00  0.00    +0.035 C 
ATOM      9  C   UNL     1       1.482   1.866   0.152  0.00  0.00    +0.003 C 
ATOM     10  C   UNL     1       2.477   1.087   2.313  0.00  0.00    +0.003 C 
ENDROOT
BRANCH   5  11
ATOM     11  O   UNL     1       0.064  -2.183  -1.633  0.00  0.00    -0.380 OA
ATOM     12  H   UNL     1       0.567  -2.915  -2.023  0.00  0.00    +0.211 HD
ENDBRANCH   5  11
BRANCH   2  13
ATOM     13  C   UNL     1       3.911   0.188  -0.335  0.00  0.00    +0.006 C 
ATOM     14  C   UNL     1       5.101   0.262   0.279  0.00  0.00    +0.035 C 
BRANCH  14  16
ATOM     15  O   UNL     1       6.229   1.256  -1.569  0.00  0.00    -0.291 OA
ATOM     16  C   UNL     1       6.285   0.841  -0.413  0.00  0.00    +0.173 C 
ATOM     17  C   UNL     1       7.575   0.878   0.364  0.00  0.00    +0.077 C 
ENDBRANCH  14  16
ENDBRANCH   2  13
BRANCH   7  18
ATOM     18  O   UNL     1      -1.509  -1.240   0.675  0.00  0.00    -0.329 OA
BRANCH  18  20
ATOM     19  O   UNL     1      -2.565   0.777   0.163  0.00  0.00    -0.326 OA
ATOM     20  C   UNL     1      -2.584  -0.634  -0.042  0.00  0.00    +0.266 C 
ATOM     21  C   UNL     1      -3.892  -1.233   0.476  0.00  0.00    +0.196 C 
ATOM     22  C   UNL     1      -5.105  -0.531  -0.133  0.00  0.00    +0.172 C 
ATOM     23  C   UNL     1      -3.605   1.448  -0.550  0.00  0.00    +0.176 C 
ATOM     24  C   UNL     1      -4.971   0.989  -0.036  0.00  0.00    +0.169 C 
BRANCH  21  25
ATOM     25  O   UNL     1      -3.920  -2.616   0.125  0.00  0.00    -0.378 OA
ATOM     26  H   UNL     1      -3.150  -3.063   0.511  0.00  0.00    +0.211 HD
ENDBRANCH  21  25
BRANCH  22  27
ATOM     27  O   UNL     1      -6.284  -0.917   0.576  0.00  0.00    -0.379 OA
ATOM     28  H   UNL     1      -6.389  -1.880   0.527  0.00  0.00    +0.211 HD
ENDBRANCH  22  27
BRANCH  24  29
ATOM     29  O   UNL     1      -5.997   1.603  -0.811  0.00  0.00    -0.379 OA
ATOM     30  H   UNL     1      -6.864   1.314  -0.487  0.00  0.00    +0.211 HD
ENDBRANCH  24  29
BRANCH  23  31
ATOM     31  C   UNL     1      -3.402   2.947  -0.355  0.00  0.00    +0.169 C 
BRANCH  31  32
ATOM     32  O   UNL     1      -2.119   3.296  -0.841  0.00  0.00    -0.379 OA
ATOM     33  H   UNL     1      -1.977   4.248  -0.723  0.00  0.00    +0.211 HD
ENDBRANCH  31  32
ENDBRANCH  23  31
ENDBRANCH  18  20
ENDBRANCH   7  18
TORSDOF 10
