REMARK  Name = 101778635
REMARK  4 active torsions:
REMARK  status: ('A' for Active; 'I' for Inactive)
REMARK    1  A    between atoms: C_4  and  O_33
REMARK    2  A    between atoms: C_5  and  O_35
REMARK    3  A    between atoms: C_6  and  O_37
REMARK    4  A    between atoms: C_25  and  O_39
REMARK                            x       y       z     vdW  Elec       q    Type
REMARK                         _______ _______ _______ _____ _____    ______ ____
ROOT
ATOM      1  O   UNL     1       4.198  -0.658  -1.929  0.00  0.00    -0.289 OA
ATOM      2  O   UNL     1      -3.784  -1.155   1.802  0.00  0.00    -0.270 OA
ATOM      3  N   UNL     1      -5.747  -0.734   0.631  0.00  0.00    -0.300 N 
ATOM      4  C   UNL     1       4.998  -2.266   0.534  0.00  0.00    +0.176 C 
ATOM      5  C   UNL     1       4.015  -1.998   1.689  0.00  0.00    +0.162 C 
ATOM      6  C   UNL     1       5.665  -1.016  -0.053  0.00  0.00    +0.202 C 
ATOM      7  C   UNL     1      -5.599  -2.320  -1.270  0.00  0.00    +0.042 C 
ATOM      8  C   UNL     1      -6.015  -2.102   0.200  0.00  0.00    +0.094 C 
ATOM      9  C   UNL     1       2.717  -1.334   1.316  0.00  0.00    +0.005 C 
ATOM     10  C   UNL     1       4.782  -0.175  -0.963  0.00  0.00    +0.202 C 
ATOM     11  C   UNL     1      -5.927  -3.742  -1.721  0.00  0.00    +0.006 C 
ATOM     12  C   UNL     1      -4.124  -2.038  -1.438  0.00  0.00    -0.025 C 
ATOM     13  C   UNL     1       2.280  -0.202   1.891  0.00  0.00    -0.002 C 
ATOM     14  C   UNL     1       4.731   1.287  -0.663  0.00  0.00    +0.040 C 
ATOM     15  C   UNL     1      -3.658  -0.906  -1.989  0.00  0.00    -0.005 C 
ATOM     16  C   UNL     1       0.980   0.383   1.626  0.00  0.00    -0.005 C 
ATOM     17  C   UNL     1      -4.599  -0.373   1.328  0.00  0.00    +0.249 C 
ATOM     18  C   UNL     1       0.494   1.534   2.135  0.00  0.00    -0.022 C 
ATOM     19  C   UNL     1       3.708   2.110  -0.934  0.00  0.00    +0.003 C 
ATOM     20  C   UNL     1      -2.270  -0.521  -1.902  0.00  0.00    -0.000 C 
ATOM     21  C   UNL     1      -4.449   1.111   1.396  0.00  0.00    +0.094 C 
ATOM     22  C   UNL     1      -0.851   2.021   1.824  0.00  0.00    -0.001 C 
ATOM     23  C   UNL     1       2.438   1.768  -1.532  0.00  0.00    -0.000 C 
ATOM     24  C   UNL     1       1.255   2.484   3.027  0.00  0.00    +0.031 C 
ATOM     25  C   UNL     1      -3.315   1.811   1.581  0.00  0.00    +0.138 C 
ATOM     26  C   UNL     1      -1.826   0.701  -2.239  0.00  0.00    -0.000 C 
ATOM     27  C   UNL     1      -1.975   1.280   1.803  0.00  0.00    +0.036 C 
ATOM     28  C   UNL     1       0.090   2.324  -2.171  0.00  0.00    -0.022 C 
ATOM     29  C   UNL     1       1.425   2.641  -1.662  0.00  0.00    -0.004 C 
ATOM     30  C   UNL     1      -0.472   1.119  -1.947  0.00  0.00    -0.004 C 
ATOM     31  C   UNL     1      -0.584   3.485  -2.852  0.00  0.00    +0.031 C 
ATOM     32  H   UNL     1      -6.408  -0.036   0.419  0.00  0.00    +0.150 HD
ENDROOT
BRANCH   4  33
ATOM     33  O   UNL     1       4.368  -3.030  -0.495  0.00  0.00    -0.379 OA
ATOM     34  H   UNL     1       3.952  -3.815  -0.107  0.00  0.00    +0.211 HD
ENDBRANCH   4  33
BRANCH   5  35
ATOM     35  O   UNL     1       3.669  -3.254   2.284  0.00  0.00    -0.377 OA
ATOM     36  H   UNL     1       4.478  -3.723   2.543  0.00  0.00    +0.211 HD
ENDBRANCH   5  35
BRANCH   6  37
ATOM     37  O   UNL     1       6.746  -1.437  -0.885  0.00  0.00    -0.375 OA
ATOM     38  H   UNL     1       7.358  -1.983  -0.368  0.00  0.00    +0.211 HD
ENDBRANCH   6  37
BRANCH  25  39
ATOM     39  O   UNL     1      -3.366   3.201   1.581  0.00  0.00    -0.505 OA
ATOM     40  H   UNL     1      -4.183   3.640   1.447  0.00  0.00    +0.292 HD
ENDBRANCH  25  39
TORSDOF 4
