REMARK  Name = 101790377
REMARK  4 active torsions:
REMARK  status: ('A' for Active; 'I' for Inactive)
REMARK    1  A    between atoms: C_15  and  O_27
REMARK    2  A    between atoms: C_21  and  O_29
REMARK    3  A    between atoms: C_25  and  C_31
REMARK    4  A    between atoms: C_31  and  O_33
REMARK                            x       y       z     vdW  Elec       q    Type
REMARK                         _______ _______ _______ _____ _____    ______ ____
ROOT
ATOM      1  O   UNL     1      -1.646   1.883   0.862  0.00  0.00    -0.327 OA
ATOM      2  O   UNL     1      -2.996  -1.296  -0.025  0.00  0.00    -0.454 OA
ATOM      3  O   UNL     1      -0.683   0.153  -0.495  0.00  0.00    -0.459 OA
ATOM      4  O   UNL     1      -3.667  -3.490  -0.004  0.00  0.00    -0.247 OA
ATOM      5  O   UNL     1       4.952  -0.999   0.753  0.00  0.00    -0.442 OA
ATOM      6  O   UNL     1       5.625   1.195   0.460  0.00  0.00    -0.245 OA
ATOM      7  C   UNL     1      -3.642  -0.007  -0.051  0.00  0.00    +0.147 C 
ATOM      8  C   UNL     1      -1.499   1.346  -0.464  0.00  0.00    +0.232 C 
ATOM      9  C   UNL     1      -2.892   0.940  -1.003  0.00  0.00    +0.110 C 
ATOM     10  C   UNL     1      -3.646   0.587   1.365  0.00  0.00    +0.070 C 
ATOM     11  C   UNL     1      -0.844   2.431  -1.364  0.00  0.00    +0.069 C 
ATOM     12  C   UNL     1      -5.042  -0.323  -0.561  0.00  0.00    +0.081 C 
ATOM     13  C   UNL     1      -2.231   0.978   1.801  0.00  0.00    +0.122 C 
ATOM     14  C   UNL     1       0.539   2.792  -0.796  0.00  0.00    +0.039 C 
ATOM     15  C   UNL     1      -5.306  -1.694   0.017  0.00  0.00    +0.213 C 
ATOM     16  C   UNL     1       1.309   1.562  -0.415  0.00  0.00    +0.046 C 
ATOM     17  C   UNL     1      -1.663   3.716  -1.515  0.00  0.00    +0.007 C 
ATOM     18  C   UNL     1       0.658   0.321  -0.279  0.00  0.00    +0.140 C 
ATOM     19  C   UNL     1      -3.929  -2.298  -0.007  0.00  0.00    +0.344 C 
ATOM     20  C   UNL     1      -2.253   1.677   3.155  0.00  0.00    +0.032 C 
ATOM     21  C   UNL     1       2.686   1.653  -0.169  0.00  0.00    +0.139 C 
ATOM     22  C   UNL     1       1.372  -0.835   0.060  0.00  0.00    +0.036 C 
ATOM     23  C   UNL     1       2.732  -0.728   0.287  0.00  0.00    +0.032 C 
ATOM     24  C   UNL     1       3.359   0.495   0.177  0.00  0.00    +0.109 C 
ATOM     25  C   UNL     1       3.718  -1.762   0.671  0.00  0.00    +0.218 C 
ATOM     26  C   UNL     1       4.774   0.329   0.468  0.00  0.00    +0.344 C 
ENDROOT
BRANCH  15  27
ATOM     27  O   UNL     1      -6.220  -2.416  -0.767  0.00  0.00    -0.374 OA
ATOM     28  H   UNL     1      -7.091  -1.991  -0.722  0.00  0.00    +0.211 HD
ENDBRANCH  15  27
BRANCH  21  29
ATOM     29  O   UNL     1       3.341   2.839  -0.267  0.00  0.00    -0.506 OA
ATOM     30  H   UNL     1       2.873   3.615  -0.503  0.00  0.00    +0.292 HD
ENDBRANCH  21  29
BRANCH  25  31
ATOM     31  C   UNL     1       3.887  -2.867  -0.356  0.00  0.00    +0.155 C 
ATOM     32  C   UNL     1       4.939  -3.882   0.068  0.00  0.00    +0.036 C 
BRANCH  31  33
ATOM     33  O   UNL     1       4.269  -2.297  -1.605  0.00  0.00    -0.380 OA
ATOM     34  H   UNL     1       3.602  -1.649  -1.882  0.00  0.00    +0.211 HD
ENDBRANCH  31  33
ENDBRANCH  25  31
TORSDOF 4
