REMARK  Name = 101749247
REMARK  5 active torsions:
REMARK  status: ('A' for Active; 'I' for Inactive)
REMARK    1  A    between atoms: N_5  and  C_12
REMARK    2  A    between atoms: C_7  and  C_18
REMARK    3  A    between atoms: C_8  and  C_21
REMARK    4  A    between atoms: C_18  and  O_19
REMARK    5  A    between atoms: C_21  and  O_22
REMARK                            x       y       z     vdW  Elec       q    Type
REMARK                         _______ _______ _______ _____ _____    ______ ____
ROOT
ATOM      1  S   UNL     1      -0.992   1.039   2.229  0.00  0.00    -0.051 S 
ATOM      2  S   UNL     1      -2.300  -0.505   1.864  0.00  0.00    -0.052 S 
ATOM      3  O   UNL     1      -0.243  -2.289  -0.378  0.00  0.00    -0.272 OA
ATOM      4  O   UNL     1      -1.591   2.749  -0.804  0.00  0.00    -0.272 OA
ATOM      5  N   UNL     1       0.300  -0.044   0.055  0.00  0.00    -0.241 N 
ATOM      6  N   UNL     1      -2.245   0.520  -0.676  0.00  0.00    -0.261 N 
ATOM      7  C   UNL     1      -0.245   1.239   0.562  0.00  0.00    +0.209 C 
ATOM      8  C   UNL     1      -2.054  -0.744   0.054  0.00  0.00    +0.206 C 
ATOM      9  C   UNL     1      -0.587  -1.126  -0.165  0.00  0.00    +0.259 C 
ATOM     10  C   UNL     1      -1.397   1.602  -0.402  0.00  0.00    +0.256 C 
ATOM     11  C   UNL     1      -3.404   0.709  -1.541  0.00  0.00    +0.116 C 
ENDROOT
BRANCH   5  12
ATOM     12  C   UNL     1       1.704  -0.300  -0.029  0.00  0.00    +0.055 C 
ATOM     13  C   UNL     1       2.255  -0.781  -1.217  0.00  0.00    +0.015 C 
ATOM     14  C   UNL     1       2.523  -0.071   1.076  0.00  0.00    +0.015 C 
ATOM     15  C   UNL     1       3.625  -1.031  -1.300  0.00  0.00    +0.001 C 
ATOM     16  C   UNL     1       3.893  -0.321   0.994  0.00  0.00    +0.001 C 
ATOM     17  C   UNL     1       4.443  -0.802  -0.194  0.00  0.00    +0.000 C 
ENDBRANCH   5  12
BRANCH   7  18
ATOM     18  C   UNL     1       0.722   2.437   0.596  0.00  0.00    +0.176 C 
BRANCH  18  19
ATOM     19  O   UNL     1       1.214   2.646  -0.713  0.00  0.00    -0.379 OA
ATOM     20  H   UNL     1       1.826   3.399  -0.712  0.00  0.00    +0.211 HD
ENDBRANCH  18  19
ENDBRANCH   7  18
BRANCH   8  21
ATOM     21  C   UNL     1      -2.972  -1.891  -0.388  0.00  0.00    +0.176 C 
BRANCH  21  22
ATOM     22  O   UNL     1      -2.648  -3.035   0.376  0.00  0.00    -0.379 OA
ATOM     23  H   UNL     1      -3.219  -3.773   0.110  0.00  0.00    +0.211 HD
ENDBRANCH  21  22
ENDBRANCH   8  21
TORSDOF 5
