REMARK  Name = 101717793
REMARK  4 active torsions:
REMARK  status: ('A' for Active; 'I' for Inactive)
REMARK    1  A    between atoms: C_5  and  C_37
REMARK    2  A    between atoms: C_9  and  O_32
REMARK    3  A    between atoms: C_14  and  O_34
REMARK    4  A    between atoms: C_18  and  C_27
REMARK                            x       y       z     vdW  Elec       q    Type
REMARK                         _______ _______ _______ _____ _____    ______ ____
ROOT
ATOM      1  O   UNL     1      -4.337  -1.546   0.372  0.00  0.00    -0.317 OA
ATOM      2  O   UNL     1      -4.883   0.721   0.859  0.00  0.00    -0.315 OA
ATOM      3  O   UNL     1      -5.593  -0.250  -1.185  0.00  0.00    -0.315 OA
ATOM      4  O   UNL     1       1.267   3.124  -0.194  0.00  0.00    -0.293 OA
ATOM      5  C   UNL     1      -2.550   0.116   0.498  0.00  0.00    +0.109 C 
ATOM      6  C   UNL     1      -1.099   0.478  -0.004  0.00  0.00    +0.048 C 
ATOM      7  C   UNL     1      -0.133  -0.740   0.159  0.00  0.00    +0.028 C 
ATOM      8  C   UNL     1      -3.073  -1.174  -0.216  0.00  0.00    +0.108 C 
ATOM      9  C   UNL     1       1.318  -0.441  -0.317  0.00  0.00    +0.095 C 
ATOM     10  C   UNL     1       1.938   0.844   0.285  0.00  0.00    +0.080 C 
ATOM     11  C   UNL     1      -3.646   1.203   0.285  0.00  0.00    +0.131 C 
ATOM     12  C   UNL     1      -0.693  -2.013  -0.514  0.00  0.00    +0.005 C 
ATOM     13  C   UNL     1      -2.109  -2.353  -0.065  0.00  0.00    +0.028 C 
ATOM     14  C   UNL     1      -0.489   1.727   0.664  0.00  0.00    +0.168 C 
ATOM     15  C   UNL     1      -3.358  -0.913  -1.722  0.00  0.00    +0.058 C 
ATOM     16  C   UNL     1      -4.406   0.191  -1.857  0.00  0.00    +0.125 C 
ATOM     17  C   UNL     1       1.474  -0.246  -1.839  0.00  0.00    +0.028 C 
ATOM     18  C   UNL     1       3.158   1.114  -0.649  0.00  0.00    +0.034 C 
ATOM     19  C   UNL     1      -3.923   1.484  -1.196  0.00  0.00    +0.060 C 
ATOM     20  C   UNL     1       0.929   2.000   0.184  0.00  0.00    +0.179 C 
ATOM     21  C   UNL     1       2.635   0.736  -2.044  0.00  0.00    +0.007 C 
ATOM     22  C   UNL     1      -5.296  -0.487   0.201  0.00  0.00    +0.296 C 
ATOM     23  C   UNL     1       2.335   0.728   1.766  0.00  0.00    +0.010 C 
ATOM     24  C   UNL     1      -6.586  -0.943   0.866  0.00  0.00    +0.096 C 
ENDROOT
BRANCH  18  27
ATOM     25  O   UNL     1       5.831  -1.600  -0.471  0.00  0.00    -0.418 OA
ATOM     26  O   UNL     1       7.835  -1.611   0.602  0.00  0.00    -0.244 OA
ATOM     27  C   UNL     1       4.411   0.350  -0.329  0.00  0.00    +0.016 C 
ATOM     28  C   UNL     1       5.406   0.978   0.500  0.00  0.00    +0.006 C 
ATOM     29  C   UNL     1       4.661  -0.887  -0.770  0.00  0.00    +0.179 C 
ATOM     30  C   UNL     1       6.539   0.341   0.815  0.00  0.00    +0.082 C 
ATOM     31  C   UNL     1       6.795  -1.026   0.315  0.00  0.00    +0.346 C 
ENDBRANCH  18  27
BRANCH   9  32
ATOM     32  O   UNL     1       2.138  -1.554   0.078  0.00  0.00    -0.386 OA
ATOM     33  H   UNL     1       2.055  -1.695   1.034  0.00  0.00    +0.210 HD
ENDBRANCH   9  32
BRANCH  14  34
ATOM     34  O   UNL     1      -1.235   2.899   0.368  0.00  0.00    -0.377 OA
ATOM     35  H   UNL     1      -2.154   2.778   0.655  0.00  0.00    +0.211 HD
ENDBRANCH  14  34
BRANCH   5  37
ATOM     36  O   UNL     1      -2.782  -1.152   2.552  0.00  0.00    -0.288 OA
ATOM     37  C   UNL     1      -2.481  -0.097   2.004  0.00  0.00    +0.211 C 
ENDBRANCH   5  37
TORSDOF 4
