REMARK  Name = 10177526
REMARK  10 active torsions:
REMARK  status: ('A' for Active; 'I' for Inactive)
REMARK    1  A    between atoms: O_1  and  C_7
REMARK    2  A    between atoms: O_1  and  C_17
REMARK    3  A    between atoms: C_3  and  O_8
REMARK    4  A    between atoms: C_4  and  O_10
REMARK    5  A    between atoms: C_5  and  O_12
REMARK    6  A    between atoms: C_6  and  C_14
REMARK    7  A    between atoms: C_14  and  O_15
REMARK    8  A    between atoms: C_18  and  C_23
REMARK    9  A    between atoms: C_23  and  C_24
REMARK   10  A    between atoms: C_29  and  O_30
REMARK                            x       y       z     vdW  Elec       q    Type
REMARK                         _______ _______ _______ _____ _____    ______ ____
ROOT
ATOM      1  O   UNL     1      -0.553  -0.048  -0.871  0.00  0.00    -0.451 OA
ENDROOT
BRANCH   1   7
ATOM      2  O   UNL     1      -2.438   0.315   0.455  0.00  0.00    -0.316 OA
ATOM      3  C   UNL     1      -3.704  -2.061  -0.546  0.00  0.00    +0.173 C 
ATOM      4  C   UNL     1      -4.220  -1.313   0.682  0.00  0.00    +0.169 C 
ATOM      5  C   UNL     1      -2.229  -1.752  -0.804  0.00  0.00    +0.210 C 
ATOM      6  C   UNL     1      -3.852   0.171   0.609  0.00  0.00    +0.177 C 
ATOM      7  C   UNL     1      -1.962  -0.247  -0.766  0.00  0.00    +0.318 C 
BRANCH   3   8
ATOM      8  O   UNL     1      -3.862  -3.461  -0.310  0.00  0.00    -0.379 OA
ATOM      9  H   UNL     1      -4.797  -3.658  -0.146  0.00  0.00    +0.211 HD
ENDBRANCH   3   8
BRANCH   4  10
ATOM     10  O   UNL     1      -5.638  -1.443   0.752  0.00  0.00    -0.379 OA
ATOM     11  H   UNL     1      -5.874  -2.383   0.799  0.00  0.00    +0.211 HD
ENDBRANCH   4  10
BRANCH   5  12
ATOM     12  O   UNL     1      -1.861  -2.239  -2.094  0.00  0.00    -0.377 OA
ATOM     13  H   UNL     1      -2.023  -3.194  -2.137  0.00  0.00    +0.211 HD
ENDBRANCH   5  12
BRANCH   6  14
ATOM     14  C   UNL     1      -4.253   0.916   1.878  0.00  0.00    +0.169 C 
BRANCH  14  15
ATOM     15  O   UNL     1      -3.873   2.273   1.744  0.00  0.00    -0.379 OA
ATOM     16  H   UNL     1      -4.123   2.760   2.545  0.00  0.00    +0.211 HD
ENDBRANCH  14  15
ENDBRANCH   6  14
ENDBRANCH   1   7
BRANCH   1  17
ATOM     17  C   UNL     1      -0.114   1.248  -0.848  0.00  0.00    +0.138 C 
ATOM     18  C   UNL     1       0.762   1.682   0.143  0.00  0.00    +0.016 C 
ATOM     19  C   UNL     1      -0.556   2.128  -1.832  0.00  0.00    +0.037 C 
ATOM     20  C   UNL     1       1.199   3.006   0.150  0.00  0.00    -0.001 C 
ATOM     21  C   UNL     1      -0.119   3.452  -1.825  0.00  0.00    +0.003 C 
ATOM     22  C   UNL     1       0.759   3.892  -0.834  0.00  0.00    -0.000 C 
BRANCH  18  23
ATOM     23  C   UNL     1       1.245   0.748   1.203  0.00  0.00    +0.056 C 
BRANCH  23  24
ATOM     24  C   UNL     1       2.519   0.014   0.840  0.00  0.00    -0.017 C 
ATOM     25  C   UNL     1       3.739   0.579   1.166  0.00  0.00    -0.001 C 
ATOM     26  C   UNL     1       2.433  -1.204   0.190  0.00  0.00    -0.001 C 
ATOM     27  C   UNL     1       4.912  -0.097   0.831  0.00  0.00    +0.037 C 
ATOM     28  C   UNL     1       3.606  -1.880  -0.145  0.00  0.00    +0.037 C 
ATOM     29  C   UNL     1       4.846  -1.327   0.175  0.00  0.00    +0.139 C 
BRANCH  29  30
ATOM     30  O   UNL     1       5.991  -1.986  -0.151  0.00  0.00    -0.471 OA
ATOM     31  C   UNL     1       7.223  -1.364   0.207  0.00  0.00    +0.252 C 
ENDBRANCH  29  30
ENDBRANCH  23  24
ENDBRANCH  18  23
ENDBRANCH   1  17
TORSDOF 10
