REMARK  Name = 101789798
REMARK  3 active torsions:
REMARK  status: ('A' for Active; 'I' for Inactive)
REMARK    1  A    between atoms: C_10  and  O_33
REMARK    2  A    between atoms: C_11  and  C_35
REMARK    3  A    between atoms: C_35  and  C_37
REMARK                            x       y       z     vdW  Elec       q    Type
REMARK                         _______ _______ _______ _____ _____    ______ ____
ROOT
ATOM      1  O   UNL     1       4.017  -1.770  -0.737  0.00  0.00    -0.277 OA
ATOM      2  O   UNL     1      -0.077   1.008   4.056  0.00  0.00    -0.273 OA
ATOM      3  O   UNL     1      -3.381   2.427   0.688  0.00  0.00    -0.274 OA
ATOM      4  N   UNL     1       0.749  -1.046   0.401  0.00  0.00    +0.425 N 
ATOM      5  N   UNL     1       2.628   0.037  -0.179  0.00  0.00    -0.279 N 
ATOM      6  N   UNL     1      -1.942   0.613   1.021  0.00  0.00    -0.230 N 
ATOM      7  N   UNL     1      -0.245  -0.796   2.645  0.00  0.00    -0.315 N 
ATOM      8  N   UNL     1      -2.335  -1.437  -0.120  0.00  0.00    -0.395 NA
ATOM      9  C   UNL     1       1.422   0.225   0.569  0.00  0.00    +0.059 C 
ATOM     10  C   UNL     1       0.802   1.524   0.037  0.00  0.00    +0.110 C 
ATOM     11  C   UNL     1       1.846  -2.045   0.411  0.00  0.00    +0.027 C 
ATOM     12  C   UNL     1       0.001   2.251   1.121  0.00  0.00    +0.060 C 
ATOM     13  C   UNL     1      -0.378  -1.294   1.293  0.00  0.00    +0.089 C 
ATOM     14  C   UNL     1       2.062   2.198  -0.487  0.00  0.00    +0.015 C 
ATOM     15  C   UNL     1      -1.043   1.396   1.880  0.00  0.00    +0.160 C 
ATOM     16  C   UNL     1       3.012  -1.280  -0.252  0.00  0.00    +0.208 C 
ATOM     17  C   UNL     1       3.084   1.244  -0.673  0.00  0.00    +0.050 C 
ATOM     18  C   UNL     1      -1.631  -0.701   0.683  0.00  0.00    +0.164 C 
ATOM     19  C   UNL     1      -0.445   0.528   2.984  0.00  0.00    +0.240 C 
ATOM     20  C   UNL     1       2.254   3.509  -0.882  0.00  0.00    -0.001 C 
ATOM     21  C   UNL     1       4.286   1.548  -1.275  0.00  0.00    +0.015 C 
ATOM     22  C   UNL     1      -3.065   1.259   0.482  0.00  0.00    +0.242 C 
ATOM     23  C   UNL     1       3.480   3.845  -1.466  0.00  0.00    -0.000 C 
ATOM     24  C   UNL     1       4.481   2.874  -1.666  0.00  0.00    +0.001 C 
ATOM     25  C   UNL     1      -3.896   0.429  -0.416  0.00  0.00    +0.151 C 
ATOM     26  C   UNL     1      -3.494  -0.883  -0.680  0.00  0.00    +0.123 C 
ATOM     27  C   UNL     1      -5.058   0.952  -0.993  0.00  0.00    -0.010 C 
ATOM     28  C   UNL     1      -4.274  -1.670  -1.535  0.00  0.00    +0.028 C 
ATOM     29  C   UNL     1      -5.826   0.156  -1.842  0.00  0.00    -0.004 C 
ATOM     30  C   UNL     1      -5.435  -1.153  -2.113  0.00  0.00    +0.002 C 
ATOM     31  H   UNL     1       0.233  -1.086  -0.478  0.00  0.00    -0.073 HD
ATOM     32  H   UNL     1       0.000  -1.430   3.357  0.00  0.00    +0.148 HD
ENDROOT
BRANCH  10  33
ATOM     33  O   UNL     1       0.020   1.307  -1.136  0.00  0.00    -0.383 OA
ATOM     34  H   UNL     1      -0.813   0.875  -0.893  0.00  0.00    +0.211 HD
ENDBRANCH  10  33
BRANCH  11  35
ATOM     35  C   UNL     1       1.499  -3.293  -0.384  0.00  0.00    -0.010 C 
ATOM     36  C   UNL     1       1.020  -2.906  -1.788  0.00  0.00    -0.002 C 
BRANCH  35  37
ATOM     37  C   UNL     1       2.682  -4.276  -0.497  0.00  0.00    -0.002 C 
ATOM     38  C   UNL     1       3.182  -4.779   0.850  0.00  0.00    -0.000 C 
ENDBRANCH  35  37
ENDBRANCH  11  35
TORSDOF 3
