REMARK  Name = 101733937
REMARK  7 active torsions:
REMARK  status: ('A' for Active; 'I' for Inactive)
REMARK    1  A    between atoms: C_1  and  C_7
REMARK    2  A    between atoms: C_4  and  O_17
REMARK    3  A    between atoms: C_8  and  C_14
REMARK    4  A    between atoms: C_12  and  C_16
REMARK    5  A    between atoms: O_17  and  S_18
REMARK    6  A    between atoms: S_18  and  O_21
REMARK    7  A    between atoms: O_21  and  N_22
REMARK                            x       y       z     vdW  Elec       q    Type
REMARK                         _______ _______ _______ _____ _____    ______ ____
ROOT
ATOM      1  C   UNL     1       0.474  -0.428  -0.254  0.00  0.00    +0.001 C 
ATOM      2  C   UNL     1      -0.348  -0.444   0.873  0.00  0.00    +0.003 C 
ATOM      3  C   UNL     1      -0.089  -0.488  -1.528  0.00  0.00    +0.003 C 
ATOM      4  C   UNL     1      -2.296  -0.579  -0.549  0.00  0.00    +0.176 C 
ATOM      5  C   UNL     1      -1.733  -0.519   0.726  0.00  0.00    +0.040 C 
ATOM      6  C   UNL     1      -1.474  -0.563  -1.676  0.00  0.00    +0.040 C 
ENDROOT
BRANCH   1   7
ATOM      7  C   UNL     1       1.915  -0.351  -0.101  0.00  0.00    +0.010 C 
ATOM      8  C   UNL     1       2.581   0.873  -0.049  0.00  0.00    +0.069 C 
ATOM      9  C   UNL     1       2.636  -1.542  -0.002  0.00  0.00    +0.001 C 
ATOM     10  C   UNL     1       3.968   0.907   0.100  0.00  0.00    +0.021 C 
ATOM     11  C   UNL     1       4.022  -1.508   0.147  0.00  0.00    +0.010 C 
ATOM     12  C   UNL     1       4.688  -0.283   0.198  0.00  0.00    +0.069 C 
BRANCH   8  14
ATOM     13  N   UNL     1       1.304   3.124  -0.224  0.00  0.00    -0.191 NA
ATOM     14  C   UNL     1       1.876   2.117  -0.146  0.00  0.00    +0.100 C 
ENDBRANCH   8  14
BRANCH  12  16
ATOM     15  N   UNL     1       7.262  -0.222   0.475  0.00  0.00    -0.191 NA
ATOM     16  C   UNL     1       6.108  -0.249   0.351  0.00  0.00    +0.100 C 
ENDBRANCH  12  16
ENDBRANCH   1   7
BRANCH   4  17
ATOM     17  O   UNL     1      -3.647  -0.654  -0.693  0.00  0.00    -0.323 OA
BRANCH  17  18
ATOM     18  S   UNL     1      -4.708   0.000   0.373  0.00  0.00    +0.270 S 
ATOM     19  O   UNL     1      -4.828  -0.904   1.503  0.00  0.00    -0.106 OA
ATOM     20  O   UNL     1      -4.352   1.395   0.567  0.00  0.00    -0.106 OA
BRANCH  18  21
ATOM     21  O   UNL     1      -6.116  -0.046  -0.457  0.00  0.00    -0.117 OA
BRANCH  21  22
ATOM     22  N   UNL     1      -7.242   0.366   0.366  0.00  0.00    -0.185 NA
ATOM     23  H   UNL     1      -8.099   0.324  -0.185  0.00  0.00    +0.152 HD
ATOM     24  H   UNL     1      -7.093   1.321   0.691  0.00  0.00    +0.152 HD
ENDBRANCH  21  22
ENDBRANCH  18  21
ENDBRANCH  17  18
ENDBRANCH   4  17
TORSDOF 7
