REMARK  Name = 101787073
REMARK  5 active torsions:
REMARK  status: ('A' for Active; 'I' for Inactive)
REMARK    1  A    between atoms: N_3  and  C1*_13
REMARK    2  A    between atoms: C_7  and  C_21
REMARK    3  A    between atoms: C3*_12  and  O3*_15
REMARK    4  A    between atoms: C4*_14  and  C5*_17
REMARK    5  A    between atoms: C5*_17  and  O5*_18
REMARK                            x       y       z     vdW  Elec       q    Type
REMARK                         _______ _______ _______ _____ _____    ______ ____
ROOT
ATOM      1  O   UNL     1      -0.186  -2.908   0.916  0.00  0.00    -0.252 OA
ATOM      2  O   UNL     1      -4.346  -1.393  -0.327  0.00  0.00    -0.269 OA
ATOM      3  N   UNL     1      -0.428  -0.634   0.446  0.00  0.00    -0.218 N 
ATOM      4  N   UNL     1      -2.255  -2.139   0.295  0.00  0.00    -0.235 N 
ATOM      5  C   UNL     1      -1.295   0.382   0.060  0.00  0.00    +0.086 C 
ATOM      6  C   UNL     1      -0.896  -1.959   0.578  0.00  0.00    +0.315 C 
ATOM      7  C   UNL     1      -2.593   0.204  -0.209  0.00  0.00    +0.137 C 
ATOM      8  C   UNL     1      -3.162  -1.164  -0.093  0.00  0.00    +0.264 C 
ATOM      9  H   UNL     1      -2.604  -3.056   0.380  0.00  0.00    +0.159 HD
ENDROOT
BRANCH   3  13
ATOM     10  O4* UNL     1       1.025   0.997   1.258  0.00  0.00    -0.335 OA
ATOM     11  C2* UNL     1       1.794  -0.346  -0.556  0.00  0.00    +0.083 C 
ATOM     12  C3* UNL     1       1.725   1.105  -0.990  0.00  0.00    +0.144 C 
ATOM     13  C1* UNL     1       0.953  -0.333   0.713  0.00  0.00    +0.202 C 
ATOM     14  C4* UNL     1       1.749   1.836   0.343  0.00  0.00    +0.173 C 
BRANCH  12  15
ATOM     15  O3* UNL     1       2.785   1.499  -1.835  0.00  0.00    -0.382 OA
ATOM     16  H3* UNL     1       2.731   1.009  -2.671  0.00  0.00    +0.210 HD
ENDBRANCH  12  15
BRANCH  14  17
ATOM     17  C5* UNL     1       1.104   3.210   0.288  0.00  0.00    +0.169 C 
BRANCH  17  18
ATOM     18  O5* UNL     1       1.169   3.797   1.577  0.00  0.00    -0.379 OA
ATOM     19  H5* UNL     1       0.759   4.676   1.554  0.00  0.00    +0.211 HD
ENDBRANCH  17  18
ENDBRANCH  14  17
ENDBRANCH   3  13
BRANCH   7  21
ATOM     20  N   UNL     1      -4.088   2.186  -0.916  0.00  0.00    -0.191 NA
ATOM     21  C   UNL     1      -3.416   1.295  -0.598  0.00  0.00    +0.106 C 
ENDBRANCH   7  21
TORSDOF 5
REMARK  Name = 101787073
REMARK  5 active torsions:
REMARK  status: ('A' for Active; 'I' for Inactive)
REMARK    1  A    between atoms: N_3  and  C1*_13
REMARK    2  A    between atoms: C_7  and  C_21
REMARK    3  A    between atoms: C3*_12  and  O3*_15
REMARK    4  A    between atoms: C4*_14  and  C5*_17
REMARK    5  A    between atoms: C5*_17  and  O5*_18
REMARK                            x       y       z     vdW  Elec       q    Type
REMARK                         _______ _______ _______ _____ _____    ______ ____
ROOT
ATOM      1  N   UNL     1       3.458  -1.912  -0.321  0.00  0.00    +0.000 NA
ATOM      2  N   UNL     1       3.730  -3.015  -0.422  0.00  0.00    +0.000 NA
ENDROOT
TORSDOF 0
