101768787
  -OEChem-03292013293D

 70 73  0     1  0  0  0  0  0999 V2000
   -2.3834    1.2562   -2.9004 O   0  0  0  0  0  0  0  0  0  0  0  0
    0.1859    3.6247   -0.0318 O   0  0  0  0  0  0  0  0  0  0  0  0
    0.3895    1.9519   -2.0628 O   0  0  0  0  0  0  0  0  0  0  0  0
   -6.3520   -1.7182    1.1448 O   0  0  0  0  0  0  0  0  0  0  0  0
   -5.5579   -3.8772    0.8844 O   0  0  0  0  0  0  0  0  0  0  0  0
    8.7933   -2.4820   -1.0403 O   0  0  0  0  0  0  0  0  0  0  0  0
    7.8633   -2.4639    1.0429 O   0  0  0  0  0  0  0  0  0  0  0  0
   -1.9906    2.0268   -1.7580 C   0  0  2  0  0  0  0  0  0  0  0  0
   -0.6574    1.6022   -1.1416 C   0  0  2  0  0  0  0  0  0  0  0  0
   -3.1765    1.0851   -1.7079 C   0  0  2  0  0  0  0  0  0  0  0  0
   -0.4089    2.3436    0.1652 C   0  0  1  0  0  0  0  0  0  0  0  0
   -3.0868   -0.3077   -1.1557 C   0  0  1  0  0  0  0  0  0  0  0  0
   -0.5761    0.0445   -0.9603 C   0  0  2  0  0  0  0  0  0  0  0  0
   -1.8436   -0.5146   -0.2608 C   0  0  2  0  0  0  0  0  0  0  0  0
    1.0194    2.6151    0.5533 C   0  0  2  0  0  0  0  0  0  0  0  0
   -2.2728    3.4928   -1.9343 C   0  0  0  0  0  0  0  0  0  0  0  0
   -4.3605   -0.6824   -0.3723 C   0  0  0  0  0  0  0  0  0  0  0  0
   -1.7395   -2.0160    0.1022 C   0  0  0  0  0  0  0  0  0  0  0  0
   -1.5221    2.3015    1.1458 C   0  0  0  0  0  0  0  0  0  0  0  0
    1.4309    2.8835    1.9563 C   0  0  1  0  0  0  0  0  0  0  0  0
    0.6986   -0.3779   -0.2783 C   0  0  0  0  0  0  0  0  0  0  0  0
   -4.2236   -1.9965    0.3354 C   0  0  0  0  0  0  0  0  0  0  0  0
   -3.0504   -2.6140    0.5335 C   0  0  0  0  0  0  0  0  0  0  0  0
    2.0366    1.6152    2.6220 C   0  0  0  0  0  0  0  0  0  0  0  0
    2.4206    4.0400    2.0407 C   0  0  0  0  0  0  0  0  0  0  0  0
    1.8470   -0.6154   -0.9291 C   0  0  0  0  0  0  0  0  0  0  0  0
   -5.4366   -2.6641    0.8135 C   0  0  0  0  0  0  0  0  0  0  0  0
    2.4960    1.8033    4.0618 C   0  0  0  0  0  0  0  0  0  0  0  0
    3.0647   -1.0200   -0.2623 C   0  0  0  0  0  0  0  0  0  0  0  0
    4.2120   -1.2569   -0.9164 C   0  0  0  0  0  0  0  0  0  0  0  0
   -7.6015   -2.2176    1.6330 C   0  0  0  0  0  0  0  0  0  0  0  0
    5.4312   -1.6609   -0.2497 C   0  0  0  0  0  0  0  0  0  0  0  0
    6.5731   -1.8957   -0.9098 C   0  0  0  0  0  0  0  0  0  0  0  0
    7.7780   -2.3054   -0.1630 C   0  0  0  0  0  0  0  0  0  0  0  0
   -4.1804    1.4876   -1.7386 H   0  0  0  0  0  0  0  0  0  0  0  0
   -3.0157   -0.9943   -2.0129 H   0  0  0  0  0  0  0  0  0  0  0  0
   -0.5494   -0.4080   -1.9645 H   0  0  0  0  0  0  0  0  0  0  0  0
   -2.0056   -0.0093    0.6905 H   0  0  0  0  0  0  0  0  0  0  0  0
    1.8433    2.2663   -0.0548 H   0  0  0  0  0  0  0  0  0  0  0  0
   -3.1495    3.6604   -2.5702 H   0  0  0  0  0  0  0  0  0  0  0  0
   -1.4246    3.9961   -2.4089 H   0  0  0  0  0  0  0  0  0  0  0  0
   -2.4712    3.9768   -0.9738 H   0  0  0  0  0  0  0  0  0  0  0  0
   -5.2044   -0.7172   -1.0735 H   0  0  0  0  0  0  0  0  0  0  0  0
   -4.5864    0.1017    0.3624 H   0  0  0  0  0  0  0  0  0  0  0  0
   -1.0253   -2.1483    0.9231 H   0  0  0  0  0  0  0  0  0  0  0  0
   -1.3628   -2.5911   -0.7526 H   0  0  0  0  0  0  0  0  0  0  0  0
   -2.5133    2.1298    0.7230 H   0  0  0  0  0  0  0  0  0  0  0  0
   -1.6003    3.2596    1.6748 H   0  0  0  0  0  0  0  0  0  0  0  0
   -1.3309    1.5461    1.9150 H   0  0  0  0  0  0  0  0  0  0  0  0
    0.5597    3.1781    2.5535 H   0  0  0  0  0  0  0  0  0  0  0  0
    0.1995    1.5155   -2.9109 H   0  0  0  0  0  0  0  0  0  0  0  0
    0.6708   -0.4719    0.8041 H   0  0  0  0  0  0  0  0  0  0  0  0
   -2.9990   -3.5798    1.0292 H   0  0  0  0  0  0  0  0  0  0  0  0
    2.8810    1.2498    2.0251 H   0  0  0  0  0  0  0  0  0  0  0  0
    1.2791    0.8231    2.6089 H   0  0  0  0  0  0  0  0  0  0  0  0
    3.3761    3.7799    1.5718 H   0  0  0  0  0  0  0  0  0  0  0  0
    2.0326    4.9229    1.5203 H   0  0  0  0  0  0  0  0  0  0  0  0
    2.6132    4.3387    3.0755 H   0  0  0  0  0  0  0  0  0  0  0  0
    1.8816   -0.5125   -2.0107 H   0  0  0  0  0  0  0  0  0  0  0  0
    1.6985    2.2334    4.6755 H   0  0  0  0  0  0  0  0  0  0  0  0
    2.7727    0.8363    4.4946 H   0  0  0  0  0  0  0  0  0  0  0  0
    3.3748    2.4516    4.1232 H   0  0  0  0  0  0  0  0  0  0  0  0
    3.0228   -1.1312    0.8189 H   0  0  0  0  0  0  0  0  0  0  0  0
    4.2535   -1.1460   -1.9978 H   0  0  0  0  0  0  0  0  0  0  0  0
   -8.2432   -1.3627    1.8619 H   0  0  0  0  0  0  0  0  0  0  0  0
   -7.4462   -2.7959    2.5488 H   0  0  0  0  0  0  0  0  0  0  0  0
   -8.0896   -2.8288    0.8679 H   0  0  0  0  0  0  0  0  0  0  0  0
    5.3865   -1.7697    0.8312 H   0  0  0  0  0  0  0  0  0  0  0  0
    6.6440   -1.7942   -1.9880 H   0  0  0  0  0  0  0  0  0  0  0  0
    9.6221   -2.7566   -0.5928 H   0  0  0  0  0  0  0  0  0  0  0  0
  1  8  1  0  0  0  0
  1 10  1  0  0  0  0
  2 11  1  0  0  0  0
  2 15  1  0  0  0  0
  3  9  1  0  0  0  0
  3 51  1  0  0  0  0
  4 27  1  0  0  0  0
  4 31  1  0  0  0  0
  5 27  2  0  0  0  0
  6 34  1  0  0  0  0
  6 70  1  0  0  0  0
  7 34  2  0  0  0  0
  8  9  1  0  0  0  0
  8 10  1  0  0  0  0
  8 16  1  0  0  0  0
  9 11  1  0  0  0  0
  9 13  1  0  0  0  0
 10 12  1  0  0  0  0
 10 35  1  0  0  0  0
 11 15  1  0  0  0  0
 11 19  1  0  0  0  0
 12 14  1  0  0  0  0
 12 17  1  0  0  0  0
 12 36  1  0  0  0  0
 13 14  1  0  0  0  0
 13 21  1  0  0  0  0
 13 37  1  0  0  0  0
 14 18  1  0  0  0  0
 14 38  1  0  0  0  0
 15 20  1  0  0  0  0
 15 39  1  0  0  0  0
 16 40  1  0  0  0  0
 16 41  1  0  0  0  0
 16 42  1  0  0  0  0
 17 22  1  0  0  0  0
 17 43  1  0  0  0  0
 17 44  1  0  0  0  0
 18 23  1  0  0  0  0
 18 45  1  0  0  0  0
 18 46  1  0  0  0  0
 19 47  1  0  0  0  0
 19 48  1  0  0  0  0
 19 49  1  0  0  0  0
 20 24  1  0  0  0  0
 20 25  1  0  0  0  0
 20 50  1  0  0  0  0
 21 26  2  0  0  0  0
 21 52  1  0  0  0  0
 22 23  2  0  0  0  0
 22 27  1  0  0  0  0
 23 53  1  0  0  0  0
 24 28  1  0  0  0  0
 24 54  1  0  0  0  0
 24 55  1  0  0  0  0
 25 56  1  0  0  0  0
 25 57  1  0  0  0  0
 25 58  1  0  0  0  0
 26 29  1  0  0  0  0
 26 59  1  0  0  0  0
 28 60  1  0  0  0  0
 28 61  1  0  0  0  0
 28 62  1  0  0  0  0
 29 30  2  0  0  0  0
 29 63  1  0  0  0  0
 30 32  1  0  0  0  0
 30 64  1  0  0  0  0
 31 65  1  0  0  0  0
 31 66  1  0  0  0  0
 31 67  1  0  0  0  0
 32 33  2  0  0  0  0
 32 68  1  0  0  0  0
 33 34  1  0  0  0  0
 33 69  1  0  0  0  0
M  END
> <PUBCHEM_COMPOUND_CID>
101768787

> <PUBCHEM_CONFORMER_RMSD>
1

> <PUBCHEM_CONFORMER_DIVERSEORDER>
1
10
14
15
12
9
13
5
8
6
2
11
7
3
4

> <PUBCHEM_MMFF94_PARTIAL_CHARGES>
41
1 -0.3
10 -0.05
11 -0.04
12 0.09
13 0.14
15 -0.05
16 0.09
17 0.14
18 0.14
19 0.09
2 -0.3
20 0.09
21 -0.29
22 -0.12
23 -0.29
26 -0.15
27 0.71
29 -0.15
3 -0.68
30 -0.15
31 0.28
32 -0.15
33 -0.14
34 0.71
35 0.1
39 0.1
4 -0.43
5 -0.57
51 0.4
52 0.15
53 0.15
59 0.15
6 -0.65
63 0.15
64 0.15
68 0.15
69 0.15
7 -0.57
70 0.5
8 -0.04
9 0.47

> <PUBCHEM_EFFECTIVE_ROTOR_COUNT>
10.6

> <PUBCHEM_PHARMACOPHORE_FEATURES>
12
1 1 acceptor
1 2 acceptor
1 25 hydrophobe
1 28 hydrophobe
1 3 acceptor
1 3 donor
1 5 acceptor
1 6 acceptor
1 7 acceptor
3 6 7 34 anion
6 12 14 17 18 22 23 rings
7 1 8 9 10 12 13 14 rings

> <PUBCHEM_HEAVY_ATOM_COUNT>
34

> <PUBCHEM_ATOM_DEF_STEREO_COUNT>
8

> <PUBCHEM_ATOM_UDEF_STEREO_COUNT>
1

> <PUBCHEM_BOND_DEF_STEREO_COUNT>
3

> <PUBCHEM_BOND_UDEF_STEREO_COUNT>
0

> <PUBCHEM_ISOTOPIC_ATOM_COUNT>
0

> <PUBCHEM_COMPONENT_COUNT>
1

> <PUBCHEM_CACTVS_TAUTO_COUNT>
108

> <PUBCHEM_CONFORMER_ID>
0610DE5300000001

> <PUBCHEM_MMFF94_ENERGY>
76.0215

> <PUBCHEM_FEATURE_SELFOVERLAP>
60.972

> <PUBCHEM_SHAPE_FINGERPRINT>
10006869 2 16916801733621583993
10165383 225 17971468499737639925
10411042 1 18115033008470576527
11297750 10 18335978744152519525
12422481 6 18120074329502681097
12788726 201 17483383133198967120
13540713 4 18264470927825283461
13631057 29 18186523176888047510
13673619 4 18409453595693365862
14040221 304 11743568605798152379
14068700 675 18114190734997144342
15064986 96 18197754782396409088
15324884 4 18124562432329463028
17686467 74 18335697236102681214
17980427 23 15410886388518598564
19319366 153 17116628840247258225
20771845 35 17985529276927652822
21639891 77 18338796719582444456
21796203 349 17703796955078114092
21927370 108 18059584538397324314
23559900 14 18260821648331495557
4112364 45 15840997792595489195
6371380 46 18339072676196138317
70634741 139 18334018268693399998

> <PUBCHEM_SHAPE_MULTIPOLES>
658.62
16.53
5.15
2.63
22.5
2.38
1.41
-27.93
3.42
0.71
1.78
0.02
2.62
5.72

> <PUBCHEM_SHAPE_SELFOVERLAP>
1379.463

> <PUBCHEM_SHAPE_VOLUME>
369.2

> <PUBCHEM_COORDINATE_TYPE>
2
5
10

$$$$
