REMARK  Name = 101763629
REMARK  4 active torsions:
REMARK  status: ('A' for Active; 'I' for Inactive)
REMARK    1  A    between atoms: C_7  and  C_27
REMARK    2  A    between atoms: C_14  and  O_25
REMARK    3  A    between atoms: C_17  and  C_22
REMARK    4  A    between atoms: C_27  and  O_28
REMARK                            x       y       z     vdW  Elec       q    Type
REMARK                         _______ _______ _______ _____ _____    ______ ____
ROOT
ATOM      1  O   UNL     1       0.585   1.350  -0.802  0.00  0.00    -0.353 OA
ATOM      2  O   UNL     1       3.581  -1.746  -0.213  0.00  0.00    -0.446 OA
ATOM      3  O   UNL     1       0.243   3.633   1.796  0.00  0.00    -0.293 OA
ATOM      4  O   UNL     1      -3.496   1.093  -0.427  0.00  0.00    -0.296 OA
ATOM      5  O   UNL     1       2.774  -3.680  -1.174  0.00  0.00    -0.245 OA
ATOM      6  C   UNL     1       1.961   1.722  -0.584  0.00  0.00    +0.104 C 
ATOM      7  C   UNL     1      -0.322   2.185  -0.066  0.00  0.00    +0.177 C 
ATOM      8  C   UNL     1       2.830   0.460  -0.788  0.00  0.00    +0.074 C 
ATOM      9  C   UNL     1       2.015   2.356   0.800  0.00  0.00    +0.094 C 
ATOM     10  C   UNL     1       2.981  -0.555   0.362  0.00  0.00    +0.202 C 
ATOM     11  C   UNL     1       0.604   2.834   0.940  0.00  0.00    +0.180 C 
ATOM     12  C   UNL     1      -1.369   1.315   0.639  0.00  0.00    +0.101 C 
ATOM     13  C   UNL     1       2.361   2.738  -1.672  0.00  0.00    +0.030 C 
ATOM     14  C   UNL     1       1.722  -1.078   1.026  0.00  0.00    +0.179 C 
ATOM     15  C   UNL     1       1.370  -2.214   0.143  0.00  0.00    +0.079 C 
ATOM     16  C   UNL     1      -2.353   0.643  -0.305  0.00  0.00    +0.154 C 
ATOM     17  C   UNL     1      -2.205  -1.951  -0.451  0.00  0.00    +0.030 C 
ATOM     18  C   UNL     1      -1.919  -0.584  -1.100  0.00  0.00    +0.069 C 
ATOM     19  C   UNL     1      -1.124  -2.402   0.555  0.00  0.00    +0.030 C 
ATOM     20  C   UNL     1       2.615  -2.668  -0.516  0.00  0.00    +0.339 C 
ATOM     21  C   UNL     1       0.180  -2.775  -0.104  0.00  0.00    -0.021 C 
ENDROOT
BRANCH  17  22
ATOM     22  C   UNL     1      -3.574  -2.015   0.165  0.00  0.00    -0.043 C 
ATOM     23  C   UNL     1      -4.697  -2.390  -0.756  0.00  0.00    +0.026 C 
ATOM     24  C   UNL     1      -3.780  -1.752   1.464  0.00  0.00    -0.009 C 
ENDBRANCH  17  22
BRANCH  14  25
ATOM     25  O   UNL     1       2.029  -1.569   2.330  0.00  0.00    -0.376 OA
ATOM     26  H   UNL     1       2.260  -0.826   2.909  0.00  0.00    +0.211 HD
ENDBRANCH  14  25
BRANCH   7  27
ATOM     27  C   UNL     1      -0.962   3.230  -0.976  0.00  0.00    +0.172 C 
BRANCH  27  28
ATOM     28  O   UNL     1      -2.050   3.821  -0.288  0.00  0.00    -0.379 OA
ATOM     29  H   UNL     1      -2.467   4.488  -0.855  0.00  0.00    +0.211 HD
ENDBRANCH  27  28
ENDBRANCH   7  27
TORSDOF 4
