101791305
  -OEChem-03292013293D

 53 58  0     1  0  0  0  0  0999 V2000
   -1.1767   -0.4138   -1.0520 O   0  0  0  0  0  0  0  0  0  0  0  0
   -0.4291    0.2037    2.3907 O   0  0  0  0  0  0  0  0  0  0  0  0
    2.8001   -0.1194    0.3201 O   0  0  0  0  0  0  0  0  0  0  0  0
   -2.7671    2.2672   -1.2753 O   0  0  0  0  0  0  0  0  0  0  0  0
    2.5697   -2.4395    0.6395 O   0  0  0  0  0  0  0  0  0  0  0  0
    2.0004    2.7966    0.3974 O   0  0  0  0  0  0  0  0  0  0  0  0
    1.4741   -0.9588    2.9119 O   0  0  0  0  0  0  0  0  0  0  0  0
   -0.3831    0.0137    0.0667 C   0  0  2  0  0  0  0  0  0  0  0  0
   -1.3115    0.1870    1.2798 C   0  0  2  0  0  0  0  0  0  0  0  0
   -1.9584    1.5244    0.9158 C   0  0  1  0  0  0  0  0  0  0  0  0
    0.1349    1.4451   -0.2772 C   0  0  1  0  0  0  0  0  0  0  0  0
    0.5766   -1.0482    0.6178 C   0  0  1  0  0  0  0  0  0  0  0  0
   -2.6002   -0.1800   -0.8872 C   0  0  2  0  0  0  0  0  0  0  0  0
   -0.7386    2.3801    0.5749 C   0  0  0  0  0  0  0  0  0  0  0  0
   -2.8928    1.2449   -0.2943 C   0  0  2  0  0  0  0  0  0  0  0  0
   -2.3582   -0.9250    1.4741 C   0  0  0  0  0  0  0  0  0  0  0  0
   -3.0985   -1.2105    0.1602 C   0  0  2  0  0  0  0  0  0  0  0  0
    1.9930   -1.2705    0.0450 C   0  0  1  0  0  0  0  0  0  0  0  0
    1.6194    1.7643   -0.1615 C   0  0  0  0  0  0  0  0  0  0  0  0
    0.6309   -0.6220    2.0942 C   0  0  0  0  0  0  0  0  0  0  0  0
    2.6258    0.7973   -0.7735 C   0  0  2  0  0  0  0  0  0  0  0  0
    2.1484   -1.4392   -1.4675 C   0  0  2  0  0  0  0  0  0  0  0  0
   -3.2455   -0.3824   -2.2588 C   0  0  0  0  0  0  0  0  0  0  0  0
    2.1337   -0.0120   -1.9816 C   0  0  0  0  0  0  0  0  0  0  0  0
   -2.9143   -2.6749   -0.2506 C   0  0  0  0  0  0  0  0  0  0  0  0
    3.9657    1.4727   -1.0472 C   0  0  0  0  0  0  0  0  0  0  0  0
    1.2014   -2.4010   -2.1613 C   0  0  0  0  0  0  0  0  0  0  0  0
   -2.5103    1.9730    1.7484 H   0  0  0  0  0  0  0  0  0  0  0  0
   -0.1105    1.6744   -1.3239 H   0  0  0  0  0  0  0  0  0  0  0  0
    0.0734   -2.0242    0.6001 H   0  0  0  0  0  0  0  0  0  0  0  0
   -0.2268    2.6707    1.5012 H   0  0  0  0  0  0  0  0  0  0  0  0
   -0.9826    3.3098    0.0518 H   0  0  0  0  0  0  0  0  0  0  0  0
   -3.9371    1.2714    0.0427 H   0  0  0  0  0  0  0  0  0  0  0  0
   -3.0763   -0.6046    2.2409 H   0  0  0  0  0  0  0  0  0  0  0  0
   -1.9017   -1.8328    1.8874 H   0  0  0  0  0  0  0  0  0  0  0  0
   -4.1739   -1.0632    0.3289 H   0  0  0  0  0  0  0  0  0  0  0  0
    3.1618   -1.8295   -1.6518 H   0  0  0  0  0  0  0  0  0  0  0  0
    2.8029    0.0885   -2.8447 H   0  0  0  0  0  0  0  0  0  0  0  0
    1.1484    0.2868   -2.3442 H   0  0  0  0  0  0  0  0  0  0  0  0
   -2.8744    0.3568   -2.9775 H   0  0  0  0  0  0  0  0  0  0  0  0
   -4.3353   -0.2974   -2.2053 H   0  0  0  0  0  0  0  0  0  0  0  0
   -2.9870   -1.3568   -2.6862 H   0  0  0  0  0  0  0  0  0  0  0  0
   -1.8742   -2.9041   -0.5005 H   0  0  0  0  0  0  0  0  0  0  0  0
   -3.5344   -2.9224   -1.1175 H   0  0  0  0  0  0  0  0  0  0  0  0
   -3.2197   -3.3431    0.5622 H   0  0  0  0  0  0  0  0  0  0  0  0
   -3.0703    3.0979   -0.8706 H   0  0  0  0  0  0  0  0  0  0  0  0
    4.7123    0.7385   -1.3706 H   0  0  0  0  0  0  0  0  0  0  0  0
    4.3718    1.9415   -0.1434 H   0  0  0  0  0  0  0  0  0  0  0  0
    3.8724    2.2424   -1.8203 H   0  0  0  0  0  0  0  0  0  0  0  0
    2.2674   -2.5022    1.5602 H   0  0  0  0  0  0  0  0  0  0  0  0
    1.4658   -2.4939   -3.2202 H   0  0  0  0  0  0  0  0  0  0  0  0
    1.2645   -3.3977   -1.7127 H   0  0  0  0  0  0  0  0  0  0  0  0
    0.1613   -2.0797   -2.1163 H   0  0  0  0  0  0  0  0  0  0  0  0
  1  8  1  0  0  0  0
  1 13  1  0  0  0  0
  2  9  1  0  0  0  0
  2 20  1  0  0  0  0
  3 18  1  0  0  0  0
  3 21  1  0  0  0  0
  4 15  1  0  0  0  0
  4 46  1  0  0  0  0
  5 18  1  0  0  0  0
  5 50  1  0  0  0  0
  6 19  2  0  0  0  0
  7 20  2  0  0  0  0
  8  9  1  0  0  0  0
  8 11  1  0  0  0  0
  8 12  1  0  0  0  0
  9 10  1  0  0  0  0
  9 16  1  0  0  0  0
 10 14  1  0  0  0  0
 10 15  1  0  0  0  0
 10 28  1  0  0  0  0
 11 14  1  0  0  0  0
 11 19  1  0  0  0  0
 11 29  1  0  0  0  0
 12 18  1  0  0  0  0
 12 20  1  0  0  0  0
 12 30  1  0  0  0  0
 13 15  1  0  0  0  0
 13 17  1  0  0  0  0
 13 23  1  0  0  0  0
 14 31  1  0  0  0  0
 14 32  1  0  0  0  0
 15 33  1  0  0  0  0
 16 17  1  0  0  0  0
 16 34  1  0  0  0  0
 16 35  1  0  0  0  0
 17 25  1  0  0  0  0
 17 36  1  0  0  0  0
 18 22  1  0  0  0  0
 19 21  1  0  0  0  0
 21 24  1  0  0  0  0
 21 26  1  0  0  0  0
 22 24  1  0  0  0  0
 22 27  1  0  0  0  0
 22 37  1  0  0  0  0
 23 40  1  0  0  0  0
 23 41  1  0  0  0  0
 23 42  1  0  0  0  0
 24 38  1  0  0  0  0
 24 39  1  0  0  0  0
 25 43  1  0  0  0  0
 25 44  1  0  0  0  0
 25 45  1  0  0  0  0
 26 47  1  0  0  0  0
 26 48  1  0  0  0  0
 26 49  1  0  0  0  0
 27 51  1  0  0  0  0
 27 52  1  0  0  0  0
 27 53  1  0  0  0  0
M  END
> <PUBCHEM_COMPOUND_CID>
101791305

> <PUBCHEM_CONFORMER_RMSD>
0.6

> <PUBCHEM_CONFORMER_DIVERSEORDER>
1

> <PUBCHEM_MMFF94_PARTIAL_CHARGES>
19
1 -0.56
11 0.06
12 0.06
13 0.28
15 0.28
18 0.56
19 0.45
2 -0.43
20 0.66
21 0.34
3 -0.56
4 -0.68
46 0.4
5 -0.68
50 0.4
6 -0.57
7 -0.57
8 0.28
9 0.28

> <PUBCHEM_EFFECTIVE_ROTOR_COUNT>
1.8

> <PUBCHEM_PHARMACOPHORE_FEATURES>
12
1 1 acceptor
1 3 acceptor
1 4 acceptor
1 4 donor
1 5 acceptor
1 5 donor
1 6 acceptor
1 7 acceptor
10 1 8 9 10 11 13 14 15 16 17 rings
5 2 8 9 12 20 rings
5 3 18 21 22 24 rings
7 3 8 11 12 18 19 21 rings

> <PUBCHEM_HEAVY_ATOM_COUNT>
27

> <PUBCHEM_ATOM_DEF_STEREO_COUNT>
10

> <PUBCHEM_ATOM_UDEF_STEREO_COUNT>
1

> <PUBCHEM_BOND_DEF_STEREO_COUNT>
0

> <PUBCHEM_BOND_UDEF_STEREO_COUNT>
0

> <PUBCHEM_ISOTOPIC_ATOM_COUNT>
0

> <PUBCHEM_COMPONENT_COUNT>
1

> <PUBCHEM_CACTVS_TAUTO_COUNT>
4

> <PUBCHEM_CONFORMER_ID>
0611364900000001

> <PUBCHEM_MMFF94_ENERGY>
124.5152

> <PUBCHEM_FEATURE_SELFOVERLAP>
62.742

> <PUBCHEM_SHAPE_FINGERPRINT>
10863032 1 18408601457043791604
10948715 1 16516240868202867340
11578080 2 17203317888771100401
12156800 1 13601758687655350519
12654903 92 17838066909300269092
12788726 201 17988368048916442081
128993 33 16083091448968557855
13140716 1 18194696873076463954
13224815 77 17704353281485362494
14181834 199 16588567722198589298
14223421 5 18340779220503464557
14955137 171 16884683628478362849
15852999 172 17096089224474131426
16945 1 18190183579533923784
17349148 13 17967534601577497808
17492 54 17546725310373655229
17980427 23 17978187704866455272
18981168 100 14996563937188949125
20600515 1 17758355674871917713
20691752 17 17058918064827915655
20905425 154 18262511601908579209
21731516 1 15769777931306140143
23419403 2 17035595365881687243
23559900 14 18269542858535678042
238 59 18265613362981591348
34934 24 18339939137891361505
513532 50 16399384437322390165
5262128 65 18339372859311405332

> <PUBCHEM_SHAPE_MULTIPOLES>
514.56
5.3
2.7
2.21
0.13
0.04
-0.72
0.29
2.02
0.22
0.54
-0.02
0.59
-0.02

> <PUBCHEM_SHAPE_SELFOVERLAP>
1170.28

> <PUBCHEM_SHAPE_VOLUME>
269.7

> <PUBCHEM_COORDINATE_TYPE>
2
5
10

$$$$
