101790375
  -OEChem-03292013293D

 58 60  0     1  0  0  0  0  0999 V2000
    2.7023   -1.6675    0.8655 O   0  0  0  0  0  0  0  0  0  0  0  0
   -1.5089   -1.2400    0.6746 O   0  0  0  0  0  0  0  0  0  0  0  0
    0.0640   -2.1826   -1.6334 O   0  0  0  0  0  0  0  0  0  0  0  0
   -2.5649    0.7767    0.1630 O   0  0  0  0  0  0  0  0  0  0  0  0
   -3.9195   -2.6165    0.1254 O   0  0  0  0  0  0  0  0  0  0  0  0
   -6.2836   -0.9167    0.5756 O   0  0  0  0  0  0  0  0  0  0  0  0
   -5.9972    1.6032   -0.8113 O   0  0  0  0  0  0  0  0  0  0  0  0
    6.2288    1.2559   -1.5685 O   0  0  0  0  0  0  0  0  0  0  0  0
   -2.1193    3.2963   -0.8413 O   0  0  0  0  0  0  0  0  0  0  0  0
    2.6829   -0.3641    0.2575 C   0  0  1  0  0  0  0  0  0  0  0  0
    2.0642   -1.6052   -0.4228 C   0  0  2  0  0  0  0  0  0  0  0  0
    1.7765    0.6212    1.0194 C   0  0  0  0  0  0  0  0  0  0  0  0
    0.5796   -1.8889   -0.3300 C   0  0  1  0  0  0  0  0  0  0  0  0
    0.4392   -0.0495    1.4186 C   0  0  0  0  0  0  0  0  0  0  0  0
   -0.2452   -0.7320    0.2379 C   0  0  2  0  0  0  0  0  0  0  0  0
    2.8306   -2.3987   -1.4500 C   0  0  0  0  0  0  0  0  0  0  0  0
    3.9112    0.1878   -0.3351 C   0  0  0  0  0  0  0  0  0  0  0  0
    1.4818    1.8659    0.1522 C   0  0  0  0  0  0  0  0  0  0  0  0
    2.4774    1.0865    2.3134 C   0  0  0  0  0  0  0  0  0  0  0  0
    5.1005    0.2621    0.2791 C   0  0  0  0  0  0  0  0  0  0  0  0
   -2.5842   -0.6340   -0.0421 C   0  0  2  0  0  0  0  0  0  0  0  0
   -3.8917   -1.2331    0.4760 C   0  0  1  0  0  0  0  0  0  0  0  0
   -5.1051   -0.5307   -0.1332 C   0  0  2  0  0  0  0  0  0  0  0  0
   -3.6049    1.4483   -0.5502 C   0  0  1  0  0  0  0  0  0  0  0  0
    6.2847    0.8406   -0.4132 C   0  0  0  0  0  0  0  0  0  0  0  0
   -4.9713    0.9892   -0.0358 C   0  0  1  0  0  0  0  0  0  0  0  0
   -3.4025    2.9475   -0.3548 C   0  0  0  0  0  0  0  0  0  0  0  0
    7.5746    0.8783    0.3637 C   0  0  0  0  0  0  0  0  0  0  0  0
    0.4233   -2.7943    0.2687 H   0  0  0  0  0  0  0  0  0  0  0  0
   -0.2415    0.6895    1.8621 H   0  0  0  0  0  0  0  0  0  0  0  0
    0.6011   -0.7937    2.2112 H   0  0  0  0  0  0  0  0  0  0  0  0
   -0.3901    0.0052   -0.5617 H   0  0  0  0  0  0  0  0  0  0  0  0
    3.9085   -2.4029   -1.2571 H   0  0  0  0  0  0  0  0  0  0  0  0
    2.6680   -1.9812   -2.4487 H   0  0  0  0  0  0  0  0  0  0  0  0
    2.5015   -3.4434   -1.4533 H   0  0  0  0  0  0  0  0  0  0  0  0
    3.8105    0.5601   -1.3520 H   0  0  0  0  0  0  0  0  0  0  0  0
    3.3818    1.6671    2.1044 H   0  0  0  0  0  0  0  0  0  0  0  0
    2.3809    2.4755    0.0050 H   0  0  0  0  0  0  0  0  0  0  0  0
    0.7309    2.5094    0.6243 H   0  0  0  0  0  0  0  0  0  0  0  0
    1.1185    1.5930   -0.8440 H   0  0  0  0  0  0  0  0  0  0  0  0
    2.7701    0.2331    2.9354 H   0  0  0  0  0  0  0  0  0  0  0  0
    1.8153    1.7243    2.9103 H   0  0  0  0  0  0  0  0  0  0  0  0
    0.2015   -1.3993   -2.1933 H   0  0  0  0  0  0  0  0  0  0  0  0
    5.2317   -0.1028    1.2918 H   0  0  0  0  0  0  0  0  0  0  0  0
   -2.4566   -0.8609   -1.1096 H   0  0  0  0  0  0  0  0  0  0  0  0
   -3.9286   -1.1837    1.5708 H   0  0  0  0  0  0  0  0  0  0  0  0
   -5.2579   -0.8436   -1.1728 H   0  0  0  0  0  0  0  0  0  0  0  0
   -3.4916    1.2274   -1.6204 H   0  0  0  0  0  0  0  0  0  0  0  0
   -5.1140    1.3057    1.0047 H   0  0  0  0  0  0  0  0  0  0  0  0
   -3.4387    3.2105    0.7077 H   0  0  0  0  0  0  0  0  0  0  0  0
   -4.1540    3.5287   -0.8975 H   0  0  0  0  0  0  0  0  0  0  0  0
   -3.8860   -2.6825   -0.8443 H   0  0  0  0  0  0  0  0  0  0  0  0
    8.2365    0.0873    0.0024 H   0  0  0  0  0  0  0  0  0  0  0  0
    8.0479    1.8544    0.2250 H   0  0  0  0  0  0  0  0  0  0  0  0
    7.3991    0.7393    1.4339 H   0  0  0  0  0  0  0  0  0  0  0  0
   -6.1709   -0.6672    1.5086 H   0  0  0  0  0  0  0  0  0  0  0  0
   -5.8712    1.3397   -1.7388 H   0  0  0  0  0  0  0  0  0  0  0  0
   -2.0083    4.2518   -0.6995 H   0  0  0  0  0  0  0  0  0  0  0  0
  1 10  1  0  0  0  0
  1 11  1  0  0  0  0
  2 15  1  0  0  0  0
  2 21  1  0  0  0  0
  3 13  1  0  0  0  0
  3 43  1  0  0  0  0
  4 21  1  0  0  0  0
  4 24  1  0  0  0  0
  5 22  1  0  0  0  0
  5 52  1  0  0  0  0
  6 23  1  0  0  0  0
  6 56  1  0  0  0  0
  7 26  1  0  0  0  0
  7 57  1  0  0  0  0
  8 25  2  0  0  0  0
  9 27  1  0  0  0  0
  9 58  1  0  0  0  0
 10 11  1  0  0  0  0
 10 12  1  0  0  0  0
 10 17  1  0  0  0  0
 11 13  1  0  0  0  0
 11 16  1  0  0  0  0
 12 14  1  0  0  0  0
 12 18  1  0  0  0  0
 12 19  1  0  0  0  0
 13 15  1  0  0  0  0
 13 29  1  0  0  0  0
 14 15  1  0  0  0  0
 14 30  1  0  0  0  0
 14 31  1  0  0  0  0
 15 32  1  0  0  0  0
 16 33  1  0  0  0  0
 16 34  1  0  0  0  0
 16 35  1  0  0  0  0
 17 20  2  0  0  0  0
 17 36  1  0  0  0  0
 18 38  1  0  0  0  0
 18 39  1  0  0  0  0
 18 40  1  0  0  0  0
 19 37  1  0  0  0  0
 19 41  1  0  0  0  0
 19 42  1  0  0  0  0
 20 25  1  0  0  0  0
 20 44  1  0  0  0  0
 21 22  1  0  0  0  0
 21 45  1  0  0  0  0
 22 23  1  0  0  0  0
 22 46  1  0  0  0  0
 23 26  1  0  0  0  0
 23 47  1  0  0  0  0
 24 26  1  0  0  0  0
 24 27  1  0  0  0  0
 24 48  1  0  0  0  0
 25 28  1  0  0  0  0
 26 49  1  0  0  0  0
 27 50  1  0  0  0  0
 27 51  1  0  0  0  0
 28 53  1  0  0  0  0
 28 54  1  0  0  0  0
 28 55  1  0  0  0  0
M  END
> <PUBCHEM_COMPOUND_CID>
101790375

> <PUBCHEM_CONFORMER_RMSD>
0.8

> <PUBCHEM_CONFORMER_DIVERSEORDER>
1
96
115
55
7
163
91
14
69
116
142
144
19
99
6
44
35
146
161
90
77
103
83
30
109
143
120
42
112
152
33
68
141
16
159
162
76
87
111
8
31
12
110
53
94
28
135
39
106
108
147
18
151
114
20
107
71
157
22
104
149
52
80
46
43
165
89
95
67
101
17
136
4
29
45
27
79
65
128
21
57
97
124
25
134
34
137
92
125
70
129
3
105
15
160
47
9
78
98
49
164
62
74
54
127
155
139
82
156
26
153
2
122
93
126
11
61
24
36
59
63
85
88
23
5
121
130
75
48
60
50
13
140
145
148
56
154
131
81
86
66
10
100
132
51
72
58
38
117
37
138
158
118
64
40
32
84
150
102
119
123
113
73
133
41

> <PUBCHEM_MMFF94_PARTIAL_CHARGES>
32
1 -0.3
10 0.09
11 -0.04
12 0.09
13 0.38
15 0.28
16 0.09
17 -0.19
2 -0.56
20 -0.14
21 0.56
22 0.28
23 0.28
24 0.28
25 0.49
26 0.28
27 0.28
28 0.06
3 -0.68
36 0.15
4 -0.56
43 0.4
44 0.15
5 -0.68
52 0.4
56 0.4
57 0.4
58 0.4
6 -0.68
7 -0.68
8 -0.57
9 -0.68

> <PUBCHEM_EFFECTIVE_ROTOR_COUNT>
7.2

> <PUBCHEM_PHARMACOPHORE_FEATURES>
17
1 1 acceptor
1 2 acceptor
1 3 acceptor
1 3 donor
1 4 acceptor
1 5 acceptor
1 5 donor
1 6 acceptor
1 6 donor
1 7 acceptor
1 7 donor
1 8 acceptor
1 9 acceptor
1 9 donor
3 12 18 19 hydrophobe
6 4 21 22 23 24 26 rings
7 1 10 11 12 13 14 15 rings

> <PUBCHEM_HEAVY_ATOM_COUNT>
28

> <PUBCHEM_ATOM_DEF_STEREO_COUNT>
9

> <PUBCHEM_ATOM_UDEF_STEREO_COUNT>
0

> <PUBCHEM_BOND_DEF_STEREO_COUNT>
1

> <PUBCHEM_BOND_UDEF_STEREO_COUNT>
0

> <PUBCHEM_ISOTOPIC_ATOM_COUNT>
0

> <PUBCHEM_COMPONENT_COUNT>
1

> <PUBCHEM_CACTVS_TAUTO_COUNT>
2

> <PUBCHEM_CONFORMER_ID>
061132A700000001

> <PUBCHEM_MMFF94_ENERGY>
77.349

> <PUBCHEM_FEATURE_SELFOVERLAP>
86.343

> <PUBCHEM_SHAPE_FINGERPRINT>
10165383 225 18131637802533393211
10366900 7 18130213892384491929
10498660 4 17970905558173458621
10670039 82 18334007293997176821
10693767 8 16629967625446503486
11595378 159 17386278797339716649
11796584 16 10807937072216413956
12011746 2 17989210356553693138
12236239 1 17240478100392203233
12403259 415 18130499829246609256
12596602 18 16877941637666839681
13383665 225 18265070071515756445
13402501 40 18413387639902649721
13726171 33 18338801091611693760
13911987 19 17561084704562472694
14856354 85 18262523713801289382
15183329 4 18335144176878849472
15961568 22 18333453127220286404
1601671 61 18413107256195635984
17980427 23 17603592957932095566
18608769 82 18341051925574181851
19611394 137 17751656561504706043
21033648 29 18059560443145653600
21521721 280 17775286114642585688
21637258 2 13542471917416409174
21709351 56 18201714119541335647
21792961 116 18201727228346064298
21859007 373 18342442761071688456
22122407 14 17532109348520970436
221357 26 18129937876263845617
22393880 68 17703496787871254054
23557571 272 18408324402258451899
23559900 14 18412819214061494729
23569914 152 16264909784520817500
2838139 119 18335697269708357436
3009799 131 17561365102272382640
350125 39 18342177782262001489
3545911 37 18343865537137752499
59755656 215 18202563981768091458
7808743 9 18261389997048602045

> <PUBCHEM_SHAPE_MULTIPOLES>
523.4
15.28
2.8
1.28
6.16
0.41
0.23
5.28
-2.18
-2.03
-0.93
1.02
0.09
1.28

> <PUBCHEM_SHAPE_SELFOVERLAP>
1084.685

> <PUBCHEM_SHAPE_VOLUME>
296.8

> <PUBCHEM_COORDINATE_TYPE>
2
5
10

$$$$
