REMARK  Name = 10178467
REMARK  2 active torsions:
REMARK  status: ('A' for Active; 'I' for Inactive)
REMARK    1  A    between atoms: N_5  and  N_30
REMARK    2  A    between atoms: C_7  and  C_23
REMARK                            x       y       z     vdW  Elec       q    Type
REMARK                         _______ _______ _______ _____ _____    ______ ____
ROOT
ATOM      1  O   UNL     1       0.742  -3.241   2.158  0.00  0.00    -0.272 OA
ATOM      2  O   UNL     1       2.028  -1.463  -2.685  0.00  0.00    -0.273 OA
ATOM      3  N   UNL     1       0.547  -1.401  -0.869  0.00  0.00    -0.264 N 
ATOM      4  N   UNL     1      -2.301   0.984  -1.275  0.00  0.00    -0.355 N 
ATOM      5  N   UNL     1       1.990  -3.383   0.208  0.00  0.00    -0.217 N 
ATOM      6  C   UNL     1      -0.159  -2.262   0.128  0.00  0.00    +0.158 C 
ATOM      7  C   UNL     1       0.006  -0.072  -1.286  0.00  0.00    +0.136 C 
ATOM      8  C   UNL     1      -1.157  -1.537   1.058  0.00  0.00    +0.057 C 
ATOM      9  C   UNL     1      -1.372   0.123  -0.761  0.00  0.00    +0.052 A 
ATOM     10  C   UNL     1      -1.938  -0.535   0.303  0.00  0.00    -0.005 A 
ATOM     11  C   UNL     1      -3.264  -0.052   0.461  0.00  0.00    +0.013 A 
ATOM     12  C   UNL     1       0.904  -2.973   0.969  0.00  0.00    +0.257 C 
ATOM     13  C   UNL     1       1.563  -1.968  -1.663  0.00  0.00    +0.248 C 
ATOM     14  C   UNL     1      -3.467   0.901  -0.543  0.00  0.00    +0.056 A 
ATOM     15  C   UNL     1       1.966  -3.360  -1.237  0.00  0.00    +0.196 C 
ATOM     16  C   UNL     1      -4.316  -0.327   1.357  0.00  0.00    +0.001 C 
ATOM     17  C   UNL     1      -4.675   1.591  -0.694  0.00  0.00    +0.017 C 
ATOM     18  C   UNL     1      -5.529   0.357   1.217  0.00  0.00    +0.000 C 
ATOM     19  C   UNL     1      -5.704   1.300   0.206  0.00  0.00    +0.001 C 
ATOM     20  H   UNL     1      -2.159   1.574  -2.050  0.00  0.00    +0.166 HD
ENDROOT
BRANCH   7  23
ATOM     21  O   UNL     1       3.194   1.898   1.929  0.00  0.00    -0.435 OA
ATOM     22  O   UNL     1       3.446   3.908   0.624  0.00  0.00    -0.435 OA
ATOM     23  C   UNL     1       0.919   1.014  -0.805  0.00  0.00    +0.005 C 
ATOM     24  C   UNL     1       1.613   0.849   0.393  0.00  0.00    +0.038 C 
ATOM     25  C   UNL     1       1.063   2.183  -1.568  0.00  0.00    +0.001 C 
ATOM     26  C   UNL     1       2.442   1.876   0.795  0.00  0.00    +0.176 C 
ATOM     27  C   UNL     1       1.909   3.208  -1.138  0.00  0.00    +0.040 C 
ATOM     28  C   UNL     1       2.586   3.024   0.050  0.00  0.00    +0.176 C 
ATOM     29  C   UNL     1       3.829   3.188   1.814  0.00  0.00    +0.429 C 
ENDBRANCH   7  23
BRANCH   5  30
ATOM     30  N   UNL     1       3.136  -3.829   0.855  0.00  0.00    -0.251 NA
ATOM     31  H   UNL     1       2.995  -3.785   1.864  0.00  0.00    +0.141 HD
ATOM     32  H   UNL     1       3.926  -3.238   0.595  0.00  0.00    +0.141 HD
ENDBRANCH   5  30
TORSDOF 2
