REMARK  Name = 101705554
REMARK  8 active torsions:
REMARK  status: ('A' for Active; 'I' for Inactive)
REMARK    1  A    between atoms: N_2  and  C_14
REMARK    2  A    between atoms: C_3  and  C_5
REMARK    3  A    between atoms: C_6  and  N_11
REMARK    4  A    between atoms: C_14  and  C_15
REMARK    5  A    between atoms: C_15  and  C_16
REMARK    6  A    between atoms: C_16  and  C_17
REMARK    7  A    between atoms: C_17  and  C_20
REMARK    8  A    between atoms: C_17  and  N_23
REMARK                            x       y       z     vdW  Elec       q    Type
REMARK                         _______ _______ _______ _____ _____    ______ ____
ROOT
ATOM      1  O   UNL     1       1.060   1.099  -1.984  0.00  0.00    -0.270 OA
ATOM      2  N   UNL     1       0.311   1.673   0.135  0.00  0.00    -0.301 N 
ATOM      3  C   UNL     1       1.176   1.058  -0.762  0.00  0.00    +0.247 C 
ATOM      4  H   UNL     1       0.488   1.582   1.099  0.00  0.00    +0.150 HD
ENDROOT
BRANCH   3   5
ATOM      5  C   UNL     1       2.295   0.284  -0.166  0.00  0.00    +0.066 C 
ATOM      6  C   UNL     1       2.444  -1.081  -0.408  0.00  0.00    +0.046 C 
ATOM      7  C   UNL     1       3.208   0.950   0.653  0.00  0.00    +0.006 C 
ATOM      8  C   UNL     1       3.505  -1.781   0.167  0.00  0.00    +0.014 C 
ATOM      9  C   UNL     1       4.269   0.251   1.228  0.00  0.00    +0.000 C 
ATOM     10  C   UNL     1       4.417  -1.115   0.985  0.00  0.00    +0.001 C 
BRANCH   6  11
ATOM     11  N   UNL     1       1.531  -1.775  -1.233  0.00  0.00    -0.357 N 
ATOM     12  H   UNL     1       0.777  -1.295  -1.646  0.00  0.00    +0.142 HD
ATOM     13  H   UNL     1       1.648  -2.739  -1.395  0.00  0.00    +0.142 HD
ENDBRANCH   6  11
ENDBRANCH   3   5
BRANCH   2  14
ATOM     14  C   UNL     1      -0.832   2.435  -0.287  0.00  0.00    +0.090 C 
BRANCH  14  15
ATOM     15  C   UNL     1      -2.090   1.581  -0.424  0.00  0.00    +0.020 C 
BRANCH  15  16
ATOM     16  C   UNL     1      -2.499   0.924   0.902  0.00  0.00    -0.011 C 
BRANCH  16  17
ATOM     17  C   UNL     1      -3.776   0.085   0.758  0.00  0.00    +0.013 C 
BRANCH  17  20
ATOM     18  O   UNL     1      -2.531  -1.577  -0.498  0.00  0.00    -0.278 OA
ATOM     19  N   UNL     1      -4.793  -1.405  -0.859  0.00  0.00    -0.330 N 
ATOM     20  C   UNL     1      -3.612  -1.050  -0.244  0.00  0.00    +0.199 C 
ATOM     21  H   UNL     1      -4.803  -2.128  -1.526  0.00  0.00    +0.145 HD
ATOM     22  H   UNL     1      -5.628  -0.934  -0.631  0.00  0.00    +0.145 HD
ENDBRANCH  17  20
BRANCH  17  23
ATOM     23  N   UNL     1      -4.081  -0.556   2.038  0.00  0.00    +0.387 N 
ATOM     24  H   UNL     1      -4.204   0.158   2.755  0.00  0.00    -0.089 HD
ATOM     25  H   UNL     1      -3.313  -1.173   2.300  0.00  0.00    -0.089 HD
ATOM     26  H   UNL     1      -4.940  -1.100   1.950  0.00  0.00    -0.089 HD
ENDBRANCH  17  23
ENDBRANCH  16  17
ENDBRANCH  15  16
ENDBRANCH  14  15
ENDBRANCH   2  14
TORSDOF 8
