101763629
  -OEChem-03292013293D

 53 55  0     1  0  0  0  0  0999 V2000
    0.5850    1.3497   -0.8025 O   0  0  0  0  0  0  0  0  0  0  0  0
    3.5811   -1.7465   -0.2128 O   0  0  0  0  0  0  0  0  0  0  0  0
    0.2427    3.6328    1.7959 O   0  0  0  0  0  0  0  0  0  0  0  0
    2.0290   -1.5691    2.3298 O   0  0  0  0  0  0  0  0  0  0  0  0
   -2.0497    3.8209   -0.2876 O   0  0  0  0  0  0  0  0  0  0  0  0
   -3.4958    1.0933   -0.4271 O   0  0  0  0  0  0  0  0  0  0  0  0
    2.7738   -3.6801   -1.1738 O   0  0  0  0  0  0  0  0  0  0  0  0
    1.9609    1.7221   -0.5842 C   0  0  2  0  0  0  0  0  0  0  0  0
   -0.3220    2.1851   -0.0657 C   0  0  2  0  0  0  0  0  0  0  0  0
    2.8300    0.4602   -0.7876 C   0  0  0  0  0  0  0  0  0  0  0  0
    2.0155    2.3556    0.7999 C   0  0  0  0  0  0  0  0  0  0  0  0
    2.9806   -0.5555    0.3620 C   0  0  1  0  0  0  0  0  0  0  0  0
    0.6041    2.8344    0.9399 C   0  0  0  0  0  0  0  0  0  0  0  0
   -1.3689    1.3149    0.6386 C   0  0  0  0  0  0  0  0  0  0  0  0
    2.3607    2.7382   -1.6716 C   0  0  0  0  0  0  0  0  0  0  0  0
    1.7218   -1.0784    1.0262 C   0  0  1  0  0  0  0  0  0  0  0  0
   -0.9624    3.2299   -0.9756 C   0  0  0  0  0  0  0  0  0  0  0  0
    1.3697   -2.2136    0.1434 C   0  0  0  0  0  0  0  0  0  0  0  0
   -2.3529    0.6432   -0.3047 C   0  0  0  0  0  0  0  0  0  0  0  0
   -2.2048   -1.9514   -0.4509 C   0  0  1  0  0  0  0  0  0  0  0  0
   -1.9185   -0.5836   -1.1000 C   0  0  0  0  0  0  0  0  0  0  0  0
   -1.1243   -2.4022    0.5546 C   0  0  0  0  0  0  0  0  0  0  0  0
    2.6152   -2.6683   -0.5157 C   0  0  0  0  0  0  0  0  0  0  0  0
    0.1802   -2.7748   -0.1042 C   0  0  0  0  0  0  0  0  0  0  0  0
   -3.5740   -2.0152    0.1653 C   0  0  0  0  0  0  0  0  0  0  0  0
   -4.6971   -2.3902   -0.7556 C   0  0  0  0  0  0  0  0  0  0  0  0
   -3.7800   -1.7516    1.4641 C   0  0  0  0  0  0  0  0  0  0  0  0
    3.8540    0.7657   -1.0462 H   0  0  0  0  0  0  0  0  0  0  0  0
    2.4648   -0.0678   -1.6803 H   0  0  0  0  0  0  0  0  0  0  0  0
    2.7283    3.1812    0.8660 H   0  0  0  0  0  0  0  0  0  0  0  0
    2.1998    1.6436    1.6063 H   0  0  0  0  0  0  0  0  0  0  0  0
    3.6882   -0.1681    1.1042 H   0  0  0  0  0  0  0  0  0  0  0  0
   -1.9522    1.9103    1.3534 H   0  0  0  0  0  0  0  0  0  0  0  0
   -0.9057    0.5371    1.2452 H   0  0  0  0  0  0  0  0  0  0  0  0
    2.1317    2.3483   -2.6699 H   0  0  0  0  0  0  0  0  0  0  0  0
    3.4297    2.9732   -1.6241 H   0  0  0  0  0  0  0  0  0  0  0  0
    1.8211    3.6832   -1.5732 H   0  0  0  0  0  0  0  0  0  0  0  0
    0.9461   -0.3296    1.1270 H   0  0  0  0  0  0  0  0  0  0  0  0
   -1.3267    2.7755   -1.9034 H   0  0  0  0  0  0  0  0  0  0  0  0
   -0.2657    4.0259   -1.2498 H   0  0  0  0  0  0  0  0  0  0  0  0
   -2.1817   -2.6938   -1.2630 H   0  0  0  0  0  0  0  0  0  0  0  0
   -2.4638   -0.5267   -2.0527 H   0  0  0  0  0  0  0  0  0  0  0  0
   -0.8664   -0.4936   -1.3776 H   0  0  0  0  0  0  0  0  0  0  0  0
   -1.4627   -3.3062    1.0803 H   0  0  0  0  0  0  0  0  0  0  0  0
   -0.9565   -1.6468    1.3267 H   0  0  0  0  0  0  0  0  0  0  0  0
    0.1261   -3.6036   -0.8075 H   0  0  0  0  0  0  0  0  0  0  0  0
    2.3225   -0.8110    2.8636 H   0  0  0  0  0  0  0  0  0  0  0  0
   -2.4505    4.4714   -0.8889 H   0  0  0  0  0  0  0  0  0  0  0  0
   -4.7703   -1.6757   -1.5817 H   0  0  0  0  0  0  0  0  0  0  0  0
   -4.5315   -3.3890   -1.1723 H   0  0  0  0  0  0  0  0  0  0  0  0
   -5.6641   -2.4017   -0.2416 H   0  0  0  0  0  0  0  0  0  0  0  0
   -4.7790   -1.8055    1.8863 H   0  0  0  0  0  0  0  0  0  0  0  0
   -2.9921   -1.4579    2.1466 H   0  0  0  0  0  0  0  0  0  0  0  0
  1  8  1  0  0  0  0
  1  9  1  0  0  0  0
  2 12  1  0  0  0  0
  2 23  1  0  0  0  0
  3 13  2  0  0  0  0
  4 16  1  0  0  0  0
  4 47  1  0  0  0  0
  5 17  1  0  0  0  0
  5 48  1  0  0  0  0
  6 19  2  0  0  0  0
  7 23  2  0  0  0  0
  8 10  1  0  0  0  0
  8 11  1  0  0  0  0
  8 15  1  0  0  0  0
  9 13  1  0  0  0  0
  9 14  1  0  0  0  0
  9 17  1  0  0  0  0
 10 12  1  0  0  0  0
 10 28  1  0  0  0  0
 10 29  1  0  0  0  0
 11 13  1  0  0  0  0
 11 30  1  0  0  0  0
 11 31  1  0  0  0  0
 12 16  1  0  0  0  0
 12 32  1  0  0  0  0
 14 19  1  0  0  0  0
 14 33  1  0  0  0  0
 14 34  1  0  0  0  0
 15 35  1  0  0  0  0
 15 36  1  0  0  0  0
 15 37  1  0  0  0  0
 16 18  1  0  0  0  0
 16 38  1  0  0  0  0
 17 39  1  0  0  0  0
 17 40  1  0  0  0  0
 18 23  1  0  0  0  0
 18 24  2  0  0  0  0
 19 21  1  0  0  0  0
 20 21  1  0  0  0  0
 20 22  1  0  0  0  0
 20 25  1  0  0  0  0
 20 41  1  0  0  0  0
 21 42  1  0  0  0  0
 21 43  1  0  0  0  0
 22 24  1  0  0  0  0
 22 44  1  0  0  0  0
 22 45  1  0  0  0  0
 24 46  1  0  0  0  0
 25 26  1  0  0  0  0
 25 27  2  0  0  0  0
 26 49  1  0  0  0  0
 26 50  1  0  0  0  0
 26 51  1  0  0  0  0
 27 52  1  0  0  0  0
 27 53  1  0  0  0  0
M  END
> <PUBCHEM_COMPOUND_CID>
101763629

> <PUBCHEM_CONFORMER_RMSD>
0.8

> <PUBCHEM_CONFORMER_DIVERSEORDER>
1
7
6
4
3
2
5

> <PUBCHEM_MMFF94_PARTIAL_CHARGES>
30
1 -0.56
11 0.06
12 0.28
13 0.45
14 0.06
16 0.42
17 0.28
18 -0.12
19 0.45
2 -0.43
20 0.14
21 0.06
22 0.14
23 0.71
24 -0.29
25 -0.28
26 0.14
27 -0.3
3 -0.57
4 -0.68
46 0.15
47 0.4
48 0.4
5 -0.68
52 0.15
53 0.15
6 -0.57
7 -0.57
8 0.28
9 0.34

> <PUBCHEM_EFFECTIVE_ROTOR_COUNT>
3.8

> <PUBCHEM_PHARMACOPHORE_FEATURES>
10
1 1 acceptor
1 3 acceptor
1 4 acceptor
1 4 donor
1 5 acceptor
1 5 donor
1 6 acceptor
1 7 acceptor
5 1 8 9 11 13 rings
5 2 12 16 18 23 rings

> <PUBCHEM_HEAVY_ATOM_COUNT>
27

> <PUBCHEM_ATOM_DEF_STEREO_COUNT>
5

> <PUBCHEM_ATOM_UDEF_STEREO_COUNT>
0

> <PUBCHEM_BOND_DEF_STEREO_COUNT>
1

> <PUBCHEM_BOND_UDEF_STEREO_COUNT>
0

> <PUBCHEM_ISOTOPIC_ATOM_COUNT>
0

> <PUBCHEM_COMPONENT_COUNT>
1

> <PUBCHEM_CACTVS_TAUTO_COUNT>
6

> <PUBCHEM_CONFORMER_ID>
0610CA2D00000001

> <PUBCHEM_MMFF94_ENERGY>
72.806

> <PUBCHEM_FEATURE_SELFOVERLAP>
50.751

> <PUBCHEM_SHAPE_FINGERPRINT>
10967382 1 18121500416778079479
1100329 8 18051415071828112597
11370993 70 17262153035367248779
11578080 2 17560216077686560507
12156800 1 15810400599575037016
12293681 4 18187657911569226098
12553582 1 18120940765660241269
12788726 201 18192705644770972241
13122387 1 18120930616531181983
13140716 1 18408877430510261569
13583140 156 13110150602563723485
138480 1 14592087307316762415
14114211 80 17545636750907384247
14251757 5 17116091196236280206
14790565 3 17615424974832583749
17093844 170 17977659045889772281
17492 54 17972326371692682724
19591789 44 18050012386953745238
19930381 70 18194963174176999287
20600515 1 17902481841116134392
20775438 99 17764819846262560911
20905425 154 18411140250946251876
21285901 2 17680122339560668167
2334 1 18336823216516623853
23419403 2 16964845920187777148
23557571 272 18053361224921585178
238 59 17903080271615189219
2818148 4 18124628359892625651
484985 159 14824663995415719180
6287921 2 18130507555988317507
70251023 43 18409733950058665475
81228 2 17978495443372839418

> <PUBCHEM_SHAPE_MULTIPOLES>
514.56
6.3
5.31
1.41
7.49
0.16
0.41
0.89
-0.61
-3.1
-0.36
-0.45
-0.12
0.25

> <PUBCHEM_SHAPE_SELFOVERLAP>
1088.227

> <PUBCHEM_SHAPE_VOLUME>
286.5

> <PUBCHEM_COORDINATE_TYPE>
2
5
10

$$$$
