REMARK  Name = 101789796
REMARK  1 active torsions:
REMARK  status: ('A' for Active; 'I' for Inactive)
REMARK    1  A    between atoms: C_13  and  O_35
REMARK                            x       y       z     vdW  Elec       q    Type
REMARK                         _______ _______ _______ _____ _____    ______ ____
ROOT
ATOM      1  O   UNL     1      -3.866   2.268  -1.450  0.00  0.00    -0.277 OA
ATOM      2  O   UNL     1      -0.211   0.209   4.027  0.00  0.00    -0.273 OA
ATOM      3  O   UNL     1       2.934  -2.338   1.216  0.00  0.00    -0.274 OA
ATOM      4  N   UNL     1      -0.717   1.456  -0.021  0.00  0.00    +0.426 N 
ATOM      5  N   UNL     1      -2.714   0.487  -0.440  0.00  0.00    -0.279 N 
ATOM      6  N   UNL     1       0.211   1.606   2.254  0.00  0.00    -0.315 N 
ATOM      7  N   UNL     1       1.734  -0.337   1.065  0.00  0.00    -0.230 N 
ATOM      8  N   UNL     1       2.396   1.328  -0.500  0.00  0.00    -0.395 NA
ATOM      9  C   UNL     1      -1.706   2.520  -0.391  0.00  0.00    +0.034 C 
ATOM     10  C   UNL     1      -1.545   0.337   0.388  0.00  0.00    +0.059 C 
ATOM     11  C   UNL     1      -1.841   3.843   0.310  0.00  0.00    -0.012 C 
ATOM     12  C   UNL     1      -1.282   3.784  -1.087  0.00  0.00    -0.012 C 
ATOM     13  C   UNL     1      -1.087  -1.113   0.195  0.00  0.00    +0.110 C 
ATOM     14  C   UNL     1      -2.938   1.773  -0.834  0.00  0.00    +0.210 C 
ATOM     15  C   UNL     1       0.424   1.760   0.832  0.00  0.00    +0.089 C 
ATOM     16  C   UNL     1      -0.401  -1.660   1.451  0.00  0.00    +0.060 C 
ATOM     17  C   UNL     1      -2.415  -1.737  -0.209  0.00  0.00    +0.015 C 
ATOM     18  C   UNL     1      -3.310  -0.741  -0.653  0.00  0.00    +0.050 C 
ATOM     19  C   UNL     1       0.731  -0.784   2.041  0.00  0.00    +0.160 C 
ATOM     20  C   UNL     1       1.596   0.891   0.422  0.00  0.00    +0.164 C 
ATOM     21  C   UNL     1       0.233   0.381   2.892  0.00  0.00    +0.240 C 
ATOM     22  C   UNL     1      -2.763  -3.073  -0.296  0.00  0.00    -0.001 C 
ATOM     23  C   UNL     1      -4.534  -1.037  -1.214  0.00  0.00    +0.015 C 
ATOM     24  C   UNL     1       2.771  -1.221   0.734  0.00  0.00    +0.242 C 
ATOM     25  C   UNL     1      -4.015  -3.391  -0.833  0.00  0.00    -0.000 C 
ATOM     26  C   UNL     1      -4.887  -2.385  -1.292  0.00  0.00    +0.001 C 
ATOM     27  C   UNL     1       3.709  -0.731  -0.297  0.00  0.00    +0.151 C 
ATOM     28  C   UNL     1       3.479   0.522  -0.873  0.00  0.00    +0.123 C 
ATOM     29  C   UNL     1       4.801  -1.512  -0.693  0.00  0.00    -0.010 C 
ATOM     30  C   UNL     1       4.362   0.986  -1.855  0.00  0.00    +0.028 C 
ATOM     31  C   UNL     1       5.671  -1.036  -1.672  0.00  0.00    -0.004 C 
ATOM     32  C   UNL     1       5.452   0.211  -2.253  0.00  0.00    +0.002 C 
ATOM     33  H   UNL     1      -0.133   1.261  -0.834  0.00  0.00    -0.073 HD
ATOM     34  H   UNL     1       0.043   2.412   2.794  0.00  0.00    +0.148 HD
ENDROOT
BRANCH  13  35
ATOM     35  O   UNL     1      -0.269  -1.268  -0.962  0.00  0.00    -0.383 OA
ATOM     36  H   UNL     1       0.608  -0.892  -0.790  0.00  0.00    +0.211 HD
ENDBRANCH  13  35
TORSDOF 1
