101778635
  -OEChem-03292013293D

 70 70  0     1  0  0  0  0  0999 V2000
    4.3677   -3.0296   -0.4954 O   0  0  0  0  0  0  0  0  0  0  0  0
    3.6693   -3.2543    2.2838 O   0  0  0  0  0  0  0  0  0  0  0  0
    6.7459   -1.4365   -0.8848 O   0  0  0  0  0  0  0  0  0  0  0  0
    4.1977   -0.6582   -1.9290 O   0  0  0  0  0  0  0  0  0  0  0  0
   -3.7837   -1.1545    1.8016 O   0  0  0  0  0  0  0  0  0  0  0  0
   -3.3657    3.2012    1.5814 O   0  0  0  0  0  0  0  0  0  0  0  0
   -5.7469   -0.7342    0.6309 N   0  0  0  0  0  0  0  0  0  0  0  0
    4.9985   -2.2663    0.5344 C   0  0  2  0  0  0  0  0  0  0  0  0
    4.0147   -1.9978    1.6886 C   0  0  1  0  0  0  0  0  0  0  0  0
    5.6650   -1.0156   -0.0532 C   0  0  2  0  0  0  0  0  0  0  0  0
   -5.5987   -2.3199   -1.2704 C   0  0  2  0  0  0  0  0  0  0  0  0
   -6.0149   -2.1024    0.2000 C   0  0  0  0  0  0  0  0  0  0  0  0
    2.7166   -1.3343    1.3157 C   0  0  0  0  0  0  0  0  0  0  0  0
    4.7822   -0.1754   -0.9626 C   0  0  0  0  0  0  0  0  0  0  0  0
   -5.9266   -3.7420   -1.7208 C   0  0  0  0  0  0  0  0  0  0  0  0
   -4.1241   -2.0384   -1.4383 C   0  0  0  0  0  0  0  0  0  0  0  0
    2.2803   -0.2019    1.8909 C   0  0  0  0  0  0  0  0  0  0  0  0
    4.7314    1.2870   -0.6633 C   0  0  0  0  0  0  0  0  0  0  0  0
   -3.6582   -0.9063   -1.9890 C   0  0  0  0  0  0  0  0  0  0  0  0
    0.9802    0.3834    1.6256 C   0  0  0  0  0  0  0  0  0  0  0  0
   -4.5994   -0.3730    1.3278 C   0  0  0  0  0  0  0  0  0  0  0  0
    0.4945    1.5345    2.1346 C   0  0  0  0  0  0  0  0  0  0  0  0
    3.7082    2.1101   -0.9339 C   0  0  0  0  0  0  0  0  0  0  0  0
   -2.2698   -0.5207   -1.9018 C   0  0  0  0  0  0  0  0  0  0  0  0
   -4.4492    1.1112    1.3961 C   0  0  0  0  0  0  0  0  0  0  0  0
   -0.8510    2.0209    1.8244 C   0  0  0  0  0  0  0  0  0  0  0  0
    2.4375    1.7676   -1.5319 C   0  0  0  0  0  0  0  0  0  0  0  0
    1.2550    2.4839    3.0267 C   0  0  0  0  0  0  0  0  0  0  0  0
   -3.3146    1.8114    1.5809 C   0  0  0  0  0  0  0  0  0  0  0  0
   -1.8261    0.7005   -2.2394 C   0  0  0  0  0  0  0  0  0  0  0  0
   -1.9752    1.2805    1.8027 C   0  0  0  0  0  0  0  0  0  0  0  0
    0.0905    2.3239   -2.1714 C   0  0  0  0  0  0  0  0  0  0  0  0
    1.4255    2.6412   -1.6617 C   0  0  0  0  0  0  0  0  0  0  0  0
   -0.4721    1.1191   -1.9474 C   0  0  0  0  0  0  0  0  0  0  0  0
   -0.5844    3.4848   -2.8516 C   0  0  0  0  0  0  0  0  0  0  0  0
    5.7897   -2.9240    0.9170 H   0  0  0  0  0  0  0  0  0  0  0  0
    4.5394   -1.4215    2.4605 H   0  0  0  0  0  0  0  0  0  0  0  0
    6.0861   -0.4102    0.7566 H   0  0  0  0  0  0  0  0  0  0  0  0
   -6.1763   -1.6270   -1.8973 H   0  0  0  0  0  0  0  0  0  0  0  0
   -7.0919   -2.2650    0.3160 H   0  0  0  0  0  0  0  0  0  0  0  0
   -5.4912   -2.7997    0.8643 H   0  0  0  0  0  0  0  0  0  0  0  0
    2.0851   -1.8471    0.5936 H   0  0  0  0  0  0  0  0  0  0  0  0
   -5.3952   -4.4877   -1.1187 H   0  0  0  0  0  0  0  0  0  0  0  0
   -5.6480   -3.8952   -2.7693 H   0  0  0  0  0  0  0  0  0  0  0  0
   -7.0001   -3.9386   -1.6281 H   0  0  0  0  0  0  0  0  0  0  0  0
   -3.4345   -2.7390   -0.9712 H   0  0  0  0  0  0  0  0  0  0  0  0
    3.6750   -2.4856   -0.9050 H   0  0  0  0  0  0  0  0  0  0  0  0
    3.1343   -3.0705    3.0752 H   0  0  0  0  0  0  0  0  0  0  0  0
    7.2614   -0.6453   -1.1182 H   0  0  0  0  0  0  0  0  0  0  0  0
   -6.3862   -0.0162    0.3026 H   0  0  0  0  0  0  0  0  0  0  0  0
    2.9189    0.2782    2.6243 H   0  0  0  0  0  0  0  0  0  0  0  0
    5.6016    1.6918   -0.1533 H   0  0  0  0  0  0  0  0  0  0  0  0
   -4.3539   -0.1848   -2.4094 H   0  0  0  0  0  0  0  0  0  0  0  0
    0.3468   -0.2026    0.9610 H   0  0  0  0  0  0  0  0  0  0  0  0
    3.8254    3.1510   -0.6355 H   0  0  0  0  0  0  0  0  0  0  0  0
   -1.5903   -1.2398   -1.4486 H   0  0  0  0  0  0  0  0  0  0  0  0
   -5.3725    1.6678    1.2409 H   0  0  0  0  0  0  0  0  0  0  0  0
   -0.9069    3.0945    1.6534 H   0  0  0  0  0  0  0  0  0  0  0  0
    2.2929    0.7415   -1.8491 H   0  0  0  0  0  0  0  0  0  0  0  0
    2.2792    2.1698    3.2368 H   0  0  0  0  0  0  0  0  0  0  0  0
    1.3205    3.4755    2.5638 H   0  0  0  0  0  0  0  0  0  0  0  0
    0.7445    2.5881    3.9909 H   0  0  0  0  0  0  0  0  0  0  0  0
   -2.5144    1.4261   -2.6599 H   0  0  0  0  0  0  0  0  0  0  0  0
   -1.8876    0.2157    1.9885 H   0  0  0  0  0  0  0  0  0  0  0  0
    1.5657    3.6727   -1.3423 H   0  0  0  0  0  0  0  0  0  0  0  0
    0.1111    0.3617   -1.4256 H   0  0  0  0  0  0  0  0  0  0  0  0
    0.0666    3.9016   -3.6289 H   0  0  0  0  0  0  0  0  0  0  0  0
   -0.8060    4.2766   -2.1275 H   0  0  0  0  0  0  0  0  0  0  0  0
   -1.5208    3.2127   -3.3446 H   0  0  0  0  0  0  0  0  0  0  0  0
   -4.2852    3.4797    1.4306 H   0  0  0  0  0  0  0  0  0  0  0  0
  1  8  1  0  0  0  0
  1 47  1  0  0  0  0
  2  9  1  0  0  0  0
  2 48  1  0  0  0  0
  3 10  1  0  0  0  0
  3 49  1  0  0  0  0
  4 14  2  0  0  0  0
  5 21  2  0  0  0  0
  6 29  1  0  0  0  0
  6 70  1  0  0  0  0
  7 12  1  0  0  0  0
  7 21  1  0  0  0  0
  7 50  1  0  0  0  0
  8  9  1  0  0  0  0
  8 10  1  0  0  0  0
  8 36  1  0  0  0  0
  9 13  1  0  0  0  0
  9 37  1  0  0  0  0
 10 14  1  0  0  0  0
 10 38  1  0  0  0  0
 11 12  1  0  0  0  0
 11 15  1  0  0  0  0
 11 16  1  0  0  0  0
 11 39  1  0  0  0  0
 12 40  1  0  0  0  0
 12 41  1  0  0  0  0
 13 17  2  0  0  0  0
 13 42  1  0  0  0  0
 14 18  1  0  0  0  0
 15 43  1  0  0  0  0
 15 44  1  0  0  0  0
 15 45  1  0  0  0  0
 16 19  2  0  0  0  0
 16 46  1  0  0  0  0
 17 20  1  0  0  0  0
 17 51  1  0  0  0  0
 18 23  2  0  0  0  0
 18 52  1  0  0  0  0
 19 24  1  0  0  0  0
 19 53  1  0  0  0  0
 20 22  2  0  0  0  0
 20 54  1  0  0  0  0
 21 25  1  0  0  0  0
 22 26  1  0  0  0  0
 22 28  1  0  0  0  0
 23 27  1  0  0  0  0
 23 55  1  0  0  0  0
 24 30  2  0  0  0  0
 24 56  1  0  0  0  0
 25 29  2  0  0  0  0
 25 57  1  0  0  0  0
 26 31  2  0  0  0  0
 26 58  1  0  0  0  0
 27 33  2  0  0  0  0
 27 59  1  0  0  0  0
 28 60  1  0  0  0  0
 28 61  1  0  0  0  0
 28 62  1  0  0  0  0
 29 31  1  0  0  0  0
 30 34  1  0  0  0  0
 30 63  1  0  0  0  0
 31 64  1  0  0  0  0
 32 33  1  0  0  0  0
 32 34  2  0  0  0  0
 32 35  1  0  0  0  0
 33 65  1  0  0  0  0
 34 66  1  0  0  0  0
 35 67  1  0  0  0  0
 35 68  1  0  0  0  0
 35 69  1  0  0  0  0
M  END
> <PUBCHEM_COMPOUND_CID>
101778635

> <PUBCHEM_CONFORMER_RMSD>
0.8

> <PUBCHEM_CONFORMER_DIVERSEORDER>
1
32
29
10
25
35
2
13
31
18
19
14
12
26
22
8
30
33
28
21
34
3
4
9
15
36
24
23
27
11
5
16
20
6
7
17

> <PUBCHEM_MMFF94_PARTIAL_CHARGES>
54
1 -0.68
10 0.34
11 0.14
12 0.3
13 -0.29
14 0.49
16 -0.29
17 -0.15
18 -0.14
19 -0.15
2 -0.68
20 -0.15
21 0.62
22 -0.14
23 -0.15
24 -0.15
25 -0.14
26 -0.15
27 -0.15
28 0.14
29 0.08
3 -0.68
30 -0.15
31 -0.15
32 -0.14
33 -0.15
34 -0.15
35 0.14
4 -0.57
42 0.15
46 0.15
47 0.4
48 0.4
49 0.4
5 -0.57
50 0.37
51 0.15
52 0.15
53 0.15
54 0.15
55 0.15
56 0.15
57 0.15
58 0.15
59 0.15
6 -0.53
63 0.15
64 0.15
65 0.15
66 0.15
7 -0.73
70 0.45
8 0.28
9 0.42

> <PUBCHEM_EFFECTIVE_ROTOR_COUNT>
1.2

> <PUBCHEM_PHARMACOPHORE_FEATURES>
10
1 1 acceptor
1 1 donor
1 2 acceptor
1 2 donor
1 3 acceptor
1 3 donor
1 4 acceptor
1 5 acceptor
1 6 donor
1 7 donor

> <PUBCHEM_HEAVY_ATOM_COUNT>
35

> <PUBCHEM_ATOM_DEF_STEREO_COUNT>
0

> <PUBCHEM_ATOM_UDEF_STEREO_COUNT>
4

> <PUBCHEM_BOND_DEF_STEREO_COUNT>
9

> <PUBCHEM_BOND_UDEF_STEREO_COUNT>
0

> <PUBCHEM_ISOTOPIC_ATOM_COUNT>
0

> <PUBCHEM_COMPONENT_COUNT>
1

> <PUBCHEM_CACTVS_TAUTO_COUNT>
60

> <PUBCHEM_CONFORMER_ID>
061104CB00000001

> <PUBCHEM_MMFF94_ENERGY>
73.759

> <PUBCHEM_FEATURE_SELFOVERLAP>
50.766

> <PUBCHEM_SHAPE_FINGERPRINT>
12128747 34 16700911375038942790
13111901 137 13695875813999351401
131258 38 18130219475509882110
13165053 137 14945034976544742394
13383661 66 17026864045541098563
15160629 131 17604413215957017343
15721738 202 18409164441341328375
17909252 39 17894340065176727176
19315092 285 18411418440653269900
20764821 26 15913043283194705885
208703 8 18202565098423022638
4112364 45 10663282050323791519
508706 21 15213309594567262392

> <PUBCHEM_SHAPE_MULTIPOLES>
680.09
14.71
4.22
3.39
2.82
0.59
0.2
15.3
-1.94
0.43
-0.57
0.7
-1.89
-3.65

> <PUBCHEM_SHAPE_SELFOVERLAP>
1369.296

> <PUBCHEM_SHAPE_VOLUME>
393.3

> <PUBCHEM_COORDINATE_TYPE>
2
5
10

$$$$
