10178467
  -OEChem-03292013303D

 47 52  0     1  0  0  0  0  0999 V2000
    0.7421   -3.2407    2.1582 O   0  0  0  0  0  0  0  0  0  0  0  0
    2.0278   -1.4628   -2.6851 O   0  0  0  0  0  0  0  0  0  0  0  0
    3.1941    1.8976    1.9289 O   0  0  0  0  0  0  0  0  0  0  0  0
    3.4465    3.9078    0.6241 O   0  0  0  0  0  0  0  0  0  0  0  0
    0.5467   -1.4008   -0.8688 N   0  0  0  0  0  0  0  0  0  0  0  0
   -2.3011    0.9839   -1.2751 N   0  0  0  0  0  0  0  0  0  0  0  0
    1.9905   -3.3830    0.2077 N   0  0  0  0  0  0  0  0  0  0  0  0
    3.1361   -3.8294    0.8550 N   0  0  0  0  0  0  0  0  0  0  0  0
   -0.1591   -2.2624    0.1281 C   0  0  2  0  0  0  0  0  0  0  0  0
    0.0062   -0.0717   -1.2862 C   0  0  1  0  0  0  0  0  0  0  0  0
   -1.1572   -1.5367    1.0579 C   0  0  0  0  0  0  0  0  0  0  0  0
   -1.3724    0.1232   -0.7607 C   0  0  0  0  0  0  0  0  0  0  0  0
   -1.9376   -0.5354    0.3032 C   0  0  0  0  0  0  0  0  0  0  0  0
   -3.2637   -0.0523    0.4609 C   0  0  0  0  0  0  0  0  0  0  0  0
    0.9036   -2.9728    0.9686 C   0  0  0  0  0  0  0  0  0  0  0  0
    0.9189    1.0137   -0.8050 C   0  0  0  0  0  0  0  0  0  0  0  0
    1.5632   -1.9677   -1.6633 C   0  0  0  0  0  0  0  0  0  0  0  0
   -3.4670    0.9006   -0.5434 C   0  0  0  0  0  0  0  0  0  0  0  0
    1.9660   -3.3597   -1.2371 C   0  0  0  0  0  0  0  0  0  0  0  0
    1.6128    0.8486    0.3930 C   0  0  0  0  0  0  0  0  0  0  0  0
   -4.3163   -0.3266    1.3569 C   0  0  0  0  0  0  0  0  0  0  0  0
    1.0630    2.1828   -1.5678 C   0  0  0  0  0  0  0  0  0  0  0  0
   -4.6751    1.5907   -0.6941 C   0  0  0  0  0  0  0  0  0  0  0  0
    2.4416    1.8758    0.7951 C   0  0  0  0  0  0  0  0  0  0  0  0
   -5.5292    0.3573    1.2171 C   0  0  0  0  0  0  0  0  0  0  0  0
    1.9090    3.2080   -1.1380 C   0  0  0  0  0  0  0  0  0  0  0  0
   -5.7038    1.3004    0.2064 C   0  0  0  0  0  0  0  0  0  0  0  0
    2.5858    3.0239    0.0501 C   0  0  0  0  0  0  0  0  0  0  0  0
    3.8285    3.1877    1.8136 C   0  0  0  0  0  0  0  0  0  0  0  0
   -0.6977   -3.0242   -0.4517 H   0  0  0  0  0  0  0  0  0  0  0  0
   -0.0199   -0.0723   -2.3839 H   0  0  0  0  0  0  0  0  0  0  0  0
   -0.6260   -1.0197    1.8675 H   0  0  0  0  0  0  0  0  0  0  0  0
   -1.8167   -2.2719    1.5340 H   0  0  0  0  0  0  0  0  0  0  0  0
   -2.1577    1.5941   -2.0682 H   0  0  0  0  0  0  0  0  0  0  0  0
    1.2264   -4.0801   -1.6002 H   0  0  0  0  0  0  0  0  0  0  0  0
    2.9553   -3.5985   -1.6401 H   0  0  0  0  0  0  0  0  0  0  0  0
    1.5215   -0.0300    1.0191 H   0  0  0  0  0  0  0  0  0  0  0  0
   -4.1955   -1.0591    2.1498 H   0  0  0  0  0  0  0  0  0  0  0  0
    0.5183    2.3039   -2.5009 H   0  0  0  0  0  0  0  0  0  0  0  0
   -4.8125    2.3258   -1.4800 H   0  0  0  0  0  0  0  0  0  0  0  0
   -6.3438    0.1490    1.9055 H   0  0  0  0  0  0  0  0  0  0  0  0
    2.0249    4.1141   -1.7218 H   0  0  0  0  0  0  0  0  0  0  0  0
    3.4536   -3.0751    1.4625 H   0  0  0  0  0  0  0  0  0  0  0  0
    2.8593   -4.5958    1.4675 H   0  0  0  0  0  0  0  0  0  0  0  0
   -6.6545    1.8197    0.1161 H   0  0  0  0  0  0  0  0  0  0  0  0
    4.9152    3.0446    1.8036 H   0  0  0  0  0  0  0  0  0  0  0  0
    3.5609    3.7897    2.6896 H   0  0  0  0  0  0  0  0  0  0  0  0
  1 15  2  0  0  0  0
  2 17  2  0  0  0  0
  3 24  1  0  0  0  0
  3 29  1  0  0  0  0
  4 28  1  0  0  0  0
  4 29  1  0  0  0  0
  5  9  1  0  0  0  0
  5 10  1  0  0  0  0
  5 17  1  0  0  0  0
  6 12  1  0  0  0  0
  6 18  1  0  0  0  0
  6 34  1  0  0  0  0
  7  8  1  0  0  0  0
  7 15  1  0  0  0  0
  7 19  1  0  0  0  0
  8 43  1  0  0  0  0
  8 44  1  0  0  0  0
  9 11  1  0  0  0  0
  9 15  1  0  0  0  0
  9 30  1  0  0  0  0
 10 12  1  0  0  0  0
 10 16  1  0  0  0  0
 10 31  1  0  0  0  0
 11 13  1  0  0  0  0
 11 32  1  0  0  0  0
 11 33  1  0  0  0  0
 12 13  2  0  0  0  0
 13 14  1  0  0  0  0
 14 18  1  0  0  0  0
 14 21  2  0  0  0  0
 16 20  2  0  0  0  0
 16 22  1  0  0  0  0
 17 19  1  0  0  0  0
 18 23  2  0  0  0  0
 19 35  1  0  0  0  0
 19 36  1  0  0  0  0
 20 24  1  0  0  0  0
 20 37  1  0  0  0  0
 21 25  1  0  0  0  0
 21 38  1  0  0  0  0
 22 26  2  0  0  0  0
 22 39  1  0  0  0  0
 23 27  1  0  0  0  0
 23 40  1  0  0  0  0
 24 28  2  0  0  0  0
 25 27  2  0  0  0  0
 25 41  1  0  0  0  0
 26 28  1  0  0  0  0
 26 42  1  0  0  0  0
 27 45  1  0  0  0  0
 29 46  1  0  0  0  0
 29 47  1  0  0  0  0
M  END
> <PUBCHEM_COMPOUND_CID>
10178467

> <PUBCHEM_CONFORMER_RMSD>
0.6

> <PUBCHEM_CONFORMER_DIVERSEORDER>
1
4
6
3
5
2

> <PUBCHEM_MMFF94_PARTIAL_CHARGES>
38
1 -0.57
10 0.62
11 0.18
12 -0.33
13 -0.18
15 0.57
16 -0.14
17 0.57
18 -0.15
19 0.36
2 -0.57
20 -0.15
21 -0.15
22 -0.15
23 -0.15
24 0.08
25 -0.15
26 -0.15
27 -0.15
28 0.08
29 0.56
3 -0.36
34 0.27
37 0.15
38 0.15
39 0.15
4 -0.36
40 0.15
41 0.15
42 0.15
43 0.36
44 0.36
45 0.15
5 -0.66
6 0.03
7 -0.35
8 -0.73
9 0.36

> <PUBCHEM_EFFECTIVE_ROTOR_COUNT>
2.4

> <PUBCHEM_PHARMACOPHORE_FEATURES>
13
1 1 acceptor
1 2 acceptor
1 3 acceptor
1 4 acceptor
1 6 cation
1 6 donor
1 8 donor
5 3 4 24 28 29 rings
5 6 12 13 14 18 rings
6 14 18 21 23 25 27 rings
6 16 20 22 24 26 28 rings
6 5 7 9 15 17 19 rings
6 5 9 10 11 12 13 rings

> <PUBCHEM_HEAVY_ATOM_COUNT>
29

> <PUBCHEM_ATOM_DEF_STEREO_COUNT>
2

> <PUBCHEM_ATOM_UDEF_STEREO_COUNT>
0

> <PUBCHEM_BOND_DEF_STEREO_COUNT>
0

> <PUBCHEM_BOND_UDEF_STEREO_COUNT>
0

> <PUBCHEM_ISOTOPIC_ATOM_COUNT>
0

> <PUBCHEM_COMPONENT_COUNT>
1

> <PUBCHEM_CACTVS_TAUTO_COUNT>
1

> <PUBCHEM_CONFORMER_ID>
009B4FA300000001

> <PUBCHEM_MMFF94_ENERGY>
88.4361

> <PUBCHEM_FEATURE_SELFOVERLAP>
66.338

> <PUBCHEM_SHAPE_FINGERPRINT>
10074138 170 17544468017386423793
10165383 225 17261367876364065820
10764073 3 16375462530134141973
11070050 100 18125185919973158777
11578080 2 18198929044304827027
12160290 23 17617094054498571876
12293681 160 17902546751263529374
12549972 3 17969522424206500777
12741549 16 17483369960228134355
12788726 201 16967730767878679823
12839892 36 18045785847683451235
13134695 92 18196091036661980359
13140716 1 18338800134049257076
133893 2 18124282030993875655
14856354 85 16734661108325303240
14955137 171 18198633124520104255
15064986 96 18189876699989311856
15131766 46 16480724302148842690
15230672 131 18118416257922048932
1813 80 17700135391894282119
18785283 64 18408037407747528298
21033648 29 17913767481867672544
21120745 212 17334522414198561446
21731228 192 18192990637067571513
22149856 69 18118997843843484651
22182313 1 17821723898115872621
23419403 2 17827613899636774046
23558518 356 18123184872961094750
23559900 14 17895484618395607381
25222932 49 14059293101771946897
283562 15 17766547333316179471
3411729 13 18342734100580234905
35225 105 17623284283751858162
376196 1 17773878790692380836
394222 165 17847064397718395175
469060 322 11965611906933856760
474 4 18343582979729257553
495365 180 18200889451434417629
5104073 3 18339658741969119225
5265222 85 17973185077975020212
57124632 79 18409171025721417337
58807428 26 18261950868379906793
5895379 119 16411845305937120777
6086070 43 18050005494439103133
9841814 1 18197786505061591775
9896288 288 17758401064608463256
9981440 41 18267581506243730779

> <PUBCHEM_SHAPE_MULTIPOLES>
553.41
8.38
5.1
1.9
13.03
1.88
-0.11
-6.34
3.05
-8.12
1.04
-1.23
0.26
1.68

> <PUBCHEM_SHAPE_SELFOVERLAP>
1262.096

> <PUBCHEM_SHAPE_VOLUME>
285.2

> <PUBCHEM_COORDINATE_TYPE>
2
5
10

$$$$
