REMARK  Name = 101789797
REMARK  1 active torsions:
REMARK  status: ('A' for Active; 'I' for Inactive)
REMARK    1  A    between atoms: C_10  and  O_34
REMARK                            x       y       z     vdW  Elec       q    Type
REMARK                         _______ _______ _______ _____ _____    ______ ____
ROOT
ATOM      1  O   UNL     1       3.782   2.003   2.155  0.00  0.00    -0.277 OA
ATOM      2  O   UNL     1       0.259   1.317  -3.786  0.00  0.00    -0.273 OA
ATOM      3  O   UNL     1      -2.834  -1.911  -1.720  0.00  0.00    -0.269 OA
ATOM      4  N   UNL     1       0.730   1.540   0.437  0.00  0.00    +0.425 N 
ATOM      5  N   UNL     1       2.716   0.529   0.670  0.00  0.00    -0.279 N 
ATOM      6  N   UNL     1      -1.680   0.015  -1.067  0.00  0.00    -0.227 N 
ATOM      7  N   UNL     1      -0.211   2.225  -1.730  0.00  0.00    -0.315 N 
ATOM      8  N   UNL     1      -2.385   1.226   0.856  0.00  0.00    -0.395 NA
ATOM      9  C   UNL     1       1.586   0.573  -0.209  0.00  0.00    +0.059 C 
ATOM     10  C   UNL     1       1.150  -0.887  -0.385  0.00  0.00    +0.110 C 
ATOM     11  C   UNL     1       0.490  -1.122  -1.747  0.00  0.00    +0.060 C 
ATOM     12  C   UNL     1       1.645   2.535   1.049  0.00  0.00    +0.026 C 
ATOM     13  C   UNL     1      -0.421   2.018  -0.314  0.00  0.00    +0.089 C 
ATOM     14  C   UNL     1       2.481  -1.572  -0.111  0.00  0.00    +0.015 C 
ATOM     15  C   UNL     1      -0.663  -0.156  -2.114  0.00  0.00    +0.161 C 
ATOM     16  C   UNL     1       3.337  -0.703   0.597  0.00  0.00    +0.050 C 
ATOM     17  C   UNL     1       2.885   1.685   1.393  0.00  0.00    +0.208 C 
ATOM     18  C   UNL     1      -1.573   1.048  -0.139  0.00  0.00    +0.164 C 
ATOM     19  C   UNL     1      -0.193   1.193  -2.648  0.00  0.00    +0.240 C 
ATOM     20  C   UNL     1       2.061   3.703   0.161  0.00  0.00    -0.013 C 
ATOM     21  C   UNL     1       2.858  -2.881  -0.346  0.00  0.00    -0.001 C 
ATOM     22  C   UNL     1       4.550  -1.108   1.111  0.00  0.00    +0.015 C 
ATOM     23  C   UNL     1      -2.698  -0.945  -0.975  0.00  0.00    +0.257 C 
ATOM     24  C   UNL     1       4.100  -3.303   0.140  0.00  0.00    -0.000 C 
ATOM     25  C   UNL     1       4.933  -2.429   0.866  0.00  0.00    +0.001 C 
ATOM     26  C   UNL     1      -3.649  -0.747   0.139  0.00  0.00    +0.080 C 
ATOM     27  C   UNL     1      -3.449   0.328   1.009  0.00  0.00    +0.119 C 
ATOM     28  C   UNL     1      -4.722  -1.627   0.321  0.00  0.00    +0.006 C 
ATOM     29  C   UNL     1      -4.343   0.514   2.070  0.00  0.00    +0.085 C 
ATOM     30  C   UNL     1      -5.604  -1.429   1.382  0.00  0.00    -0.004 C 
ATOM     31  C   UNL     1      -5.416  -0.360   2.256  0.00  0.00    -0.019 C 
ATOM     32  H   UNL     1       0.172   1.102   1.170  0.00  0.00    -0.073 HD
ATOM     33  H   UNL     1      -0.075   3.144  -2.055  0.00  0.00    +0.148 HD
ENDROOT
BRANCH  10  34
ATOM     34  O   UNL     1       0.280  -1.273   0.681  0.00  0.00    -0.383 OA
ATOM     35  H   UNL     1      -0.589  -0.861   0.554  0.00  0.00    +0.211 HD
ENDBRANCH  10  34
TORSDOF 1
