REMARK  Name = 101711978
REMARK  5 active torsions:
REMARK  status: ('A' for Active; 'I' for Inactive)
REMARK    1  A    between atoms: N_3  and  N_15
REMARK    2  A    between atoms: C_4  and  C_18
REMARK    3  A    between atoms: C_5  and  C_9
REMARK    4  A    between atoms: C_18  and  N_19
REMARK    5  A    between atoms: N_19  and  N_21
REMARK                            x       y       z     vdW  Elec       q    Type
REMARK                         _______ _______ _______ _____ _____    ______ ____
ROOT
ATOM      1  N   UNL     1       0.708   1.724   0.359  0.00  0.00    -0.147 NA
ATOM      2  N   UNL     1       2.066   1.772   0.415  0.00  0.00    -0.132 NA
ATOM      3  N   UNL     1       4.188   0.708   0.190  0.00  0.00    -0.266 N 
ATOM      4  C   UNL     1       0.803  -0.587  -0.273  0.00  0.00    +0.017 C 
ATOM      5  C   UNL     1       0.104   0.566   0.022  0.00  0.00    +0.100 C 
ATOM      6  C   UNL     1       2.185  -0.539  -0.217  0.00  0.00    +0.036 C 
ATOM      7  C   UNL     1       2.776   0.659   0.131  0.00  0.00    +0.163 C 
ATOM      8  H   UNL     1       4.624   1.474   0.627  0.00  0.00    +0.168 HD
ENDROOT
BRANCH   5   9
ATOM      9  C   UNL     1      -1.341   0.629  -0.007  0.00  0.00    +0.019 C 
ATOM     10  C   UNL     1      -2.075   0.339   1.143  0.00  0.00    +0.002 C 
ATOM     11  C   UNL     1      -2.001   0.981  -1.185  0.00  0.00    +0.002 C 
ATOM     12  C   UNL     1      -3.469   0.401   1.115  0.00  0.00    +0.000 C 
ATOM     13  C   UNL     1      -3.394   1.042  -1.212  0.00  0.00    +0.000 C 
ATOM     14  C   UNL     1      -4.128   0.752  -0.062  0.00  0.00    +0.000 C 
ENDBRANCH   5   9
BRANCH   3  15
ATOM     15  N   UNL     1       4.966  -0.288  -0.346  0.00  0.00    -0.255 NA
ATOM     16  H   UNL     1       4.366  -1.003  -0.758  0.00  0.00    +0.140 HD
ATOM     17  H   UNL     1       5.538  -0.706   0.387  0.00  0.00    +0.140 HD
ENDBRANCH   3  15
BRANCH   4  18
ATOM     18  C   UNL     1       0.123  -1.861  -0.645  0.00  0.00    +0.112 C 
BRANCH  18  19
ATOM     19  N   UNL     1      -0.455  -2.544   0.514  0.00  0.00    -0.244 NA
ATOM     20  H   UNL     1       0.277  -2.755   1.192  0.00  0.00    +0.141 HD
BRANCH  19  21
ATOM     21  N   UNL     1      -1.056  -3.753   0.058  0.00  0.00    -0.270 NA
ATOM     22  H   UNL     1      -1.787  -3.536  -0.619  0.00  0.00    +0.137 HD
ATOM     23  H   UNL     1      -1.464  -4.250   0.850  0.00  0.00    +0.137 HD
ENDBRANCH  19  21
ENDBRANCH  18  19
ENDBRANCH   4  18
TORSDOF 5
