REMARK  Name = 101744342
REMARK  6 active torsions:
REMARK  status: ('A' for Active; 'I' for Inactive)
REMARK    1  A    between atoms: C_4  and  O_15
REMARK    2  A    between atoms: C_5  and  C_20
REMARK    3  A    between atoms: C_6  and  O_17
REMARK    4  A    between atoms: C_6  and  C_24
REMARK    5  A    between atoms: C_20  and  O_21
REMARK    6  A    between atoms: C_24  and  O_25
REMARK                            x       y       z     vdW  Elec       q    Type
REMARK                         _______ _______ _______ _____ _____    ______ ____
ROOT
ATOM      1  O   UNL     1      -0.050  -1.494  -0.473  0.00  0.00    -0.309 OA
ATOM      2  O   UNL     1       0.079   0.540   0.686  0.00  0.00    -0.317 OA
ATOM      3  C   UNL     1      -0.787  -0.552   0.331  0.00  0.00    +0.226 C 
ATOM      4  C   UNL     1       1.335  -1.219  -0.226  0.00  0.00    +0.223 C 
ATOM      5  C   UNL     1       1.352   0.278   0.093  0.00  0.00    +0.248 C 
ATOM      6  C   UNL     1      -2.012  -0.052  -0.475  0.00  0.00    +0.243 C 
ATOM      7  C   UNL     1      -1.257  -1.244   1.625  0.00  0.00    +0.064 C 
ATOM      8  C   UNL     1       2.168  -1.586  -1.455  0.00  0.00    +0.064 C 
ATOM      9  C   UNL     1       1.545   1.190  -1.085  0.00  0.00    +0.011 C 
ATOM     10  C   UNL     1       1.869  -0.709  -2.670  0.00  0.00    +0.031 C 
ATOM     11  C   UNL     1      -2.200  -2.416   1.341  0.00  0.00    +0.031 C 
ATOM     12  C   UNL     1      -3.137  -1.048  -0.529  0.00  0.00    +0.011 C 
ATOM     13  C   UNL     1       1.772   0.745  -2.328  0.00  0.00    -0.028 C 
ATOM     14  C   UNL     1      -3.212  -2.115   0.278  0.00  0.00    -0.028 C 
ENDROOT
BRANCH   4  15
ATOM     15  O   UNL     1       1.810  -2.034   0.845  0.00  0.00    -0.361 OA
ATOM     16  H   UNL     1       1.308  -1.835   1.651  0.00  0.00    +0.213 HD
ENDBRANCH   4  15
BRANCH   6  17
ATOM     17  O   UNL     1      -1.645   0.283  -1.807  0.00  0.00    -0.369 OA
ATOM     18  H   UNL     1      -1.244  -0.489  -2.235  0.00  0.00    +0.212 HD
ENDBRANCH   6  17
BRANCH   5  20
ATOM     19  O   UNL     1       2.162   1.086   2.215  0.00  0.00    -0.247 OA
ATOM     20  C   UNL     1       2.404   0.681   1.086  0.00  0.00    +0.351 C 
BRANCH  20  21
ATOM     21  O   UNL     1       3.639   0.524   0.530  0.00  0.00    -0.442 OA
ATOM     22  C   UNL     1       4.742   0.874   1.373  0.00  0.00    +0.256 C 
ENDBRANCH  20  21
ENDBRANCH   5  20
BRANCH   6  24
ATOM     23  O   UNL     1      -3.557   1.214   0.881  0.00  0.00    -0.247 OA
ATOM     24  C   UNL     1      -2.619   1.202   0.096  0.00  0.00    +0.350 C 
BRANCH  24  25
ATOM     25  O   UNL     1      -1.963   2.291  -0.398  0.00  0.00    -0.442 OA
ATOM     26  C   UNL     1      -2.439   3.558   0.066  0.00  0.00    +0.256 C 
ENDBRANCH  24  25
ENDBRANCH   6  24
TORSDOF 6
