REMARK  Name = 101790920
REMARK  10 active torsions:
REMARK  status: ('A' for Active; 'I' for Inactive)
REMARK    1  A    between atoms: C_2  and  C_23
REMARK    2  A    between atoms: C_3  and  C_8
REMARK    3  A    between atoms: CA_4  and  C_20
REMARK    4  A    between atoms: C_10  and  C_11
REMARK    5  A    between atoms: C_12  and  C_13
REMARK    6  A    between atoms: C_13  and  C_16
REMARK    7  A    between atoms: C_16  and  O_17
REMARK    8  A    between atoms: C_20  and  O_21
REMARK    9  A    between atoms: C_23  and  C_25
REMARK   10  A    between atoms: C_25  and  O_26
REMARK                            x       y       z     vdW  Elec       q    Type
REMARK                         _______ _______ _______ _____ _____    ______ ____
ROOT
ATOM      1  N   UNL     1       2.051   1.146   1.808  0.00  0.00    +0.392 N 
ATOM      2  C   UNL     1       1.797   0.317  -0.441  0.00  0.00    +0.004 C 
ATOM      3  C   UNL     1       0.988   1.609  -0.205  0.00  0.00    -0.004 C 
ATOM      4  CA  UNL     1       2.506   0.087   0.906  0.00  0.00    +0.040 C 
ATOM      5  C   UNL     1       0.757   1.594   1.300  0.00  0.00    -0.077 C 
ATOM      6  H1  UNL     1       2.717   1.919   1.808  0.00  0.00    -0.084 HD
ATOM      7  H2  UNL     1       1.975   0.807   2.767  0.00  0.00    -0.084 HD
ENDROOT
BRANCH   3   8
ATOM      8  C   UNL     1      -0.266   1.778  -0.998  0.00  0.00    -0.046 C 
ATOM      9  C   UNL     1      -0.068   2.497  -2.304  0.00  0.00    +0.026 C 
ATOM     10  C   UNL     1      -1.433   1.303  -0.522  0.00  0.00    -0.009 C 
BRANCH  10  11
ATOM     11  C   UNL     1      -2.735   1.377  -1.154  0.00  0.00    -0.005 C 
ATOM     12  C   UNL     1      -3.844   0.869  -0.593  0.00  0.00    -0.015 C 
BRANCH  12  13
ATOM     13  C   UNL     1      -3.947   0.157   0.736  0.00  0.00    +0.121 C 
ATOM     14  C   UNL     1      -5.287   0.268   1.461  0.00  0.00    +0.016 C 
BRANCH  13  16
ATOM     15  O   UNL     1      -3.936  -1.959  -0.487  0.00  0.00    -0.250 OA
ATOM     16  C   UNL     1      -3.635  -1.315   0.510  0.00  0.00    +0.317 C 
BRANCH  16  17
ATOM     17  O   UNL     1      -2.940  -1.854   1.548  0.00  0.00    -0.480 OA
ATOM     18  H   UNL     1      -2.729  -1.327   2.293  0.00  0.00    +0.295 HD
ENDBRANCH  16  17
ENDBRANCH  13  16
ENDBRANCH  12  13
ENDBRANCH  10  11
ENDBRANCH   3   8
BRANCH   4  20
ATOM     19  OXT UNL     1       4.593   1.297   0.857  0.00  0.00    -0.253 OA
ATOM     20  C   UNL     1       3.988   0.237   0.794  0.00  0.00    +0.293 C 
BRANCH  20  21
ATOM     21  O   UNL     1       4.579  -0.969   0.609  0.00  0.00    -0.482 OA
ATOM     22  H   UNL     1       4.056  -1.746   0.570  0.00  0.00    +0.295 HD
ENDBRANCH  20  21
ENDBRANCH   4  20
BRANCH   2  23
ATOM     23  C   UNL     1       0.955  -0.909  -0.808  0.00  0.00    +0.108 C 
BRANCH  23  25
ATOM     24  O   UNL     1       2.969  -2.160  -1.371  0.00  0.00    -0.250 OA
ATOM     25  C   UNL     1       1.810  -2.131  -0.988  0.00  0.00    +0.314 C 
BRANCH  25  26
ATOM     26  O   UNL     1       1.096  -3.238  -0.656  0.00  0.00    -0.480 OA
ATOM     27  H   UNL     1       0.208  -3.154  -0.369  0.00  0.00    +0.295 HD
ENDBRANCH  25  26
ENDBRANCH  23  25
ENDBRANCH   2  23
TORSDOF 10
