REMARK  Name = 101706275
REMARK  13 active torsions:
REMARK  status: ('A' for Active; 'I' for Inactive)
REMARK    1  A    between atoms: C_2  and  C_3
REMARK    2  A    between atoms: C_2  and  O_15
REMARK    3  A    between atoms: C_4  and  C_5
REMARK    4  A    between atoms: C_7  and  O_11
REMARK    5  A    between atoms: C_9  and  O_13
REMARK    6  A    between atoms: O_15  and  C_16
REMARK    7  A    between atoms: C_16  and  C_17
REMARK    8  A    between atoms: C_17  and  O_18
REMARK    9  A    between atoms: C_17  and  C_20
REMARK   10  A    between atoms: C_20  and  O_21
REMARK   11  A    between atoms: C_20  and  C_23
REMARK   12  A    between atoms: C_23  and  O_24
REMARK   13  A    between atoms: C_23  and  C_27
REMARK                            x       y       z     vdW  Elec       q    Type
REMARK                         _______ _______ _______ _____ _____    ______ ____
ROOT
ATOM      1  O   UNL     1       0.453  -2.804   0.375  0.00  0.00    -0.245 OA
ATOM      2  C   UNL     1       0.354  -1.607   0.153  0.00  0.00    +0.341 C 
ENDROOT
BRANCH   2   3
ATOM      3  C   UNL     1      -0.918  -0.860   0.025  0.00  0.00    +0.082 C 
ATOM      4  C   UNL     1      -2.082  -1.510   0.155  0.00  0.00    +0.007 C 
BRANCH   4   5
ATOM      5  C   UNL     1      -3.410  -0.881   0.039  0.00  0.00    +0.003 C 
ATOM      6  C   UNL     1      -3.543   0.498   0.194  0.00  0.00    +0.040 C 
ATOM      7  C   UNL     1      -4.800   1.095   0.085  0.00  0.00    +0.172 C 
ATOM      8  C   UNL     1      -4.533  -1.665  -0.227  0.00  0.00    +0.003 C 
ATOM      9  C   UNL     1      -5.923   0.311  -0.181  0.00  0.00    +0.168 C 
ATOM     10  C   UNL     1      -5.789  -1.069  -0.336  0.00  0.00    +0.040 C 
BRANCH   7  11
ATOM     11  O   UNL     1      -4.917   2.443   0.238  0.00  0.00    -0.468 OA
ATOM     12  C   UNL     1      -3.721   3.171   0.507  0.00  0.00    +0.253 C 
ENDBRANCH   7  11
BRANCH   9  13
ATOM     13  O   UNL     1      -7.155   0.881  -0.290  0.00  0.00    -0.503 OA
ATOM     14  H   UNL     1      -7.254   1.807  -0.187  0.00  0.00    +0.292 HD
ENDBRANCH   9  13
ENDBRANCH   4   5
ENDBRANCH   2   3
BRANCH   2  15
ATOM     15  O   UNL     1       1.378  -0.723  -0.018  0.00  0.00    -0.443 OA
BRANCH  15  16
ATOM     16  C   UNL     1       2.689  -1.272   0.073  0.00  0.00    +0.240 C 
BRANCH  16  17
ATOM     17  C   UNL     1       3.710  -0.153  -0.142  0.00  0.00    +0.184 C 
BRANCH  17  18
ATOM     18  O   UNL     1       3.499   0.412  -1.435  0.00  0.00    -0.378 OA
ATOM     19  H   UNL     1       4.141   1.123  -1.586  0.00  0.00    +0.211 HD
ENDBRANCH  17  18
BRANCH  17  20
ATOM     20  C   UNL     1       5.157  -0.659  -0.025  0.00  0.00    +0.175 C 
BRANCH  20  21
ATOM     21  O   UNL     1       5.322  -1.283   1.249  0.00  0.00    -0.379 OA
ATOM     22  H   UNL     1       4.646  -1.971   1.362  0.00  0.00    +0.211 HD
ENDBRANCH  20  21
BRANCH  20  23
ATOM     23  C   UNL     1       6.223   0.430  -0.208  0.00  0.00    +0.205 C 
BRANCH  23  24
ATOM     24  O   UNL     1       6.098   0.968  -1.517  0.00  0.00    -0.375 OA
ATOM     25  H   UNL     1       6.189   0.256  -2.169  0.00  0.00    +0.211 HD
ENDBRANCH  23  24
BRANCH  23  27
ATOM     26  O   UNL     1       5.830   2.721   0.491  0.00  0.00    -0.286 OA
ATOM     27  C   UNL     1       6.078   1.558   0.794  0.00  0.00    +0.239 C 
ENDBRANCH  23  27
ENDBRANCH  20  23
ENDBRANCH  17  20
ENDBRANCH  16  17
ENDBRANCH  15  16
ENDBRANCH   2  15
TORSDOF 13
