101759283
  -OEChem-03292013293D

 30 32  0     1  0  0  0  0  0999 V2000
    3.9996    2.4041   -1.2695 Cl  0  0  0  0  0  0  0  0  0  0  0  0
   -1.9687   -0.6478   -0.7520 O   0  0  0  0  0  0  0  0  0  0  0  0
   -0.7549    2.3303    0.7850 O   0  0  0  0  0  0  0  0  0  0  0  0
   -3.6399    1.5137    1.5709 O   0  0  0  0  0  0  0  0  0  0  0  0
   -4.5216   -1.6119   -1.4501 O   0  0  0  0  0  0  0  0  0  0  0  0
    1.6021   -0.2970   -0.0404 N   0  0  0  0  0  0  0  0  0  0  0  0
    0.2486   -1.8656    0.6754 N   0  0  0  0  0  0  0  0  0  0  0  0
    1.5455   -2.2811    0.9011 N   0  0  0  0  0  0  0  0  0  0  0  0
    2.0564    0.8629   -0.5806 N   0  0  0  0  0  0  0  0  0  0  0  0
   -1.3967    1.0671    0.7989 C   0  0  1  0  0  0  0  0  0  0  0  0
   -2.8611    1.1851    0.4365 C   0  0  1  0  0  0  0  0  0  0  0  0
   -0.8657    0.1756   -0.3196 C   0  0  1  0  0  0  0  0  0  0  0  0
   -3.1588   -0.2143   -0.0729 C   0  0  1  0  0  0  0  0  0  0  0  0
    0.3014   -0.6795    0.1125 C   0  0  0  0  0  0  0  0  0  0  0  0
   -4.3372   -0.2703   -1.0284 C   0  0  0  0  0  0  0  0  0  0  0  0
    2.3512   -1.3342    0.4689 C   0  0  0  0  0  0  0  0  0  0  0  0
    3.7545   -1.1996    0.4367 C   0  0  0  0  0  0  0  0  0  0  0  0
    3.3529    0.9501   -0.5930 C   0  0  0  0  0  0  0  0  0  0  0  0
    4.2924   -0.0877   -0.0795 C   0  0  0  0  0  0  0  0  0  0  0  0
   -1.2592    0.6268    1.7935 H   0  0  0  0  0  0  0  0  0  0  0  0
   -3.0228    1.9520   -0.3296 H   0  0  0  0  0  0  0  0  0  0  0  0
   -0.5691    0.7711   -1.1921 H   0  0  0  0  0  0  0  0  0  0  0  0
   -3.3296   -0.9167    0.7530 H   0  0  0  0  0  0  0  0  0  0  0  0
   -4.1462    0.3344   -1.9211 H   0  0  0  0  0  0  0  0  0  0  0  0
   -5.2546    0.0773   -0.5437 H   0  0  0  0  0  0  0  0  0  0  0  0
   -0.8855    2.7320   -0.0906 H   0  0  0  0  0  0  0  0  0  0  0  0
   -3.5056    0.8263    2.2453 H   0  0  0  0  0  0  0  0  0  0  0  0
   -5.2796   -1.6188   -2.0592 H   0  0  0  0  0  0  0  0  0  0  0  0
    4.3812   -1.9929    0.8275 H   0  0  0  0  0  0  0  0  0  0  0  0
    5.3609    0.0749   -0.1328 H   0  0  0  0  0  0  0  0  0  0  0  0
  1 18  1  0  0  0  0
  2 12  1  0  0  0  0
  2 13  1  0  0  0  0
  3 10  1  0  0  0  0
  3 26  1  0  0  0  0
  4 11  1  0  0  0  0
  4 27  1  0  0  0  0
  5 15  1  0  0  0  0
  5 28  1  0  0  0  0
  6  9  1  0  0  0  0
  6 14  1  0  0  0  0
  6 16  1  0  0  0  0
  7  8  1  0  0  0  0
  7 14  2  0  0  0  0
  8 16  2  0  0  0  0
  9 18  2  0  0  0  0
 10 11  1  0  0  0  0
 10 12  1  0  0  0  0
 10 20  1  0  0  0  0
 11 13  1  0  0  0  0
 11 21  1  0  0  0  0
 12 14  1  0  0  0  0
 12 22  1  0  0  0  0
 13 15  1  0  0  0  0
 13 23  1  0  0  0  0
 15 24  1  0  0  0  0
 15 25  1  0  0  0  0
 16 17  1  0  0  0  0
 17 19  2  0  0  0  0
 17 29  1  0  0  0  0
 18 19  1  0  0  0  0
 19 30  1  0  0  0  0
M  END
> <PUBCHEM_COMPOUND_CID>
101759283

> <PUBCHEM_CONFORMER_RMSD>
0.6

> <PUBCHEM_CONFORMER_DIVERSEORDER>
1
18
3
9
16
13
8
20
12
4
5
22
2
23
6
19
7
10
14
11
17
24
15
21

> <PUBCHEM_MMFF94_PARTIAL_CHARGES>
24
1 -0.21
10 0.28
11 0.28
12 0.46
13 0.28
14 0.01
15 0.28
16 0.14
17 -0.11
18 0.64
19 -0.14
2 -0.56
26 0.4
27 0.4
28 0.4
29 0.15
3 -0.68
30 0.15
4 -0.68
5 -0.68
6 0.51
7 -0.34
8 -0.34
9 -0.65

> <PUBCHEM_EFFECTIVE_ROTOR_COUNT>
3

> <PUBCHEM_PHARMACOPHORE_FEATURES>
13
1 2 acceptor
1 3 acceptor
1 3 donor
1 4 acceptor
1 4 donor
1 5 acceptor
1 5 donor
1 9 acceptor
3 6 7 14 cation
3 6 8 16 cation
5 2 10 11 12 13 rings
5 6 7 8 14 16 rings
6 6 9 16 17 18 19 rings

> <PUBCHEM_HEAVY_ATOM_COUNT>
19

> <PUBCHEM_ATOM_DEF_STEREO_COUNT>
4

> <PUBCHEM_ATOM_UDEF_STEREO_COUNT>
0

> <PUBCHEM_BOND_DEF_STEREO_COUNT>
0

> <PUBCHEM_BOND_UDEF_STEREO_COUNT>
0

> <PUBCHEM_ISOTOPIC_ATOM_COUNT>
0

> <PUBCHEM_COMPONENT_COUNT>
1

> <PUBCHEM_CACTVS_TAUTO_COUNT>
4

> <PUBCHEM_CONFORMER_ID>
0610B93300000001

> <PUBCHEM_MMFF94_ENERGY>
38.6686

> <PUBCHEM_FEATURE_SELFOVERLAP>
68.588

> <PUBCHEM_SHAPE_FINGERPRINT>
11471102 20 18114178619052468862
11578080 2 18053065546187969465
11615757 297 18335135367146473566
11725454 13 16082470341052833741
12236239 1 18341609304469294879
12403259 327 14201950315585542764
12403260 363 18260257530563654988
12553582 1 17916851543764812599
12616971 3 18410017598055907273
13009979 54 18055348033801012770
13583140 156 16226044526421337928
14251717 144 18260263045074757886
14787075 74 18118127093940897963
15342168 16 17896337950518706020
15375358 24 16298381353489376063
15375462 189 18341335513605840929
16752209 62 17703211946151723999
16945 1 18114184077892676530
17959699 21 18115016416843035573
18186145 218 18334863796749274526
18222031 100 17131254896760751199
19050596 39 18339083687579168697
192875 21 18261104154490688464
19422 9 18272369741669694471
200 152 18336256882144953495
20279233 1 16153710890651137291
204376 136 17968667132639506348
20645477 70 17604138234084738634
21524375 3 18408604794766240862
21709351 56 18261951839068668860
2255824 54 18261396598930112394
22854114 111 18261680289919777368
23402539 116 18201432558723177958
23557571 272 17203888565707744442
23559900 14 17487907700392336734
23598291 2 18341056215829532404
238078 22 18128252484042321767
312423 11 18342462512613016718
3286 77 18131058347152548296
474 4 18259988206065190508
495365 180 15430578598410970016
57096353 35 18413107285827754261
6034566 193 16810130542451481796
603831 33 18341603828792291343
633830 44 18337973215426929324
77492 1 18341894052184620183
9981440 41 17760924444142784608

> <PUBCHEM_SHAPE_MULTIPOLES>
349.48
8.85
2.26
1.15
1.82
0.33
0.05
1.08
2.44
-1.44
-0.21
0.95
0.22
-2.24

> <PUBCHEM_SHAPE_SELFOVERLAP>
744.141

> <PUBCHEM_SHAPE_VOLUME>
197.2

> <PUBCHEM_COORDINATE_TYPE>
2
5
10

$$$$
