REMARK  Name = 101759283
REMARK  5 active torsions:
REMARK  status: ('A' for Active; 'I' for Inactive)
REMARK    1  A    between atoms: C_2  and  O_16
REMARK    2  A    between atoms: C_3  and  O_18
REMARK    3  A    between atoms: C_4  and  C_11
REMARK    4  A    between atoms: C_5  and  C_20
REMARK    5  A    between atoms: C_20  and  O_21
REMARK                            x       y       z     vdW  Elec       q    Type
REMARK                         _______ _______ _______ _____ _____    ______ ____
ROOT
ATOM      1  O   UNL     1      -1.969  -0.648  -0.752  0.00  0.00    -0.343 OA
ATOM      2  C   UNL     1      -1.397   1.067   0.799  0.00  0.00    +0.174 C 
ATOM      3  C   UNL     1      -2.861   1.185   0.436  0.00  0.00    +0.170 C 
ATOM      4  C   UNL     1      -0.866   0.176  -0.320  0.00  0.00    +0.204 C 
ATOM      5  C   UNL     1      -3.159  -0.214  -0.073  0.00  0.00    +0.174 C 
ENDROOT
BRANCH   4  11
ATOM      6 CL   UNL     1       4.000   2.404  -1.270  0.00  0.00    -0.059 Cl
ATOM      7  N   UNL     1       1.602  -0.297  -0.040  0.00  0.00    -0.192 N 
ATOM      8  N   UNL     1       0.249  -1.866   0.675  0.00  0.00    -0.129 NA
ATOM      9  N   UNL     1       1.546  -2.281   0.901  0.00  0.00    -0.127 NA
ATOM     10  N   UNL     1       2.056   0.863  -0.581  0.00  0.00    -0.151 NA
ATOM     11  C   UNL     1       0.301  -0.679   0.113  0.00  0.00    +0.193 A 
ATOM     12  C   UNL     1       2.351  -1.334   0.469  0.00  0.00    +0.186 A 
ATOM     13  C   UNL     1       3.755  -1.200   0.437  0.00  0.00    +0.043 C 
ATOM     14  C   UNL     1       3.353   0.950  -0.593  0.00  0.00    +0.158 C 
ATOM     15  C   UNL     1       4.292  -0.088  -0.080  0.00  0.00    +0.036 C 
ENDBRANCH   4  11
BRANCH   2  16
ATOM     16  O   UNL     1      -0.755   2.330   0.785  0.00  0.00    -0.379 OA
ATOM     17  H   UNL     1      -1.107   2.880   1.503  0.00  0.00    +0.211 HD
ENDBRANCH   2  16
BRANCH   3  18
ATOM     18  O   UNL     1      -3.640   1.514   1.571  0.00  0.00    -0.379 OA
ATOM     19  H   UNL     1      -3.421   2.412   1.864  0.00  0.00    +0.211 HD
ENDBRANCH   3  18
BRANCH   5  20
ATOM     20  C   UNL     1      -4.337  -0.270  -1.028  0.00  0.00    +0.169 C 
BRANCH  20  21
ATOM     21  O   UNL     1      -4.522  -1.612  -1.450  0.00  0.00    -0.379 OA
ATOM     22  H   UNL     1      -5.273  -1.658  -2.062  0.00  0.00    +0.211 HD
ENDBRANCH  20  21
ENDBRANCH   5  20
TORSDOF 5
