101758709
  -OEChem-03292013293D

 39 42  0     0  0  0  0  0  0999 V2000
   -2.8308    0.9961   -0.3410 O   0  0  0  0  0  0  0  0  0  0  0  0
   -2.1493   -4.4387    0.2377 O   0  0  0  0  0  0  0  0  0  0  0  0
   -4.6452   -3.3719   -0.3569 O   0  0  0  0  0  0  0  0  0  0  0  0
    1.4266    4.6436    0.2333 O   0  0  0  0  0  0  0  0  0  0  0  0
   -1.1961    5.4028   -0.3625 O   0  0  0  0  0  0  0  0  0  0  0  0
    5.4709   -1.9031   -0.7604 O   0  0  0  0  0  0  0  0  0  0  0  0
    4.0078   -1.4130   -2.4294 O   0  0  0  0  0  0  0  0  0  0  0  0
   -0.1903    0.0700    0.2723 C   0  0  0  0  0  0  0  0  0  0  0  0
   -1.3404   -0.8570    0.1126 C   0  0  0  0  0  0  0  0  0  0  0  0
   -0.4263    1.4016    0.1162 C   0  0  0  0  0  0  0  0  0  0  0  0
   -2.6026   -0.3444   -0.1861 C   0  0  0  0  0  0  0  0  0  0  0  0
   -1.7782    1.8884   -0.1986 C   0  0  0  0  0  0  0  0  0  0  0  0
    1.1653   -0.3956    0.5863 C   0  0  0  0  0  0  0  0  0  0  0  0
   -1.2092   -2.2486    0.2518 C   0  0  0  0  0  0  0  0  0  0  0  0
    0.6376    2.4077    0.2515 C   0  0  0  0  0  0  0  0  0  0  0  0
   -3.7092   -1.1846   -0.3436 C   0  0  0  0  0  0  0  0  0  0  0  0
   -2.0291    3.1957   -0.3549 C   0  0  0  0  0  0  0  0  0  0  0  0
    2.0497   -0.7127   -0.4448 C   0  0  0  0  0  0  0  0  0  0  0  0
    1.5695   -0.5219    1.9154 C   0  0  0  0  0  0  0  0  0  0  0  0
   -2.3120   -3.0932    0.0952 C   0  0  0  0  0  0  0  0  0  0  0  0
   -3.5624   -2.5611   -0.2024 C   0  0  0  0  0  0  0  0  0  0  0  0
    0.4110    3.7218    0.0997 C   0  0  0  0  0  0  0  0  0  0  0  0
   -0.9559    4.2088   -0.2177 C   0  0  0  0  0  0  0  0  0  0  0  0
    3.3383   -1.1559   -0.1469 C   0  0  0  0  0  0  0  0  0  0  0  0
    2.8580   -0.9653    2.2134 C   0  0  0  0  0  0  0  0  0  0  0  0
    3.7426   -1.2820    1.1823 C   0  0  0  0  0  0  0  0  0  0  0  0
    4.2595   -1.4875   -1.2223 C   0  0  0  0  0  0  0  0  0  0  0  0
   -0.2435   -2.6916    0.4844 H   0  0  0  0  0  0  0  0  0  0  0  0
    1.6511    2.0971    0.4830 H   0  0  0  0  0  0  0  0  0  0  0  0
   -4.6814   -0.7564   -0.5761 H   0  0  0  0  0  0  0  0  0  0  0  0
   -3.0254    3.5572   -0.5869 H   0  0  0  0  0  0  0  0  0  0  0  0
    1.7296   -0.6136   -1.4801 H   0  0  0  0  0  0  0  0  0  0  0  0
    0.8918   -0.2795    2.7304 H   0  0  0  0  0  0  0  0  0  0  0  0
    3.1721   -1.0637    3.2484 H   0  0  0  0  0  0  0  0  0  0  0  0
    4.7360   -1.6234    1.4591 H   0  0  0  0  0  0  0  0  0  0  0  0
   -1.2173   -4.6266    0.4427 H   0  0  0  0  0  0  0  0  0  0  0  0
   -5.4241   -2.8259   -0.5596 H   0  0  0  0  0  0  0  0  0  0  0  0
    1.0410    5.5243    0.0842 H   0  0  0  0  0  0  0  0  0  0  0  0
    6.0846   -2.1240   -1.4932 H   0  0  0  0  0  0  0  0  0  0  0  0
  1 11  1  0  0  0  0
  1 12  1  0  0  0  0
  2 20  1  0  0  0  0
  2 36  1  0  0  0  0
  3 21  1  0  0  0  0
  3 37  1  0  0  0  0
  4 22  1  0  0  0  0
  4 38  1  0  0  0  0
  5 23  2  0  0  0  0
  6 27  1  0  0  0  0
  6 39  1  0  0  0  0
  7 27  2  0  0  0  0
  8  9  1  0  0  0  0
  8 10  2  0  0  0  0
  8 13  1  0  0  0  0
  9 11  1  0  0  0  0
  9 14  2  0  0  0  0
 10 12  1  0  0  0  0
 10 15  1  0  0  0  0
 11 16  2  0  0  0  0
 12 17  2  0  0  0  0
 13 18  2  0  0  0  0
 13 19  1  0  0  0  0
 14 20  1  0  0  0  0
 14 28  1  0  0  0  0
 15 22  2  0  0  0  0
 15 29  1  0  0  0  0
 16 21  1  0  0  0  0
 16 30  1  0  0  0  0
 17 23  1  0  0  0  0
 17 31  1  0  0  0  0
 18 24  1  0  0  0  0
 18 32  1  0  0  0  0
 19 25  2  0  0  0  0
 19 33  1  0  0  0  0
 20 21  2  0  0  0  0
 22 23  1  0  0  0  0
 24 26  2  0  0  0  0
 24 27  1  0  0  0  0
 25 26  1  0  0  0  0
 25 34  1  0  0  0  0
 26 35  1  0  0  0  0
M  END
> <PUBCHEM_COMPOUND_CID>
101758709

> <PUBCHEM_CONFORMER_RMSD>
0.6

> <PUBCHEM_CONFORMER_DIVERSEORDER>
1
4
6
5
3
2

> <PUBCHEM_MMFF94_PARTIAL_CHARGES>
38
1 -0.16
11 0.08
12 0.08
13 0.03
14 -0.15
15 -0.15
16 -0.15
17 -0.14
18 -0.15
19 -0.15
2 -0.53
20 0.08
21 0.08
22 0.09
23 0.54
24 0.09
25 -0.15
26 -0.15
27 0.63
28 0.15
29 0.15
3 -0.53
30 0.15
31 0.15
32 0.15
33 0.15
34 0.15
35 0.15
36 0.45
37 0.45
38 0.45
39 0.5
4 -0.53
5 -0.57
6 -0.65
7 -0.57
8 -0.06
9 0.03

> <PUBCHEM_EFFECTIVE_ROTOR_COUNT>
2

> <PUBCHEM_PHARMACOPHORE_FEATURES>
12
1 1 acceptor
1 2 donor
1 3 donor
1 4 donor
1 5 acceptor
1 6 acceptor
1 7 acceptor
3 6 7 27 anion
6 1 8 9 10 11 12 rings
6 10 12 15 17 22 23 rings
6 13 18 19 24 25 26 rings
6 9 11 14 16 20 21 rings

> <PUBCHEM_HEAVY_ATOM_COUNT>
27

> <PUBCHEM_ATOM_DEF_STEREO_COUNT>
0

> <PUBCHEM_ATOM_UDEF_STEREO_COUNT>
0

> <PUBCHEM_BOND_DEF_STEREO_COUNT>
0

> <PUBCHEM_BOND_UDEF_STEREO_COUNT>
0

> <PUBCHEM_ISOTOPIC_ATOM_COUNT>
0

> <PUBCHEM_COMPONENT_COUNT>
1

> <PUBCHEM_CACTVS_TAUTO_COUNT>
79

> <PUBCHEM_CONFORMER_ID>
0610B6F500000001

> <PUBCHEM_MMFF94_ENERGY>
90.6192

> <PUBCHEM_FEATURE_SELFOVERLAP>
61.015

> <PUBCHEM_SHAPE_FINGERPRINT>
10165383 225 17696204603270163368
10319926 262 17980165675605203562
10411042 1 18410290358586685371
107951 10 17766003800471579679
1100329 8 18409721851588927465
11049842 53 17473258774301424210
11488393 25 17688041124929386570
11578080 2 17098578475622903532
11640471 11 17389402419716870932
12160290 23 17985245401274687699
12173636 292 17833541306592650332
12553582 1 18408601474535436451
12788726 201 18188774937666939939
13009979 54 17824245021985469746
13140716 1 18337378401612688689
13761468 95 17174352179029933278
138480 1 15457051157779195937
13911987 19 17973999545107784069
14022347 108 18409441497071271155
14114211 68 17116087889042578028
14251757 5 18336835182026595782
14508225 48 18341043095015582271
14790565 3 18123196705892017481
14955137 171 18191611759930363619
15297060 5 17621043054169887624
15324884 4 17845634981352777178
15475509 8 18271815584231772479
15664445 248 18051136088196067236
15842332 3 17606395459001080402
15961568 22 18265887146363048992
16728300 4 17107293333824248440
16752209 62 18192141603579287883
17818456 19 17757816841677178866
1813 80 18341613766935488947
19591789 44 17691684489999337323
20101258 96 18337405905912891050
20505436 4 17391653081437842192
20567600 347 17109028465913891778
20600515 1 18268971189882795625
20775438 99 17909225335208773717
20905425 154 18338512066419696444
21033650 10 18118428167412653334
22849341 161 18266481939103549091
22907989 373 18335414608782473351
23366157 5 17827066613566243561
23557571 272 18271233951059571176
23559900 14 18268706289290803439
23598288 3 17971479502715344946
255183 451 18127417971406443175
3091708 16 10071432502574375601
350125 39 16754089040015352801
38695281 34 17044014360522234639
4280585 95 18338792424878723546
458136 41 17044581137408159145
6138700 20 17832140894379150080
6442390 28 17765435344518355721
6700243 42 17842874112166911958
7364860 26 17905602560079552579
81228 2 18342728586121606955
9981440 41 17544193783540425464

> <PUBCHEM_SHAPE_MULTIPOLES>
514.56
7.4
6.46
1.29
6.98
6.67
0.1
-7.5
-2.31
-6.81
-0.46
2.12
-0.55
0.54

> <PUBCHEM_SHAPE_SELFOVERLAP>
1163.42

> <PUBCHEM_SHAPE_VOLUME>
268.5

> <PUBCHEM_COORDINATE_TYPE>
2
5
10

$$$$
