REMARK  Name = 101724972
REMARK  3 active torsions:
REMARK  status: ('A' for Active; 'I' for Inactive)
REMARK    1  A    between atoms: C_4  and  O_24
REMARK    2  A    between atoms: C_16  and  O_26
REMARK    3  A    between atoms: C_20  and  O_28
REMARK                            x       y       z     vdW  Elec       q    Type
REMARK                         _______ _______ _______ _____ _____    ______ ____
ROOT
ATOM      1  O   UNL     1      -0.068   2.768  -0.108  0.00  0.00    -0.455 OA
ATOM      2  O   UNL     1       4.176   1.241   1.550  0.00  0.00    -0.291 OA
ATOM      3  O   UNL     1      -4.637   1.571  -0.342  0.00  0.00    -0.286 OA
ATOM      4  C   UNL     1       1.094   1.941  -0.317  0.00  0.00    +0.253 C 
ATOM      5  C   UNL     1       0.608   0.520  -0.291  0.00  0.00    +0.044 C 
ATOM      6  C   UNL     1      -0.716   0.508  -0.084  0.00  0.00    +0.036 C 
ATOM      7  C   UNL     1       2.102   2.154   0.814  0.00  0.00    +0.143 C 
ATOM      8  C   UNL     1       1.654  -0.496  -0.397  0.00  0.00    +0.007 C 
ATOM      9  C   UNL     1      -1.135   1.889  -0.097  0.00  0.00    +0.144 C 
ATOM     10  C   UNL     1       2.910  -0.230   0.180  0.00  0.00    +0.068 C 
ATOM     11  C   UNL     1       3.159   1.061   0.885  0.00  0.00    +0.182 C 
ATOM     12  C   UNL     1      -1.710  -0.553   0.147  0.00  0.00    +0.009 C 
ATOM     13  C   UNL     1      -3.073  -0.192   0.062  0.00  0.00    +0.073 C 
ATOM     14  C   UNL     1      -2.414   2.269  -0.135  0.00  0.00    +0.079 C 
ATOM     15  C   UNL     1       1.485  -1.673  -1.135  0.00  0.00    +0.000 C 
ATOM     16  C   UNL     1       3.947  -1.164   0.082  0.00  0.00    +0.136 C 
ATOM     17  C   UNL     1      -3.474   1.228  -0.159  0.00  0.00    +0.202 C 
ATOM     18  C   UNL     1      -1.397  -1.867   0.508  0.00  0.00    +0.000 C 
ATOM     19  C   UNL     1       2.523  -2.602  -1.235  0.00  0.00    +0.003 C 
ATOM     20  C   UNL     1      -4.081  -1.148   0.245  0.00  0.00    +0.137 C 
ATOM     21  C   UNL     1       3.748  -2.352  -0.620  0.00  0.00    +0.037 C 
ATOM     22  C   UNL     1      -2.405  -2.818   0.696  0.00  0.00    +0.003 C 
ATOM     23  C   UNL     1      -3.742  -2.463   0.551  0.00  0.00    +0.037 C 
ENDROOT
BRANCH   4  24
ATOM     24  O   UNL     1       1.677   2.224  -1.589  0.00  0.00    -0.351 OA
ATOM     25  H   UNL     1       1.017   2.081  -2.285  0.00  0.00    +0.214 HD
ENDBRANCH   4  24
BRANCH  16  26
ATOM     26  O   UNL     1       5.179  -0.962   0.628  0.00  0.00    -0.505 OA
ATOM     27  H   UNL     1       5.355  -0.176   1.108  0.00  0.00    +0.292 HD
ENDBRANCH  16  26
BRANCH  20  28
ATOM     28  O   UNL     1      -5.409  -0.850   0.159  0.00  0.00    -0.505 OA
ATOM     29  H   UNL     1      -5.681   0.023  -0.044  0.00  0.00    +0.292 HD
ENDBRANCH  20  28
TORSDOF 3
