101790920
  -OEChem-03292013293D

 43 43  0     1  0  0  0  0  0999 V2000
    4.5790   -0.9691    0.6091 O   0  0  0  0  0  0  0  0  0  0  0  0
    4.5932    1.2967    0.8571 O   0  0  0  0  0  0  0  0  0  0  0  0
    1.0961   -3.2379   -0.6565 O   0  0  0  0  0  0  0  0  0  0  0  0
    2.9694   -2.1605   -1.3713 O   0  0  0  0  0  0  0  0  0  0  0  0
   -2.9403   -1.8538    1.5476 O   0  0  0  0  0  0  0  0  0  0  0  0
   -3.9358   -1.9590   -0.4872 O   0  0  0  0  0  0  0  0  0  0  0  0
    2.0515    1.1463    1.8078 N   0  0  0  0  0  0  0  0  0  0  0  0
    1.7970    0.3172   -0.4411 C   0  0  1  0  0  0  0  0  0  0  0  0
    0.9875    1.6087   -0.2052 C   0  0  2  0  0  0  0  0  0  0  0  0
    2.5064    0.0867    0.9063 C   0  0  1  0  0  0  0  0  0  0  0  0
    0.7573    1.5944    1.3001 C   0  0  0  0  0  0  0  0  0  0  0  0
    0.9549   -0.9086   -0.8083 C   0  0  0  0  0  0  0  0  0  0  0  0
   -0.2655    1.7780   -0.9977 C   0  0  0  0  0  0  0  0  0  0  0  0
    3.9884    0.2367    0.7941 C   0  0  0  0  0  0  0  0  0  0  0  0
   -0.0680    2.4973   -2.3041 C   0  0  0  0  0  0  0  0  0  0  0  0
    1.8095   -2.1313   -0.9883 C   0  0  0  0  0  0  0  0  0  0  0  0
   -1.4333    1.3027   -0.5225 C   0  0  0  0  0  0  0  0  0  0  0  0
   -2.7346    1.3773   -1.1544 C   0  0  0  0  0  0  0  0  0  0  0  0
   -3.8439    0.8686   -0.5931 C   0  0  0  0  0  0  0  0  0  0  0  0
   -3.9472    0.1570    0.7361 C   0  0  1  0  0  0  0  0  0  0  0  0
   -5.2871    0.2681    1.4614 C   0  0  0  0  0  0  0  0  0  0  0  0
   -3.6347   -1.3155    0.5100 C   0  0  0  0  0  0  0  0  0  0  0  0
    2.5199    0.5004   -1.2479 H   0  0  0  0  0  0  0  0  0  0  0  0
    1.6488    2.4645   -0.4139 H   0  0  0  0  0  0  0  0  0  0  0  0
    2.2688   -0.8767    1.3711 H   0  0  0  0  0  0  0  0  0  0  0  0
    0.5003    2.5838    1.6929 H   0  0  0  0  0  0  0  0  0  0  0  0
    0.0195    0.8787    1.6699 H   0  0  0  0  0  0  0  0  0  0  0  0
    2.6938    1.9390    1.7634 H   0  0  0  0  0  0  0  0  0  0  0  0
    0.2179   -1.1086   -0.0212 H   0  0  0  0  0  0  0  0  0  0  0  0
    0.4219   -0.7551   -1.7528 H   0  0  0  0  0  0  0  0  0  0  0  0
    0.2805    3.5197   -2.1230 H   0  0  0  0  0  0  0  0  0  0  0  0
    0.6840    1.9787   -2.9086 H   0  0  0  0  0  0  0  0  0  0  0  0
   -0.9743    2.5642   -2.9092 H   0  0  0  0  0  0  0  0  0  0  0  0
   -1.4316    0.7522    0.4060 H   0  0  0  0  0  0  0  0  0  0  0  0
    5.5537   -0.8917    0.5308 H   0  0  0  0  0  0  0  0  0  0  0  0
   -2.8267    1.8605   -2.1206 H   0  0  0  0  0  0  0  0  0  0  0  0
    1.6240   -4.0581   -0.7612 H   0  0  0  0  0  0  0  0  0  0  0  0
   -4.7720    0.9635   -1.1549 H   0  0  0  0  0  0  0  0  0  0  0  0
   -3.1997    0.5642    1.4264 H   0  0  0  0  0  0  0  0  0  0  0  0
   -6.0990   -0.1591    0.8618 H   0  0  0  0  0  0  0  0  0  0  0  0
   -5.5323    1.3155    1.6659 H   0  0  0  0  0  0  0  0  0  0  0  0
   -5.2639   -0.2706    2.4150 H   0  0  0  0  0  0  0  0  0  0  0  0
   -2.7274   -2.7988    1.3931 H   0  0  0  0  0  0  0  0  0  0  0  0
  1 14  1  0  0  0  0
  1 35  1  0  0  0  0
  2 14  2  0  0  0  0
  3 16  1  0  0  0  0
  3 37  1  0  0  0  0
  4 16  2  0  0  0  0
  5 22  1  0  0  0  0
  5 43  1  0  0  0  0
  6 22  2  0  0  0  0
  7 10  1  0  0  0  0
  7 11  1  0  0  0  0
  7 28  1  0  0  0  0
  8  9  1  0  0  0  0
  8 10  1  0  0  0  0
  8 12  1  0  0  0  0
  8 23  1  0  0  0  0
  9 11  1  0  0  0  0
  9 13  1  0  0  0  0
  9 24  1  0  0  0  0
 10 14  1  0  0  0  0
 10 25  1  0  0  0  0
 11 26  1  0  0  0  0
 11 27  1  0  0  0  0
 12 16  1  0  0  0  0
 12 29  1  0  0  0  0
 12 30  1  0  0  0  0
 13 15  1  0  0  0  0
 13 17  2  0  0  0  0
 15 31  1  0  0  0  0
 15 32  1  0  0  0  0
 15 33  1  0  0  0  0
 17 18  1  0  0  0  0
 17 34  1  0  0  0  0
 18 19  2  0  0  0  0
 18 36  1  0  0  0  0
 19 20  1  0  0  0  0
 19 38  1  0  0  0  0
 20 21  1  0  0  0  0
 20 22  1  0  0  0  0
 20 39  1  0  0  0  0
 21 40  1  0  0  0  0
 21 41  1  0  0  0  0
 21 42  1  0  0  0  0
M  END
> <PUBCHEM_COMPOUND_CID>
101790920

> <PUBCHEM_CONFORMER_RMSD>
0.8

> <PUBCHEM_CONFORMER_DIVERSEORDER>
1
21
23
8
17
24
19
31
16
29
10
32
36
26
25
5
33
27
34
4
13
30
15
22
11
14
35
7
20
28
12
9
6
3
18
2

> <PUBCHEM_MMFF94_PARTIAL_CHARGES>
27
1 -0.65
10 0.33
11 0.27
12 0.06
13 -0.28
14 0.66
15 0.14
16 0.66
17 -0.15
18 -0.15
19 -0.29
2 -0.57
20 0.2
22 0.66
28 0.36
3 -0.65
34 0.15
35 0.5
36 0.15
37 0.5
38 0.15
4 -0.57
43 0.5
5 -0.65
6 -0.57
7 -0.9
9 0.14

> <PUBCHEM_EFFECTIVE_ROTOR_COUNT>
8

> <PUBCHEM_PHARMACOPHORE_FEATURES>
14
1 1 acceptor
1 15 hydrophobe
1 2 acceptor
1 21 hydrophobe
1 3 acceptor
1 4 acceptor
1 5 acceptor
1 6 acceptor
1 7 cation
1 7 donor
3 1 2 14 anion
3 3 4 16 anion
3 5 6 22 anion
5 7 8 9 10 11 rings

> <PUBCHEM_HEAVY_ATOM_COUNT>
22

> <PUBCHEM_ATOM_DEF_STEREO_COUNT>
4

> <PUBCHEM_ATOM_UDEF_STEREO_COUNT>
0

> <PUBCHEM_BOND_DEF_STEREO_COUNT>
2

> <PUBCHEM_BOND_UDEF_STEREO_COUNT>
0

> <PUBCHEM_ISOTOPIC_ATOM_COUNT>
0

> <PUBCHEM_COMPONENT_COUNT>
1

> <PUBCHEM_CACTVS_TAUTO_COUNT>
6

> <PUBCHEM_CONFORMER_ID>
061134C800000001

> <PUBCHEM_MMFF94_ENERGY>
44.9305

> <PUBCHEM_FEATURE_SELFOVERLAP>
71.223

> <PUBCHEM_SHAPE_FINGERPRINT>
10064457 181 17987795361854941690
10366900 7 18059562603619977289
11370993 144 18130793296172969057
12363563 72 17530964709228281033
12403259 327 17632590348770289969
12553582 1 18113911463528209461
12596602 18 15913031149499942827
12633257 1 18342179985965333441
12670546 177 11891344161891633113
13402501 40 18409449155045354395
13533116 47 18059858351352734863
13911882 115 18412549812195187222
14178342 30 18341338885445331115
14386348 63 18335980883378048397
17093844 170 18261957332284458163
1813 80 17894925009542029797
20600515 1 17749397000321151597
20603629 256 17560796576760600342
232386 152 17240199941436355841
23402539 116 16660636324343574600
23557571 272 17969775276888466356
23559900 14 18117280242448981750
3052486 1 17676488289662169199
568465 68 18272083924349198329
57100710 210 17241587456470305608

> <PUBCHEM_SHAPE_MULTIPOLES>
412.55
9.05
2.83
1.73
4.25
1.21
-0.02
2.4
3.84
-0.3
-1.36
-0.12
-0.45
1.61

> <PUBCHEM_SHAPE_SELFOVERLAP>
839.383

> <PUBCHEM_SHAPE_VOLUME>
239.4

> <PUBCHEM_COORDINATE_TYPE>
2
5
10

$$$$
