101733937
  -OEChem-03292013293D

 31 32  0     0  0  0  0  0  0999 V2000
   -4.7082    0.0000    0.3728 S   0  0  0  0  0  0  0  0  0  0  0  0
   -3.6472   -0.6539   -0.6927 O   0  0  0  0  0  0  0  0  0  0  0  0
   -6.1164   -0.0461   -0.4568 O   0  0  0  0  0  0  0  0  0  0  0  0
   -4.8282   -0.9037    1.5033 O   0  0  0  0  0  0  0  0  0  0  0  0
   -4.3522    1.3945    0.5667 O   0  0  0  0  0  0  0  0  0  0  0  0
    1.3041    3.1237   -0.2237 N   0  0  0  0  0  0  0  0  0  0  0  0
   -7.2416    0.3660    0.3657 N   0  0  0  0  0  0  0  0  0  0  0  0
    7.2618   -0.2217    0.4749 N   0  0  0  0  0  0  0  0  0  0  0  0
    0.4741   -0.4281   -0.2539 C   0  0  0  0  0  0  0  0  0  0  0  0
    1.9152   -0.3515   -0.1005 C   0  0  0  0  0  0  0  0  0  0  0  0
   -0.3477   -0.4438    0.8732 C   0  0  0  0  0  0  0  0  0  0  0  0
   -0.0893   -0.4878   -1.5285 C   0  0  0  0  0  0  0  0  0  0  0  0
    2.5812    0.8731   -0.0493 C   0  0  0  0  0  0  0  0  0  0  0  0
    2.6356   -1.5420   -0.0022 C   0  0  0  0  0  0  0  0  0  0  0  0
   -2.2958   -0.5792   -0.5491 C   0  0  0  0  0  0  0  0  0  0  0  0
   -1.7326   -0.5193    0.7257 C   0  0  0  0  0  0  0  0  0  0  0  0
   -1.4741   -0.5634   -1.6762 C   0  0  0  0  0  0  0  0  0  0  0  0
    3.9676    0.9071    0.1001 C   0  0  0  0  0  0  0  0  0  0  0  0
    4.0218   -1.5079    0.1472 C   0  0  0  0  0  0  0  0  0  0  0  0
    4.6880   -0.2834    0.1982 C   0  0  0  0  0  0  0  0  0  0  0  0
    1.8756    2.1166   -0.1457 C   0  0  0  0  0  0  0  0  0  0  0  0
    6.1082   -0.2492    0.3510 C   0  0  0  0  0  0  0  0  0  0  0  0
    0.0760   -0.4010    1.8739 H   0  0  0  0  0  0  0  0  0  0  0  0
    0.5368   -0.4765   -2.4176 H   0  0  0  0  0  0  0  0  0  0  0  0
    2.1339   -2.5063   -0.0398 H   0  0  0  0  0  0  0  0  0  0  0  0
   -2.3305   -0.5432    1.6298 H   0  0  0  0  0  0  0  0  0  0  0  0
   -1.9074   -0.6097   -2.6715 H   0  0  0  0  0  0  0  0  0  0  0  0
    4.4896    1.8620    0.1405 H   0  0  0  0  0  0  0  0  0  0  0  0
    4.5696   -2.4443    0.2225 H   0  0  0  0  0  0  0  0  0  0  0  0
   -7.6315    1.1097   -0.2111 H   0  0  0  0  0  0  0  0  0  0  0  0
   -7.8562   -0.4392    0.2574 H   0  0  0  0  0  0  0  0  0  0  0  0
  1  2  1  0  0  0  0
  1  3  1  0  0  0  0
  1  4  2  0  0  0  0
  1  5  2  0  0  0  0
  2 15  1  0  0  0  0
  3  7  1  0  0  0  0
  6 21  3  0  0  0  0
  7 30  1  0  0  0  0
  7 31  1  0  0  0  0
  8 22  3  0  0  0  0
  9 10  1  0  0  0  0
  9 11  2  0  0  0  0
  9 12  1  0  0  0  0
 10 13  2  0  0  0  0
 10 14  1  0  0  0  0
 11 16  1  0  0  0  0
 11 23  1  0  0  0  0
 12 17  2  0  0  0  0
 12 24  1  0  0  0  0
 13 18  1  0  0  0  0
 13 21  1  0  0  0  0
 14 19  2  0  0  0  0
 14 25  1  0  0  0  0
 15 16  2  0  0  0  0
 15 17  1  0  0  0  0
 16 26  1  0  0  0  0
 17 27  1  0  0  0  0
 18 20  2  0  0  0  0
 18 28  1  0  0  0  0
 19 20  1  0  0  0  0
 19 29  1  0  0  0  0
 20 22  1  0  0  0  0
M  END
> <PUBCHEM_COMPOUND_CID>
101733937

> <PUBCHEM_CONFORMER_RMSD>
0.6

> <PUBCHEM_CONFORMER_DIVERSEORDER>
2
30
33
24
13
40
34
8
27
37
54
56
57
32
3
39
36
35
31
7
29
19
46
58
45
4
38
12
42
50
5
10
1
26
44
55
17
16
43
25
52
15
41
6
14
28
59
23
49
9
18
48
47
21
11
53
51
22
20

> <PUBCHEM_MMFF94_PARTIAL_CHARGES>
29
1 1.67
11 -0.15
12 -0.15
13 0.07
14 -0.15
15 0.08
16 -0.15
17 -0.15
18 -0.15
19 -0.15
2 -0.27
20 0.07
21 0.48
22 0.48
23 0.15
24 0.15
25 0.15
26 0.15
27 0.15
28 0.15
29 0.15
3 -0.08
30 0.36
31 0.36
4 -0.65
5 -0.65
6 -0.56
7 -0.82
8 -0.56

> <PUBCHEM_EFFECTIVE_ROTOR_COUNT>
4

> <PUBCHEM_PHARMACOPHORE_FEATURES>
6
1 4 acceptor
1 5 acceptor
1 6 acceptor
1 8 acceptor
6 10 13 14 18 19 20 rings
6 9 11 12 15 16 17 rings

> <PUBCHEM_HEAVY_ATOM_COUNT>
22

> <PUBCHEM_ATOM_DEF_STEREO_COUNT>
0

> <PUBCHEM_ATOM_UDEF_STEREO_COUNT>
0

> <PUBCHEM_BOND_DEF_STEREO_COUNT>
0

> <PUBCHEM_BOND_UDEF_STEREO_COUNT>
0

> <PUBCHEM_ISOTOPIC_ATOM_COUNT>
0

> <PUBCHEM_COMPONENT_COUNT>
1

> <PUBCHEM_CACTVS_TAUTO_COUNT>
1

> <PUBCHEM_CONFORMER_ID>
0610563100000002

> <PUBCHEM_MMFF94_ENERGY>
50.3453

> <PUBCHEM_FEATURE_SELFOVERLAP>
30.465

> <PUBCHEM_SHAPE_FINGERPRINT>
10354089 29 18413389834699334326
10688039 33 18040996207060181908
10906281 52 18337126613544437920
11045977 3 18040438836711609961
11089746 13 17131825486991298256
11545043 162 17386015009154259145
11724838 91 18060698416511611007
12166972 35 18060418036303414953
12236239 1 17775281690599514470
12293681 4 18333740108355262649
12507557 5 18412829084022525705
13533116 47 15338843006622880022
13583140 156 18335708269256655003
13590594 115 18411699876727816200
14028597 1 17677320611923575536
14251764 18 18410854369280412724
14341114 176 18408328800099176177
15048467 5 17274818074069806178
15142383 8 18334289834236241532
15238133 3 18335150769168553940
15527383 91 18335137609446508260
15849732 13 17989768899675477260
17980427 23 16844999225854076780
18785283 64 17897449612846455980
19141452 34 17749392598207078915
21033648 29 17677032621534080965
21267235 1 18409732833877961878
21521721 280 17676772063295670328
21641784 216 17968391048395931588
21792961 116 17968927597200805046
23402539 116 18201714063469299519
23557571 272 14045752507920760362
23559900 14 18408601495983509563
23622692 88 18273496784085109534
26918003 58 18333734632271947011
33382 64 16370996361884988274
335352 9 18410574011585984518
3411729 13 15431180151651936724
351380 180 18410013239254997329
3545911 37 18273495671509367811
5104073 3 18268138941554453378
7495541 125 17022906782996626518
8272917 22 18343305838184787798

> <PUBCHEM_SHAPE_MULTIPOLES>
418.18
15.14
1.69
1.08
7.35
1.42
0.22
-0.63
-3.83
-1.18
0.07
0.85
-0.23
-0.24

> <PUBCHEM_SHAPE_SELFOVERLAP>
889.255

> <PUBCHEM_SHAPE_VOLUME>
231.6

> <PUBCHEM_COORDINATE_TYPE>
2
5
10

$$$$
