10172827
  -OEChem-03292013303D

 55 56  0     1  0  0  0  0  0999 V2000
   -0.3589   -1.9721    0.6522 O   0  0  0  0  0  0  0  0  0  0  0  0
   -3.6800    3.6729    0.6826 O   0  0  0  0  0  0  0  0  0  0  0  0
   -3.7390    2.6805   -1.9077 O   0  0  0  0  0  0  0  0  0  0  0  0
   -3.9659    0.7717    0.6268 O   0  0  0  0  0  0  0  0  0  0  0  0
    2.7788   -2.6024   -1.3549 O   0  0  0  0  0  0  0  0  0  0  0  0
    0.0241   -2.1714   -1.6182 O   0  0  0  0  0  0  0  0  0  0  0  0
    5.0388    1.2560    0.3575 N   0  0  0  0  0  0  0  0  0  0  0  0
   -2.8042   -2.0926    0.5305 C   0  0  1  0  0  0  0  0  0  0  0  0
   -1.4810   -2.8947    0.6537 C   0  0  2  0  0  0  0  0  0  0  0  0
   -2.4760    3.2127    0.0634 C   0  0  2  0  0  0  0  0  0  0  0  0
   -2.7943    2.1425   -0.9906 C   0  0  1  0  0  0  0  0  0  0  0  0
   -2.9852   -1.5951   -0.8885 C   0  0  0  0  0  0  0  0  0  0  0  0
   -4.0408   -2.9178    0.8968 C   0  0  0  0  0  0  0  0  0  0  0  0
   -1.4991    2.7716    1.1630 C   0  0  0  0  0  0  0  0  0  0  0  0
   -1.3587   -3.6617    1.9692 C   0  0  0  0  0  0  0  0  0  0  0  0
   -3.3733    0.8431   -0.4453 C   0  0  0  0  0  0  0  0  0  0  0  0
   -3.2115   -0.3485   -1.3235 C   0  0  0  0  0  0  0  0  0  0  0  0
    1.4775   -0.8989   -0.2341 C   0  0  0  0  0  0  0  0  0  0  0  0
    1.4262    0.3455    0.4246 C   0  0  0  0  0  0  0  0  0  0  0  0
   -0.2212    2.1843    0.6406 C   0  0  0  0  0  0  0  0  0  0  0  0
    0.2922   -1.7364   -0.5107 C   0  0  0  0  0  0  0  0  0  0  0  0
    0.1768    0.9351    0.9280 C   0  0  0  0  0  0  0  0  0  0  0  0
    2.6319    1.0434    0.6194 C   0  0  0  0  0  0  0  0  0  0  0  0
    2.6972   -1.4007   -0.7129 C   0  0  0  0  0  0  0  0  0  0  0  0
    3.8448    0.5331    0.1521 C   0  0  0  0  0  0  0  0  0  0  0  0
    3.8766   -0.6858   -0.5170 C   0  0  0  0  0  0  0  0  0  0  0  0
    6.3142    0.7930   -0.0939 C   0  0  0  0  0  0  0  0  0  0  0  0
    7.4097    1.7924    0.2370 C   0  0  0  0  0  0  0  0  0  0  0  0
   -2.7402   -1.2436    1.2195 H   0  0  0  0  0  0  0  0  0  0  0  0
   -1.3760   -3.6148   -0.1683 H   0  0  0  0  0  0  0  0  0  0  0  0
   -2.0550    4.0858   -0.4522 H   0  0  0  0  0  0  0  0  0  0  0  0
   -1.8791    1.9122   -1.5489 H   0  0  0  0  0  0  0  0  0  0  0  0
   -2.9000   -2.3619   -1.6589 H   0  0  0  0  0  0  0  0  0  0  0  0
   -4.9621   -2.3558    0.7042 H   0  0  0  0  0  0  0  0  0  0  0  0
   -4.0875   -3.8485    0.3200 H   0  0  0  0  0  0  0  0  0  0  0  0
   -4.0434   -3.1754    1.9607 H   0  0  0  0  0  0  0  0  0  0  0  0
   -2.0009    2.0778    1.8493 H   0  0  0  0  0  0  0  0  0  0  0  0
   -1.2536    3.6441    1.7825 H   0  0  0  0  0  0  0  0  0  0  0  0
   -1.4935   -2.9929    2.8265 H   0  0  0  0  0  0  0  0  0  0  0  0
   -2.0860   -4.4757    2.0358 H   0  0  0  0  0  0  0  0  0  0  0  0
   -0.3568   -4.0956    2.0646 H   0  0  0  0  0  0  0  0  0  0  0  0
   -3.2525   -0.1635   -2.3929 H   0  0  0  0  0  0  0  0  0  0  0  0
    0.3844    2.8228    0.0020 H   0  0  0  0  0  0  0  0  0  0  0  0
   -0.4373    0.3088    1.5667 H   0  0  0  0  0  0  0  0  0  0  0  0
    2.6285    1.9985    1.1434 H   0  0  0  0  0  0  0  0  0  0  0  0
    4.8012   -1.1133   -0.8941 H   0  0  0  0  0  0  0  0  0  0  0  0
   -4.2850    3.9481   -0.0272 H   0  0  0  0  0  0  0  0  0  0  0  0
   -3.7755    2.0911   -2.6799 H   0  0  0  0  0  0  0  0  0  0  0  0
    4.9706    2.1368    0.8553 H   0  0  0  0  0  0  0  0  0  0  0  0
    6.5660   -0.1627    0.3809 H   0  0  0  0  0  0  0  0  0  0  0  0
    6.3085    0.6457   -1.1804 H   0  0  0  0  0  0  0  0  0  0  0  0
    1.9161   -3.0447   -1.3812 H   0  0  0  0  0  0  0  0  0  0  0  0
    7.4761    1.9577    1.3176 H   0  0  0  0  0  0  0  0  0  0  0  0
    8.3798    1.4276   -0.1144 H   0  0  0  0  0  0  0  0  0  0  0  0
    7.2143    2.7598   -0.2378 H   0  0  0  0  0  0  0  0  0  0  0  0
  1  9  1  0  0  0  0
  1 21  1  0  0  0  0
  2 10  1  0  0  0  0
  2 47  1  0  0  0  0
  3 11  1  0  0  0  0
  3 48  1  0  0  0  0
  4 16  2  0  0  0  0
  5 24  1  0  0  0  0
  5 52  1  0  0  0  0
  6 21  2  0  0  0  0
  7 25  1  0  0  0  0
  7 27  1  0  0  0  0
  7 49  1  0  0  0  0
  8  9  1  0  0  0  0
  8 12  1  0  0  0  0
  8 13  1  0  0  0  0
  8 29  1  0  0  0  0
  9 15  1  0  0  0  0
  9 30  1  0  0  0  0
 10 11  1  0  0  0  0
 10 14  1  0  0  0  0
 10 31  1  0  0  0  0
 11 16  1  0  0  0  0
 11 32  1  0  0  0  0
 12 17  2  0  0  0  0
 12 33  1  0  0  0  0
 13 34  1  0  0  0  0
 13 35  1  0  0  0  0
 13 36  1  0  0  0  0
 14 20  1  0  0  0  0
 14 37  1  0  0  0  0
 14 38  1  0  0  0  0
 15 39  1  0  0  0  0
 15 40  1  0  0  0  0
 15 41  1  0  0  0  0
 16 17  1  0  0  0  0
 17 42  1  0  0  0  0
 18 19  2  0  0  0  0
 18 21  1  0  0  0  0
 18 24  1  0  0  0  0
 19 22  1  0  0  0  0
 19 23  1  0  0  0  0
 20 22  2  0  0  0  0
 20 43  1  0  0  0  0
 22 44  1  0  0  0  0
 23 25  2  0  0  0  0
 23 45  1  0  0  0  0
 24 26  2  0  0  0  0
 25 26  1  0  0  0  0
 26 46  1  0  0  0  0
 27 28  1  0  0  0  0
 27 50  1  0  0  0  0
 27 51  1  0  0  0  0
 28 53  1  0  0  0  0
 28 54  1  0  0  0  0
 28 55  1  0  0  0  0
M  END
> <PUBCHEM_COMPOUND_CID>
10172827

> <PUBCHEM_CONFORMER_RMSD>
0.8

> <PUBCHEM_CONFORMER_DIVERSEORDER>
1

> <PUBCHEM_MMFF94_PARTIAL_CHARGES>
35
1 -0.43
10 0.28
11 0.34
12 -0.29
14 0.14
16 0.49
17 -0.14
18 0.09
19 0.03
2 -0.68
20 -0.29
21 0.63
22 -0.18
23 -0.15
24 0.08
25 0.1
26 -0.15
27 0.37
3 -0.68
33 0.15
4 -0.57
42 0.15
43 0.15
44 0.15
45 0.15
46 0.15
47 0.4
48 0.4
49 0.4
5 -0.53
52 0.45
6 -0.57
7 -0.87
8 0.14
9 0.28

> <PUBCHEM_EFFECTIVE_ROTOR_COUNT>
3.2

> <PUBCHEM_PHARMACOPHORE_FEATURES>
10
1 2 acceptor
1 2 donor
1 3 acceptor
1 3 donor
1 4 acceptor
1 5 donor
1 6 acceptor
1 7 cation
1 7 donor
6 18 19 23 24 25 26 rings

> <PUBCHEM_HEAVY_ATOM_COUNT>
28

> <PUBCHEM_ATOM_DEF_STEREO_COUNT>
4

> <PUBCHEM_ATOM_UDEF_STEREO_COUNT>
0

> <PUBCHEM_BOND_DEF_STEREO_COUNT>
2

> <PUBCHEM_BOND_UDEF_STEREO_COUNT>
0

> <PUBCHEM_ISOTOPIC_ATOM_COUNT>
0

> <PUBCHEM_COMPONENT_COUNT>
1

> <PUBCHEM_CACTVS_TAUTO_COUNT>
1000

> <PUBCHEM_CONFORMER_ID>
009B399B00000001

> <PUBCHEM_MMFF94_ENERGY>
82.0402

> <PUBCHEM_FEATURE_SELFOVERLAP>
50.758

> <PUBCHEM_SHAPE_FINGERPRINT>
10006869 2 18263641767889481259
10291535 26 18336265733914288706
10675989 125 17400351257295684021
10688039 33 18189059870456261979
1100329 8 17832141619563874714
11135609 187 18193827160060524885
11488393 25 16844471353441557086
12156800 1 16831855612494947769
12293681 4 18189903199927348650
12788726 201 18335693996500192570
13140716 1 18049446147028910627
13402501 40 18341894146979985883
13540713 4 18200892703584653182
13941206 138 18187359883418882114
14363568 33 17255978186513493329
14713325 29 18410296955471374762
14765038 42 17987816124033215673
14790565 3 17552366471003624545
14931854 50 18269255912256046813
15463212 79 18114456747864735537
20600515 1 17898309418302498503
21236236 1 18342458166718023408
21279426 13 18341898451175721622
22182313 1 18059029345207704302
22956985 138 16529488020233385699
23557571 272 18336834203206711662
23558518 356 18336559235079054834
23559900 14 18272641373035524464
283562 15 18335135410745415259
3380486 145 18124049067547049419
3493558 16 16738339056097135596
350125 39 18198910395652091016
4409770 3 18339356469658343770
445580 37 18262808479746036508
469060 322 17604447253387682497
5171179 24 17558535061915813672
5283173 99 18410011027315028992
7226269 152 18334852878879384114
7288768 16 18262242118855008049
9709674 26 18272091543921757934
9981440 41 18412539903885399482

> <PUBCHEM_SHAPE_MULTIPOLES>
536.03
11.12
4.62
1.37
21.49
0.5
-0.14
4.8
-0.45
-5.94
1.02
-1.03
-0.41
1.8

> <PUBCHEM_SHAPE_SELFOVERLAP>
1112.662

> <PUBCHEM_SHAPE_VOLUME>
302.6

> <PUBCHEM_COORDINATE_TYPE>
2
5
10

$$$$
