REMARK  Name = 101724973
REMARK  4 active torsions:
REMARK  status: ('A' for Active; 'I' for Inactive)
REMARK    1  A    between atoms: C_3  and  O_23
REMARK    2  A    between atoms: C_6  and  O_25
REMARK    3  A    between atoms: C_13  and  O_27
REMARK    4  A    between atoms: C_20  and  O_29
REMARK                            x       y       z     vdW  Elec       q    Type
REMARK                         _______ _______ _______ _____ _____    ______ ____
ROOT
ATOM      1  O   UNL     1      -0.080   2.779   0.065  0.00  0.00    -0.455 OA
ATOM      2  O   UNL     1      -4.629   1.542   0.428  0.00  0.00    -0.286 OA
ATOM      3  C   UNL     1       1.084   1.965   0.294  0.00  0.00    +0.249 C 
ATOM      4  C   UNL     1       0.615   0.534   0.295  0.00  0.00    +0.043 C 
ATOM      5  C   UNL     1       2.084   2.117  -0.852  0.00  0.00    +0.108 C 
ATOM      6  C   UNL     1       3.289   1.177  -0.685  0.00  0.00    +0.142 C 
ATOM      7  C   UNL     1      -0.710   0.514   0.080  0.00  0.00    +0.036 C 
ATOM      8  C   UNL     1       1.666  -0.485   0.403  0.00  0.00    +0.003 C 
ATOM      9  C   UNL     1       2.952  -0.188  -0.105  0.00  0.00    +0.038 C 
ATOM     10  C   UNL     1      -1.139   1.892   0.083  0.00  0.00    +0.144 C 
ATOM     11  C   UNL     1      -1.700  -0.550  -0.158  0.00  0.00    +0.009 C 
ATOM     12  C   UNL     1       1.462  -1.694   1.081  0.00  0.00    -0.000 C 
ATOM     13  C   UNL     1       3.975  -1.144   0.018  0.00  0.00    +0.132 C 
ATOM     14  C   UNL     1      -3.064  -0.202  -0.045  0.00  0.00    +0.073 C 
ATOM     15  C   UNL     1      -2.420   2.263   0.144  0.00  0.00    +0.079 C 
ATOM     16  C   UNL     1      -3.470   1.213   0.202  0.00  0.00    +0.202 C 
ATOM     17  C   UNL     1      -1.385  -1.851  -0.563  0.00  0.00    +0.000 C 
ATOM     18  C   UNL     1       2.487  -2.634   1.188  0.00  0.00    +0.003 C 
ATOM     19  C   UNL     1       3.740  -2.364   0.647  0.00  0.00    +0.036 C 
ATOM     20  C   UNL     1      -4.068  -1.161  -0.230  0.00  0.00    +0.137 C 
ATOM     21  C   UNL     1      -2.388  -2.805  -0.755  0.00  0.00    +0.003 C 
ATOM     22  C   UNL     1      -3.725  -2.466  -0.573  0.00  0.00    +0.037 C 
ENDROOT
BRANCH   3  23
ATOM     23  O   UNL     1       1.674   2.285   1.552  0.00  0.00    -0.351 OA
ATOM     24  H   UNL     1       1.015   2.179   2.255  0.00  0.00    +0.214 HD
ENDBRANCH   3  23
BRANCH   6  25
ATOM     25  O   UNL     1       3.905   1.028  -1.963  0.00  0.00    -0.380 OA
ATOM     26  H   UNL     1       4.116   1.904  -2.324  0.00  0.00    +0.211 HD
ENDBRANCH   6  25
BRANCH  13  27
ATOM     27  O   UNL     1       5.238  -0.893  -0.437  0.00  0.00    -0.506 OA
ATOM     28  H   UNL     1       5.429  -0.081  -0.865  0.00  0.00    +0.292 HD
ENDBRANCH  13  27
BRANCH  20  29
ATOM     29  O   UNL     1      -5.396  -0.874  -0.115  0.00  0.00    -0.505 OA
ATOM     30  H   UNL     1      -5.670  -0.008   0.114  0.00  0.00    +0.292 HD
ENDBRANCH  20  29
TORSDOF 4
