REMARK  Name = 101794623
REMARK  7 active torsions:
REMARK  status: ('A' for Active; 'I' for Inactive)
REMARK    1  A    between atoms: O_1  and  C_7
REMARK    2  A    between atoms: O_1  and  C_15
REMARK    3  A    between atoms: C_3  and  O_9
REMARK    4  A    between atoms: C_4  and  O_11
REMARK    5  A    between atoms: C_5  and  O_13
REMARK    6  A    between atoms: C_18  and  C_21
REMARK    7  A    between atoms: C_21  and  C_24
REMARK                            x       y       z     vdW  Elec       q    Type
REMARK                         _______ _______ _______ _____ _____    ______ ____
ROOT
ATOM      1  O   UNL     1      -0.748   0.586  -0.469  0.00  0.00    -0.451 OA
ENDROOT
BRANCH   1   7
ATOM      2  O   UNL     1      -2.001  -0.740   1.049  0.00  0.00    -0.319 OA
ATOM      3  C   UNL     1      -3.748   0.670  -0.741  0.00  0.00    +0.173 C 
ATOM      4  C   UNL     1      -4.041  -0.765  -0.299  0.00  0.00    +0.167 C 
ATOM      5  C   UNL     1      -2.890   1.397   0.295  0.00  0.00    +0.210 C 
ATOM      6  C   UNL     1      -2.734  -1.480   0.069  0.00  0.00    +0.148 C 
ATOM      7  C   UNL     1      -1.643   0.584   0.638  0.00  0.00    +0.318 C 
ATOM      8  C   UNL     1      -2.986  -2.867   0.655  0.00  0.00    +0.035 C 
BRANCH   3   9
ATOM      9  O   UNL     1      -4.980   1.365  -0.925  0.00  0.00    -0.379 OA
ATOM     10  H   UNL     1      -5.519   0.898  -1.583  0.00  0.00    +0.211 HD
ENDBRANCH   3   9
BRANCH   4  11
ATOM     11  O   UNL     1      -4.686  -1.438  -1.378  0.00  0.00    -0.379 OA
ATOM     12  H   UNL     1      -5.510  -0.977  -1.601  0.00  0.00    +0.211 HD
ENDBRANCH   4  11
BRANCH   5  13
ATOM     13  O   UNL     1      -3.634   1.582   1.501  0.00  0.00    -0.377 OA
ATOM     14  H   UNL     1      -4.434   2.097   1.312  0.00  0.00    +0.211 HD
ENDBRANCH   5  13
ENDBRANCH   1   7
BRANCH   1  15
ATOM     15  C   UNL     1       0.588   0.511  -0.180  0.00  0.00    +0.141 C 
ATOM     16  C   UNL     1       1.447   1.535  -0.582  0.00  0.00    +0.037 C 
ATOM     17  C   UNL     1       1.091  -0.589   0.514  0.00  0.00    +0.037 C 
ATOM     18  C   UNL     1       3.312   0.358   0.406  0.00  0.00    -0.013 C 
ATOM     19  C   UNL     1       2.808   1.458  -0.289  0.00  0.00    -0.001 C 
ATOM     20  C   UNL     1       2.453  -0.666   0.807  0.00  0.00    -0.001 C 
BRANCH  18  21
ATOM     21  C   UNL     1       4.767   0.275   0.719  0.00  0.00    +0.111 C 
BRANCH  21  24
ATOM     22  O   UNL     1       5.119  -0.821  -1.417  0.00  0.00    -0.275 OA
ATOM     23  N   UNL     1       6.919  -0.539  -0.015  0.00  0.00    -0.329 N 
ATOM     24  C   UNL     1       5.588  -0.417  -0.357  0.00  0.00    +0.224 C 
ATOM     25  H   UNL     1       7.548  -0.972  -0.636  0.00  0.00    +0.145 HD
ATOM     26  H   UNL     1       7.239  -0.194   0.849  0.00  0.00    +0.145 HD
ENDBRANCH  21  24
ENDBRANCH  18  21
ENDBRANCH   1  15
TORSDOF 7
