REMARK  Name = 101792077
REMARK  9 active torsions:
REMARK  status: ('A' for Active; 'I' for Inactive)
REMARK    1  A    between atoms: N_1  and  C1*_11
REMARK    2  A    between atoms: C_5  and  C_23
REMARK    3  A    between atoms: C3*_13  and  O3*_15
REMARK    4  A    between atoms: C4*_14  and  C5*_17
REMARK    5  A    between atoms: C5*_17  and  O5*_18
REMARK    6  A    between atoms: N_20  and  C_25
REMARK    7  A    between atoms: C_25  and  C_26
REMARK    8  A    between atoms: C_26  and  C_27
REMARK    9  A    between atoms: C_27  and  C_28
REMARK                            x       y       z     vdW  Elec       q    Type
REMARK                         _______ _______ _______ _____ _____    ______ ____
ROOT
ATOM      1  N   UNL     1       1.169   0.162   0.195  0.00  0.00    -0.222 N 
ATOM      2  N   UNL     1       0.009   2.064   0.270  0.00  0.00    -0.380 NA
ATOM      3  N   UNL     1       3.401   1.050  -0.168  0.00  0.00    -0.227 NA
ATOM      4  N   UNL     1       3.378   3.487  -0.281  0.00  0.00    -0.227 NA
ATOM      5  C   UNL     1      -0.059   0.751   0.342  0.00  0.00    +0.207 C 
ATOM      6  C   UNL     1       2.077   1.167   0.016  0.00  0.00    +0.169 C 
ATOM      7  C   UNL     1       1.338   2.337   0.066  0.00  0.00    +0.195 C 
ATOM      8  C   UNL     1       2.037   3.530  -0.091  0.00  0.00    +0.155 C 
ATOM      9  C   UNL     1       3.968   2.268  -0.307  0.00  0.00    +0.253 C 
ATOM     10  N   UNL     1       1.367   4.765  -0.054  0.00  0.00    -0.341 N 
ATOM     11  H   UNL     1       1.872   5.603  -0.167  0.00  0.00    +0.144 HD
ATOM     12  H   UNL     1       0.392   4.792   0.084  0.00  0.00    +0.144 HD
ENDROOT
BRANCH   1  14
ATOM     13  O4* UNL     1       2.778  -1.588   0.763  0.00  0.00    -0.335 OA
ATOM     14  C1* UNL     1       1.472  -1.315   0.222  0.00  0.00    +0.201 C 
ATOM     15  C2* UNL     1       1.437  -1.958  -1.160  0.00  0.00    +0.083 C 
ATOM     16  C3* UNL     1       2.344  -3.152  -0.974  0.00  0.00    +0.144 C 
ATOM     17  C4* UNL     1       3.403  -2.631  -0.011  0.00  0.00    +0.173 C 
BRANCH  16  18
ATOM     18  O3* UNL     1       1.597  -4.193  -0.348  0.00  0.00    -0.382 OA
ATOM     19  H3* UNL     1       0.924  -4.523  -0.963  0.00  0.00    +0.210 HD
ENDBRANCH  16  18
BRANCH  17  20
ATOM     20  C5* UNL     1       4.604  -2.029  -0.727  0.00  0.00    +0.169 C 
BRANCH  20  21
ATOM     21  O5* UNL     1       5.525  -1.565   0.244  0.00  0.00    -0.379 OA
ATOM     22  H5* UNL     1       6.296  -1.178  -0.200  0.00  0.00    +0.211 HD
ENDBRANCH  20  21
ENDBRANCH  17  20
ENDBRANCH   1  14
BRANCH   5  26
ATOM     23  N   UNL     1      -3.301  -0.546   1.173  0.00  0.00    -0.163 NA
ATOM     24  N   UNL     1      -1.580  -1.243   0.087  0.00  0.00    -0.146 NA
ATOM     25  N   UNL     1      -2.806  -1.579   0.473  0.00  0.00    -0.063 NA
ATOM     26  C   UNL     1      -1.322   0.014   0.558  0.00  0.00    +0.141 C 
ATOM     27  C   UNL     1      -2.409   0.478   1.255  0.00  0.00    +0.147 C 
BRANCH  23  28
ATOM     28  C   UNL     1      -4.628  -0.605   1.732  0.00  0.00    +0.096 C 
BRANCH  28  29
ATOM     29  C   UNL     1      -5.724  -0.888   0.699  0.00  0.00    +0.019 C 
BRANCH  29  30
ATOM     30  C   UNL     1      -5.862   0.222  -0.348  0.00  0.00    +0.001 C 
BRANCH  30  31
ATOM     31  C   UNL     1      -7.022  -0.060  -1.304  0.00  0.00    +0.000 C 
ATOM     32  C   UNL     1      -7.189   1.058  -2.320  0.00  0.00    +0.000 C 
ENDBRANCH  30  31
ENDBRANCH  29  30
ENDBRANCH  28  29
ENDBRANCH  23  28
ENDBRANCH   5  26
TORSDOF 9
