101744249
  -OEChem-03292013293D

 53 55  0     1  0  0  0  0  0999 V2000
   -5.4893   -0.3366   -2.1558 S   0  0  0  0  0  0  0  0  0  0  0  0
   -0.6503    1.3721   -0.8518 O   0  0  0  0  0  0  0  0  0  0  0  0
   -0.5632   -0.9335    1.9049 O   0  0  0  0  0  0  0  0  0  0  0  0
   -1.3849    4.0716   -0.7571 O   0  0  0  0  0  0  0  0  0  0  0  0
   -4.8753    0.6951    1.3612 O   0  0  0  0  0  0  0  0  0  0  0  0
    1.4854    0.4430   -0.1326 N   0  0  0  0  0  0  0  0  0  0  0  0
   -2.9066   -0.2615    0.5938 N   0  0  0  0  0  0  0  0  0  0  0  0
    3.4837    1.4307   -0.1529 N   0  0  0  0  0  0  0  0  0  0  0  0
    2.1721   -1.8867   -0.0933 N   0  0  0  0  0  0  0  0  0  0  0  0
   -5.5334   -2.1227    1.5097 N   0  0  0  0  0  0  0  0  0  0  0  0
    6.0553   -0.1916   -0.1277 N   0  0  0  0  0  0  0  0  0  0  0  0
    4.6038   -2.0937   -0.0934 N   0  0  0  0  0  0  0  0  0  0  0  0
   -2.0319    0.8134    1.0082 C   0  0  1  0  0  0  0  0  0  0  0  0
   -0.6169    0.3301    1.2731 C   0  0  2  0  0  0  0  0  0  0  0  0
   -1.8219    1.8081   -0.1305 C   0  0  1  0  0  0  0  0  0  0  0  0
   -0.0180    0.2978   -0.1279 C   0  0  1  0  0  0  0  0  0  0  0  0
   -1.5783    3.2284    0.3645 C   0  0  0  0  0  0  0  0  0  0  0  0
    2.4058   -0.5660   -0.1166 C   0  0  0  0  0  0  0  0  0  0  0  0
   -4.2751   -0.2259    0.8103 C   0  0  0  0  0  0  0  0  0  0  0  0
    2.1811    1.6226   -0.1543 C   0  0  0  0  0  0  0  0  0  0  0  0
    3.6384    0.0673   -0.1294 C   0  0  0  0  0  0  0  0  0  0  0  0
   -4.9747   -1.4884    0.3134 C   0  0  2  0  0  0  0  0  0  0  0  0
    4.7650   -0.7488   -0.1169 C   0  0  0  0  0  0  0  0  0  0  0  0
   -6.1091   -1.1875   -0.6694 C   0  0  0  0  0  0  0  0  0  0  0  0
    3.3362   -2.5721   -0.0833 C   0  0  0  0  0  0  0  0  0  0  0  0
    7.2292   -1.0459   -0.1068 C   0  0  0  0  0  0  0  0  0  0  0  0
    6.2379    1.2484   -0.1521 C   0  0  0  0  0  0  0  0  0  0  0  0
   -4.7650   -1.7676   -2.9874 C   0  0  0  0  0  0  0  0  0  0  0  0
   -2.4726    1.2776    1.8972 H   0  0  0  0  0  0  0  0  0  0  0  0
   -0.0842    1.0535    1.9026 H   0  0  0  0  0  0  0  0  0  0  0  0
   -2.6544    1.8142   -0.8439 H   0  0  0  0  0  0  0  0  0  0  0  0
   -0.2195   -0.6417   -0.6565 H   0  0  0  0  0  0  0  0  0  0  0  0
   -0.6778    3.2881    0.9838 H   0  0  0  0  0  0  0  0  0  0  0  0
   -2.4360    3.5955    0.9366 H   0  0  0  0  0  0  0  0  0  0  0  0
   -2.4994   -1.0438    0.0901 H   0  0  0  0  0  0  0  0  0  0  0  0
   -1.0669   -0.8657    2.7339 H   0  0  0  0  0  0  0  0  0  0  0  0
    1.6915    2.5867   -0.1670 H   0  0  0  0  0  0  0  0  0  0  0  0
   -4.2585   -2.1864   -0.1324 H   0  0  0  0  0  0  0  0  0  0  0  0
   -1.2338    4.9702   -0.4178 H   0  0  0  0  0  0  0  0  0  0  0  0
   -6.8459   -0.5185   -0.2094 H   0  0  0  0  0  0  0  0  0  0  0  0
   -6.6413   -2.0989   -0.9639 H   0  0  0  0  0  0  0  0  0  0  0  0
   -4.7761   -2.4160    2.1263 H   0  0  0  0  0  0  0  0  0  0  0  0
   -6.0283   -2.9740    1.2459 H   0  0  0  0  0  0  0  0  0  0  0  0
    3.2448   -3.6528   -0.0644 H   0  0  0  0  0  0  0  0  0  0  0  0
    7.3011    1.5152   -0.1589 H   0  0  0  0  0  0  0  0  0  0  0  0
    5.8145    1.7200    0.7412 H   0  0  0  0  0  0  0  0  0  0  0  0
    5.8111    1.6899   -1.0591 H   0  0  0  0  0  0  0  0  0  0  0  0
    8.1607   -0.4706   -0.1239 H   0  0  0  0  0  0  0  0  0  0  0  0
    7.2389   -1.7076   -0.9798 H   0  0  0  0  0  0  0  0  0  0  0  0
    7.2414   -1.6602    0.8001 H   0  0  0  0  0  0  0  0  0  0  0  0
   -3.9097   -2.1534   -2.4278 H   0  0  0  0  0  0  0  0  0  0  0  0
   -5.5096   -2.5570   -3.1185 H   0  0  0  0  0  0  0  0  0  0  0  0
   -4.4125   -1.4620   -3.9764 H   0  0  0  0  0  0  0  0  0  0  0  0
  1 24  1  0  0  0  0
  1 28  1  0  0  0  0
  2 15  1  0  0  0  0
  2 16  1  0  0  0  0
  3 14  1  0  0  0  0
  3 36  1  0  0  0  0
  4 17  1  0  0  0  0
  4 39  1  0  0  0  0
  5 19  2  0  0  0  0
  6 16  1  0  0  0  0
  6 18  1  0  0  0  0
  6 20  1  0  0  0  0
  7 13  1  0  0  0  0
  7 19  1  0  0  0  0
  7 35  1  0  0  0  0
  8 20  2  0  0  0  0
  8 21  1  0  0  0  0
  9 18  1  0  0  0  0
  9 25  2  0  0  0  0
 10 22  1  0  0  0  0
 10 42  1  0  0  0  0
 10 43  1  0  0  0  0
 11 23  1  0  0  0  0
 11 26  1  0  0  0  0
 11 27  1  0  0  0  0
 12 23  2  0  0  0  0
 12 25  1  0  0  0  0
 13 14  1  0  0  0  0
 13 15  1  0  0  0  0
 13 29  1  0  0  0  0
 14 16  1  0  0  0  0
 14 30  1  0  0  0  0
 15 17  1  0  0  0  0
 15 31  1  0  0  0  0
 16 32  1  0  0  0  0
 17 33  1  0  0  0  0
 17 34  1  0  0  0  0
 18 21  2  0  0  0  0
 19 22  1  0  0  0  0
 20 37  1  0  0  0  0
 21 23  1  0  0  0  0
 22 24  1  0  0  0  0
 22 38  1  0  0  0  0
 24 40  1  0  0  0  0
 24 41  1  0  0  0  0
 25 44  1  0  0  0  0
 26 48  1  0  0  0  0
 26 49  1  0  0  0  0
 26 50  1  0  0  0  0
 27 45  1  0  0  0  0
 27 46  1  0  0  0  0
 27 47  1  0  0  0  0
 28 51  1  0  0  0  0
 28 52  1  0  0  0  0
 28 53  1  0  0  0  0
M  END
> <PUBCHEM_COMPOUND_CID>
101744249

> <PUBCHEM_CONFORMER_RMSD>
1

> <PUBCHEM_CONFORMER_DIVERSEORDER>
1
6
39
32
30
11
29
18
14
15
43
35
23
44
40
4
20
24
31
5
22
34
26
37
28
33
19
16
9
36
3
13
41
38
21
25
2
12
10
42
7
8
27
17

> <PUBCHEM_MMFF94_PARTIAL_CHARGES>
35
1 -0.46
10 -0.99
11 -0.84
12 -0.62
13 0.3
14 0.28
15 0.28
16 0.54
17 0.28
18 0.11
19 0.57
2 -0.56
20 0.04
21 0.23
22 0.33
23 0.41
24 0.23
25 0.47
26 0.37
27 0.37
28 0.23
3 -0.68
35 0.37
36 0.4
37 0.15
39 0.4
4 -0.68
42 0.36
43 0.36
44 0.15
5 -0.57
6 0.05
7 -0.73
8 -0.57
9 -0.57

> <PUBCHEM_EFFECTIVE_ROTOR_COUNT>
9

> <PUBCHEM_PHARMACOPHORE_FEATURES>
16
1 10 cation
1 10 donor
1 2 acceptor
1 28 hydrophobe
1 3 acceptor
1 3 donor
1 4 acceptor
1 4 donor
1 5 acceptor
1 7 donor
3 11 12 23 cation
3 6 8 20 cation
3 9 12 25 cation
5 2 13 14 15 16 rings
5 6 8 18 20 21 rings
6 9 12 18 21 23 25 rings

> <PUBCHEM_HEAVY_ATOM_COUNT>
28

> <PUBCHEM_ATOM_DEF_STEREO_COUNT>
5

> <PUBCHEM_ATOM_UDEF_STEREO_COUNT>
0

> <PUBCHEM_BOND_DEF_STEREO_COUNT>
0

> <PUBCHEM_BOND_UDEF_STEREO_COUNT>
0

> <PUBCHEM_ISOTOPIC_ATOM_COUNT>
0

> <PUBCHEM_COMPONENT_COUNT>
1

> <PUBCHEM_CACTVS_TAUTO_COUNT>
2

> <PUBCHEM_CONFORMER_ID>
06107E7900000001

> <PUBCHEM_MMFF94_ENERGY>
68.6485

> <PUBCHEM_FEATURE_SELFOVERLAP>
81.45

> <PUBCHEM_SHAPE_FINGERPRINT>
10366900 7 18262250979599477688
10447042 23 18408599258316292446
12236239 1 17847066571272403960
12596602 18 17203611484540710698
12633257 1 16200157629643140779
12788726 201 18261668199270237659
13782708 43 18131352990683650174
13914758 101 14923933527826513080
14508225 48 18260265257025828269
14840074 17 18131632305112612895
15183329 4 11458419141950832882
17492 89 18267588996709600538
17857418 61 18413671296611905491
200 152 18342178860140452761
20028762 73 18273496775865323662
21267235 1 18339934736314384222
22393880 68 17603576470275234827
23402539 116 18409452479481715537
23522609 53 18056792946630661440
23559900 14 18261675998889149080
23569914 152 17105340223221529031
3009799 131 17530681017842405421
314194 84 18271246140039710699
350125 39 18412269432688494128
4015057 19 18261960768443353505
4325135 7 18131633382780066998
46194498 28 17242452948658013311
5104073 3 18194962946991639032
5283173 99 17822563933209931757
5969126 39 18411694374948166869
6431902 208 18410013243286337463

> <PUBCHEM_SHAPE_MULTIPOLES>
521.73
16.55
2.94
1.57
7.21
1.99
-0.6
-9.17
-3.09
-0.74
-0.55
-3.72
-0.68
-0.79

> <PUBCHEM_SHAPE_SELFOVERLAP>
1080.897

> <PUBCHEM_SHAPE_VOLUME>
302.3

> <PUBCHEM_COORDINATE_TYPE>
2
5
10

$$$$
