REMARK  Name = 101883986
REMARK  4 active torsions:
REMARK  status: ('A' for Active; 'I' for Inactive)
REMARK    1  A    between atoms: C_6  and  O_18
REMARK    2  A    between atoms: C_7  and  O_20
REMARK    3  A    between atoms: C_13  and  O_22
REMARK    4  A    between atoms: C_15  and  O_24
REMARK                            x       y       z     vdW  Elec       q    Type
REMARK                         _______ _______ _______ _____ _____    ______ ____
ROOT
ATOM      1  O   UNL     1      -1.576   0.025  -1.493  0.00  0.00    -0.309 OA
ATOM      2  O   UNL     1      -2.653  -1.610  -0.045  0.00  0.00    -0.457 OA
ATOM      3  O   UNL     1      -3.070   2.475   0.031  0.00  0.00    -0.288 OA
ATOM      4  C   UNL     1      -1.539   0.683  -0.213  0.00  0.00    +0.239 C 
ATOM      5  C   UNL     1      -1.483  -0.817  -0.331  0.00  0.00    +0.290 C 
ATOM      6  C   UNL     1      -0.275   1.470   0.013  0.00  0.00    +0.173 C 
ATOM      7  C   UNL     1      -0.209  -1.588  -0.233  0.00  0.00    +0.200 C 
ATOM      8  C   UNL     1      -2.841   1.280   0.164  0.00  0.00    +0.209 C 
ATOM      9  C   UNL     1       0.997   0.656   0.058  0.00  0.00    +0.040 C 
ATOM     10  C   UNL     1       1.029  -0.743  -0.058  0.00  0.00    +0.015 C 
ATOM     11  C   UNL     1      -3.832   0.352   0.738  0.00  0.00    +0.073 C 
ATOM     12  C   UNL     1      -3.685  -0.976   0.619  0.00  0.00    +0.122 C 
ATOM     13  C   UNL     1       2.209   1.350   0.257  0.00  0.00    +0.135 C 
ATOM     14  C   UNL     1       2.270  -1.407   0.027  0.00  0.00    +0.035 C 
ATOM     15  C   UNL     1       3.458  -0.705   0.214  0.00  0.00    +0.142 C 
ATOM     16  C   UNL     1       3.428   0.678   0.330  0.00  0.00    +0.073 C 
ATOM     17  C   UNL     1      -4.704  -1.929   1.162  0.00  0.00    +0.072 C 
ENDROOT
BRANCH   6  18
ATOM     18  O   UNL     1      -0.151   2.452  -1.018  0.00  0.00    -0.377 OA
ATOM     19  H   UNL     1      -0.962   2.983  -1.058  0.00  0.00    +0.211 HD
ENDBRANCH   6  18
BRANCH   7  20
ATOM     20  O   UNL     1      -0.064  -2.394  -1.402  0.00  0.00    -0.375 OA
ATOM     21  H   UNL     1      -0.857  -2.940  -1.519  0.00  0.00    +0.211 HD
ENDBRANCH   7  20
BRANCH  13  22
ATOM     22  O   UNL     1       2.228   2.708   0.408  0.00  0.00    -0.506 OA
ATOM     23  H   UNL     1       1.429   3.195   0.366  0.00  0.00    +0.292 HD
ENDBRANCH  13  22
BRANCH  15  24
ATOM     24  O   UNL     1       4.641  -1.372   0.290  0.00  0.00    -0.471 OA
ATOM     25  C   UNL     1       5.819  -0.588   0.482  0.00  0.00    +0.252 C 
ENDBRANCH  15  24
TORSDOF 4
