REMARK  Name = 101839869
REMARK  14 active torsions:
REMARK  status: ('A' for Active; 'I' for Inactive)
REMARK    1  A    between atoms: N_2  and  C_27
REMARK    2  A    between atoms: C_7  and  O_11
REMARK    3  A    between atoms: C_8  and  C_37
REMARK    4  A    between atoms: C_10  and  O_13
REMARK    5  A    between atoms: O_13  and  C_15
REMARK    6  A    between atoms: C_15  and  C_16
REMARK    7  A    between atoms: C_18  and  O_23
REMARK    8  A    between atoms: C_22  and  O_25
REMARK    9  A    between atoms: C_27  and  C_29
REMARK   10  A    between atoms: C_27  and  C_32
REMARK   11  A    between atoms: C_29  and  O_30
REMARK   12  A    between atoms: C_32  and  C_34
REMARK   13  A    between atoms: C_34  and  O_35
REMARK   14  A    between atoms: C_37  and  C_38
REMARK                            x       y       z     vdW  Elec       q    Type
REMARK                         _______ _______ _______ _____ _____    ______ ____
ROOT
ATOM      1  O   UNL     1       2.916  -2.007   1.683  0.00  0.00    -0.270 OA
ATOM      2  N   UNL     1       3.980  -0.304   0.438  0.00  0.00    -0.263 N 
ATOM      3  C   UNL     1       3.561   0.840  -0.362  0.00  0.00    +0.124 C 
ATOM      4  C   UNL     1       2.076   0.760  -0.261  0.00  0.00    +0.036 C 
ATOM      5  C   UNL     1       1.699  -0.329   0.525  0.00  0.00    +0.057 C 
ATOM      6  C   UNL     1       2.914  -1.016   0.977  0.00  0.00    +0.250 C 
ATOM      7  C   UNL     1       1.116   1.584  -0.818  0.00  0.00    +0.131 C 
ATOM      8  C   UNL     1      -0.229   1.292  -0.569  0.00  0.00    +0.050 C 
ATOM      9  C   UNL     1       0.378  -0.640   0.786  0.00  0.00    +0.042 C 
ATOM     10  C   UNL     1      -0.594   0.190   0.226  0.00  0.00    +0.148 C 
ENDROOT
BRANCH   7  11
ATOM     11  O   UNL     1       1.479   2.646  -1.584  0.00  0.00    -0.506 OA
ATOM     12  H   UNL     1       2.385   2.824  -1.738  0.00  0.00    +0.292 HD
ENDBRANCH   7  11
BRANCH  10  13
ATOM     13  O   UNL     1      -1.910  -0.085   0.461  0.00  0.00    -0.421 OA
BRANCH  13  15
ATOM     14  O   UNL     1      -1.930  -1.420  -1.450  0.00  0.00    -0.244 OA
ATOM     15  C   UNL     1      -2.492  -0.938  -0.478  0.00  0.00    +0.348 C 
BRANCH  15  16
ATOM     16  C   UNL     1      -3.920  -1.190  -0.157  0.00  0.00    +0.106 C 
ATOM     17  C   UNL     1      -4.919  -0.831  -1.062  0.00  0.00    -0.010 C 
ATOM     18  C   UNL     1      -4.262  -1.787   1.056  0.00  0.00    +0.143 C 
ATOM     19  C   UNL     1      -6.258  -1.068  -0.754  0.00  0.00    +0.033 C 
ATOM     20  C   UNL     1      -5.601  -2.024   1.365  0.00  0.00    +0.073 C 
ATOM     21  C   UNL     1      -4.583  -0.189  -2.369  0.00  0.00    +0.031 C 
ATOM     22  C   UNL     1      -6.599  -1.665   0.459  0.00  0.00    +0.136 C 
BRANCH  18  23
ATOM     23  O   UNL     1      -3.303  -2.146   1.956  0.00  0.00    -0.505 OA
ATOM     24  H   UNL     1      -2.398  -1.993   1.763  0.00  0.00    +0.292 HD
ENDBRANCH  18  23
BRANCH  22  25
ATOM     25  O   UNL     1      -7.906  -1.897   0.760  0.00  0.00    -0.505 OA
ATOM     26  H   UNL     1      -8.577  -1.656   0.152  0.00  0.00    +0.292 HD
ENDBRANCH  22  25
ENDBRANCH  15  16
ENDBRANCH  13  15
ENDBRANCH  10  13
BRANCH   2  27
ATOM     27  C   UNL     1       5.379  -0.623   0.624  0.00  0.00    +0.186 C 
BRANCH  27  29
ATOM     28  O   UNL     1       7.302   0.690   1.302  0.00  0.00    -0.248 OA
ATOM     29  C   UNL     1       6.098   0.478   1.386  0.00  0.00    +0.333 C 
BRANCH  29  30
ATOM     30  O   UNL     1       5.278   1.207   2.180  0.00  0.00    -0.479 OA
ATOM     31  H   UNL     1       4.363   1.010   2.214  0.00  0.00    +0.295 HD
ENDBRANCH  29  30
ENDBRANCH  27  29
BRANCH  27  32
ATOM     32  C   UNL     1       6.070  -0.871  -0.720  0.00  0.00    +0.141 C 
BRANCH  32  34
ATOM     33  O   UNL     1       4.864  -2.965  -1.043  0.00  0.00    -0.250 OA
ATOM     34  C   UNL     1       5.425  -1.986  -1.515  0.00  0.00    +0.316 C 
BRANCH  34  35
ATOM     35  O   UNL     1       5.543  -1.774  -2.853  0.00  0.00    -0.480 OA
ATOM     36  H   UNL     1       5.982  -1.008  -3.168  0.00  0.00    +0.295 HD
ENDBRANCH  34  35
ENDBRANCH  32  34
ENDBRANCH  27  32
ENDBRANCH   2  27
BRANCH   8  37
ATOM     37  C   UNL     1      -1.295   2.163  -1.157  0.00  0.00    +0.058 C 
BRANCH  37  38
ATOM     38  C   UNL     1      -1.430   3.482  -0.441  0.00  0.00    -0.030 C 
ATOM     39  C   UNL     1      -2.503   3.965   0.214  0.00  0.00    -0.048 C 
ATOM     40  C   UNL     1      -2.570   5.295   0.909  0.00  0.00    +0.026 C 
ATOM     41  C   UNL     1      -3.775   3.163   0.286  0.00  0.00    +0.026 C 
ENDBRANCH  37  38
ENDBRANCH   8  37
TORSDOF 14
