REMARK  Name = 101810305
REMARK  5 active torsions:
REMARK  status: ('A' for Active; 'I' for Inactive)
REMARK    1  A    between atoms: C_6  and  O_26
REMARK    2  A    between atoms: C_14  and  O_22
REMARK    3  A    between atoms: C_18  and  O_24
REMARK    4  A    between atoms: O_26  and  C_27
REMARK    5  A    between atoms: C_27  and  C_30
REMARK                            x       y       z     vdW  Elec       q    Type
REMARK                         _______ _______ _______ _____ _____    ______ ____
ROOT
ATOM      1  O   UNL     1      -2.918  -1.440   1.713  0.00  0.00    -0.346 OA
ATOM      2  O   UNL     1      -1.902  -3.826  -0.450  0.00  0.00    -0.289 OA
ATOM      3  O   UNL     1       0.531   2.362   0.703  0.00  0.00    -0.287 OA
ATOM      4  C   UNL     1      -3.047  -1.941   0.366  0.00  0.00    +0.175 C 
ATOM      5  C   UNL     1      -2.957  -0.469   0.659  0.00  0.00    +0.178 C 
ATOM      6  C   UNL     1      -1.694   0.293   0.441  0.00  0.00    +0.168 C 
ATOM      7  C   UNL     1      -1.830  -2.657  -0.091  0.00  0.00    +0.199 C 
ATOM      8  C   UNL     1      -0.476  -0.558   0.199  0.00  0.00    +0.013 C 
ATOM      9  C   UNL     1      -4.408  -2.509   0.081  0.00  0.00    +0.040 C 
ATOM     10  C   UNL     1      -0.535  -1.935  -0.082  0.00  0.00    +0.039 C 
ATOM     11  C   UNL     1       0.802   0.002   0.201  0.00  0.00    +0.040 C 
ATOM     12  C   UNL     1       0.636  -2.685  -0.344  0.00  0.00    +0.039 C 
ATOM     13  C   UNL     1       1.977  -0.735  -0.056  0.00  0.00    +0.040 C 
ATOM     14  C   UNL     1       1.897  -2.086  -0.331  0.00  0.00    +0.134 C 
ATOM     15  C   UNL     1       1.231   1.407   0.448  0.00  0.00    +0.196 C 
ATOM     16  C   UNL     1       3.128   0.137   0.020  0.00  0.00    +0.040 C 
ATOM     17  C   UNL     1       2.702   1.437   0.323  0.00  0.00    +0.042 C 
ATOM     18  C   UNL     1       4.478  -0.117  -0.152  0.00  0.00    +0.134 C 
ATOM     19  C   UNL     1       3.566   2.505   0.464  0.00  0.00    +0.003 C 
ATOM     20  C   UNL     1       5.377   0.949  -0.015  0.00  0.00    +0.037 C 
ATOM     21  C   UNL     1       4.925   2.246   0.290  0.00  0.00    +0.003 C 
ENDROOT
BRANCH  14  22
ATOM     22  O   UNL     1       2.966  -2.878  -0.593  0.00  0.00    -0.506 OA
ATOM     23  H   UNL     1       2.841  -3.789  -0.773  0.00  0.00    +0.292 HD
ENDBRANCH  14  22
BRANCH  18  24
ATOM     24  O   UNL     1       4.996  -1.334  -0.447  0.00  0.00    -0.506 OA
ATOM     25  H   UNL     1       4.428  -2.073  -0.546  0.00  0.00    +0.292 HD
ENDBRANCH  18  24
BRANCH   6  26
ATOM     26  O   UNL     1      -1.863   1.133  -0.702  0.00  0.00    -0.344 OA
BRANCH  26  27
ATOM     27  C   UNL     1      -2.436   2.381  -0.344  0.00  0.00    +0.173 C 
ATOM     28  C   UNL     1      -1.929   3.431  -1.316  0.00  0.00    +0.040 C 
BRANCH  27  30
ATOM     29  O   UNL     1      -4.529   1.519  -1.182  0.00  0.00    -0.294 OA
ATOM     30  C   UNL     1      -3.953   2.265  -0.390  0.00  0.00    +0.178 C 
ATOM     31  C   UNL     1      -4.736   3.104   0.588  0.00  0.00    +0.075 C 
ENDBRANCH  27  30
ENDBRANCH  26  27
ENDBRANCH   6  26
TORSDOF 5
