REMARK  Name = 101883987
REMARK  3 active torsions:
REMARK  status: ('A' for Active; 'I' for Inactive)
REMARK    1  A    between atoms: C_7  and  O_19
REMARK    2  A    between atoms: C_14  and  O_21
REMARK    3  A    between atoms: C_18  and  O_23
REMARK                            x       y       z     vdW  Elec       q    Type
REMARK                         _______ _______ _______ _____ _____    ______ ____
ROOT
ATOM      1  O   UNL     1      -1.810   0.161  -1.597  0.00  0.00    -0.305 OA
ATOM      2  O   UNL     1      -2.529  -1.612  -0.078  0.00  0.00    -0.454 OA
ATOM      3  O   UNL     1      -0.118  -2.534  -1.196  0.00  0.00    -0.285 OA
ATOM      4  O   UNL     1      -3.090   2.444   0.318  0.00  0.00    -0.288 OA
ATOM      5  C   UNL     1      -1.569   0.737  -0.295  0.00  0.00    +0.244 C 
ATOM      6  C   UNL     1      -1.478  -0.742  -0.537  0.00  0.00    +0.318 C 
ATOM      7  C   UNL     1      -0.292   1.538  -0.209  0.00  0.00    +0.174 C 
ATOM      8  C   UNL     1      -0.181  -1.408  -0.723  0.00  0.00    +0.239 C 
ATOM      9  C   UNL     1      -2.804   1.254   0.331  0.00  0.00    +0.209 C 
ATOM     10  C   UNL     1       0.961   0.710  -0.047  0.00  0.00    +0.044 C 
ATOM     11  C   UNL     1       1.026  -0.667  -0.308  0.00  0.00    +0.045 C 
ATOM     12  C   UNL     1      -3.656   0.248   0.989  0.00  0.00    +0.073 C 
ATOM     13  C   UNL     1      -3.474  -1.063   0.769  0.00  0.00    +0.122 C 
ATOM     14  C   UNL     1       2.142   1.365   0.347  0.00  0.00    +0.135 C 
ATOM     15  C   UNL     1       2.234  -1.366  -0.182  0.00  0.00    +0.040 C 
ATOM     16  C   UNL     1      -4.355  -2.094   1.405  0.00  0.00    +0.072 C 
ATOM     17  C   UNL     1       3.344   0.669   0.479  0.00  0.00    +0.073 C 
ATOM     18  C   UNL     1       3.390  -0.696   0.213  0.00  0.00    +0.142 C 
ENDROOT
BRANCH   7  19
ATOM     19  O   UNL     1      -0.157   2.354  -1.372  0.00  0.00    -0.377 OA
ATOM     20  H   UNL     1      -0.957   2.891  -1.486  0.00  0.00    +0.211 HD
ENDBRANCH   7  19
BRANCH  14  21
ATOM     21  O   UNL     1       2.148   2.706   0.607  0.00  0.00    -0.506 OA
ATOM     22  H   UNL     1       1.357   3.202   0.528  0.00  0.00    +0.292 HD
ENDBRANCH  14  21
BRANCH  18  23
ATOM     23  O   UNL     1       4.562  -1.376   0.339  0.00  0.00    -0.471 OA
ATOM     24  C   UNL     1       5.706  -0.627   0.748  0.00  0.00    +0.252 C 
ENDBRANCH  18  23
TORSDOF 3
