REMARK  Name = 101834849
REMARK  7 active torsions:
REMARK  status: ('A' for Active; 'I' for Inactive)
REMARK    1  A    between atoms: C_4  and  O_20
REMARK    2  A    between atoms: C_4  and  C_28
REMARK    3  A    between atoms: C_6  and  O_22
REMARK    4  A    between atoms: C_9  and  O_24
REMARK    5  A    between atoms: C_16  and  O_26
REMARK    6  A    between atoms: C_28  and  C_29
REMARK    7  A    between atoms: C_29  and  C_30
REMARK                            x       y       z     vdW  Elec       q    Type
REMARK                         _______ _______ _______ _____ _____    ______ ____
ROOT
ATOM      1  O   UNL     1       0.102   0.593   1.515  0.00  0.00    -0.445 OA
ATOM      2  O   UNL     1      -1.337   1.864   2.786  0.00  0.00    -0.247 OA
ATOM      3  O   UNL     1       0.568   3.449  -1.674  0.00  0.00    -0.291 OA
ATOM      4  C   UNL     1      -1.337   0.138  -0.258  0.00  0.00    +0.160 C 
ATOM      5  C   UNL     1       0.163   0.209   0.114  0.00  0.00    +0.210 C 
ATOM      6  C   UNL     1      -1.782   1.452   0.405  0.00  0.00    +0.210 C 
ATOM      7  C   UNL     1      -1.333   2.684  -0.414  0.00  0.00    +0.099 C 
ATOM      8  C   UNL     1       0.883   1.354  -0.584  0.00  0.00    +0.053 C 
ATOM      9  C   UNL     1       0.935  -1.128  -0.008  0.00  0.00    +0.179 C 
ATOM     10  C   UNL     1      -1.019   1.365   1.719  0.00  0.00    +0.344 C 
ATOM     11  C   UNL     1       0.092   2.569  -0.957  0.00  0.00    +0.175 C 
ATOM     12  C   UNL     1       2.438  -0.963   0.055  0.00  0.00    +0.042 C 
ATOM     13  C   UNL     1       2.204   1.354  -0.825  0.00  0.00    +0.002 C 
ATOM     14  C   UNL     1      -1.496   4.006   0.340  0.00  0.00    +0.011 C 
ATOM     15  C   UNL     1       3.037   0.233  -0.378  0.00  0.00    +0.001 C 
ATOM     16  C   UNL     1       3.247  -2.027   0.479  0.00  0.00    +0.132 C 
ATOM     17  C   UNL     1       4.433   0.348  -0.380  0.00  0.00    -0.000 C 
ATOM     18  C   UNL     1       4.636  -1.899   0.482  0.00  0.00    +0.036 C 
ATOM     19  C   UNL     1       5.228  -0.714   0.053  0.00  0.00    +0.003 C 
ENDROOT
BRANCH   4  20
ATOM     20  O   UNL     1      -1.546   0.155  -1.665  0.00  0.00    -0.380 OA
ATOM     21  H   UNL     1      -1.091   0.921  -2.049  0.00  0.00    +0.211 HD
ENDBRANCH   4  20
BRANCH   6  22
ATOM     22  O   UNL     1      -3.173   1.539   0.622  0.00  0.00    -0.374 OA
ATOM     23  H   UNL     1      -3.631   1.593  -0.231  0.00  0.00    +0.211 HD
ENDBRANCH   6  22
BRANCH   9  24
ATOM     24  O   UNL     1       0.628  -1.774  -1.245  0.00  0.00    -0.376 OA
ATOM     25  H   UNL     1      -0.332  -1.895  -1.317  0.00  0.00    +0.211 HD
ENDBRANCH   9  24
BRANCH  16  26
ATOM     26  O   UNL     1       2.702  -3.210   0.883  0.00  0.00    -0.506 OA
ATOM     27  H   UNL     1       1.772  -3.319   0.889  0.00  0.00    +0.292 HD
ENDBRANCH  16  26
BRANCH   4  28
ATOM     28  C   UNL     1      -2.077  -1.092   0.297  0.00  0.00    +0.034 C 
BRANCH  28  29
ATOM     29  C   UNL     1      -3.375  -1.325  -0.464  0.00  0.00    +0.003 C 
BRANCH  29  30
ATOM     30  C   UNL     1      -4.125  -2.584   0.009  0.00  0.00    +0.000 C 
ATOM     31  C   UNL     1      -3.242  -3.818  -0.190  0.00  0.00    +0.000 C 
ATOM     32  C   UNL     1      -5.456  -2.779  -0.718  0.00  0.00    +0.000 C 
ENDBRANCH  29  30
ENDBRANCH  28  29
ENDBRANCH   4  28
TORSDOF 7
