101863378
  -OEChem-03292013293D

 41 44  0     1  0  0  0  0  0999 V2000
    1.5534    0.3376    1.9171 O   0  0  0  0  0  0  0  0  0  0  0  0
    1.0572   -1.8829   -1.5240 O   0  0  0  0  0  0  0  0  0  0  0  0
   -4.1883   -2.1108    0.1138 O   0  0  0  0  0  0  0  0  0  0  0  0
   -3.1082    2.5015   -0.7138 O   0  0  0  0  0  0  0  0  0  0  0  0
   -4.9824    0.4674   -0.5963 O   0  0  0  0  0  0  0  0  0  0  0  0
    3.4135   -1.2316   -2.2989 O   0  0  0  0  0  0  0  0  0  0  0  0
    5.8039    1.8129    0.4425 O   0  0  0  0  0  0  0  0  0  0  0  0
    0.1163   -1.1863    0.6703 C   0  0  1  0  0  0  0  0  0  0  0  0
   -0.9606   -2.3439    0.7377 C   0  0  0  0  0  0  0  0  0  0  0  0
   -1.0371   -0.2937    0.2718 C   0  0  0  0  0  0  0  0  0  0  0  0
   -1.9655   -1.3058    0.3303 C   0  0  0  0  0  0  0  0  0  0  0  0
    0.7453   -0.8421    2.0127 C   0  0  0  0  0  0  0  0  0  0  0  0
    1.1804   -1.2679   -0.4659 C   0  0  0  0  0  0  0  0  0  0  0  0
   -1.3815    0.9934   -0.0733 C   0  0  0  0  0  0  0  0  0  0  0  0
   -3.2946   -1.0943    0.0487 C   0  0  0  0  0  0  0  0  0  0  0  0
    2.4201   -0.4996   -0.2120 C   0  0  0  0  0  0  0  0  0  0  0  0
    2.5263    0.2649    0.9546 C   0  0  0  0  0  0  0  0  0  0  0  0
   -2.7249    1.2398   -0.3657 C   0  0  0  0  0  0  0  0  0  0  0  0
   -3.6754    0.2026   -0.3049 C   0  0  0  0  0  0  0  0  0  0  0  0
    3.4577   -0.5011   -1.1495 C   0  0  0  0  0  0  0  0  0  0  0  0
    3.6600    1.0533    1.1638 C   0  0  0  0  0  0  0  0  0  0  0  0
    4.5962    0.2728   -0.9228 C   0  0  0  0  0  0  0  0  0  0  0  0
    4.6955    1.0520    0.2293 C   0  0  0  0  0  0  0  0  0  0  0  0
   -2.0897    3.4984   -0.7536 C   0  0  0  0  0  0  0  0  0  0  0  0
   -5.8177    0.8636    0.4882 C   0  0  0  0  0  0  0  0  0  0  0  0
   -1.1019   -2.7866    1.7306 H   0  0  0  0  0  0  0  0  0  0  0  0
   -0.8026   -3.1632    0.0272 H   0  0  0  0  0  0  0  0  0  0  0  0
   -0.0158   -0.6529    2.7789 H   0  0  0  0  0  0  0  0  0  0  0  0
    1.3664   -1.6689    2.3823 H   0  0  0  0  0  0  0  0  0  0  0  0
   -0.5918    1.7327   -0.0975 H   0  0  0  0  0  0  0  0  0  0  0  0
    3.7350    1.6618    2.0621 H   0  0  0  0  0  0  0  0  0  0  0  0
   -3.7192   -2.9218    0.3764 H   0  0  0  0  0  0  0  0  0  0  0  0
    5.4061    0.2750   -1.6484 H   0  0  0  0  0  0  0  0  0  0  0  0
    2.6428   -1.8192   -2.2981 H   0  0  0  0  0  0  0  0  0  0  0  0
   -2.5696    4.4380   -1.0467 H   0  0  0  0  0  0  0  0  0  0  0  0
   -1.6466    3.6627    0.2345 H   0  0  0  0  0  0  0  0  0  0  0  0
   -1.3358    3.2752   -1.5163 H   0  0  0  0  0  0  0  0  0  0  0  0
   -6.8240    1.0407    0.0987 H   0  0  0  0  0  0  0  0  0  0  0  0
   -5.4501    1.7904    0.9399 H   0  0  0  0  0  0  0  0  0  0  0  0
   -5.8697    0.0732    1.2436 H   0  0  0  0  0  0  0  0  0  0  0  0
    5.7043    2.2863    1.2863 H   0  0  0  0  0  0  0  0  0  0  0  0
  1 12  1  0  0  0  0
  1 17  1  0  0  0  0
  2 13  2  0  0  0  0
  3 15  1  0  0  0  0
  3 32  1  0  0  0  0
  4 18  1  0  0  0  0
  4 24  1  0  0  0  0
  5 19  1  0  0  0  0
  5 25  1  0  0  0  0
  6 20  1  0  0  0  0
  6 34  1  0  0  0  0
  7 23  1  0  0  0  0
  7 41  1  0  0  0  0
  8  9  1  0  0  0  0
  8 10  1  0  0  0  0
  8 12  1  0  0  0  0
  8 13  1  0  0  0  0
  9 11  1  0  0  0  0
  9 26  1  0  0  0  0
  9 27  1  0  0  0  0
 10 11  1  0  0  0  0
 10 14  2  0  0  0  0
 11 15  2  0  0  0  0
 12 28  1  0  0  0  0
 12 29  1  0  0  0  0
 13 16  1  0  0  0  0
 14 18  1  0  0  0  0
 14 30  1  0  0  0  0
 15 19  1  0  0  0  0
 16 17  1  0  0  0  0
 16 20  2  0  0  0  0
 17 21  2  0  0  0  0
 18 19  2  0  0  0  0
 20 22  1  0  0  0  0
 21 23  1  0  0  0  0
 21 31  1  0  0  0  0
 22 23  2  0  0  0  0
 22 33  1  0  0  0  0
 24 35  1  0  0  0  0
 24 36  1  0  0  0  0
 24 37  1  0  0  0  0
 25 38  1  0  0  0  0
 25 39  1  0  0  0  0
 25 40  1  0  0  0  0
M  END
> <PUBCHEM_COMPOUND_CID>
101863378

> <PUBCHEM_CONFORMER_RMSD>
0.6

> <PUBCHEM_CONFORMER_DIVERSEORDER>
1
2

> <PUBCHEM_MMFF94_PARTIAL_CHARGES>
31
1 -0.36
10 -0.11
11 -0.11
12 0.28
13 0.43
14 -0.15
15 0.08
16 0.09
17 0.08
18 0.08
19 0.08
2 -0.57
20 0.08
21 -0.15
22 -0.15
23 0.08
24 0.28
25 0.28
3 -0.53
30 0.15
31 0.15
32 0.45
33 0.15
34 0.45
4 -0.36
41 0.45
5 -0.36
6 -0.53
7 -0.53
8 0.16
9 0.11

> <PUBCHEM_EFFECTIVE_ROTOR_COUNT>
2.6

> <PUBCHEM_PHARMACOPHORE_FEATURES>
11
1 1 acceptor
1 2 acceptor
1 3 donor
1 4 acceptor
1 5 acceptor
1 6 donor
1 7 donor
4 8 9 10 11 rings
6 1 8 12 13 16 17 rings
6 10 11 14 15 18 19 rings
6 16 17 20 21 22 23 rings

> <PUBCHEM_HEAVY_ATOM_COUNT>
25

> <PUBCHEM_ATOM_DEF_STEREO_COUNT>
1

> <PUBCHEM_ATOM_UDEF_STEREO_COUNT>
0

> <PUBCHEM_BOND_DEF_STEREO_COUNT>
0

> <PUBCHEM_BOND_UDEF_STEREO_COUNT>
0

> <PUBCHEM_ISOTOPIC_ATOM_COUNT>
0

> <PUBCHEM_COMPONENT_COUNT>
1

> <PUBCHEM_CACTVS_TAUTO_COUNT>
48

> <PUBCHEM_CONFORMER_ID>
06124FD200000001

> <PUBCHEM_MMFF94_ENERGY>
96.9735

> <PUBCHEM_FEATURE_SELFOVERLAP>
56.119

> <PUBCHEM_SHAPE_FINGERPRINT>
10498660 4 18334570205596326069
10646746 165 18335137570886572590
10670039 82 17968668094744057196
10764073 3 16327050844601544050
11595378 159 17603861165870866165
11640471 11 17167865240118438730
12173636 292 18334289825846747647
12236239 1 17022617598147625970
12390115 104 18197785406215134969
12596602 18 16515409602926150680
12670546 177 17774998016050857462
12730499 353 18201446861022815387
12788726 201 16447033294335961018
12916748 109 18261115157737873864
13140716 1 18115875264473683913
13402501 40 18342454885031005256
13583140 156 12252487564669329254
13911987 19 17274268387007238256
13965767 371 17099456766217638140
14251757 17 18201160945049628356
14739800 52 18116413995170164960
14790565 3 18194404382184748945
15183329 4 14764353704706543609
15961568 22 18263082283336721780
16988056 13 15521766247527497501
17349148 13 15791454820354233323
17980427 23 18042123317962477895
18186145 218 18201164256300582690
200 152 16128386982101168258
20645477 70 17346325869249312438
21033648 29 18058722632686664392
21033650 10 18188228519759909244
221357 26 17846500292202863760
23114952 82 17987239940926592399
23227448 37 18337389473331314117
23402539 116 18335695091542688206
235170 7 18131074835405176540
23557571 272 18339928237327466419
23559900 14 18410018719427850862
238 59 17345738721165269612
2838139 119 18339349860384553636
341906 21 18113898264872260132
3472631 163 18114462361487114428
350125 39 18044934567584756963
3633792 109 16879319325868837715
4098825 35 17987808401771440592
4340502 62 15647344005177531969
469060 322 17969244333632195585
474 4 16732990807937374530
5281201 14 18059298660504369300
5895379 119 18187379713931812492
7808743 9 18335414638995320265
9981440 41 18040715857274888027

> <PUBCHEM_SHAPE_MULTIPOLES>
473.4
10.7
2.53
1.45
0.15
1.36
-0.02
4.59
-0.9
-1.96
-0.36
1.56
-0.37
1.24

> <PUBCHEM_SHAPE_SELFOVERLAP>
1061.167

> <PUBCHEM_SHAPE_VOLUME>
250.1

> <PUBCHEM_COORDINATE_TYPE>
2
5
10

$$$$
