REMARK  Name = 101879159
REMARK  7 active torsions:
REMARK  status: ('A' for Active; 'I' for Inactive)
REMARK    1  A    between atoms: C_5  and  O_23
REMARK    2  A    between atoms: C_8  and  O_25
REMARK    3  A    between atoms: C_9  and  C_33
REMARK    4  A    between atoms: C_16  and  O_27
REMARK    5  A    between atoms: C_18  and  O_29
REMARK    6  A    between atoms: C_19  and  C_35
REMARK    7  A    between atoms: C_20  and  O_31
REMARK                            x       y       z     vdW  Elec       q    Type
REMARK                         _______ _______ _______ _____ _____    ______ ____
ROOT
ATOM      1  O   UNL     1       2.100   2.619  -0.607  0.00  0.00    -0.334 OA
ATOM      2  O   UNL     1       0.583  -2.262  -1.784  0.00  0.00    -0.426 OA
ATOM      3  O   UNL     1       0.302  -0.659   2.314  0.00  0.00    -0.291 OA
ATOM      4  O   UNL     1       0.686  -4.528  -1.654  0.00  0.00    -0.244 OA
ATOM      5  C   UNL     1       0.830   2.111  -0.089  0.00  0.00    +0.218 C 
ATOM      6  C   UNL     1       1.232   1.053   0.921  0.00  0.00    +0.122 C 
ATOM      7  C   UNL     1       2.430   0.433   0.168  0.00  0.00    +0.067 C 
ATOM      8  C   UNL     1      -0.111   1.437  -1.164  0.00  0.00    +0.161 C 
ATOM      9  C   UNL     1       3.189   1.752  -0.122  0.00  0.00    +0.122 C 
ATOM     10  C   UNL     1       0.427   0.212  -2.007  0.00  0.00    +0.100 C 
ATOM     11  C   UNL     1       1.999  -0.926  -0.349  0.00  0.00    +0.045 C 
ATOM     12  C   UNL     1      -1.366   0.942  -0.441  0.00  0.00    +0.015 C 
ATOM     13  C   UNL     1       0.097   0.164   1.425  0.00  0.00    +0.181 C 
ATOM     14  C   UNL     1       1.044  -1.012  -1.310  0.00  0.00    +0.128 C 
ATOM     15  C   UNL     1      -1.243   0.312   0.809  0.00  0.00    +0.067 C 
ATOM     16  C   UNL     1       2.541  -2.135   0.204  0.00  0.00    +0.144 C 
ATOM     17  C   UNL     1      -2.641   1.028  -1.022  0.00  0.00    +0.035 C 
ATOM     18  C   UNL     1      -2.364  -0.203   1.468  0.00  0.00    +0.135 C 
ATOM     19  C   UNL     1      -3.623  -0.091   0.883  0.00  0.00    +0.045 C 
ATOM     20  C   UNL     1      -3.761   0.522  -0.360  0.00  0.00    +0.137 C 
ATOM     21  C   UNL     1       2.114  -3.330  -0.220  0.00  0.00    +0.119 C 
ATOM     22  C   UNL     1       1.077  -3.431  -1.268  0.00  0.00    +0.349 C 
ENDROOT
BRANCH   5  23
ATOM     23  O   UNL     1       0.151   3.174   0.584  0.00  0.00    -0.361 OA
ATOM     24  H   UNL     1       0.745   3.573   1.238  0.00  0.00    +0.213 HD
ENDBRANCH   5  23
BRANCH   8  25
ATOM     25  O   UNL     1      -0.460   2.468  -2.096  0.00  0.00    -0.377 OA
ATOM     26  H   UNL     1       0.339   2.777  -2.551  0.00  0.00    +0.211 HD
ENDBRANCH   8  25
BRANCH  16  27
ATOM     27  O   UNL     1       3.581  -2.088   1.113  0.00  0.00    -0.471 OA
ATOM     28  C   UNL     1       4.828  -2.135   0.448  0.00  0.00    +0.252 C 
ENDBRANCH  16  27
BRANCH  18  29
ATOM     29  O   UNL     1      -2.269  -0.801   2.691  0.00  0.00    -0.506 OA
ATOM     30  H   UNL     1      -1.433  -0.888   3.106  0.00  0.00    +0.292 HD
ENDBRANCH  18  29
BRANCH  20  31
ATOM     31  O   UNL     1      -4.985   0.630  -0.952  0.00  0.00    -0.472 OA
ATOM     32  C   UNL     1      -5.033   1.272  -2.225  0.00  0.00    +0.252 C 
ENDBRANCH  20  31
BRANCH   9  33
ATOM     33  C   UNL     1       3.931   2.450   1.010  0.00  0.00    +0.030 C 
ATOM     34  C   UNL     1       4.470   3.801   0.574  0.00  0.00    +0.003 C 
ENDBRANCH   9  33
BRANCH  19  35
ATOM     35  C   UNL     1      -4.830  -0.631   1.583  0.00  0.00    +0.033 C 
ATOM     36  C   UNL     1      -4.928  -2.149   1.476  0.00  0.00    +0.005 C 
ENDBRANCH  19  35
TORSDOF 7
