101815903
  -OEChem-03292013293D

 29 30  0     0  0  0  0  0  0999 V2000
   -4.2243    0.1840    0.6718 S   0  0  0  0  0  0  0  0  0  0  0  0
    1.7620   -1.6922    0.2132 O   0  0  0  0  0  0  0  0  0  0  0  0
    0.8300    0.3704    0.0918 N   0  0  0  0  0  0  0  0  0  0  0  0
   -1.7669   -0.8920    0.5206 N   0  0  0  0  0  0  0  0  0  0  0  0
   -1.6077    0.4795    0.3529 N   0  0  0  0  0  0  0  0  0  0  0  0
   -2.9633    2.4614    0.2881 N   0  0  0  0  0  0  0  0  0  0  0  0
    2.7643   -0.7892    0.0024 C   0  0  0  0  0  0  0  0  0  0  0  0
    2.1903    0.4714   -0.0713 C   0  0  0  0  0  0  0  0  0  0  0  0
    4.1238   -1.0486   -0.1211 C   0  0  0  0  0  0  0  0  0  0  0  0
    3.0193    1.5819   -0.2854 C   0  0  0  0  0  0  0  0  0  0  0  0
    0.6398   -0.9206    0.2543 C   0  0  0  0  0  0  0  0  0  0  0  0
    4.9366    0.0699   -0.3346 C   0  0  0  0  0  0  0  0  0  0  0  0
    4.3979    1.3599   -0.4154 C   0  0  0  0  0  0  0  0  0  0  0  0
   -0.6196   -1.5446    0.4633 C   0  0  0  0  0  0  0  0  0  0  0  0
   -4.7310   -0.1973   -1.0193 C   0  0  0  0  0  0  0  0  0  0  0  0
   -6.0133   -1.0078   -1.0213 C   0  0  0  0  0  0  0  0  0  0  0  0
   -2.7378    1.1139    0.4101 C   0  0  0  0  0  0  0  0  0  0  0  0
    4.5303   -2.0501   -0.0570 H   0  0  0  0  0  0  0  0  0  0  0  0
    2.6127    2.5857   -0.3497 H   0  0  0  0  0  0  0  0  0  0  0  0
    6.0104   -0.0659   -0.4399 H   0  0  0  0  0  0  0  0  0  0  0  0
    5.0602    2.2058   -0.5821 H   0  0  0  0  0  0  0  0  0  0  0  0
   -0.6541   -2.6390    0.5866 H   0  0  0  0  0  0  0  0  0  0  0  0
   -4.8820    0.7371   -1.5691 H   0  0  0  0  0  0  0  0  0  0  0  0
   -3.9363   -0.7594   -1.5197 H   0  0  0  0  0  0  0  0  0  0  0  0
   -5.8867   -1.9624   -0.4993 H   0  0  0  0  0  0  0  0  0  0  0  0
   -6.8368   -0.4596   -0.5511 H   0  0  0  0  0  0  0  0  0  0  0  0
   -6.3109   -1.2314   -2.0512 H   0  0  0  0  0  0  0  0  0  0  0  0
   -2.1998    3.1106    0.1329 H   0  0  0  0  0  0  0  0  0  0  0  0
   -3.9000    2.8457    0.3473 H   0  0  0  0  0  0  0  0  0  0  0  0
  1 15  1  0  0  0  0
  1 17  1  0  0  0  0
  2  7  1  0  0  0  0
  2 11  1  0  0  0  0
  3  8  1  0  0  0  0
  3 11  2  0  0  0  0
  4  5  1  0  0  0  0
  4 14  2  0  0  0  0
  5 17  2  3  0  0  0
  6 17  1  0  0  0  0
  6 28  1  0  0  0  0
  6 29  1  0  0  0  0
  7  8  1  0  0  0  0
  7  9  2  0  0  0  0
  8 10  2  0  0  0  0
  9 12  1  0  0  0  0
  9 18  1  0  0  0  0
 10 13  1  0  0  0  0
 10 19  1  0  0  0  0
 11 14  1  0  0  0  0
 12 13  2  0  0  0  0
 12 20  1  0  0  0  0
 13 21  1  0  0  0  0
 14 22  1  0  0  0  0
 15 16  1  0  0  0  0
 15 23  1  0  0  0  0
 15 24  1  0  0  0  0
 16 25  1  0  0  0  0
 16 26  1  0  0  0  0
 16 27  1  0  0  0  0
M  END
> <PUBCHEM_COMPOUND_CID>
101815903

> <PUBCHEM_CONFORMER_RMSD>
0.6

> <PUBCHEM_CONFORMER_DIVERSEORDER>
1
71
72
70
15
21
84
92
93
59
80
6
68
86
89
51
81
3
54
19
78
74
37
46
43
91
94
77
96
53
64
85
34
82
8
33
79
52
44
58
90
50
32
73
42
56
83
69
62
45
2
75
63
7
67
88
48
76
98
97
36
57
23
55
61
4
22
26
95
65
5
20
29
60
66
47
87
10
24
13
41
38
9
27
14
49
30
11
40
12
28
35
16
31
25
17
39
18

> <PUBCHEM_MMFF94_PARTIAL_CHARGES>
23
1 -0.37
10 -0.15
11 0.39
12 -0.15
13 -0.15
14 0.47
15 0.23
17 0.64
18 0.15
19 0.15
2 -0.28
20 0.15
21 0.15
22 0.06
28 0.4
29 0.4
3 -0.57
4 -0.45
5 -0.45
6 -0.85
7 0.14
8 0.23
9 -0.15

> <PUBCHEM_EFFECTIVE_ROTOR_COUNT>
4

> <PUBCHEM_PHARMACOPHORE_FEATURES>
6
1 16 hydrophobe
1 4 acceptor
1 6 donor
3 5 6 17 cation
5 2 3 7 8 11 rings
6 7 8 9 10 12 13 rings

> <PUBCHEM_HEAVY_ATOM_COUNT>
17

> <PUBCHEM_ATOM_DEF_STEREO_COUNT>
0

> <PUBCHEM_ATOM_UDEF_STEREO_COUNT>
0

> <PUBCHEM_BOND_DEF_STEREO_COUNT>
1

> <PUBCHEM_BOND_UDEF_STEREO_COUNT>
1

> <PUBCHEM_ISOTOPIC_ATOM_COUNT>
0

> <PUBCHEM_COMPONENT_COUNT>
1

> <PUBCHEM_CACTVS_TAUTO_COUNT>
5

> <PUBCHEM_CONFORMER_ID>
0611965F00000001

> <PUBCHEM_MMFF94_ENERGY>
39.7682

> <PUBCHEM_FEATURE_SELFOVERLAP>
30.564

> <PUBCHEM_SHAPE_FINGERPRINT>
11128504 68 18201716288652645013
11471102 20 18407762530204606782
12236239 1 18202001023593909823
12403260 363 18336824199948252608
12670546 177 18060702805540627111
13533116 47 16660912293087348891
13583140 156 16588026835555613865
14251764 18 18333730209426030490
14528608 73 18410572903167897885
15142383 8 12823028508099612619
15196674 1 18337394846414704376
15501527 24 18340762728404158399
17802600 8 18409165502219420904
17834072 33 18342455954334891527
1813 80 13614242602626702619
19489759 90 15213016060013013357
200 152 18343016697118143167
20300324 65 18201720648234516865
20645477 70 18340489976337701510
21150785 3 17203336641484303788
21267235 1 18338246998011938434
21524375 3 18408044004706745818
221357 26 18343584040264380869
22485316 2 9511455602508300312
231179 274 17313381223272275006
23402539 116 18343581820145869637
23402655 69 18341329990267413293
23557571 272 17418379073487681137
23559900 14 18339359789768381592
29717793 49 18059858337492069247
335352 9 18408045126832446374
351380 180 18410293609749899161
3545911 37 18260834825211940346
4028521 119 18186516601287257821
4325135 7 18344145895549306927
474 4 17822579412129459380
4990 188 17988933236468034052
5104073 3 18335708187114232944
58051976 378 18413110558635473295
602551 16 15769481127828443215
69090 78 18412546517623000762
7495541 125 17131827698519699723
9709674 26 18339935813386116738

> <PUBCHEM_SHAPE_MULTIPOLES>
327.91
12.15
1.81
0.84
7.71
0.53
0.1
0.33
3.56
-0.01
-0.12
0.83
-0.06
-0.82

> <PUBCHEM_SHAPE_SELFOVERLAP>
680.919

> <PUBCHEM_SHAPE_VOLUME>
189.2

> <PUBCHEM_COORDINATE_TYPE>
2
5
10

$$$$
