REMARK  Name = 101892540
REMARK  11 active torsions:
REMARK  status: ('A' for Active; 'I' for Inactive)
REMARK    1  A    between atoms: N_2  and  CA_23
REMARK    2  A    between atoms: C_3  and  CA_5
REMARK    3  A    between atoms: CA_5  and  N_8
REMARK    4  A    between atoms: C_9  and  CA_11
REMARK    5  A    between atoms: CA_11  and  N_12
REMARK    6  A    between atoms: CA_11  and  CB_16
REMARK    7  A    between atoms: CB_16  and  CG_17
REMARK    8  A    between atoms: CA_23  and  C_25
REMARK    9  A    between atoms: CA_23  and  CB_28
REMARK   10  A    between atoms: C_25  and  O_26
REMARK   11  A    between atoms: CB_28  and  CG_30
REMARK                            x       y       z     vdW  Elec       q    Type
REMARK                         _______ _______ _______ _____ _____    ______ ____
ROOT
ATOM      1  O   ALA A   2       0.917  -0.476   1.203  0.00  0.00    -0.273 OA
ATOM      2  N   TRP A   3      -0.767  -0.216  -0.372  0.00  0.00    -0.295 N 
ATOM      3  C   ALA A   2       0.236   0.240   0.472  0.00  0.00    +0.241 C 
ATOM      4  H   TRP A   3      -1.258   0.439  -0.919  0.00  0.00    +0.150 HD
ENDROOT
BRANCH   3   5
ATOM      5  CA  ALA A   2       0.438   1.746   0.360  0.00  0.00    +0.149 C 
ATOM      6  CB  ALA A   2      -0.379   2.483   1.409  0.00  0.00    +0.031 C 
BRANCH   5   8
ATOM      7  O   PHE A   1       2.385   1.768  -1.737  0.00  0.00    -0.277 OA
ATOM      8  N   ALA A   2       1.848   2.018   0.505  0.00  0.00    -0.300 N 
ATOM      9  C   PHE A   1       2.716   2.006  -0.577  0.00  0.00    +0.202 C 
ATOM     10  H   ALA A   2       2.204   2.219   1.400  0.00  0.00    +0.150 HD
BRANCH   9  11
ATOM     11  CA  PHE A   1       4.149   2.350  -0.181  0.00  0.00    +0.017 C 
BRANCH  11  12
ATOM     12  N   PHE A   1       4.489   3.597  -0.867  0.00  0.00    +0.388 N 
ATOM     13  H1  PHE A   1       5.444   3.866  -0.630  0.00  0.00    -0.089 HD
ATOM     14  H2  PHE A   1       3.846   4.332  -0.574  0.00  0.00    -0.089 HD
ATOM     15  H3  PHE A   1       4.414   3.462  -1.875  0.00  0.00    -0.089 HD
ENDBRANCH  11  12
BRANCH  11  16
ATOM     16  CB  PHE A   1       5.115   1.237  -0.613  0.00  0.00    +0.013 C 
BRANCH  16  17
ATOM     17  CG  PHE A   1       4.831  -0.083   0.066  0.00  0.00    -0.024 C 
ATOM     18  CD1 PHE A   1       5.449  -0.391   1.278  0.00  0.00    -0.004 C 
ATOM     19  CD2 PHE A   1       3.951  -0.993  -0.519  0.00  0.00    -0.004 C 
ATOM     20  CE1 PHE A   1       5.187  -1.609   1.905  0.00  0.00    -0.000 C 
ATOM     21  CE2 PHE A   1       3.688  -2.211   0.108  0.00  0.00    -0.000 C 
ATOM     22  CZ  PHE A   1       4.306  -2.519   1.320  0.00  0.00    -0.000 C 
ENDBRANCH  16  17
ENDBRANCH  11  16
ENDBRANCH   9  11
ENDBRANCH   5   8
ENDBRANCH   3   5
BRANCH   2  23
ATOM     23  CA  TRP A   3      -1.120  -1.613  -0.480  0.00  0.00    +0.176 C 
BRANCH  23  25
ATOM     24  OXT TRP A   3      -0.294  -3.533  -1.697  0.00  0.00    -0.248 OA
ATOM     25  C   TRP A   3      -0.236  -2.325  -1.493  0.00  0.00    +0.332 C 
BRANCH  25  26
ATOM     26  O   TRP A   3       0.625  -1.520  -2.162  0.00  0.00    -0.479 OA
ATOM     27  H   TRP A   3       0.644  -0.601  -1.981  0.00  0.00    +0.295 HD
ENDBRANCH  25  26
ENDBRANCH  23  25
BRANCH  23  28
ATOM     28  CB  TRP A   3      -2.596  -1.782  -0.863  0.00  0.00    +0.059 C 
BRANCH  28  30
ATOM     29  NE1 TRP A   3      -4.583  -0.616   2.010  0.00  0.00    -0.312 N 
ATOM     30  CG  TRP A   3      -3.538  -1.133   0.122  0.00  0.00    -0.004 C 
ATOM     31  CD2 TRP A   3      -4.509  -0.134  -0.167  0.00  0.00    +0.011 C 
ATOM     32  CE2 TRP A   3      -5.151   0.173   1.035  0.00  0.00    +0.048 C 
ATOM     33  CD1 TRP A   3      -3.607  -1.408   1.468  0.00  0.00    +0.058 C 
ATOM     34  CE3 TRP A   3      -4.905   0.541  -1.339  0.00  0.00    +0.001 C 
ATOM     35  CZ2 TRP A   3      -6.173   1.125   1.123  0.00  0.00    +0.015 C 
ATOM     36  CZ3 TRP A   3      -5.926   1.495  -1.265  0.00  0.00    +0.000 C 
ATOM     37  CH2 TRP A   3      -6.548   1.781  -0.052  0.00  0.00    +0.001 C 
ATOM     38  HE1 TRP A   3      -4.842  -0.610   2.960  0.00  0.00    +0.152 HD
ENDBRANCH  28  30
ENDBRANCH  23  28
ENDBRANCH   2  23
TORSDOF 11
