REMARK  Name = 101835682
REMARK  7 active torsions:
REMARK  status: ('A' for Active; 'I' for Inactive)
REMARK    1  A    between atoms: C_3  and  O_25
REMARK    2  A    between atoms: C_4  and  C_14
REMARK    3  A    between atoms: C_16  and  O_23
REMARK    4  A    between atoms: O_25  and  C_31
REMARK    5  A    between atoms: C_27  and  O_33
REMARK    6  A    between atoms: C_28  and  O_35
REMARK    7  A    between atoms: C_29  and  O_37
REMARK                            x       y       z     vdW  Elec       q    Type
REMARK                         _______ _______ _______ _____ _____    ______ ____
ROOT
ATOM      1  O   UNL     1      -3.526   0.268   0.349  0.00  0.00    -0.421 OA
ATOM      2  O   UNL     1      -5.780  -0.139   0.332  0.00  0.00    -0.244 OA
ATOM      3  C   UNL     1      -0.097   1.567   0.114  0.00  0.00    +0.144 C 
ATOM      4  C   UNL     1      -1.169   0.713   0.361  0.00  0.00    +0.075 C 
ATOM      5  C   UNL     1      -2.462   1.156   0.089  0.00  0.00    +0.152 C 
ATOM      6  C   UNL     1      -0.325   2.847  -0.397  0.00  0.00    +0.037 C 
ATOM      7  C   UNL     1      -2.708   2.428  -0.421  0.00  0.00    +0.035 C 
ATOM      8  C   UNL     1      -1.628   3.278  -0.665  0.00  0.00    +0.006 C 
ATOM      9  C   UNL     1      -4.082   2.824  -0.681  0.00  0.00    +0.010 C 
ATOM     10  C   UNL     1      -5.084   1.978  -0.432  0.00  0.00    +0.082 C 
ATOM     11  C   UNL     1      -4.849   0.626   0.108  0.00  0.00    +0.346 C 
ENDROOT
BRANCH   4  14
ATOM     12  O   UNL     1      -0.763  -1.454  -1.351  0.00  0.00    -0.421 OA
ATOM     13  O   UNL     1      -0.595  -2.268  -3.485  0.00  0.00    -0.244 OA
ATOM     14  C   UNL     1      -0.936  -0.618   0.891  0.00  0.00    +0.074 C 
ATOM     15  C   UNL     1      -0.734  -1.700   0.037  0.00  0.00    +0.152 C 
ATOM     16  C   UNL     1      -0.913  -0.830   2.267  0.00  0.00    +0.137 C 
ATOM     17  C   UNL     1      -0.510  -2.986   0.524  0.00  0.00    +0.035 C 
ATOM     18  C   UNL     1      -0.690  -2.113   2.774  0.00  0.00    +0.037 C 
ATOM     19  C   UNL     1      -0.489  -3.190   1.905  0.00  0.00    +0.006 C 
ATOM     20  C   UNL     1      -0.308  -4.068  -0.424  0.00  0.00    +0.010 C 
ATOM     21  C   UNL     1      -0.337  -3.827  -1.736  0.00  0.00    +0.082 C 
ATOM     22  C   UNL     1      -0.572  -2.474  -2.276  0.00  0.00    +0.346 C 
BRANCH  16  23
ATOM     23  O   UNL     1      -1.104   0.195   3.146  0.00  0.00    -0.505 OA
ATOM     24  H   UNL     1      -1.256   1.063   2.828  0.00  0.00    +0.292 HD
ENDBRANCH  16  23
ENDBRANCH   4  14
BRANCH   3  25
ATOM     25  O   UNL     1       1.193   1.181   0.364  0.00  0.00    -0.450 OA
BRANCH  25  31
ATOM     26  O   UNL     1       2.585  -0.139  -1.033  0.00  0.00    -0.319 OA
ATOM     27  C   UNL     1       4.166   1.614   0.602  0.00  0.00    +0.173 C 
ATOM     28  C   UNL     1       4.614   0.184   0.295  0.00  0.00    +0.167 C 
ATOM     29  C   UNL     1       3.236   2.143  -0.491  0.00  0.00    +0.210 C 
ATOM     30  C   UNL     1       3.392  -0.700   0.007  0.00  0.00    +0.148 C 
ATOM     31  C   UNL     1       2.085   1.171  -0.745  0.00  0.00    +0.318 C 
ATOM     32  C   UNL     1       3.795  -2.100  -0.448  0.00  0.00    +0.035 C 
BRANCH  27  33
ATOM     33  O   UNL     1       5.314   2.453   0.709  0.00  0.00    -0.379 OA
ATOM     34  H   UNL     1       5.899   2.112   1.404  0.00  0.00    +0.211 HD
ENDBRANCH  27  33
BRANCH  28  35
ATOM     35  O   UNL     1       5.326  -0.310   1.426  0.00  0.00    -0.379 OA
ATOM     36  H   UNL     1       6.094   0.257   1.598  0.00  0.00    +0.211 HD
ENDBRANCH  28  35
BRANCH  29  37
ATOM     37  O   UNL     1       3.957   2.292  -1.715  0.00  0.00    -0.377 OA
ATOM     38  H   UNL     1       4.696   2.906  -1.582  0.00  0.00    +0.211 HD
ENDBRANCH  29  37
ENDBRANCH  25  31
ENDBRANCH   3  25
TORSDOF 7
