REMARK  Name = 101880325
REMARK  7 active torsions:
REMARK  status: ('A' for Active; 'I' for Inactive)
REMARK    1  A    between atoms: CA_1  and  N_3
REMARK    2  A    between atoms: CA_1  and  C_17
REMARK    3  A    between atoms: CA_1  and  C_20
REMARK    4  A    between atoms: C_4  and  C_7
REMARK    5  A    between atoms: C_9  and  O_14
REMARK    6  A    between atoms: C_17  and  O_18
REMARK    7  A    between atoms: C_20  and  C_23
REMARK                            x       y       z     vdW  Elec       q    Type
REMARK                         _______ _______ _______ _____ _____    ______ ____
ROOT
ATOM      1  CA  UNL     1       0.303   2.510   0.773  0.00  0.00    +0.176 C 
ENDROOT
BRANCH   1   3
ATOM      2  O   UNL     1      -1.770   1.258   2.315  0.00  0.00    -0.270 OA
ATOM      3  N   UNL     1      -0.599   1.478   0.326  0.00  0.00    -0.293 N 
ATOM      4  C   UNL     1      -1.574   0.931   1.148  0.00  0.00    +0.249 C 
ATOM      5  H   UNL     1      -0.520   1.148  -0.599  0.00  0.00    +0.150 HD
BRANCH   4   7
ATOM      6 CL   UNL     1      -4.922  -0.627  -2.550  0.00  0.00    -0.083 Cl
ATOM      7  C   UNL     1      -2.406  -0.142   0.545  0.00  0.00    +0.084 C 
ATOM      8  C   UNL     1      -3.176   0.114  -0.589  0.00  0.00    -0.004 C 
ATOM      9  C   UNL     1      -2.413  -1.412   1.122  0.00  0.00    +0.138 C 
ATOM     10  C   UNL     1      -3.954  -0.901  -1.147  0.00  0.00    +0.054 C 
ATOM     11  C   UNL     1      -3.161   1.481  -1.200  0.00  0.00    +0.032 C 
ATOM     12  C   UNL     1      -3.191  -2.427   0.564  0.00  0.00    +0.038 C 
ATOM     13  C   UNL     1      -3.962  -2.171  -0.571  0.00  0.00    +0.014 C 
BRANCH   9  14
ATOM     14  O   UNL     1      -1.668  -1.685   2.230  0.00  0.00    -0.505 OA
ATOM     15  H   UNL     1      -1.140  -1.014   2.616  0.00  0.00    +0.292 HD
ENDBRANCH   9  14
ENDBRANCH   4   7
ENDBRANCH   1   3
BRANCH   1  17
ATOM     16  OXT UNL     1       1.328   4.474  -0.197  0.00  0.00    -0.248 OA
ATOM     17  C   UNL     1       0.643   3.469  -0.358  0.00  0.00    +0.332 C 
BRANCH  17  18
ATOM     18  O   UNL     1       0.132   3.129  -1.565  0.00  0.00    -0.479 OA
ATOM     19  H   UNL     1      -0.388   2.355  -1.652  0.00  0.00    +0.295 HD
ENDBRANCH  17  18
ENDBRANCH   1  17
BRANCH   1  20
ATOM     20  C   UNL     1       1.585   1.890   1.379  0.00  0.00    +0.059 C 
BRANCH  20  23
ATOM     21 CL   UNL     1       3.283  -4.627  -0.776  0.00  0.00    -0.082 Cl
ATOM     22  N   UNL     1       3.764   0.546  -1.226  0.00  0.00    -0.312 N 
ATOM     23  C   UNL     1       2.380   1.094   0.421  0.00  0.00    -0.004 C 
ATOM     24  C   UNL     1       2.426  -0.325   0.333  0.00  0.00    +0.011 C 
ATOM     25  C   UNL     1       3.302  -0.643  -0.708  0.00  0.00    +0.049 C 
ATOM     26  C   UNL     1       3.213   1.601  -0.550  0.00  0.00    +0.058 C 
ATOM     27  C   UNL     1       1.806  -1.373   1.041  0.00  0.00    +0.002 C 
ATOM     28  C   UNL     1       3.589  -1.962  -1.078  0.00  0.00    +0.026 C 
ATOM     29  C   UNL     1       2.083  -2.698   0.682  0.00  0.00    +0.011 C 
ATOM     30  C   UNL     1       2.961  -2.985  -0.361  0.00  0.00    +0.059 C 
ATOM     31  H   UNL     1       4.399   0.626  -1.974  0.00  0.00    +0.152 HD
ENDBRANCH  20  23
ENDBRANCH   1  20
TORSDOF 7
