REMARK  Name = 101894326
REMARK  4 active torsions:
REMARK  status: ('A' for Active; 'I' for Inactive)
REMARK    1  A    between atoms: C_4  and  C_19
REMARK    2  A    between atoms: C_14  and  O_22
REMARK    3  A    between atoms: C_15  and  O_24
REMARK    4  A    between atoms: C_19  and  O_20
REMARK                            x       y       z     vdW  Elec       q    Type
REMARK                         _______ _______ _______ _____ _____    ______ ____
ROOT
ATOM      1  O   UNL     1       1.163   0.865   1.497  0.00  0.00    -0.328 OA
ATOM      2  O   UNL     1       2.835   1.794   0.173  0.00  0.00    -0.328 OA
ATOM      3  O   UNL     1      -1.647  -2.626   1.144  0.00  0.00    -0.291 OA
ATOM      4  C   UNL     1       1.294  -0.849  -0.205  0.00  0.00    +0.126 C 
ATOM      5  C   UNL     1       0.789   0.596   0.126  0.00  0.00    +0.154 C 
ATOM      6  C   UNL     1       2.820  -0.999   0.055  0.00  0.00    +0.019 C 
ATOM      7  C   UNL     1       2.574   1.098   1.396  0.00  0.00    +0.235 C 
ATOM      8  C   UNL     1       1.612   1.692  -0.575  0.00  0.00    +0.177 C 
ATOM      9  C   UNL     1       0.565  -1.889   0.663  0.00  0.00    +0.083 C 
ATOM     10  C   UNL     1       3.269  -0.258   1.321  0.00  0.00    +0.062 C 
ATOM     11  C   UNL     1      -0.724   0.693   0.029  0.00  0.00    +0.044 C 
ATOM     12  C   UNL     1      -1.532  -0.419   0.333  0.00  0.00    +0.070 C 
ATOM     13  C   UNL     1      -0.932  -1.715   0.732  0.00  0.00    +0.176 C 
ATOM     14  C   UNL     1      -1.381   1.886  -0.324  0.00  0.00    +0.132 C 
ATOM     15  C   UNL     1      -2.933  -0.339   0.270  0.00  0.00    +0.136 C 
ATOM     16  C   UNL     1      -2.776   1.964  -0.389  0.00  0.00    +0.039 C 
ATOM     17  C   UNL     1      -3.552   0.852  -0.093  0.00  0.00    +0.040 C 
ENDROOT
BRANCH   4  19
ATOM     18  O   UNL     1       0.511  -0.432  -2.469  0.00  0.00    -0.250 OA
ATOM     19  C   UNL     1       1.053  -1.175  -1.664  0.00  0.00    +0.316 C 
BRANCH  19  20
ATOM     20  O   UNL     1       1.519  -2.413  -1.961  0.00  0.00    -0.480 OA
ATOM     21  H   UNL     1       1.925  -2.933  -1.296  0.00  0.00    +0.295 HD
ENDBRANCH  19  20
ENDBRANCH   4  19
BRANCH  14  22
ATOM     22  O   UNL     1      -0.775   3.072  -0.600  0.00  0.00    -0.506 OA
ATOM     23  H   UNL     1       0.160   3.135  -0.586  0.00  0.00    +0.292 HD
ENDBRANCH  14  22
BRANCH  15  24
ATOM     24  O   UNL     1      -3.752  -1.397   0.538  0.00  0.00    -0.505 OA
ATOM     25  H   UNL     1      -3.385  -2.222   0.787  0.00  0.00    +0.292 HD
ENDBRANCH  15  24
TORSDOF 4
