101892540
  -OEChem-03292013293D

 57 59  0     1  0  0  0  0  0999 V2000
    0.9175   -0.4756    1.2026 O   0  0  0  0  0  0  0  0  0  0  0  0
    0.6252   -1.5204   -2.1617 O   0  0  0  0  0  0  0  0  0  0  0  0
   -0.2938   -3.5329   -1.6971 O   0  0  0  0  0  0  0  0  0  0  0  0
    2.3851    1.7685   -1.7372 O   0  0  0  0  0  0  0  0  0  0  0  0
   -0.7671   -0.2161   -0.3720 N   0  0  0  0  0  0  0  0  0  0  0  0
   -4.5832   -0.6155    2.0102 N   0  0  0  0  0  0  0  0  0  0  0  0
    1.8477    2.0182    0.5049 N   0  0  0  0  0  0  0  0  0  0  0  0
    4.4892    3.5969   -0.8669 N   0  0  0  0  0  0  0  0  0  0  0  0
   -2.5956   -1.7823   -0.8633 C   0  0  0  0  0  0  0  0  0  0  0  0
   -1.1198   -1.6126   -0.4802 C   0  0  1  0  0  0  0  0  0  0  0  0
   -3.5378   -1.1333    0.1218 C   0  0  0  0  0  0  0  0  0  0  0  0
   -4.5090   -0.1341   -0.1670 C   0  0  0  0  0  0  0  0  0  0  0  0
    0.4377    1.7455    0.3599 C   0  0  1  0  0  0  0  0  0  0  0  0
   -5.1507    0.1730    1.0347 C   0  0  0  0  0  0  0  0  0  0  0  0
   -3.6075   -1.4083    1.4680 C   0  0  0  0  0  0  0  0  0  0  0  0
    0.2357    0.2402    0.4720 C   0  0  0  0  0  0  0  0  0  0  0  0
    4.1492    2.3497   -0.1810 C   0  0  2  0  0  0  0  0  0  0  0  0
    5.1149    1.2366   -0.6130 C   0  0  0  0  0  0  0  0  0  0  0  0
   -4.9048    0.5406   -1.3389 C   0  0  0  0  0  0  0  0  0  0  0  0
   -0.2356   -2.3247   -1.4933 C   0  0  0  0  0  0  0  0  0  0  0  0
    2.7164    2.0060   -0.5766 C   0  0  0  0  0  0  0  0  0  0  0  0
   -0.3789    2.4832    1.4093 C   0  0  0  0  0  0  0  0  0  0  0  0
   -6.1727    1.1249    1.1234 C   0  0  0  0  0  0  0  0  0  0  0  0
    4.8310   -0.0827    0.0663 C   0  0  0  0  0  0  0  0  0  0  0  0
   -5.9257    1.4953   -1.2653 C   0  0  0  0  0  0  0  0  0  0  0  0
   -6.5485    1.7813   -0.0521 C   0  0  0  0  0  0  0  0  0  0  0  0
    5.4490   -0.3906    1.2781 C   0  0  0  0  0  0  0  0  0  0  0  0
    3.9506   -0.9927   -0.5188 C   0  0  0  0  0  0  0  0  0  0  0  0
    5.1868   -1.6089    1.9051 C   0  0  0  0  0  0  0  0  0  0  0  0
    3.6883   -2.2108    0.1081 C   0  0  0  0  0  0  0  0  0  0  0  0
    4.3065   -2.5189    1.3200 C   0  0  0  0  0  0  0  0  0  0  0  0
   -2.7639   -1.3730   -1.8674 H   0  0  0  0  0  0  0  0  0  0  0  0
   -2.8450   -2.8497   -0.9260 H   0  0  0  0  0  0  0  0  0  0  0  0
   -0.9155   -2.0834    0.4896 H   0  0  0  0  0  0  0  0  0  0  0  0
    0.1270    2.0836   -0.6359 H   0  0  0  0  0  0  0  0  0  0  0  0
   -1.2329    0.4416   -0.9907 H   0  0  0  0  0  0  0  0  0  0  0  0
   -3.0529   -2.0964    2.0906 H   0  0  0  0  0  0  0  0  0  0  0  0
    4.2269    2.5083    0.9007 H   0  0  0  0  0  0  0  0  0  0  0  0
   -4.8491   -0.6094    2.9852 H   0  0  0  0  0  0  0  0  0  0  0  0
    5.0757    1.0885   -1.7014 H   0  0  0  0  0  0  0  0  0  0  0  0
    6.1503    1.5324   -0.3958 H   0  0  0  0  0  0  0  0  0  0  0  0
    2.2146    2.1556    1.4421 H   0  0  0  0  0  0  0  0  0  0  0  0
   -4.4312    0.3323   -2.2939 H   0  0  0  0  0  0  0  0  0  0  0  0
   -0.0992    2.1716    2.4222 H   0  0  0  0  0  0  0  0  0  0  0  0
   -0.2217    3.5647    1.3377 H   0  0  0  0  0  0  0  0  0  0  0  0
   -1.4483    2.2814    1.2855 H   0  0  0  0  0  0  0  0  0  0  0  0
   -6.6581    1.3483    2.0675 H   0  0  0  0  0  0  0  0  0  0  0  0
   -6.2350    2.0190   -2.1660 H   0  0  0  0  0  0  0  0  0  0  0  0
   -7.3391    2.5266   -0.0178 H   0  0  0  0  0  0  0  0  0  0  0  0
    5.4497    3.8572   -0.6462 H   0  0  0  0  0  0  0  0  0  0  0  0
    3.9027    4.3518   -0.5125 H   0  0  0  0  0  0  0  0  0  0  0  0
    6.1349    0.3114    1.7448 H   0  0  0  0  0  0  0  0  0  0  0  0
    3.4686   -0.7728   -1.4670 H   0  0  0  0  0  0  0  0  0  0  0  0
    1.1756   -2.0217   -2.8004 H   0  0  0  0  0  0  0  0  0  0  0  0
    5.6675   -1.8484    2.8491 H   0  0  0  0  0  0  0  0  0  0  0  0
    3.0034   -2.9197   -0.3480 H   0  0  0  0  0  0  0  0  0  0  0  0
    4.1019   -3.4673    1.8081 H   0  0  0  0  0  0  0  0  0  0  0  0
  1 16  2  0  0  0  0
  2 20  1  0  0  0  0
  2 54  1  0  0  0  0
  3 20  2  0  0  0  0
  4 21  2  0  0  0  0
  5 10  1  0  0  0  0
  5 16  1  0  0  0  0
  5 36  1  0  0  0  0
  6 14  1  0  0  0  0
  6 15  1  0  0  0  0
  6 39  1  0  0  0  0
  7 13  1  0  0  0  0
  7 21  1  0  0  0  0
  7 42  1  0  0  0  0
  8 17  1  0  0  0  0
  8 50  1  0  0  0  0
  8 51  1  0  0  0  0
  9 10  1  0  0  0  0
  9 11  1  0  0  0  0
  9 32  1  0  0  0  0
  9 33  1  0  0  0  0
 10 20  1  0  0  0  0
 10 34  1  0  0  0  0
 11 12  1  0  0  0  0
 11 15  2  0  0  0  0
 12 14  1  0  0  0  0
 12 19  2  0  0  0  0
 13 16  1  0  0  0  0
 13 22  1  0  0  0  0
 13 35  1  0  0  0  0
 14 23  2  0  0  0  0
 15 37  1  0  0  0  0
 17 18  1  0  0  0  0
 17 21  1  0  0  0  0
 17 38  1  0  0  0  0
 18 24  1  0  0  0  0
 18 40  1  0  0  0  0
 18 41  1  0  0  0  0
 19 25  1  0  0  0  0
 19 43  1  0  0  0  0
 22 44  1  0  0  0  0
 22 45  1  0  0  0  0
 22 46  1  0  0  0  0
 23 26  1  0  0  0  0
 23 47  1  0  0  0  0
 24 27  2  0  0  0  0
 24 28  1  0  0  0  0
 25 26  2  0  0  0  0
 25 48  1  0  0  0  0
 26 49  1  0  0  0  0
 27 29  1  0  0  0  0
 27 52  1  0  0  0  0
 28 30  2  0  0  0  0
 28 53  1  0  0  0  0
 29 31  2  0  0  0  0
 29 55  1  0  0  0  0
 30 31  1  0  0  0  0
 30 56  1  0  0  0  0
 31 57  1  0  0  0  0
M  END
> <PUBCHEM_COMPOUND_CID>
101892540

> <PUBCHEM_CONFORMER_RMSD>
1.2

> <PUBCHEM_CONFORMER_DIVERSEORDER>
1
18
70
203
227
14
202
59
226
34
45
180
222
75
137
9
190
58
109
242
50
182
42
48
146
231
23
53
188
160
13
237
162
141
8
258
76
175
31
244
230
37
224
51
223
174
206
46
184
49
4
44
200
156
124
12
100
178
105
116
152
186
240
171
221
246
272
250
167
187
136
101
181
113
112
85
168
97
99
32
179
254
134
3
234
153
150
269
228
235
245
247
198
35
257
211
29
102
268
270
92
155
28
30
96
165
86
148
108
133
17
19
94
215
127
216
232
87
264
144
261
163
115
238
170
219
218
117
54
71
80
67
229
159
260
263
255
212
131
169
55
176
195
225
183
164
93
214
40
217
22
20
173
78
118
149
106
192
43
104
73
209
25
110
166
177
27
147
60
38
252
68
241
88
145
140
157
98
204
142
138
267
72
33
15
248
81
256
47
243
64
66
249
5
36
107
52
220
207
79
126
189
205
197
154
129
24
83
62
77
11
196
251
123
130
41
239
265
16
120
208
95
56
57
6
143
91
61
122
82
65
121
128
89
135
236
10
194
84
161
119
266
74
271
90
125
210
185
132
158
213
233
111
172
69
26
63
199
21
39
191
139
259
114
253
2
103
193
7
151
201
262

> <PUBCHEM_MMFF94_PARTIAL_CHARGES>
45
1 -0.57
10 0.36
11 -0.18
13 0.36
14 -0.15
15 -0.3
16 0.57
17 0.33
18 0.14
19 -0.15
2 -0.65
20 0.66
21 0.57
23 -0.15
24 -0.14
25 -0.15
26 -0.15
27 -0.15
28 -0.15
29 -0.15
3 -0.57
30 -0.15
31 -0.15
36 0.37
37 0.15
39 0.27
4 -0.57
42 0.37
43 0.15
47 0.15
48 0.15
49 0.15
5 -0.73
50 0.36
51 0.36
52 0.15
53 0.15
54 0.5
55 0.15
56 0.15
57 0.15
6 0.03
7 -0.73
8 -0.99
9 0.18

> <PUBCHEM_EFFECTIVE_ROTOR_COUNT>
11

> <PUBCHEM_PHARMACOPHORE_FEATURES>
14
1 1 acceptor
1 2 acceptor
1 3 acceptor
1 4 acceptor
1 5 donor
1 6 cation
1 6 donor
1 7 donor
1 8 cation
1 8 donor
3 2 3 20 anion
5 6 11 12 14 15 rings
6 12 14 19 23 25 26 rings
6 24 27 28 29 30 31 rings

> <PUBCHEM_HEAVY_ATOM_COUNT>
31

> <PUBCHEM_ATOM_DEF_STEREO_COUNT>
3

> <PUBCHEM_ATOM_UDEF_STEREO_COUNT>
0

> <PUBCHEM_BOND_DEF_STEREO_COUNT>
0

> <PUBCHEM_BOND_UDEF_STEREO_COUNT>
0

> <PUBCHEM_ISOTOPIC_ATOM_COUNT>
0

> <PUBCHEM_COMPONENT_COUNT>
1

> <PUBCHEM_CACTVS_TAUTO_COUNT>
88

> <PUBCHEM_CONFORMER_ID>
0612C1BC00000001

> <PUBCHEM_MMFF94_ENERGY>
58.8696

> <PUBCHEM_FEATURE_SELFOVERLAP>
71.199

> <PUBCHEM_SHAPE_FINGERPRINT>
10319926 262 17095816455860184211
10906281 52 18200887175518410667
11578080 2 16372157549121821382
11756154 67 17761776166117175066
12128747 34 17603864447452512947
12422481 6 18334289847031401429
12788726 201 17775301468628929640
13583140 156 18120948462025501187
13782708 43 17531256071388753459
13785724 45 18194405477169242414
14117953 113 18272088241535272726
14790565 3 18343587373116408245
15142383 8 17895186671628635132
15183329 4 18342176665713195549
15348495 7 17894916234670649651
20511986 3 18129093588904568544
20715895 44 18342456997964452359
21315759 148 17386297609117190721
21421861 104 18408885161910401616
21792965 106 18269834224801817369
21814621 53 17240483563833612825
22122407 14 18335426738065444769
3680242 22 18411697647750084970
4098825 35 16805323284773274140
460360 51 18266197061979976529
6086070 43 17917423289457710969
8509985 295 18272087201598902356

> <PUBCHEM_SHAPE_MULTIPOLES>
594.56
15.78
3.46
1.77
9.93
0.47
-0.01
4.34
-3.22
-3.38
0.86
0.32
-0.63
-1.41

> <PUBCHEM_SHAPE_SELFOVERLAP>
1266.614

> <PUBCHEM_SHAPE_VOLUME>
329.1

> <PUBCHEM_COORDINATE_TYPE>
2
5
10

$$$$
