REMARK  Name = 101844051
REMARK  10 active torsions:
REMARK  status: ('A' for Active; 'I' for Inactive)
REMARK    1  A    between atoms: C_5  and  O_33
REMARK    2  A    between atoms: C_6  and  C_13
REMARK    3  A    between atoms: C_7  and  O_11
REMARK    4  A    between atoms: C_8  and  C_17
REMARK    5  A    between atoms: C_13  and  O_15
REMARK    6  A    between atoms: C_18  and  C_19
REMARK    7  A    between atoms: C_20  and  C_21
REMARK    8  A    between atoms: C_22  and  C_25
REMARK    9  A    between atoms: C_27  and  O_31
REMARK   10  A    between atoms: O_33  and  C_35
REMARK                            x       y       z     vdW  Elec       q    Type
REMARK                         _______ _______ _______ _____ _____    ______ ____
ROOT
ATOM      1  O   UNL     1       5.117   1.292   1.052  0.00  0.00    -0.350 OA
ATOM      2  O   UNL     1       3.226  -0.024  -0.884  0.00  0.00    -0.348 OA
ATOM      3  C   UNL     1       4.664  -0.012  -0.863  0.00  0.00    +0.159 C 
ATOM      4  C   UNL     1       4.787  -0.068   1.448  0.00  0.00    +0.159 C 
ATOM      5  C   UNL     1       5.142  -0.947   0.241  0.00  0.00    +0.222 C 
ATOM      6  C   UNL     1       5.254   1.323  -0.386  0.00  0.00    +0.170 C 
ATOM      7  C   UNL     1       3.254  -0.151   1.607  0.00  0.00    +0.170 C 
ATOM      8  C   UNL     1       2.544   0.323   0.326  0.00  0.00    +0.166 C 
ATOM      9  C   UNL     1       5.131  -0.392  -2.262  0.00  0.00    +0.036 C 
ATOM     10  C   UNL     1       5.548  -0.402   2.724  0.00  0.00    +0.036 C 
ENDROOT
BRANCH   7  11
ATOM     11  O   UNL     1       2.806   0.661   2.690  0.00  0.00    -0.379 OA
ATOM     12  H   UNL     1       3.242   0.378   3.509  0.00  0.00    +0.211 HD
ENDBRANCH   7  11
BRANCH   6  13
ATOM     13  C   UNL     1       4.675   2.599  -0.970  0.00  0.00    +0.140 C 
ATOM     14  C   UNL     1       5.008   3.816  -0.118  0.00  0.00    +0.034 C 
BRANCH  13  15
ATOM     15  O   UNL     1       5.191   2.793  -2.284  0.00  0.00    -0.382 OA
ATOM     16  H   UNL     1       4.982   2.020  -2.831  0.00  0.00    +0.210 HD
ENDBRANCH  13  15
ENDBRANCH   6  13
BRANCH   8  17
ATOM     17  C   UNL     1       1.161  -0.246   0.235  0.00  0.00    +0.005 C 
ATOM     18  C   UNL     1      -0.011   0.408   0.195  0.00  0.00    -0.002 C 
BRANCH  18  19
ATOM     19  C   UNL     1      -1.330  -0.178   0.106  0.00  0.00    -0.000 C 
ATOM     20  C   UNL     1      -2.451   0.560   0.071  0.00  0.00    +0.000 C 
BRANCH  20  21
ATOM     21  C   UNL     1      -3.774  -0.019  -0.018  0.00  0.00    +0.003 C 
ATOM     22  C   UNL     1      -4.892   0.720  -0.053  0.00  0.00    +0.037 C 
BRANCH  22  25
ATOM     23  O   UNL     1      -6.161  -1.264  -0.187  0.00  0.00    -0.421 OA
ATOM     24  O   UNL     1      -7.259  -3.248  -0.315  0.00  0.00    -0.244 OA
ATOM     25  C   UNL     1      -6.209   0.154  -0.142  0.00  0.00    +0.148 C 
ATOM     26  C   UNL     1      -7.378   0.824  -0.182  0.00  0.00    +0.047 C 
ATOM     27  C   UNL     1      -8.596   0.038  -0.274  0.00  0.00    +0.144 C 
ATOM     28  C   UNL     1      -7.496   2.326  -0.139  0.00  0.00    +0.037 C 
ATOM     29  C   UNL     1      -7.292  -2.023  -0.275  0.00  0.00    +0.349 C 
ATOM     30  C   UNL     1      -8.572  -1.299  -0.318  0.00  0.00    +0.119 C 
BRANCH  27  31
ATOM     31  O   UNL     1      -9.823   0.679  -0.317  0.00  0.00    -0.471 OA
ATOM     32  C   UNL     1     -10.333   0.864   0.988  0.00  0.00    +0.252 C 
ENDBRANCH  27  31
ENDBRANCH  22  25
ENDBRANCH  20  21
ENDBRANCH  18  19
ENDBRANCH   8  17
BRANCH   5  33
ATOM     33  O   UNL     1       6.541  -1.180   0.176  0.00  0.00    -0.447 OA
BRANCH  33  35
ATOM     34  O   UNL     1       6.180  -3.156  -0.964  0.00  0.00    -0.250 OA
ATOM     35  C   UNL     1       6.926  -2.329  -0.458  0.00  0.00    +0.318 C 
ATOM     36  C   UNL     1       8.421  -2.442  -0.450  0.00  0.00    +0.121 C 
ENDBRANCH  33  35
ENDBRANCH   5  33
TORSDOF 10
