REMARK  Name = 101888873
REMARK  6 active torsions:
REMARK  status: ('A' for Active; 'I' for Inactive)
REMARK    1  A    between atoms: C_7  and  O_31
REMARK    2  A    between atoms: C_10  and  C_24
REMARK    3  A    between atoms: C_16  and  O_33
REMARK    4  A    between atoms: C_18  and  O_35
REMARK    5  A    between atoms: C_20  and  O_37
REMARK    6  A    between atoms: C_26  and  O_29
REMARK                            x       y       z     vdW  Elec       q    Type
REMARK                         _______ _______ _______ _____ _____    ______ ____
ROOT
ATOM      1  O   UNL     1       2.699  -2.453   0.019  0.00  0.00    -0.286 OA
ATOM      2  O   UNL     1       3.589   2.815  -0.011  0.00  0.00    -0.287 OA
ATOM      3  C   UNL     1      -0.640   0.112   0.045  0.00  0.00    +0.030 C 
ATOM      4  C   UNL     1       1.764  -0.290   0.022  0.00  0.00    +0.076 C 
ATOM      5  C   UNL     1      -0.402   1.506   0.038  0.00  0.00    +0.006 C 
ATOM      6  C   UNL     1       2.000   1.084   0.014  0.00  0.00    +0.045 C 
ATOM      7  C   UNL     1       0.450  -0.774   0.037  0.00  0.00    +0.136 C 
ATOM      8  C   UNL     1      -1.964  -0.357   0.060  0.00  0.00    -0.013 C 
ATOM      9  C   UNL     1       0.921   1.978   0.022  0.00  0.00    +0.004 C 
ATOM     10  C   UNL     1      -3.037   0.534   0.068  0.00  0.00    +0.065 C 
ATOM     11  C   UNL     1       4.274  -0.722  -0.003  0.00  0.00    +0.076 C 
ATOM     12  C   UNL     1       2.893  -1.244   0.013  0.00  0.00    +0.202 C 
ATOM     13  C   UNL     1       4.510   0.655  -0.012  0.00  0.00    +0.048 C 
ATOM     14  C   UNL     1       3.381   1.608  -0.003  0.00  0.00    +0.196 C 
ATOM     15  C   UNL     1      -1.494   2.389   0.046  0.00  0.00    +0.037 C 
ATOM     16  C   UNL     1      -2.802   1.906   0.060  0.00  0.00    +0.136 C 
ATOM     17  C   UNL     1      -2.310  -1.821   0.068  0.00  0.00    +0.031 C 
ATOM     18  C   UNL     1       5.352  -1.615  -0.011  0.00  0.00    +0.140 C 
ATOM     19  C   UNL     1       5.824   1.138  -0.029  0.00  0.00    +0.040 C 
ATOM     20  C   UNL     1       6.895   0.244  -0.036  0.00  0.00    +0.137 C 
ATOM     21  C   UNL     1       6.660  -1.129  -0.027  0.00  0.00    +0.073 C 
ENDROOT
BRANCH  10  24
ATOM     22  O   UNL     1      -5.009  -0.134  -1.200  0.00  0.00    -0.421 OA
ATOM     23  O   UNL     1      -6.814  -0.736  -2.443  0.00  0.00    -0.244 OA
ATOM     24  C   UNL     1      -4.429   0.048   0.083  0.00  0.00    +0.154 C 
ATOM     25  C   UNL     1      -5.129  -0.197   1.200  0.00  0.00    +0.074 C 
ATOM     26  C   UNL     1      -6.482  -0.660   1.088  0.00  0.00    +0.143 C 
ATOM     27  C   UNL     1      -6.298  -0.572  -1.343  0.00  0.00    +0.349 C 
ATOM     28  C   UNL     1      -7.057  -0.845  -0.106  0.00  0.00    +0.119 C 
BRANCH  26  29
ATOM     29  O   UNL     1      -7.122  -0.891   2.283  0.00  0.00    -0.505 OA
ATOM     30  H   UNL     1      -6.672  -0.745   3.091  0.00  0.00    +0.292 HD
ENDBRANCH  26  29
ENDBRANCH  10  24
BRANCH   7  31
ATOM     31  O   UNL     1       0.240  -2.125   0.044  0.00  0.00    -0.505 OA
ATOM     32  H   UNL     1      -0.634  -2.463   0.054  0.00  0.00    +0.292 HD
ENDBRANCH   7  31
BRANCH  16  33
ATOM     33  O   UNL     1      -3.829   2.804   0.067  0.00  0.00    -0.505 OA
ATOM     34  H   UNL     1      -4.716   2.501   0.077  0.00  0.00    +0.292 HD
ENDBRANCH  16  33
BRANCH  18  35
ATOM     35  O   UNL     1       5.197  -2.970  -0.002  0.00  0.00    -0.505 OA
ATOM     36  H   UNL     1       4.337  -3.343   0.009  0.00  0.00    +0.292 HD
ENDBRANCH  18  35
BRANCH  20  37
ATOM     37  O   UNL     1       8.172   0.715  -0.053  0.00  0.00    -0.505 OA
ATOM     38  H   UNL     1       8.332   1.638  -0.059  0.00  0.00    +0.292 HD
ENDBRANCH  20  37
TORSDOF 6
