REMARK  Name = 101881880
REMARK  3 active torsions:
REMARK  status: ('A' for Active; 'I' for Inactive)
REMARK    1  A    between atoms: C_8  and  C_34
REMARK    2  A    between atoms: C_9  and  O_31
REMARK    3  A    between atoms: C_34  and  O_35
REMARK                            x       y       z     vdW  Elec       q    Type
REMARK                         _______ _______ _______ _____ _____    ______ ____
ROOT
ATOM      1  O   UNL     1      -0.045  -1.065  -1.804  0.00  0.00    -0.339 OA
ATOM      2  O   UNL     1      -2.442  -0.169  -1.370  0.00  0.00    -0.351 OA
ATOM      3  O   UNL     1       1.139  -3.034   0.509  0.00  0.00    -0.289 OA
ATOM      4  O   UNL     1       2.098   1.238  -2.576  0.00  0.00    -0.289 OA
ATOM      5  O   UNL     1      -0.286  -0.613   2.879  0.00  0.00    -0.291 OA
ATOM      6  C   UNL     1       0.237  -1.066  -0.396  0.00  0.00    +0.198 C 
ATOM      7  C   UNL     1       0.512   0.135  -1.245  0.00  0.00    +0.206 C 
ATOM      8  C   UNL     1      -0.932  -0.697   0.532  0.00  0.00    +0.205 C 
ATOM      9  C   UNL     1      -0.479   1.213  -0.799  0.00  0.00    +0.166 C 
ATOM     10  C   UNL     1      -1.707   0.413  -0.256  0.00  0.00    +0.158 C 
ATOM     11  C   UNL     1       0.180   1.955   0.363  0.00  0.00    +0.010 C 
ATOM     12  C   UNL     1       1.355  -1.942   0.003  0.00  0.00    +0.201 C 
ATOM     13  C   UNL     1       1.888   0.416  -1.695  0.00  0.00    +0.203 C 
ATOM     14  C   UNL     1      -0.328  -0.045   1.793  0.00  0.00    +0.188 C 
ATOM     15  C   UNL     1      -2.744   1.187   0.499  0.00  0.00    +0.002 C 
ATOM     16  C   UNL     1       0.267   1.318   1.624  0.00  0.00    +0.034 C 
ATOM     17  C   UNL     1      -3.825   0.245  -1.315  0.00  0.00    +0.111 C 
ATOM     18  C   UNL     1       2.732  -1.439  -0.219  0.00  0.00    +0.040 C 
ATOM     19  C   UNL     1       2.986  -0.319  -1.026  0.00  0.00    +0.040 C 
ATOM     20  C   UNL     1      -3.930   1.090  -0.096  0.00  0.00    -0.002 C 
ATOM     21  C   UNL     1       0.748   3.225   0.209  0.00  0.00    -0.002 C 
ATOM     22  C   UNL     1       0.891   1.948   2.702  0.00  0.00    +0.003 C 
ATOM     23  C   UNL     1      -4.698  -1.004  -1.221  0.00  0.00    +0.034 C 
ATOM     24  C   UNL     1      -4.147   1.033  -2.582  0.00  0.00    +0.034 C 
ATOM     25  C   UNL     1       3.799  -2.119   0.381  0.00  0.00    +0.003 C 
ATOM     26  C   UNL     1       4.302   0.111  -1.227  0.00  0.00    +0.003 C 
ATOM     27  C   UNL     1       1.373   3.852   1.289  0.00  0.00    -0.000 C 
ATOM     28  C   UNL     1       1.442   3.217   2.530  0.00  0.00    +0.000 C 
ATOM     29  C   UNL     1       5.108  -1.681   0.180  0.00  0.00    +0.000 C 
ATOM     30  C   UNL     1       5.359  -0.569  -0.621  0.00  0.00    +0.000 C 
ENDROOT
BRANCH   9  31
ATOM     31  O   UNL     1      -0.832   2.059  -1.878  0.00  0.00    -0.377 OA
ATOM     32  H   UNL     1      -1.244   1.532  -2.581  0.00  0.00    +0.211 HD
ENDBRANCH   9  31
BRANCH   8  34
ATOM     33  O   UNL     1      -1.600  -3.008   0.406  0.00  0.00    -0.249 OA
ATOM     34  C   UNL     1      -1.808  -1.877   0.826  0.00  0.00    +0.329 C 
BRANCH  34  35
ATOM     35  O   UNL     1      -2.847  -1.487   1.619  0.00  0.00    -0.444 OA
ATOM     36  C   UNL     1      -3.767  -2.522   1.980  0.00  0.00    +0.256 C 
ENDBRANCH  34  35
ENDBRANCH   8  34
TORSDOF 3
