101808989
  -OEChem-03292013293D

 56 56  0     1  0  0  0  0  0999 V2000
    1.6516    0.0233   -1.8336 O   0  0  0  0  0  0  0  0  0  0  0  0
    0.8300   -1.1634    1.5385 O   0  0  0  0  0  0  0  0  0  0  0  0
   -0.2970   -1.9692   -1.5781 O   0  0  0  0  0  0  0  0  0  0  0  0
    2.8701    0.8896    1.3552 O   0  0  0  0  0  0  0  0  0  0  0  0
   -3.5812    0.6131   -0.0194 O   0  0  0  0  0  0  0  0  0  0  0  0
    1.7873    2.3087   -1.5250 O   0  0  0  0  0  0  0  0  0  0  0  0
    0.7898   -3.4402    1.1497 O   0  0  0  0  0  0  0  0  0  0  0  0
   -2.3440   -2.6442   -0.7471 O   0  0  0  0  0  0  0  0  0  0  0  0
    4.9555    1.4831    0.5580 O   0  0  0  0  0  0  0  0  0  0  0  0
   -4.9719    0.0063    1.6655 O   0  0  0  0  0  0  0  0  0  0  0  0
    0.8735   -0.0973   -0.6382 C   0  0  2  0  0  0  0  0  0  0  0  0
    1.6391   -0.9720    0.3777 C   0  0  1  0  0  0  0  0  0  0  0  0
   -0.5050   -0.6587   -1.0391 C   0  0  1  0  0  0  0  0  0  0  0  0
    3.0133   -0.4099    0.7893 C   0  0  2  0  0  0  0  0  0  0  0  0
   -1.2007    0.1643   -2.0857 C   0  0  0  0  0  0  0  0  0  0  0  0
    3.7106   -1.3008    1.8129 C   0  0  0  0  0  0  0  0  0  0  0  0
   -2.5059    1.4931   -0.4148 C   0  0  1  0  0  0  0  0  0  0  0  0
   -2.0934    1.1241   -1.8024 C   0  0  0  0  0  0  0  0  0  0  0  0
   -2.9485    2.9482   -0.3287 C   0  0  0  0  0  0  0  0  0  0  0  0
    2.0397    1.2902   -2.1543 C   0  0  0  0  0  0  0  0  0  0  0  0
    0.4784   -2.4549    1.8050 C   0  0  0  0  0  0  0  0  0  0  0  0
   -1.3037   -2.8602   -1.3539 C   0  0  0  0  0  0  0  0  0  0  0  0
    3.9230    1.7388    1.1624 C   0  0  0  0  0  0  0  0  0  0  0  0
   -3.5674    3.1893    1.0065 C   0  0  0  0  0  0  0  0  0  0  0  0
    2.8410    1.2630   -3.4206 C   0  0  0  0  0  0  0  0  0  0  0  0
   -0.3644   -2.5026    3.0433 C   0  0  0  0  0  0  0  0  0  0  0  0
   -4.2612    0.8521    1.1337 C   0  0  0  0  0  0  0  0  0  0  0  0
   -4.1424    2.2060    1.7048 C   0  0  0  0  0  0  0  0  0  0  0  0
   -0.9502   -4.1797   -1.9703 C   0  0  0  0  0  0  0  0  0  0  0  0
    3.6339    3.0598    1.8086 C   0  0  0  0  0  0  0  0  0  0  0  0
    0.6886    0.8749   -0.1630 H   0  0  0  0  0  0  0  0  0  0  0  0
    1.8597   -1.9238   -0.1240 H   0  0  0  0  0  0  0  0  0  0  0  0
   -1.1098   -0.7364   -0.1288 H   0  0  0  0  0  0  0  0  0  0  0  0
    3.6333   -0.3681   -0.1155 H   0  0  0  0  0  0  0  0  0  0  0  0
   -0.9581   -0.0250   -3.1287 H   0  0  0  0  0  0  0  0  0  0  0  0
    3.1801   -1.3005    2.7712 H   0  0  0  0  0  0  0  0  0  0  0  0
    4.7205   -0.9316    2.0213 H   0  0  0  0  0  0  0  0  0  0  0  0
    3.7928   -2.3310    1.4533 H   0  0  0  0  0  0  0  0  0  0  0  0
   -1.6795    1.3402    0.2907 H   0  0  0  0  0  0  0  0  0  0  0  0
   -2.5601    1.6474   -2.6334 H   0  0  0  0  0  0  0  0  0  0  0  0
   -3.6874    3.1987   -1.0997 H   0  0  0  0  0  0  0  0  0  0  0  0
   -2.0856    3.6101   -0.4664 H   0  0  0  0  0  0  0  0  0  0  0  0
   -3.5461    4.1961    1.4118 H   0  0  0  0  0  0  0  0  0  0  0  0
    2.2312    0.8669   -4.2364 H   0  0  0  0  0  0  0  0  0  0  0  0
    3.1479    2.2810   -3.6773 H   0  0  0  0  0  0  0  0  0  0  0  0
    3.7375    0.6544   -3.2781 H   0  0  0  0  0  0  0  0  0  0  0  0
    0.2029   -2.1139    3.8927 H   0  0  0  0  0  0  0  0  0  0  0  0
   -0.6414   -3.5395    3.2538 H   0  0  0  0  0  0  0  0  0  0  0  0
   -1.2778   -1.9220    2.8910 H   0  0  0  0  0  0  0  0  0  0  0  0
   -4.5985    2.3947    2.6696 H   0  0  0  0  0  0  0  0  0  0  0  0
   -0.8569   -4.0689   -3.0535 H   0  0  0  0  0  0  0  0  0  0  0  0
   -1.7435   -4.9025   -1.7594 H   0  0  0  0  0  0  0  0  0  0  0  0
   -0.0177   -4.5533   -1.5397 H   0  0  0  0  0  0  0  0  0  0  0  0
    2.7396    3.5020    1.3623 H   0  0  0  0  0  0  0  0  0  0  0  0
    4.4768    3.7368    1.6432 H   0  0  0  0  0  0  0  0  0  0  0  0
    3.5010    2.9243    2.8848 H   0  0  0  0  0  0  0  0  0  0  0  0
  1 11  1  0  0  0  0
  1 20  1  0  0  0  0
  2 12  1  0  0  0  0
  2 21  1  0  0  0  0
  3 13  1  0  0  0  0
  3 22  1  0  0  0  0
  4 14  1  0  0  0  0
  4 23  1  0  0  0  0
  5 17  1  0  0  0  0
  5 27  1  0  0  0  0
  6 20  2  0  0  0  0
  7 21  2  0  0  0  0
  8 22  2  0  0  0  0
  9 23  2  0  0  0  0
 10 27  2  0  0  0  0
 11 12  1  0  0  0  0
 11 13  1  0  0  0  0
 11 31  1  0  0  0  0
 12 14  1  0  0  0  0
 12 32  1  0  0  0  0
 13 15  1  0  0  0  0
 13 33  1  0  0  0  0
 14 16  1  0  0  0  0
 14 34  1  0  0  0  0
 15 18  2  0  0  0  0
 15 35  1  0  0  0  0
 16 36  1  0  0  0  0
 16 37  1  0  0  0  0
 16 38  1  0  0  0  0
 17 18  1  0  0  0  0
 17 19  1  0  0  0  0
 17 39  1  0  0  0  0
 18 40  1  0  0  0  0
 19 24  1  0  0  0  0
 19 41  1  0  0  0  0
 19 42  1  0  0  0  0
 20 25  1  0  0  0  0
 21 26  1  0  0  0  0
 22 29  1  0  0  0  0
 23 30  1  0  0  0  0
 24 28  2  0  0  0  0
 24 43  1  0  0  0  0
 25 44  1  0  0  0  0
 25 45  1  0  0  0  0
 25 46  1  0  0  0  0
 26 47  1  0  0  0  0
 26 48  1  0  0  0  0
 26 49  1  0  0  0  0
 27 28  1  0  0  0  0
 28 50  1  0  0  0  0
 29 51  1  0  0  0  0
 29 52  1  0  0  0  0
 29 53  1  0  0  0  0
 30 54  1  0  0  0  0
 30 55  1  0  0  0  0
 30 56  1  0  0  0  0
M  END
> <PUBCHEM_COMPOUND_CID>
101808989

> <PUBCHEM_CONFORMER_RMSD>
1.2

> <PUBCHEM_CONFORMER_DIVERSEORDER>
1
29
55
34
16
23
32
13
30
26
54
48
6
69
21
59
65
62
35
39
68
66
53
15
9
70
22
44
46
64
27
63
60
49
20
36
42
38
33
8
3
41
67
45
57
12
50
14
2
47
4
58
5
56
43
51
24
52
25
19
40
11
61
10
28
18
7
31
37
17

> <PUBCHEM_MMFF94_PARTIAL_CHARGES>
33
1 -0.43
10 -0.57
11 0.28
12 0.28
13 0.42
14 0.28
15 -0.29
17 0.42
18 -0.29
19 0.14
2 -0.43
20 0.66
21 0.66
22 0.66
23 0.66
24 -0.29
25 0.06
26 0.06
27 0.71
28 -0.14
29 0.06
3 -0.43
30 0.06
35 0.15
4 -0.43
40 0.15
43 0.15
5 -0.43
50 0.15
6 -0.57
7 -0.57
8 -0.57
9 -0.57

> <PUBCHEM_EFFECTIVE_ROTOR_COUNT>
13.6

> <PUBCHEM_PHARMACOPHORE_FEATURES>
6
1 10 acceptor
1 6 acceptor
1 7 acceptor
1 8 acceptor
1 9 acceptor
6 5 17 19 24 27 28 rings

> <PUBCHEM_HEAVY_ATOM_COUNT>
30

> <PUBCHEM_ATOM_DEF_STEREO_COUNT>
5

> <PUBCHEM_ATOM_UDEF_STEREO_COUNT>
0

> <PUBCHEM_BOND_DEF_STEREO_COUNT>
1

> <PUBCHEM_BOND_UDEF_STEREO_COUNT>
0

> <PUBCHEM_ISOTOPIC_ATOM_COUNT>
0

> <PUBCHEM_COMPONENT_COUNT>
1

> <PUBCHEM_CACTVS_TAUTO_COUNT>
16

> <PUBCHEM_CONFORMER_ID>
06117B5D00000001

> <PUBCHEM_MMFF94_ENERGY>
53.41

> <PUBCHEM_FEATURE_SELFOVERLAP>
30.45

> <PUBCHEM_SHAPE_FINGERPRINT>
11115154 58 17477458255695154735
11578080 2 17343810306640339972
12156800 1 15761935373085368489
12160290 23 18118692255654238551
12633257 1 18127667389115955776
12788726 201 17905338664351217813
13140716 1 17391306876967153002
13583140 156 18119237373146734409
13965767 371 18122341277154836037
14251757 17 16056609715988212325
14713325 29 17772743021029358400
14955137 171 17838623253684270686
15163728 17 17416970706752266236
23419403 2 16680146015596009023
23559900 14 17691144638770814029
35225 105 17971772200562912465
469060 322 17386829764186728103
6287921 2 17896051957346637113

> <PUBCHEM_SHAPE_MULTIPOLES>
558.69
7.91
4.56
3.17
2.22
2.64
-0.78
-7.64
4.45
0.91
0.33
-1.34
0.54
-1.34

> <PUBCHEM_SHAPE_SELFOVERLAP>
1129.044

> <PUBCHEM_SHAPE_VOLUME>
323.7

> <PUBCHEM_COORDINATE_TYPE>
2
5
10

$$$$
