REMARK  Name = 101800314
REMARK  6 active torsions:
REMARK  status: ('A' for Active; 'I' for Inactive)
REMARK    1  A    between atoms: C_3  and  O_21
REMARK    2  A    between atoms: C_6  and  O_23
REMARK    3  A    between atoms: C_8  and  C_25
REMARK    4  A    between atoms: C_12  and  C_17
REMARK    5  A    between atoms: C_25  and  C_27
REMARK    6  A    between atoms: C_28  and  O_33
REMARK                            x       y       z     vdW  Elec       q    Type
REMARK                         _______ _______ _______ _____ _____    ______ ____
ROOT
ATOM      1  O   UNL     1       0.791  -0.726   0.805  0.00  0.00    -0.354 OA
ATOM      2  O   UNL     1      -1.552   2.423   1.278  0.00  0.00    -0.293 OA
ATOM      3  C   UNL     1      -0.923  -0.547  -0.825  0.00  0.00    +0.126 C 
ATOM      4  C   UNL     1      -3.363  -0.092  -0.294  0.00  0.00    +0.034 C 
ATOM      5  C   UNL     1      -0.565   0.891  -0.358  0.00  0.00    +0.112 C 
ATOM      6  C   UNL     1      -3.107   1.411  -0.215  0.00  0.00    +0.139 C 
ATOM      7  C   UNL     1      -2.400  -0.771  -1.271  0.00  0.00    +0.031 C 
ATOM      8  C   UNL     1       0.753   0.670   0.444  0.00  0.00    +0.103 C 
ATOM      9  C   UNL     1      -4.300   1.881   0.630  0.00  0.00    +0.031 C 
ATOM     10  C   UNL     1      -1.722   1.615   0.367  0.00  0.00    +0.179 C 
ATOM     11  C   UNL     1      -4.851  -0.158  -0.639  0.00  0.00    +0.003 C 
ATOM     12  C   UNL     1      -0.417  -1.370   0.371  0.00  0.00    +0.161 C 
ATOM     13  C   UNL     1      -5.475   1.020   0.119  0.00  0.00    +0.003 C 
ATOM     14  C   UNL     1      -2.784  -2.242  -1.478  0.00  0.00    +0.003 C 
ATOM     15  C   UNL     1       0.938   1.450   1.747  0.00  0.00    +0.030 C 
ATOM     16  C   UNL     1      -4.620   3.369   0.558  0.00  0.00    +0.003 C 
ENDROOT
BRANCH  12  17
ATOM     17  C   UNL     1      -0.092  -2.806   0.132  0.00  0.00    -0.003 C 
ATOM     18  C   UNL     1      -0.545  -3.886   0.795  0.00  0.00    -0.045 C 
ATOM     19  C   UNL     1      -1.509  -3.725   1.941  0.00  0.00    +0.026 C 
ATOM     20  C   UNL     1      -0.173  -5.311   0.498  0.00  0.00    +0.026 C 
ENDBRANCH  12  17
BRANCH   3  21
ATOM     21  O   UNL     1      -0.097  -0.808  -1.974  0.00  0.00    -0.384 OA
ATOM     22  H   UNL     1      -0.418  -0.288  -2.728  0.00  0.00    +0.210 HD
ENDBRANCH   3  21
BRANCH   6  23
ATOM     23  O   UNL     1      -3.119   2.004  -1.505  0.00  0.00    -0.380 OA
ATOM     24  H   UNL     1      -3.996   1.890  -1.905  0.00  0.00    +0.211 HD
ENDBRANCH   6  23
BRANCH   8  25
ATOM     25  C   UNL     1       1.987   0.940  -0.435  0.00  0.00    +0.038 C 
BRANCH  25  27
ATOM     26  O   UNL     1       4.145  -0.553  -1.938  0.00  0.00    -0.292 OA
ATOM     27  C   UNL     1       3.218   0.280   0.145  0.00  0.00    +0.095 C 
ATOM     28  C   UNL     1       3.930   1.164   1.177  0.00  0.00    +0.139 C 
ATOM     29  C   UNL     1       4.274   0.119  -0.925  0.00  0.00    +0.171 C 
ATOM     30  C   UNL     1       5.262   1.468   0.568  0.00  0.00    +0.002 C 
ATOM     31  C   UNL     1       5.491   0.890  -0.614  0.00  0.00    +0.011 C 
ATOM     32  C   UNL     1       6.679   0.953  -1.491  0.00  0.00    +0.034 C 
BRANCH  28  33
ATOM     33  O   UNL     1       4.145   0.448   2.386  0.00  0.00    -0.380 OA
ATOM     34  H   UNL     1       3.290   0.242   2.796  0.00  0.00    +0.211 HD
ENDBRANCH  28  33
ENDBRANCH  25  27
ENDBRANCH   8  25
TORSDOF 6
