REMARK  Name = 101883143
REMARK  18 active torsions:
REMARK  status: ('A' for Active; 'I' for Inactive)
REMARK    1  A    between atoms: C_1  and  C_2
REMARK    2  A    between atoms: C_1  and  N_14
REMARK    3  A    between atoms: C_1  and  C_21
REMARK    4  A    between atoms: C_5  and  O_8
REMARK    5  A    between atoms: C_6  and  O_10
REMARK    6  A    between atoms: C_7  and  O_12
REMARK    7  A    between atoms: N_14  and  C_17
REMARK    8  A    between atoms: C_17  and  C_18
REMARK    9  A    between atoms: C_18  and  O_19
REMARK   10  A    between atoms: C_21  and  O_22
REMARK   11  A    between atoms: C_21  and  C_38
REMARK   12  A    between atoms: O_22  and  C_23
REMARK   13  A    between atoms: C_24  and  O_29
REMARK   14  A    between atoms: C_25  and  O_31
REMARK   15  A    between atoms: C_28  and  C_33
REMARK   16  A    between atoms: C_34  and  C_35
REMARK   17  A    between atoms: C_35  and  O_36
REMARK   18  A    between atoms: C_38  and  O_39
REMARK                            x       y       z     vdW  Elec       q    Type
REMARK                         _______ _______ _______ _____ _____    ______ ____
ROOT
ATOM      1  C   UNL     1       2.423   1.157  -0.169  0.00  0.00    +0.005 C 
ENDROOT
BRANCH   1   2
ATOM      2  C   UNL     1       1.908  -0.265   0.008  0.00  0.00    -0.032 C 
ATOM      3  C   UNL     1       1.233  -0.622   1.175  0.00  0.00    +0.034 C 
ATOM      4  C   UNL     1       2.110  -1.210  -0.998  0.00  0.00    +0.034 C 
ATOM      5  C   UNL     1       1.638  -2.513  -0.836  0.00  0.00    +0.175 C 
ATOM      6  C   UNL     1       0.761  -1.925   1.337  0.00  0.00    +0.175 C 
ATOM      7  C   UNL     1       0.963  -2.870   0.332  0.00  0.00    +0.206 C 
BRANCH   5   8
ATOM      8  O   UNL     1       1.842  -3.426  -1.826  0.00  0.00    -0.468 OA
ATOM      9  C   UNL     1       3.042  -4.194  -1.761  0.00  0.00    +0.253 C 
ENDBRANCH   5   8
BRANCH   6  10
ATOM     10  O   UNL     1       0.105  -2.261   2.483  0.00  0.00    -0.468 OA
ATOM     11  C   UNL     1      -0.059  -1.235   3.461  0.00  0.00    +0.253 C 
ENDBRANCH   6  10
BRANCH   7  12
ATOM     12  O   UNL     1       0.503  -4.143   0.490  0.00  0.00    -0.465 OA
ATOM     13  C   UNL     1      -0.819  -4.415   0.031  0.00  0.00    +0.253 C 
ENDBRANCH   7  12
ENDBRANCH   1   2
BRANCH   1  14
ATOM     14  N   UNL     1       3.446   1.448   0.841  0.00  0.00    +0.392 N 
ATOM     15  H   UNL     1       3.157   1.050   1.735  0.00  0.00    -0.084 HD
ATOM     16  H   UNL     1       3.550   2.459   0.923  0.00  0.00    -0.084 HD
BRANCH  14  17
ATOM     17  C   UNL     1       4.724   0.874   0.455  0.00  0.00    -0.049 C 
BRANCH  17  18
ATOM     18  C   UNL     1       5.786   1.177   1.499  0.00  0.00    +0.114 C 
BRANCH  18  19
ATOM     19  O   UNL     1       7.012   0.585   1.090  0.00  0.00    -0.384 OA
ATOM     20  H   UNL     1       7.698   0.771   1.750  0.00  0.00    +0.210 HD
ENDBRANCH  18  19
ENDBRANCH  17  18
ENDBRANCH  14  17
ENDBRANCH   1  14
BRANCH   1  21
ATOM     21  C   UNL     1       1.275   2.195  -0.162  0.00  0.00    +0.180 C 
BRANCH  21  22
ATOM     22  O   UNL     1       0.355   1.833  -1.202  0.00  0.00    -0.472 OA
BRANCH  22  23
ATOM     23  C   UNL     1      -0.923   1.558  -0.810  0.00  0.00    +0.206 C 
ATOM     24  C   UNL     1      -1.473   0.301  -1.059  0.00  0.00    +0.175 C 
ATOM     25  C   UNL     1      -1.679   2.534  -0.160  0.00  0.00    +0.175 C 
ATOM     26  C   UNL     1      -2.780   0.020  -0.659  0.00  0.00    +0.040 C 
ATOM     27  C   UNL     1      -2.985   2.252   0.240  0.00  0.00    +0.040 C 
ATOM     28  C   UNL     1      -3.536   0.995  -0.009  0.00  0.00    +0.006 C 
BRANCH  24  29
ATOM     29  O   UNL     1      -0.746  -0.661  -1.692  0.00  0.00    -0.468 OA
ATOM     30  C   UNL     1      -0.832  -0.706  -3.115  0.00  0.00    +0.253 C 
ENDBRANCH  24  29
BRANCH  25  31
ATOM     31  O   UNL     1      -1.153   3.765   0.090  0.00  0.00    -0.468 OA
ATOM     32  C   UNL     1      -1.993   4.705   0.759  0.00  0.00    +0.253 C 
ENDBRANCH  25  31
BRANCH  28  33
ATOM     33  C   UNL     1      -4.898   0.702   0.407  0.00  0.00    -0.002 C 
ATOM     34  C   UNL     1      -5.425  -0.531   0.582  0.00  0.00    +0.005 C 
BRANCH  34  35
ATOM     35  C   UNL     1      -6.830  -0.783   1.026  0.00  0.00    +0.163 C 
BRANCH  35  36
ATOM     36  O   UNL     1      -7.490  -1.557   0.034  0.00  0.00    -0.377 OA
ATOM     37  H   UNL     1      -8.404  -1.727   0.312  0.00  0.00    +0.211 HD
ENDBRANCH  35  36
ENDBRANCH  34  35
ENDBRANCH  28  33
ENDBRANCH  22  23
ENDBRANCH  21  22
BRANCH  21  38
ATOM     38  C   UNL     1       1.741   3.625  -0.443  0.00  0.00    +0.179 C 
BRANCH  38  39
ATOM     39  O   UNL     1       2.758   3.588  -1.441  0.00  0.00    -0.379 OA
ATOM     40  H   UNL     1       3.061   4.491  -1.627  0.00  0.00    +0.211 HD
ENDBRANCH  38  39
ENDBRANCH  21  38
ENDBRANCH   1  21
TORSDOF 18
