101879159
  -OEChem-03292013293D

 59 63  0     1  0  0  0  0  0999 V2000
    2.1005    2.6188   -0.6072 O   0  0  0  0  0  0  0  0  0  0  0  0
    0.1514    3.1737    0.5835 O   0  0  0  0  0  0  0  0  0  0  0  0
   -0.4602    2.4679   -2.0963 O   0  0  0  0  0  0  0  0  0  0  0  0
    0.5834   -2.2622   -1.7839 O   0  0  0  0  0  0  0  0  0  0  0  0
    0.3017   -0.6590    2.3141 O   0  0  0  0  0  0  0  0  0  0  0  0
    3.5811   -2.0884    1.1126 O   0  0  0  0  0  0  0  0  0  0  0  0
   -2.2686   -0.8010    2.6914 O   0  0  0  0  0  0  0  0  0  0  0  0
   -4.9847    0.6297   -0.9523 O   0  0  0  0  0  0  0  0  0  0  0  0
    0.6860   -4.5278   -1.6540 O   0  0  0  0  0  0  0  0  0  0  0  0
    0.8295    2.1114   -0.0886 C   0  0  2  0  0  0  0  0  0  0  0  0
    1.2322    1.0533    0.9211 C   0  0  2  0  0  0  0  0  0  0  0  0
    2.4301    0.4326    0.1684 C   0  0  2  0  0  0  0  0  0  0  0  0
   -0.1106    1.4371   -1.1636 C   0  0  2  0  0  0  0  0  0  0  0  0
    3.1891    1.7524   -0.1221 C   0  0  2  0  0  0  0  0  0  0  0  0
    0.4273    0.2125   -2.0074 C   0  0  0  0  0  0  0  0  0  0  0  0
    1.9987   -0.9258   -0.3487 C   0  0  0  0  0  0  0  0  0  0  0  0
   -1.3662    0.9418   -0.4410 C   0  0  0  0  0  0  0  0  0  0  0  0
    0.0971    0.1638    1.4251 C   0  0  0  0  0  0  0  0  0  0  0  0
    1.0442   -1.0121   -1.3103 C   0  0  0  0  0  0  0  0  0  0  0  0
   -1.2430    0.3123    0.8092 C   0  0  0  0  0  0  0  0  0  0  0  0
    3.9312    2.4502    1.0096 C   0  0  0  0  0  0  0  0  0  0  0  0
    2.5412   -2.1345    0.2037 C   0  0  0  0  0  0  0  0  0  0  0  0
   -2.6410    1.0280   -1.0218 C   0  0  0  0  0  0  0  0  0  0  0  0
   -2.3641   -0.2031    1.4685 C   0  0  0  0  0  0  0  0  0  0  0  0
    4.4699    3.8009    0.5736 C   0  0  0  0  0  0  0  0  0  0  0  0
   -3.6232   -0.0910    0.8827 C   0  0  0  0  0  0  0  0  0  0  0  0
   -3.7615    0.5216   -0.3604 C   0  0  0  0  0  0  0  0  0  0  0  0
    2.1141   -3.3298   -0.2196 C   0  0  0  0  0  0  0  0  0  0  0  0
    1.0767   -3.4308   -1.2679 C   0  0  0  0  0  0  0  0  0  0  0  0
   -4.8297   -0.6307    1.5828 C   0  0  0  0  0  0  0  0  0  0  0  0
    4.8280   -2.1347    0.4483 C   0  0  0  0  0  0  0  0  0  0  0  0
   -4.9276   -2.1487    1.4755 C   0  0  0  0  0  0  0  0  0  0  0  0
   -5.0332    1.2715   -2.2247 C   0  0  0  0  0  0  0  0  0  0  0  0
    1.5736    1.5352    1.8472 H   0  0  0  0  0  0  0  0  0  0  0  0
    3.0740    0.0998    0.9956 H   0  0  0  0  0  0  0  0  0  0  0  0
    3.8681    1.5982   -0.9683 H   0  0  0  0  0  0  0  0  0  0  0  0
    1.1884    0.5927   -2.7041 H   0  0  0  0  0  0  0  0  0  0  0  0
   -0.3820   -0.1381   -2.6645 H   0  0  0  0  0  0  0  0  0  0  0  0
    3.2901    2.6309    1.8766 H   0  0  0  0  0  0  0  0  0  0  0  0
    4.7600    1.8178    1.3475 H   0  0  0  0  0  0  0  0  0  0  0  0
    0.5425    3.2891    1.4650 H   0  0  0  0  0  0  0  0  0  0  0  0
    0.3634    2.7825   -2.5068 H   0  0  0  0  0  0  0  0  0  0  0  0
   -2.6984    1.4905   -2.0006 H   0  0  0  0  0  0  0  0  0  0  0  0
    5.1289    3.7007   -0.2948 H   0  0  0  0  0  0  0  0  0  0  0  0
    5.0491    4.2547    1.3843 H   0  0  0  0  0  0  0  0  0  0  0  0
    3.6617    4.4925    0.3155 H   0  0  0  0  0  0  0  0  0  0  0  0
    2.5277   -4.2554    0.1659 H   0  0  0  0  0  0  0  0  0  0  0  0
   -4.8038   -0.3389    2.6405 H   0  0  0  0  0  0  0  0  0  0  0  0
   -5.7528   -0.1855    1.1935 H   0  0  0  0  0  0  0  0  0  0  0  0
   -1.3777   -0.6877    3.0573 H   0  0  0  0  0  0  0  0  0  0  0  0
    5.6169   -2.0465    1.2015 H   0  0  0  0  0  0  0  0  0  0  0  0
    4.9442   -1.3027   -0.2553 H   0  0  0  0  0  0  0  0  0  0  0  0
    4.9691   -3.0884   -0.0724 H   0  0  0  0  0  0  0  0  0  0  0  0
   -4.9865   -2.4652    0.4285 H   0  0  0  0  0  0  0  0  0  0  0  0
   -5.8275   -2.5041    1.9876 H   0  0  0  0  0  0  0  0  0  0  0  0
   -4.0653   -2.6481    1.9285 H   0  0  0  0  0  0  0  0  0  0  0  0
   -4.4787    0.7085   -2.9833 H   0  0  0  0  0  0  0  0  0  0  0  0
   -4.7171    2.3186   -2.1634 H   0  0  0  0  0  0  0  0  0  0  0  0
   -6.0817    1.2773   -2.5409 H   0  0  0  0  0  0  0  0  0  0  0  0
  1 10  1  0  0  0  0
  1 14  1  0  0  0  0
  2 10  1  0  0  0  0
  2 41  1  0  0  0  0
  3 13  1  0  0  0  0
  3 42  1  0  0  0  0
  4 19  1  0  0  0  0
  4 29  1  0  0  0  0
  5 18  2  0  0  0  0
  6 22  1  0  0  0  0
  6 31  1  0  0  0  0
  7 24  1  0  0  0  0
  7 50  1  0  0  0  0
  8 27  1  0  0  0  0
  8 33  1  0  0  0  0
  9 29  2  0  0  0  0
 10 11  1  0  0  0  0
 10 13  1  0  0  0  0
 11 12  1  0  0  0  0
 11 18  1  0  0  0  0
 11 34  1  0  0  0  0
 12 14  1  0  0  0  0
 12 16  1  0  0  0  0
 12 35  1  0  0  0  0
 13 15  1  0  0  0  0
 13 17  1  0  0  0  0
 14 21  1  0  0  0  0
 14 36  1  0  0  0  0
 15 19  1  0  0  0  0
 15 37  1  0  0  0  0
 15 38  1  0  0  0  0
 16 19  2  0  0  0  0
 16 22  1  0  0  0  0
 17 20  1  0  0  0  0
 17 23  2  0  0  0  0
 18 20  1  0  0  0  0
 20 24  2  0  0  0  0
 21 25  1  0  0  0  0
 21 39  1  0  0  0  0
 21 40  1  0  0  0  0
 22 28  2  0  0  0  0
 23 27  1  0  0  0  0
 23 43  1  0  0  0  0
 24 26  1  0  0  0  0
 25 44  1  0  0  0  0
 25 45  1  0  0  0  0
 25 46  1  0  0  0  0
 26 27  2  0  0  0  0
 26 30  1  0  0  0  0
 28 29  1  0  0  0  0
 28 47  1  0  0  0  0
 30 32  1  0  0  0  0
 30 48  1  0  0  0  0
 30 49  1  0  0  0  0
 31 51  1  0  0  0  0
 31 52  1  0  0  0  0
 31 53  1  0  0  0  0
 32 54  1  0  0  0  0
 32 55  1  0  0  0  0
 32 56  1  0  0  0  0
 33 57  1  0  0  0  0
 33 58  1  0  0  0  0
 33 59  1  0  0  0  0
M  END
> <PUBCHEM_COMPOUND_CID>
101879159

> <PUBCHEM_CONFORMER_RMSD>
0.8

> <PUBCHEM_CONFORMER_DIVERSEORDER>
1
2

> <PUBCHEM_MMFF94_PARTIAL_CHARGES>
35
1 -0.56
10 0.56
11 0.06
12 0.14
13 0.42
14 0.28
15 0.14
16 -0.14
17 -0.14
18 0.42
19 -0.06
2 -0.68
20 0.09
22 0.08
23 -0.15
24 0.08
26 -0.14
27 0.08
28 -0.14
29 0.71
3 -0.68
30 0.14
31 0.28
33 0.28
4 -0.23
41 0.4
42 0.4
43 0.15
47 0.15
5 -0.57
50 0.45
6 -0.36
7 -0.53
8 -0.36
9 -0.57

> <PUBCHEM_EFFECTIVE_ROTOR_COUNT>
4.6

> <PUBCHEM_PHARMACOPHORE_FEATURES>
17
1 1 acceptor
1 2 acceptor
1 2 donor
1 25 hydrophobe
1 3 acceptor
1 3 donor
1 32 hydrophobe
1 5 acceptor
1 6 acceptor
1 7 donor
1 8 acceptor
1 9 acceptor
5 1 10 11 12 14 rings
6 10 11 13 17 18 20 rings
6 17 20 23 24 26 27 rings
6 4 16 19 22 28 29 rings
7 10 11 12 13 15 16 19 rings

> <PUBCHEM_HEAVY_ATOM_COUNT>
33

> <PUBCHEM_ATOM_DEF_STEREO_COUNT>
4

> <PUBCHEM_ATOM_UDEF_STEREO_COUNT>
1

> <PUBCHEM_BOND_DEF_STEREO_COUNT>
0

> <PUBCHEM_BOND_UDEF_STEREO_COUNT>
0

> <PUBCHEM_ISOTOPIC_ATOM_COUNT>
0

> <PUBCHEM_COMPONENT_COUNT>
1

> <PUBCHEM_CACTVS_TAUTO_COUNT>
27

> <PUBCHEM_CONFORMER_ID>
06128D7700000001

> <PUBCHEM_MMFF94_ENERGY>
161.8999

> <PUBCHEM_FEATURE_SELFOVERLAP>
88.394

> <PUBCHEM_SHAPE_FINGERPRINT>
10863032 1 18340483460381209148
1100329 8 18271511070955637990
11007060 377 17840298153738845628
11582403 64 16959225233705137404
11828532 37 17386017187204123691
12156800 1 17402366017826562094
12422481 6 18190999357675783256
12553582 1 18125459530616992303
12788726 201 16897093734400569382
13140716 1 18413106182269552966
14659021 117 16969144735532719058
14713325 29 8133835685932212246
14955137 171 18270120094405030750
15324884 4 18117577303914685096
15927050 60 18197771310226746086
16945 1 18200038326439498382
20600515 1 17679595432365821485
21421861 104 17914364344997946267
22182313 1 17894354388803209793
23419403 2 18041550352620120972
23557571 272 17530971306002674729
23559900 14 17822011978267117524
35225 105 17048269414745103650
4340502 62 17915474988780104465
44802255 64 16380639272171406694
469060 322 17766517363002934358
59755656 520 17914908766515569876
7399639 24 18337394949852648009

> <PUBCHEM_SHAPE_MULTIPOLES>
626.3
8.65
4.31
2.12
6.78
2.12
-0.03
-1.06
1.98
-5.44
-1.23
1.83
0.37
2.12

> <PUBCHEM_SHAPE_SELFOVERLAP>
1386.39

> <PUBCHEM_SHAPE_VOLUME>
334.5

> <PUBCHEM_COORDINATE_TYPE>
2
5
10

$$$$
