REMARK  Name = 101840124
REMARK  11 active torsions:
REMARK  status: ('A' for Active; 'I' for Inactive)
REMARK    1  A    between atoms: C_6  and  C_19
REMARK    2  A    between atoms: C_14  and  C_26
REMARK    3  A    between atoms: C_19  and  C_23
REMARK    4  A    between atoms: C_23  and  O_24
REMARK    5  A    between atoms: C_26  and  C_28
REMARK    6  A    between atoms: C_28  and  C_29
REMARK    7  A    between atoms: C_29  and  O_30
REMARK    8  A    between atoms: C_29  and  C_32
REMARK    9  A    between atoms: C_32  and  C_33
REMARK   10  A    between atoms: C_32  and  O_38
REMARK   11  A    between atoms: C_33  and  O_36
REMARK                            x       y       z     vdW  Elec       q    Type
REMARK                         _______ _______ _______ _____ _____    ______ ____
ROOT
ATOM      1  O   UNL     1       1.145   1.567   2.317  0.00  0.00    -0.452 OA
ATOM      2  O   UNL     1       2.700   3.112   2.869  0.00  0.00    -0.250 OA
ATOM      3  C   UNL     1       1.728  -0.398   0.861  0.00  0.00    +0.045 C 
ATOM      4  C   UNL     1       2.772   0.587   0.284  0.00  0.00    +0.015 C 
ATOM      5  C   UNL     1       0.951  -1.126  -0.261  0.00  0.00    +0.021 C 
ATOM      6  C   UNL     1       3.809  -0.273  -0.520  0.00  0.00    +0.011 C 
ATOM      7  C   UNL     1       0.906   0.171   2.043  0.00  0.00    +0.173 C 
ATOM      8  C   UNL     1       1.948  -1.991  -1.047  0.00  0.00    +0.004 C 
ATOM      9  C   UNL     1      -0.221  -1.862   0.304  0.00  0.00    -0.052 C 
ATOM     10  C   UNL     1       3.126  -1.168  -1.585  0.00  0.00    +0.001 C 
ATOM     11  C   UNL     1      -0.946  -1.352   1.306  0.00  0.00    -0.049 C 
ATOM     12  C   UNL     1       3.418   1.274   1.503  0.00  0.00    +0.110 C 
ATOM     13  C   UNL     1      -0.610  -0.060   1.965  0.00  0.00    +0.065 C 
ATOM     14  C   UNL     1      -2.164  -2.168   1.605  0.00  0.00    +0.018 C 
ATOM     15  C   UNL     1       2.135   1.671  -0.624  0.00  0.00    +0.001 C 
ATOM     16  C   UNL     1      -0.836  -3.100  -0.251  0.00  0.00    +0.022 C 
ATOM     17  C   UNL     1      -1.877  -3.458   0.815  0.00  0.00    +0.008 C 
ATOM     18  C   UNL     1       2.406   2.068   2.294  0.00  0.00    +0.317 C 
ENDROOT
BRANCH   6  19
ATOM     19  C   UNL     1       4.923   0.544  -1.186  0.00  0.00    +0.089 C 
ATOM     20  C   UNL     1       5.184   1.834  -0.398  0.00  0.00    +0.011 C 
ATOM     21  C   UNL     1       4.491   0.909  -2.615  0.00  0.00    +0.011 C 
BRANCH  19  23
ATOM     22  O   UNL     1       6.802  -0.606  -2.258  0.00  0.00    -0.250 OA
ATOM     23  C   UNL     1       6.204  -0.288  -1.239  0.00  0.00    +0.313 C 
BRANCH  23  24
ATOM     24  O   UNL     1       6.620  -0.648   0.002  0.00  0.00    -0.480 OA
ATOM     25  H   UNL     1       6.131  -0.382   0.756  0.00  0.00    +0.295 HD
ENDBRANCH  23  24
ENDBRANCH  19  23
ENDBRANCH   6  19
BRANCH  14  26
ATOM     26  C   UNL     1      -3.445  -1.482   1.144  0.00  0.00    +0.006 C 
ATOM     27  C   UNL     1      -4.661  -2.325   1.546  0.00  0.00    +0.000 C 
BRANCH  26  28
ATOM     28  C   UNL     1      -3.470  -1.235  -0.377  0.00  0.00    +0.032 C 
BRANCH  28  29
ATOM     29  C   UNL     1      -4.691  -0.465  -0.914  0.00  0.00    +0.140 C 
BRANCH  29  30
ATOM     30  O   UNL     1      -4.595  -0.458  -2.340  0.00  0.00    -0.382 OA
ATOM     31  H   UNL     1      -4.511  -1.369  -2.663  0.00  0.00    +0.210 HD
ENDBRANCH  29  30
BRANCH  29  32
ATOM     32  C   UNL     1      -4.826   0.978  -0.377  0.00  0.00    +0.161 C 
BRANCH  32  33
ATOM     33  C   UNL     1      -6.018   1.809  -0.923  0.00  0.00    +0.115 C 
ATOM     34  C   UNL     1      -6.023   3.232  -0.357  0.00  0.00    +0.032 C 
ATOM     35  C   UNL     1      -7.351   1.120  -0.598  0.00  0.00    +0.032 C 
BRANCH  33  36
ATOM     36  O   UNL     1      -5.921   1.897  -2.347  0.00  0.00    -0.384 OA
ATOM     37  H   UNL     1      -5.087   2.329  -2.588  0.00  0.00    +0.210 HD
ENDBRANCH  33  36
ENDBRANCH  32  33
BRANCH  32  38
ATOM     38  O   UNL     1      -3.613   1.689  -0.642  0.00  0.00    -0.380 OA
ATOM     39  H   UNL     1      -2.859   1.180  -0.306  0.00  0.00    +0.211 HD
ENDBRANCH  32  38
ENDBRANCH  29  32
ENDBRANCH  28  29
ENDBRANCH  26  28
ENDBRANCH  14  26
TORSDOF 11
