REMARK  Name = 101863378
REMARK  5 active torsions:
REMARK  status: ('A' for Active; 'I' for Inactive)
REMARK    1  A    between atoms: C_10  and  O_19
REMARK    2  A    between atoms: C_13  and  O_21
REMARK    3  A    between atoms: C_14  and  O_23
REMARK    4  A    between atoms: C_15  and  O_25
REMARK    5  A    between atoms: C_18  and  O_27
REMARK                            x       y       z     vdW  Elec       q    Type
REMARK                         _______ _______ _______ _____ _____    ______ ____
ROOT
ATOM      1  O   UNL     1       1.553   0.338   1.917  0.00  0.00    -0.474 OA
ATOM      2  O   UNL     1       1.057  -1.883  -1.524  0.00  0.00    -0.291 OA
ATOM      3  C   UNL     1       0.116  -1.186   0.670  0.00  0.00    +0.119 C 
ATOM      4  C   UNL     1      -0.961  -2.344   0.738  0.00  0.00    +0.044 C 
ATOM      5  C   UNL     1      -1.037  -0.294   0.272  0.00  0.00    -0.010 C 
ATOM      6  C   UNL     1      -1.966  -1.306   0.330  0.00  0.00    +0.012 C 
ATOM      7  C   UNL     1       0.745  -0.842   2.013  0.00  0.00    +0.217 C 
ATOM      8  C   UNL     1       1.180  -1.268  -0.466  0.00  0.00    +0.186 C 
ATOM      9  C   UNL     1      -1.381   0.993  -0.073  0.00  0.00    +0.036 C 
ATOM     10  C   UNL     1      -3.295  -1.094   0.049  0.00  0.00    +0.166 C 
ATOM     11  C   UNL     1       2.420  -0.500  -0.212  0.00  0.00    +0.103 C 
ATOM     12  C   UNL     1       2.526   0.265   0.955  0.00  0.00    +0.147 C 
ATOM     13  C   UNL     1      -2.725   1.240  -0.366  0.00  0.00    +0.175 C 
ATOM     14  C   UNL     1      -3.675   0.203  -0.305  0.00  0.00    +0.205 C 
ATOM     15  C   UNL     1       3.458  -0.501  -1.149  0.00  0.00    +0.142 C 
ATOM     16  C   UNL     1       3.660   1.053   1.164  0.00  0.00    +0.074 C 
ATOM     17  C   UNL     1       4.596   0.273  -0.923  0.00  0.00    +0.073 C 
ATOM     18  C   UNL     1       4.696   1.052   0.229  0.00  0.00    +0.140 C 
ENDROOT
BRANCH  10  19
ATOM     19  O   UNL     1      -4.188  -2.111   0.114  0.00  0.00    -0.503 OA
ATOM     20  H   UNL     1      -3.903  -2.970   0.354  0.00  0.00    +0.292 HD
ENDBRANCH  10  19
BRANCH  13  21
ATOM     21  O   UNL     1      -3.108   2.502  -0.714  0.00  0.00    -0.468 OA
ATOM     22  C   UNL     1      -2.090   3.498  -0.754  0.00  0.00    +0.253 C 
ENDBRANCH  13  21
BRANCH  14  23
ATOM     23  O   UNL     1      -4.982   0.467  -0.596  0.00  0.00    -0.465 OA
ATOM     24  C   UNL     1      -5.818   0.864   0.488  0.00  0.00    +0.253 C 
ENDBRANCH  14  23
BRANCH  15  25
ATOM     25  O   UNL     1       3.413  -1.232  -2.299  0.00  0.00    -0.505 OA
ATOM     26  H   UNL     1       2.666  -1.764  -2.487  0.00  0.00    +0.292 HD
ENDBRANCH  15  25
BRANCH  18  27
ATOM     27  O   UNL     1       5.804   1.813   0.443  0.00  0.00    -0.505 OA
ATOM     28  H   UNL     1       5.871   2.337   1.217  0.00  0.00    +0.292 HD
ENDBRANCH  18  27
TORSDOF 5
