REMARK  Name = 101880326
REMARK  7 active torsions:
REMARK  status: ('A' for Active; 'I' for Inactive)
REMARK    1  A    between atoms: CA_1  and  N_3
REMARK    2  A    between atoms: CA_1  and  C_17
REMARK    3  A    between atoms: CA_1  and  CB_20
REMARK    4  A    between atoms: C_4  and  C_7
REMARK    5  A    between atoms: C_9  and  O_14
REMARK    6  A    between atoms: C_17  and  O_18
REMARK    7  A    between atoms: CB_20  and  CG_22
REMARK                            x       y       z     vdW  Elec       q    Type
REMARK                         _______ _______ _______ _____ _____    ______ ____
ROOT
ATOM      1  CA  TRP A   1       0.840   2.169   0.873  0.00  0.00    +0.176 C 
ENDROOT
BRANCH   1   3
ATOM      2  O   UNK A   0      -1.401   1.201   2.385  0.00  0.00    -0.270 OA
ATOM      3  N   TRP A   1      -0.234   1.340   0.386  0.00  0.00    -0.293 N 
ATOM      4  C   UNK A   0      -1.280   0.920   1.196  0.00  0.00    +0.249 C 
ATOM      5  H   TRP A   1      -0.226   1.062  -0.559  0.00  0.00    +0.150 HD
BRANCH   4   7
ATOM      6 CL   UNK A   0      -4.895   0.206  -2.511  0.00  0.00    -0.083 Cl
ATOM      7  C   UNK A   0      -2.294   0.048   0.548  0.00  0.00    +0.084 C 
ATOM      8  C   UNK A   0      -3.022   0.506  -0.550  0.00  0.00    -0.004 C 
ATOM      9  C   UNK A   0      -2.516  -1.236   1.046  0.00  0.00    +0.138 C 
ATOM     10  C   UNK A   0      -3.972  -0.321  -1.150  0.00  0.00    +0.054 C 
ATOM     11  C   UNK A   0      -2.776   1.886  -1.077  0.00  0.00    +0.032 C 
ATOM     12  C   UNK A   0      -3.466  -2.062   0.447  0.00  0.00    +0.038 C 
ATOM     13  C   UNK A   0      -4.194  -1.605  -0.652  0.00  0.00    +0.014 C 
BRANCH   9  14
ATOM     14  O   UNK A   0      -1.816  -1.704   2.119  0.00  0.00    -0.505 OA
ATOM     15  H   UNK A   0      -1.174  -1.160   2.533  0.00  0.00    +0.292 HD
ENDBRANCH   9  14
ENDBRANCH   4   7
ENDBRANCH   1   3
BRANCH   1  17
ATOM     16  OXT TRP A   1       2.179   3.984   0.001  0.00  0.00    -0.248 OA
ATOM     17  C   TRP A   1       1.327   3.126  -0.205  0.00  0.00    +0.332 C 
BRANCH  17  18
ATOM     18  O   TRP A   1       0.750   2.958  -1.418  0.00  0.00    -0.479 OA
ATOM     19  H   TRP A   1       0.101   2.292  -1.540  0.00  0.00    +0.295 HD
ENDBRANCH  17  18
ENDBRANCH   1  17
BRANCH   1  20
ATOM     20  CB  TRP A   1       2.001   1.299   1.410  0.00  0.00    +0.059 C 
BRANCH  20  22
ATOM     21  NE1 TRP A   1       3.879  -0.232  -1.322  0.00  0.00    -0.312 N 
ATOM     22  CG  TRP A   1       2.633   0.441   0.388  0.00  0.00    -0.004 C 
ATOM     23  CD2 TRP A   1       2.429  -0.957   0.212  0.00  0.00    +0.011 C 
ATOM     24  CE2 TRP A   1       3.222  -1.354  -0.867  0.00  0.00    +0.048 C 
ATOM     25  CD1 TRP A   1       3.529   0.857  -0.570  0.00  0.00    +0.058 C 
ATOM     26  CE3 TRP A   1       1.644  -1.925   0.868  0.00  0.00    +0.001 C 
ATOM     27  CZ2 TRP A   1       3.269  -2.676  -1.324  0.00  0.00    +0.015 C 
ATOM     28  CZ3 TRP A   1       1.681  -3.251   0.423  0.00  0.00    +0.000 C 
ATOM     29  CH2 TRP A   1       2.482  -3.619  -0.657  0.00  0.00    +0.001 C 
ATOM     30  HE1 TRP A   1       4.508  -0.216  -2.078  0.00  0.00    +0.152 HD
ENDBRANCH  20  22
ENDBRANCH   1  20
TORSDOF 7
