101882704
  -OEChem-03292013293D

 31 32  0     0  0  0  0  0  0999 V2000
    3.8928    0.2674    0.2619 O   0  0  0  0  0  0  0  0  0  0  0  0
   -1.5658   -2.2984   -0.3404 O   0  0  0  0  0  0  0  0  0  0  0  0
    1.0568   -2.8547    0.0964 O   0  0  0  0  0  0  0  0  0  0  0  0
    3.4642   -1.9418    0.3803 O   0  0  0  0  0  0  0  0  0  0  0  0
   -5.6143    0.6096    1.3806 O   0  0  0  0  0  0  0  0  0  0  0  0
   -5.2456    0.9601   -0.8335 O   0  0  0  0  0  0  0  0  0  0  0  0
   -1.0889    0.0384   -0.4620 C   0  0  0  0  0  0  0  0  0  0  0  0
   -2.5297    0.3492   -0.7024 C   0  0  0  0  0  0  0  0  0  0  0  0
    1.1889    0.8186   -0.1869 C   0  0  0  0  0  0  0  0  0  0  0  0
    1.6123   -0.5025   -0.0148 C   0  0  0  0  0  0  0  0  0  0  0  0
   -0.1669    1.0847   -0.4109 C   0  0  0  0  0  0  0  0  0  0  0  0
   -0.6625   -1.2771   -0.2900 C   0  0  0  0  0  0  0  0  0  0  0  0
    0.6868   -1.5514   -0.0662 C   0  0  0  0  0  0  0  0  0  0  0  0
   -3.3864    0.3155    0.5678 C   0  0  0  0  0  0  0  0  0  0  0  0
    2.1607    1.8990   -0.1313 C   0  0  0  0  0  0  0  0  0  0  0  0
    3.0434   -0.8032    0.2236 C   0  0  0  0  0  0  0  0  0  0  0  0
    3.4459    1.5972    0.0853 C   0  0  0  0  0  0  0  0  0  0  0  0
   -4.8251    0.6711    0.2796 C   0  0  0  0  0  0  0  0  0  0  0  0
    4.5331    2.6182    0.1630 C   0  0  0  0  0  0  0  0  0  0  0  0
   -2.9341   -0.3503   -1.4467 H   0  0  0  0  0  0  0  0  0  0  0  0
   -2.6210    1.3366   -1.1756 H   0  0  0  0  0  0  0  0  0  0  0  0
   -0.5034    2.1111   -0.5429 H   0  0  0  0  0  0  0  0  0  0  0  0
   -2.9987    1.0335    1.2996 H   0  0  0  0  0  0  0  0  0  0  0  0
   -3.3667   -0.6843    1.0152 H   0  0  0  0  0  0  0  0  0  0  0  0
    1.8263    2.9214   -0.2657 H   0  0  0  0  0  0  0  0  0  0  0  0
    5.0238    2.5738    1.1406 H   0  0  0  0  0  0  0  0  0  0  0  0
    4.1532    3.6354    0.0223 H   0  0  0  0  0  0  0  0  0  0  0  0
    5.2848    2.4291   -0.6099 H   0  0  0  0  0  0  0  0  0  0  0  0
   -1.0911   -3.1359   -0.1996 H   0  0  0  0  0  0  0  0  0  0  0  0
    2.0112   -2.9287    0.2444 H   0  0  0  0  0  0  0  0  0  0  0  0
   -6.5476    0.8305    1.1749 H   0  0  0  0  0  0  0  0  0  0  0  0
  1 16  1  0  0  0  0
  1 17  1  0  0  0  0
  2 12  1  0  0  0  0
  2 29  1  0  0  0  0
  3 13  1  0  0  0  0
  3 30  1  0  0  0  0
  4 16  2  0  0  0  0
  5 18  1  0  0  0  0
  5 31  1  0  0  0  0
  6 18  2  0  0  0  0
  7  8  1  0  0  0  0
  7 11  1  0  0  0  0
  7 12  2  0  0  0  0
  8 14  1  0  0  0  0
  8 20  1  0  0  0  0
  8 21  1  0  0  0  0
  9 10  1  0  0  0  0
  9 11  2  0  0  0  0
  9 15  1  0  0  0  0
 10 13  2  0  0  0  0
 10 16  1  0  0  0  0
 11 22  1  0  0  0  0
 12 13  1  0  0  0  0
 14 18  1  0  0  0  0
 14 23  1  0  0  0  0
 14 24  1  0  0  0  0
 15 17  2  0  0  0  0
 15 25  1  0  0  0  0
 17 19  1  0  0  0  0
 19 26  1  0  0  0  0
 19 27  1  0  0  0  0
 19 28  1  0  0  0  0
M  END
> <PUBCHEM_COMPOUND_CID>
101882704

> <PUBCHEM_CONFORMER_RMSD>
0.6

> <PUBCHEM_CONFORMER_DIVERSEORDER>
1
14
9
6
8
7
12
11
13
4
5
10
3
2

> <PUBCHEM_MMFF94_PARTIAL_CHARGES>
24
1 -0.23
10 0.09
11 -0.15
12 0.08
13 0.08
14 0.06
15 -0.18
16 0.63
17 -0.06
18 0.66
19 0.14
2 -0.53
22 0.15
25 0.15
29 0.45
3 -0.53
30 0.45
31 0.5
4 -0.57
5 -0.65
6 -0.57
7 -0.14
8 0.14
9 0.03

> <PUBCHEM_EFFECTIVE_ROTOR_COUNT>
3

> <PUBCHEM_PHARMACOPHORE_FEATURES>
8
1 2 donor
1 3 donor
1 4 acceptor
1 5 acceptor
1 6 acceptor
3 5 6 18 anion
6 1 9 10 15 16 17 rings
6 7 9 10 11 12 13 rings

> <PUBCHEM_HEAVY_ATOM_COUNT>
19

> <PUBCHEM_ATOM_DEF_STEREO_COUNT>
0

> <PUBCHEM_ATOM_UDEF_STEREO_COUNT>
0

> <PUBCHEM_BOND_DEF_STEREO_COUNT>
0

> <PUBCHEM_BOND_UDEF_STEREO_COUNT>
0

> <PUBCHEM_ISOTOPIC_ATOM_COUNT>
0

> <PUBCHEM_COMPONENT_COUNT>
1

> <PUBCHEM_CACTVS_TAUTO_COUNT>
108

> <PUBCHEM_CONFORMER_ID>
06129B5000000001

> <PUBCHEM_MMFF94_ENERGY>
49.8468

> <PUBCHEM_FEATURE_SELFOVERLAP>
40.686

> <PUBCHEM_SHAPE_FINGERPRINT>
10411042 1 17690278214174841918
10493431 412 18338234993562645204
10967382 1 18409724054563856252
11471102 20 18410289181617316757
12236239 1 17775564230121381501
12390115 104 18124610918262603568
12403259 415 18186799145658448341
12507560 40 18186520986618003485
12644460 14 18261108561031987472
13140716 1 18408599288391652074
13675066 3 17967253096346150909
14178342 30 18049989293310253136
14790565 3 18046354303448089516
15196674 1 18410571829078095998
15342168 16 18262238944610867756
15475509 35 16660636307258106504
15475509 8 17699877050043483294
16945 1 18337659811879832294
18186145 218 18412822495347365588
19784866 9 18341614793732982921
20157964 124 18410569553652758133
204376 136 18411139164588570493
20645477 70 18336819802049382743
20739085 24 18261968348765329004
21267235 1 18264773165132805906
21452121 103 18409158901218690440
21501502 16 18339069518888533166
22854114 59 18407760326749363813
23184049 59 18335420153622110205
2334 1 18265325299814997190
23558518 356 17686054307259739192
23559900 14 18127130995605345276
25147074 1 18268410486376988070
2748010 2 18335979869855671342
293599 30 18339364179467804364
335352 9 18410853274918184420
33824 294 18335138669960467459
34934 24 18341045328435674444
350125 39 18336546023981516724
42630746 31 18341614793801450559
474 4 18412543227778148945
5104073 3 18337104665507507034
58807428 26 18262503892990870602
602551 16 16081664347796002153
633830 44 18273497874911831455
7364860 26 18413386528170615454
7832392 63 18340483482246312444
8272917 22 18341616983839093654
9999458 23 18333733481495128670

> <PUBCHEM_SHAPE_MULTIPOLES>
355.8
9.72
2.52
0.79
9.91
0.96
0.06
-5.87
2.07
-2.57
0.04
0.71
-0.12
-0.24

> <PUBCHEM_SHAPE_SELFOVERLAP>
768.041

> <PUBCHEM_SHAPE_VOLUME>
194.6

> <PUBCHEM_COORDINATE_TYPE>
2
5
10

$$$$
