REMARK  Name = 101894469
REMARK  2 active torsions:
REMARK  status: ('A' for Active; 'I' for Inactive)
REMARK    1  A    between atoms: C_14  and  O_30
REMARK    2  A    between atoms: C_17  and  O_32
REMARK                            x       y       z     vdW  Elec       q    Type
REMARK                         _______ _______ _______ _____ _____    ______ ____
ROOT
ATOM      1  S   UNL     1       5.247   0.806  -0.293  0.00  0.00    +0.015 S 
ATOM      2  O   UNL     1      -2.138   3.300   0.153  0.00  0.00    -0.283 OA
ATOM      3  O   UNL     1       1.809  -2.814   0.365  0.00  0.00    -0.285 OA
ATOM      4  O   UNL     1       2.714   2.421  -0.155  0.00  0.00    -0.285 OA
ATOM      5  O   UNL     1       5.292   1.746  -1.399  0.00  0.00    -0.168 OA
ATOM      6  O   UNL     1       5.769   1.183   1.008  0.00  0.00    -0.168 OA
ATOM      7  N   UNL     1       4.394  -2.064   0.081  0.00  0.00    -0.328 N 
ATOM      8  C   UNL     1      -2.949  -0.794   0.502  0.00  0.00    +0.037 C 
ATOM      9  C   UNL     1      -3.207  -1.885  -0.579  0.00  0.00    +0.010 C 
ATOM     10  C   UNL     1      -4.028   0.285   0.348  0.00  0.00    -0.002 C 
ATOM     11  C   UNL     1      -1.521  -0.253   0.335  0.00  0.00    -0.016 C 
ATOM     12  C   UNL     1      -4.643  -2.419  -0.607  0.00  0.00    +0.030 C 
ATOM     13  C   UNL     1      -5.465  -0.216   0.325  0.00  0.00    +0.055 C 
ATOM     14  C   UNL     1      -5.670  -1.300  -0.734  0.00  0.00    +0.115 C 
ATOM     15  C   UNL     1      -3.048  -1.396   1.926  0.00  0.00    +0.009 C 
ATOM     16  C   UNL     1      -1.262   1.116   0.201  0.00  0.00    +0.038 C 
ATOM     17  C   UNL     1      -3.757   1.595   0.215  0.00  0.00    +0.165 C 
ATOM     18  C   UNL     1      -0.414  -1.129   0.343  0.00  0.00    -0.001 C 
ATOM     19  C   UNL     1      -2.364   2.095   0.193  0.00  0.00    +0.228 C 
ATOM     20  C   UNL     1       0.900  -0.657   0.209  0.00  0.00    +0.043 C 
ATOM     21  C   UNL     1       0.052   1.593   0.068  0.00  0.00    +0.006 C 
ATOM     22  C   UNL     1       1.130   0.704   0.071  0.00  0.00    +0.044 C 
ATOM     23  C   UNL     1       3.609   0.229  -0.093  0.00  0.00    +0.161 C 
ATOM     24  C   UNL     1       3.414  -1.092   0.062  0.00  0.00    +0.105 C 
ATOM     25  C   UNL     1       2.022  -1.614   0.224  0.00  0.00    +0.210 C 
ATOM     26  C   UNL     1       2.502   1.217  -0.069  0.00  0.00    +0.214 C 
ATOM     27  C   UNL     1       6.131  -0.645  -0.827  0.00  0.00    +0.177 C 
ATOM     28  C   UNL     1       5.818  -1.823   0.073  0.00  0.00    +0.113 C 
ATOM     29  H   UNL     1       4.096  -3.002   0.102  0.00  0.00    +0.147 HD
ENDROOT
BRANCH  14  30
ATOM     30  O   UNL     1      -5.575  -0.727  -2.037  0.00  0.00    -0.384 OA
ATOM     31  H   UNL     1      -5.706  -1.419  -2.705  0.00  0.00    +0.210 HD
ENDBRANCH  14  30
BRANCH  17  32
ATOM     32  O   UNL     1      -4.760   2.537   0.090  0.00  0.00    -0.503 OA
ATOM     33  H   UNL     1      -5.658   2.269   0.098  0.00  0.00    +0.292 HD
ENDBRANCH  17  32
TORSDOF 2
