REMARK  Name = 101888573
REMARK  1 active torsions:
REMARK  status: ('A' for Active; 'I' for Inactive)
REMARK    1  A    between atoms: C_12  and  N_32
REMARK                            x       y       z     vdW  Elec       q    Type
REMARK                         _______ _______ _______ _____ _____    ______ ____
ROOT
ATOM      1  O   UNL     1       1.578   2.324   1.234  0.00  0.00    -0.273 OA
ATOM      2  O   UNL     1      -1.464   3.778  -0.769  0.00  0.00    -0.273 OA
ATOM      3  O   UNL     1      -3.151  -2.023  -0.837  0.00  0.00    -0.270 OA
ATOM      4  N   UNL     1       1.234   1.391  -0.847  0.00  0.00    -0.272 N 
ATOM      5  N   UNL     1      -1.555   1.456  -0.497  0.00  0.00    -0.282 N 
ATOM      6  N   UNL     1      -1.281  -1.655   0.379  0.00  0.00    -0.255 N 
ATOM      7  C   UNL     1       0.476   2.530  -1.367  0.00  0.00    +0.152 C 
ATOM      8  C   UNL     1       0.450   2.321  -2.883  0.00  0.00    +0.031 C 
ATOM      9  C   UNL     1       0.596   0.814  -3.049  0.00  0.00    +0.024 C 
ATOM     10  C   UNL     1       1.524   0.431  -1.909  0.00  0.00    +0.094 C 
ATOM     11  C   UNL     1       1.788   1.410   0.430  0.00  0.00    +0.244 C 
ATOM     12  C   UNL     1       2.666   0.218   0.830  0.00  0.00    +0.149 C 
ATOM     13  C   UNL     1      -0.942   2.663  -0.800  0.00  0.00    +0.244 C 
ATOM     14  C   UNL     1       1.958  -0.704   1.837  0.00  0.00    +0.035 C 
ATOM     15  C   UNL     1       0.781  -1.391   1.229  0.00  0.00    +0.046 C 
ATOM     16  C   UNL     1       0.771  -2.586   0.456  0.00  0.00    -0.007 C 
ATOM     17  C   UNL     1      -0.521  -0.948   1.287  0.00  0.00    +0.103 C 
ATOM     18  C   UNL     1      -0.529  -2.754  -0.042  0.00  0.00    +0.050 C 
ATOM     19  C   UNL     1      -2.805   1.255   0.153  0.00  0.00    +0.055 C 
ATOM     20  C   UNL     1      -3.284  -0.055   0.374  0.00  0.00    +0.067 C 
ATOM     21  C   UNL     1      -2.570  -1.281  -0.052  0.00  0.00    +0.254 C 
ATOM     22  C   UNL     1       1.768  -3.523   0.107  0.00  0.00    -0.003 C 
ATOM     23  C   UNL     1      -0.855  -3.856  -0.855  0.00  0.00    +0.015 C 
ATOM     24  C   UNL     1      -3.593   2.321   0.612  0.00  0.00    +0.015 C 
ATOM     25  C   UNL     1       1.442  -4.616  -0.698  0.00  0.00    -0.000 C 
ATOM     26  C   UNL     1       0.145  -4.781  -1.167  0.00  0.00    +0.001 C 
ATOM     27  C   UNL     1      -4.523  -0.275   0.998  0.00  0.00    +0.006 C 
ATOM     28  C   UNL     1      -4.822   2.096   1.244  0.00  0.00    +0.001 C 
ATOM     29  C   UNL     1      -5.288   0.801   1.433  0.00  0.00    +0.000 C 
ATOM     30  H   UNL     1      -1.068   0.643  -0.762  0.00  0.00    +0.155 HD
ENDROOT
BRANCH  12  32
ATOM     31  O   UNL     1       5.119   0.994  -0.515  0.00  0.00    -0.275 OA
ATOM     32  N   UNL     1       3.851   0.789   1.427  0.00  0.00    -0.298 N 
ATOM     33  C   UNL     1       4.979   1.129   0.698  0.00  0.00    +0.223 C 
ATOM     34  C   UNL     1       6.058   1.727   1.561  0.00  0.00    +0.095 C 
ATOM     35  H   UNL     1       3.857   0.944   2.399  0.00  0.00    +0.150 HD
ENDBRANCH  12  32
TORSDOF 1
