REMARK  Name = 101844054
REMARK  11 active torsions:
REMARK  status: ('A' for Active; 'I' for Inactive)
REMARK    1  A    between atoms: C_5  and  O_11
REMARK    2  A    between atoms: C_6  and  O_13
REMARK    3  A    between atoms: C_6  and  C_15
REMARK    4  A    between atoms: C_7  and  O_35
REMARK    5  A    between atoms: C_8  and  C_19
REMARK    6  A    between atoms: C_15  and  O_17
REMARK    7  A    between atoms: C_20  and  C_21
REMARK    8  A    between atoms: C_22  and  C_23
REMARK    9  A    between atoms: C_24  and  C_27
REMARK   10  A    between atoms: C_29  and  O_33
REMARK   11  A    between atoms: O_35  and  C_37
REMARK                            x       y       z     vdW  Elec       q    Type
REMARK                         _______ _______ _______ _____ _____    ______ ____
ROOT
ATOM      1  O   UNL     1       5.487  -0.105   0.873  0.00  0.00    -0.329 OA
ATOM      2  O   UNL     1       3.473   1.006  -1.037  0.00  0.00    -0.346 OA
ATOM      3  C   UNL     1       4.910   1.018  -1.121  0.00  0.00    +0.169 C 
ATOM      4  C   UNL     1       5.097  -1.069  -0.148  0.00  0.00    +0.161 C 
ATOM      5  C   UNL     1       5.411  -0.377  -1.476  0.00  0.00    +0.168 C 
ATOM      6  C   UNL     1       5.611   1.195   0.244  0.00  0.00    +0.234 C 
ATOM      7  C   UNL     1       3.576  -1.271  -0.037  0.00  0.00    +0.227 C 
ATOM      8  C   UNL     1       2.853   0.083  -0.133  0.00  0.00    +0.180 C 
ATOM      9  C   UNL     1       5.276   2.068  -2.165  0.00  0.00    +0.037 C 
ATOM     10  C   UNL     1       5.891  -2.353   0.049  0.00  0.00    +0.036 C 
ENDROOT
BRANCH   5  11
ATOM     11  O   UNL     1       4.758  -0.958  -2.585  0.00  0.00    -0.379 OA
ATOM     12  H   UNL     1       4.998  -0.476  -3.391  0.00  0.00    +0.211 HD
ENDBRANCH   5  11
BRANCH   6  13
ATOM     13  O   UNL     1       7.003   1.464   0.026  0.00  0.00    -0.360 OA
ATOM     14  H   UNL     1       7.380   0.777  -0.546  0.00  0.00    +0.213 HD
ENDBRANCH   6  13
BRANCH   6  15
ATOM     15  C   UNL     1       5.058   2.293   1.144  0.00  0.00    +0.164 C 
ATOM     16  C   UNL     1       5.841   2.406   2.442  0.00  0.00    +0.037 C 
BRANCH  15  17
ATOM     17  O   UNL     1       5.112   3.535   0.451  0.00  0.00    -0.379 OA
ATOM     18  H   UNL     1       4.612   3.464  -0.378  0.00  0.00    +0.211 HD
ENDBRANCH  15  17
ENDBRANCH   6  15
BRANCH   8  19
ATOM     19  C   UNL     1       1.434  -0.094  -0.582  0.00  0.00    +0.007 C 
ATOM     20  C   UNL     1       0.306   0.235   0.067  0.00  0.00    -0.002 C 
BRANCH  20  21
ATOM     21  C   UNL     1      -1.050   0.048  -0.400  0.00  0.00    -0.000 C 
ATOM     22  C   UNL     1      -2.122   0.410   0.322  0.00  0.00    +0.000 C 
BRANCH  22  23
ATOM     23  C   UNL     1      -3.482   0.228  -0.139  0.00  0.00    +0.003 C 
ATOM     24  C   UNL     1      -4.552   0.590   0.583  0.00  0.00    +0.037 C 
BRANCH  24  27
ATOM     25  O   UNL     1      -5.947  -0.185  -1.153  0.00  0.00    -0.421 OA
ATOM     26  O   UNL     1      -7.173  -0.966  -2.899  0.00  0.00    -0.244 OA
ATOM     27  C   UNL     1      -5.904   0.413   0.134  0.00  0.00    +0.148 C 
ATOM     28  C   UNL     1      -7.028   0.748   0.796  0.00  0.00    +0.047 C 
ATOM     29  C   UNL     1      -8.296   0.474   0.142  0.00  0.00    +0.144 C 
ATOM     30  C   UNL     1      -7.049   1.385   2.162  0.00  0.00    +0.037 C 
ATOM     31  C   UNL     1      -7.127  -0.451  -1.787  0.00  0.00    +0.349 C 
ATOM     32  C   UNL     1      -8.359  -0.087  -1.070  0.00  0.00    +0.119 C 
BRANCH  29  33
ATOM     33  O   UNL     1      -9.481   0.799   0.782  0.00  0.00    -0.471 OA
ATOM     34  C   UNL     1      -9.934  -0.283   1.568  0.00  0.00    +0.252 C 
ENDBRANCH  29  33
ENDBRANCH  24  27
ENDBRANCH  22  23
ENDBRANCH  20  21
ENDBRANCH   8  19
BRANCH   7  35
ATOM     35  O   UNL     1       3.230  -1.871   1.211  0.00  0.00    -0.447 OA
BRANCH  35  37
ATOM     36  O   UNL     1       2.296  -3.669   0.101  0.00  0.00    -0.250 OA
ATOM     37  C   UNL     1       2.591  -3.075   1.129  0.00  0.00    +0.318 C 
ATOM     38  C   UNL     1       2.291  -3.582   2.507  0.00  0.00    +0.121 C 
ENDBRANCH  35  37
ENDBRANCH   7  35
TORSDOF 11
