101883987
  -OEChem-03292013293D

 34 37  0     1  0  0  0  0  0999 V2000
   -1.8102    0.1606   -1.5973 O   0  0  0  0  0  0  0  0  0  0  0  0
   -2.5288   -1.6116   -0.0783 O   0  0  0  0  0  0  0  0  0  0  0  0
   -0.1569    2.3539   -1.3723 O   0  0  0  0  0  0  0  0  0  0  0  0
   -0.1183   -2.5343   -1.1960 O   0  0  0  0  0  0  0  0  0  0  0  0
   -3.0901    2.4442    0.3180 O   0  0  0  0  0  0  0  0  0  0  0  0
    2.1480    2.7061    0.6072 O   0  0  0  0  0  0  0  0  0  0  0  0
    4.5621   -1.3759    0.3391 O   0  0  0  0  0  0  0  0  0  0  0  0
   -1.5686    0.7369   -0.2952 C   0  0  1  0  0  0  0  0  0  0  0  0
   -1.4781   -0.7421   -0.5369 C   0  0  2  0  0  0  0  0  0  0  0  0
   -0.2924    1.5381   -0.2089 C   0  0  1  0  0  0  0  0  0  0  0  0
   -0.1809   -1.4081   -0.7225 C   0  0  0  0  0  0  0  0  0  0  0  0
   -2.8044    1.2543    0.3305 C   0  0  0  0  0  0  0  0  0  0  0  0
    0.9613    0.7098   -0.0474 C   0  0  0  0  0  0  0  0  0  0  0  0
    1.0258   -0.6669   -0.3078 C   0  0  0  0  0  0  0  0  0  0  0  0
   -3.6562    0.2480    0.9887 C   0  0  0  0  0  0  0  0  0  0  0  0
   -3.4735   -1.0633    0.7686 C   0  0  0  0  0  0  0  0  0  0  0  0
    2.1419    1.3647    0.3475 C   0  0  0  0  0  0  0  0  0  0  0  0
    2.2339   -1.3661   -0.1824 C   0  0  0  0  0  0  0  0  0  0  0  0
   -4.3549   -2.0938    1.4053 C   0  0  0  0  0  0  0  0  0  0  0  0
    3.3443    0.6686    0.4795 C   0  0  0  0  0  0  0  0  0  0  0  0
    3.3898   -0.6960    0.2131 C   0  0  0  0  0  0  0  0  0  0  0  0
    5.7060   -0.6271    0.7478 C   0  0  0  0  0  0  0  0  0  0  0  0
   -0.3705    2.2044    0.6597 H   0  0  0  0  0  0  0  0  0  0  0  0
   -4.4509    0.6155    1.6286 H   0  0  0  0  0  0  0  0  0  0  0  0
   -0.9365    2.9338   -1.4143 H   0  0  0  0  0  0  0  0  0  0  0  0
    2.2847   -2.4335   -0.3834 H   0  0  0  0  0  0  0  0  0  0  0  0
   -4.8659   -2.6817    0.6359 H   0  0  0  0  0  0  0  0  0  0  0  0
   -5.1192   -1.6469    2.0494 H   0  0  0  0  0  0  0  0  0  0  0  0
   -3.7553   -2.7744    2.0185 H   0  0  0  0  0  0  0  0  0  0  0  0
    4.2143    1.2384    0.7886 H   0  0  0  0  0  0  0  0  0  0  0  0
    3.0439    2.9842    0.8630 H   0  0  0  0  0  0  0  0  0  0  0  0
    6.5481   -1.3253    0.7961 H   0  0  0  0  0  0  0  0  0  0  0  0
    5.5779   -0.2124    1.7535 H   0  0  0  0  0  0  0  0  0  0  0  0
    5.9697    0.1398    0.0115 H   0  0  0  0  0  0  0  0  0  0  0  0
  1  8  1  0  0  0  0
  1  9  1  0  0  0  0
  2  9  1  0  0  0  0
  2 16  1  0  0  0  0
  3 10  1  0  0  0  0
  3 25  1  0  0  0  0
  4 11  2  0  0  0  0
  5 12  2  0  0  0  0
  6 17  1  0  0  0  0
  6 31  1  0  0  0  0
  7 21  1  0  0  0  0
  7 22  1  0  0  0  0
  8  9  1  0  0  0  0
  8 10  1  0  0  0  0
  8 12  1  0  0  0  0
  9 11  1  0  0  0  0
 10 13  1  0  0  0  0
 10 23  1  0  0  0  0
 11 14  1  0  0  0  0
 12 15  1  0  0  0  0
 13 14  2  0  0  0  0
 13 17  1  0  0  0  0
 14 18  1  0  0  0  0
 15 16  2  0  0  0  0
 15 24  1  0  0  0  0
 16 19  1  0  0  0  0
 17 20  2  0  0  0  0
 18 21  2  0  0  0  0
 18 26  1  0  0  0  0
 19 27  1  0  0  0  0
 19 28  1  0  0  0  0
 19 29  1  0  0  0  0
 20 21  1  0  0  0  0
 20 30  1  0  0  0  0
 22 32  1  0  0  0  0
 22 33  1  0  0  0  0
 22 34  1  0  0  0  0
M  END
> <PUBCHEM_COMPOUND_CID>
101883987

> <PUBCHEM_CONFORMER_RMSD>
0.6

> <PUBCHEM_CONFORMER_DIVERSEORDER>
1

> <PUBCHEM_MMFF94_PARTIAL_CHARGES>
27
1 -0.3
10 0.52
11 0.48
12 0.56
13 -0.14
14 0.09
15 -0.14
16 -0.06
17 0.08
18 -0.15
19 0.14
2 -0.22
20 -0.15
21 0.08
22 0.28
24 0.15
25 0.4
26 0.15
3 -0.68
30 0.15
31 0.45
4 -0.57
5 -0.57
6 -0.53
7 -0.36
8 0.05
9 0.3

> <PUBCHEM_EFFECTIVE_ROTOR_COUNT>
1.6

> <PUBCHEM_PHARMACOPHORE_FEATURES>
11
1 1 acceptor
1 2 acceptor
1 3 acceptor
1 3 donor
1 4 acceptor
1 5 acceptor
1 6 donor
1 7 acceptor
6 13 14 17 18 20 21 rings
7 1 2 8 9 12 15 16 rings
7 1 8 9 10 11 13 14 rings

> <PUBCHEM_HEAVY_ATOM_COUNT>
22

> <PUBCHEM_ATOM_DEF_STEREO_COUNT>
3

> <PUBCHEM_ATOM_UDEF_STEREO_COUNT>
0

> <PUBCHEM_BOND_DEF_STEREO_COUNT>
0

> <PUBCHEM_BOND_UDEF_STEREO_COUNT>
0

> <PUBCHEM_ISOTOPIC_ATOM_COUNT>
0

> <PUBCHEM_COMPONENT_COUNT>
1

> <PUBCHEM_CACTVS_TAUTO_COUNT>
9

> <PUBCHEM_CONFORMER_ID>
0612A05300000001

> <PUBCHEM_MMFF94_ENERGY>
64.5961

> <PUBCHEM_FEATURE_SELFOVERLAP>
56.01

> <PUBCHEM_SHAPE_FINGERPRINT>
10967382 1 18126283039129927420
11132069 177 18340489954545866582
11680986 33 18055928597330587223
12011746 2 18337667499844938021
12251169 10 18413389825935267947
12633257 1 17560249140350306755
13140716 1 18411421695879764497
13214271 11 18339922619478217991
13583140 156 18040983025694422846
13675066 3 18060417997890951146
14178342 30 18266194863330955617
14223421 5 18411707603520823593
14790565 3 18413114965957779528
14955137 171 18271817800260563858
15196674 1 18411979157281297048
15209289 33 18113338613343218946
15309172 13 18201997707536564790
15375462 189 18334850585651658650
16945 1 18127680745936706316
17804303 29 18411989056664001628
17959699 21 10447663373881241835
1813 80 17458061586527433972
19862831 5 8646501699490577291
200 152 18130774690643570967
20028762 73 18129663144149368383
20261772 1 18272374225473354010
20681677 274 18263648527196996171
21029758 27 18407761435003848724
21033648 29 17559940074524643210
21267235 1 18410863170011572818
22182313 1 18058742281756069582
23184049 59 18341615961663510646
2334 1 18340484564261819885
23493267 7 17678161720526790469
23559900 14 18261388992426759433
23566358 27 18118971527603142404
24859131 72 18410299129284047619
2748010 2 18411695478559199957
296302 2 11527950062562858482
3286 77 18334861653159712578
350125 39 18412547642909720041
465052 167 18117291443871648867
5104073 3 18410566272139320200
59554788 248 17917999386342591743
84936 31 16414648033636883950

> <PUBCHEM_SHAPE_MULTIPOLES>
411.66
8.37
2.58
1.1
5.49
0.67
-0.13
-3.05
4.09
-0.84
-0.08
-0.57
-0.16
0.54

> <PUBCHEM_SHAPE_SELFOVERLAP>
921.481

> <PUBCHEM_SHAPE_VOLUME>
216.7

> <PUBCHEM_COORDINATE_TYPE>
2
5
10

$$$$
