REMARK  Name = 101894431
REMARK  4 active torsions:
REMARK  status: ('A' for Active; 'I' for Inactive)
REMARK    1  A    between atoms: C_7  and  O_25
REMARK    2  A    between atoms: C_8  and  C_30
REMARK    3  A    between atoms: C_10  and  O_27
REMARK    4  A    between atoms: C_30  and  O_31
REMARK                            x       y       z     vdW  Elec       q    Type
REMARK                         _______ _______ _______ _____ _____    ______ ____
ROOT
ATOM      1  O   UNL     1      -1.165   3.707   0.826  0.00  0.00    -0.275 OA
ATOM      2  O   UNL     1      -0.095  -1.263  -2.150  0.00  0.00    -0.286 OA
ATOM      3  N   UNL     1      -0.478   2.064  -0.730  0.00  0.00    -0.255 N 
ATOM      4  N   UNL     1       2.227  -1.341  -0.552  0.00  0.00    -0.351 N 
ATOM      5  C   UNL     1      -1.795   0.332   0.055  0.00  0.00    +0.072 C 
ATOM      6  C   UNL     1      -2.444   1.675   0.430  0.00  0.00    +0.082 C 
ATOM      7  C   UNL     1      -0.922   0.741  -1.154  0.00  0.00    +0.210 C 
ATOM      8  C   UNL     1      -2.898  -0.725  -0.081  0.00  0.00    +0.131 C 
ATOM      9  C   UNL     1      -3.091   1.601   1.798  0.00  0.00    +0.012 C 
ATOM     10  C   UNL     1      -3.705  -0.820   1.237  0.00  0.00    +0.121 C 
ATOM     11  C   UNL     1      -1.297   2.636   0.255  0.00  0.00    +0.227 C 
ATOM     12  C   UNL     1      -4.190   0.541   1.759  0.00  0.00    +0.030 C 
ATOM     13  C   UNL     1       0.180  -0.295  -1.435  0.00  0.00    +0.230 C 
ATOM     14  C   UNL     1       0.724   2.688  -1.245  0.00  0.00    +0.101 C 
ATOM     15  C   UNL     1       1.916   2.331  -0.374  0.00  0.00    +0.050 C 
ATOM     16  C   UNL     1       1.477  -0.206  -0.782  0.00  0.00    +0.092 A 
ATOM     17  C   UNL     1       2.228   0.868  -0.317  0.00  0.00    -0.001 A 
ATOM     18  C   UNL     1       3.436   0.334   0.252  0.00  0.00    +0.013 A 
ATOM     19  C   UNL     1       3.402  -1.047   0.089  0.00  0.00    +0.056 A 
ATOM     20  C   UNL     1       4.561   0.907   0.884  0.00  0.00    +0.001 C 
ATOM     21  C   UNL     1       4.428  -1.891   0.526  0.00  0.00    +0.017 C 
ATOM     22  C   UNL     1       5.596   0.079   1.329  0.00  0.00    +0.000 C 
ATOM     23  C   UNL     1       5.529  -1.301   1.153  0.00  0.00    +0.001 C 
ATOM     24  H   UNL     1       1.953  -2.249  -0.816  0.00  0.00    +0.166 HD
ENDROOT
BRANCH   7  25
ATOM     25  O   UNL     1      -1.705   0.893  -2.329  0.00  0.00    -0.364 OA
ATOM     26  H   UNL     1      -2.406   1.544  -2.168  0.00  0.00    +0.213 HD
ENDBRANCH   7  25
BRANCH  10  27
ATOM     27  O   UNL     1      -4.864  -1.631   1.039  0.00  0.00    -0.384 OA
ATOM     28  H   UNL     1      -4.596  -2.503   0.708  0.00  0.00    +0.210 HD
ENDBRANCH  10  27
BRANCH   8  30
ATOM     29  O   UNL     1      -2.540  -2.750  -1.335  0.00  0.00    -0.250 OA
ATOM     30  C   UNL     1      -2.291  -2.070  -0.349  0.00  0.00    +0.319 C 
BRANCH  30  31
ATOM     31  O   UNL     1      -1.438  -2.395   0.664  0.00  0.00    -0.444 OA
ATOM     32  C   UNL     1      -0.785  -3.662   0.536  0.00  0.00    +0.256 C 
ENDBRANCH  30  31
ENDBRANCH   8  30
TORSDOF 4
