REMARK  Name = 101835237
REMARK  6 active torsions:
REMARK  status: ('A' for Active; 'I' for Inactive)
REMARK    1  A    between atoms: CA_7  and  C_25
REMARK    2  A    between atoms: CA_8  and  N_13
REMARK    3  A    between atoms: C_14  and  C_16
REMARK    4  A    between atoms: C_16  and  O_17
REMARK    5  A    between atoms: O_17  and  C_18
REMARK    6  A    between atoms: C_25  and  O_26
REMARK                            x       y       z     vdW  Elec       q    Type
REMARK                         _______ _______ _______ _____ _____    ______ ____
ROOT
ATOM      1  S   UNL     1       2.737  -2.129   0.130  0.00  0.00    +0.062 S 
ATOM      2  O   UNL     1       2.593  -2.945  -1.123  0.00  0.00    -0.254 OA
ATOM      3  O   UNL     1       2.485   2.118   1.334  0.00  0.00    -0.273 OA
ATOM      4  N   UNL     1       2.394   0.506  -0.391  0.00  0.00    -0.258 N 
ATOM      5  C   UNL     1       1.538  -0.665  -0.143  0.00  0.00    +0.182 C 
ATOM      6  C   UNL     1       4.250  -0.997  -0.099  0.00  0.00    +0.097 C 
ATOM      7  CA  UNL     1       3.723   0.213  -0.888  0.00  0.00    +0.187 C 
ATOM      8  CA  UNL     1       0.984   0.078   1.086  0.00  0.00    +0.180 C 
ATOM      9  C   UNL     1       2.046   1.142   0.767  0.00  0.00    +0.247 C 
ATOM     10  C   UNL     1       4.787  -0.684   1.305  0.00  0.00    +0.016 C 
ATOM     11  C   UNL     1       5.321  -1.756  -0.892  0.00  0.00    +0.016 C 
ENDROOT
BRANCH   8  13
ATOM     12  O   UNL     1      -1.421  -1.534   1.153  0.00  0.00    -0.271 OA
ATOM     13  N   UNL     1      -0.390   0.540   0.956  0.00  0.00    -0.293 N 
ATOM     14  C   UNL     1      -1.493  -0.318   1.001  0.00  0.00    +0.267 C 
ATOM     15  H   UNL     1      -0.551   1.503   0.830  0.00  0.00    +0.150 HD
BRANCH  14  16
ATOM     16  C   UNL     1      -2.806   0.416   0.840  0.00  0.00    +0.289 C 
BRANCH  16  17
ATOM     17  O   UNL     1      -3.891  -0.485   0.905  0.00  0.00    -0.466 OA
BRANCH  17  18
ATOM     18  C   UNL     1      -5.021  -0.159   0.192  0.00  0.00    +0.139 C 
ATOM     19  C   UNL     1      -5.348   1.179  -0.023  0.00  0.00    +0.037 C 
ATOM     20  C   UNL     1      -5.839  -1.168  -0.316  0.00  0.00    +0.037 C 
ATOM     21  C   UNL     1      -6.494   1.509  -0.746  0.00  0.00    +0.003 C 
ATOM     22  C   UNL     1      -6.985  -0.838  -1.040  0.00  0.00    +0.003 C 
ATOM     23  C   UNL     1      -7.313   0.501  -1.255  0.00  0.00    +0.000 C 
ENDBRANCH  17  18
ENDBRANCH  16  17
ENDBRANCH  14  16
ENDBRANCH   8  13
BRANCH   7  25
ATOM     24  OXT UNL     1       5.787   1.467  -0.888  0.00  0.00    -0.248 OA
ATOM     25  C   UNL     1       4.566   1.450  -0.910  0.00  0.00    +0.333 C 
BRANCH  25  26
ATOM     26  O   UNL     1       3.788   2.558  -0.957  0.00  0.00    -0.479 OA
ATOM     27  H   UNL     1       2.854   2.476  -0.972  0.00  0.00    +0.295 HD
ENDBRANCH  25  26
ENDBRANCH   7  25
TORSDOF 6
