REMARK  Name = 101815903
REMARK  6 active torsions:
REMARK  status: ('A' for Active; 'I' for Inactive)
REMARK    1  A    between atoms: N_1  and  C_2
REMARK    2  A    between atoms: N_1  and  N_12
REMARK    3  A    between atoms: C_2  and  C_9
REMARK    4  A    between atoms: N_12  and  C_14
REMARK    5  A    between atoms: C_14  and  S_17
REMARK    6  A    between atoms: S_17  and  C_18
REMARK                            x       y       z     vdW  Elec       q    Type
REMARK                         _______ _______ _______ _____ _____    ______ ____
ROOT
ATOM      1  C   UNL     1      -0.620  -1.545   0.463  0.00  0.00    +0.212 C 
ENDROOT
BRANCH   1   8
ATOM      2  O   UNL     1       1.762  -1.692   0.213  0.00  0.00    -0.427 OA
ATOM      3  N   UNL     1       0.830   0.370   0.092  0.00  0.00    -0.371 NA
ATOM      4  C   UNL     1       2.764  -0.789   0.002  0.00  0.00    +0.173 C 
ATOM      5  C   UNL     1       2.190   0.471  -0.071  0.00  0.00    +0.151 C 
ATOM      6  C   UNL     1       4.124  -1.049  -0.121  0.00  0.00    +0.040 C 
ATOM      7  C   UNL     1       3.019   1.582  -0.285  0.00  0.00    +0.088 C 
ATOM      8  C   UNL     1       0.640  -0.921   0.254  0.00  0.00    +0.277 C 
ATOM      9  C   UNL     1       4.937   0.070  -0.335  0.00  0.00    -0.001 C 
ATOM     10  C   UNL     1       4.398   1.360  -0.415  0.00  0.00    -0.018 C 
ENDBRANCH   1   8
BRANCH   1  11
ATOM     11  N   UNL     1      -1.767  -0.892   0.521  0.00  0.00    -0.098 NA
BRANCH  11  12
ATOM     12  N   UNL     1      -1.608   0.479   0.353  0.00  0.00    -0.124 NA
BRANCH  12  14
ATOM     13  N   UNL     1      -2.963   2.461   0.288  0.00  0.00    -0.379 N 
ATOM     14  C   UNL     1      -2.738   1.114   0.410  0.00  0.00    +0.164 C 
ATOM     15  H   UNL     1      -3.880   2.815   0.352  0.00  0.00    +0.158 HD
ATOM     16  H   UNL     1      -2.209   3.075   0.137  0.00  0.00    +0.158 HD
BRANCH  14  17
ATOM     17  S   UNL     1      -4.224   0.184   0.672  0.00  0.00    -0.080 S 
BRANCH  17  18
ATOM     18  C   UNL     1      -4.731  -0.197  -1.019  0.00  0.00    +0.065 C 
ATOM     19  C   UNL     1      -6.013  -1.008  -1.021  0.00  0.00    +0.013 C 
ENDBRANCH  17  18
ENDBRANCH  14  17
ENDBRANCH  12  14
ENDBRANCH  11  12
ENDBRANCH   1  11
TORSDOF 6
