REMARK  Name = 10182969
REMARK  5 active torsions:
REMARK  status: ('A' for Active; 'I' for Inactive)
REMARK    1  A    between atoms: N_2  and  C_11
REMARK    2  A    between atoms: N_3  and  C_24
REMARK    3  A    between atoms: C_10  and  C_34
REMARK    4  A    between atoms: C_12  and  N_18
REMARK    5  A    between atoms: C_29  and  O_30
REMARK                            x       y       z     vdW  Elec       q    Type
REMARK                         _______ _______ _______ _____ _____    ______ ____
ROOT
ATOM      1  O   UNL     1       0.654  -0.793  -0.044  0.00  0.00    -0.268 OA
ATOM      2  N   UNL     1      -0.202   1.403  -0.147  0.00  0.00    -0.254 N 
ATOM      3  N   UNL     1       3.361   0.342  -0.009  0.00  0.00    -0.225 N 
ATOM      4  N   UNL     1       4.420   1.171   0.072  0.00  0.00    -0.161 NA
ATOM      5  C   UNL     1       1.399   3.343   0.205  0.00  0.00    +0.052 C 
ATOM      6  C   UNL     1       0.133   2.815  -0.492  0.00  0.00    +0.103 C 
ATOM      7  C   UNL     1       2.457   2.322   0.126  0.00  0.00    +0.026 A 
ATOM      8  C   UNL     1       2.158   0.986   0.012  0.00  0.00    +0.134 A 
ATOM      9  C   UNL     1       0.830   0.422  -0.052  0.00  0.00    +0.270 C 
ATOM     10  C   UNL     1       3.860   2.382   0.157  0.00  0.00    +0.152 A 
ENDROOT
BRANCH   2  11
ATOM     11  C   UNL     1      -1.593   1.027  -0.105  0.00  0.00    +0.054 C 
ATOM     12  C   UNL     1      -4.279   0.299  -0.025  0.00  0.00    +0.054 C 
ATOM     13  C   UNL     1      -1.983  -0.098   0.616  0.00  0.00    +0.016 C 
ATOM     14  C   UNL     1      -2.536   1.791  -0.785  0.00  0.00    +0.016 C 
ATOM     15  C   UNL     1      -3.329  -0.463   0.656  0.00  0.00    +0.016 C 
ATOM     16  C   UNL     1      -3.882   1.426  -0.746  0.00  0.00    +0.016 C 
BRANCH  12  18
ATOM     17  O   UNL     1      -5.290  -2.394   0.079  0.00  0.00    -0.275 OA
ATOM     18  N   UNL     1      -5.674  -0.078   0.016  0.00  0.00    -0.259 N 
ATOM     19  C   UNL     1      -6.667   0.961  -0.306  0.00  0.00    +0.098 C 
ATOM     20  C   UNL     1      -8.053   0.697   0.259  0.00  0.00    +0.022 C 
ATOM     21  C   UNL     1      -8.484  -0.703  -0.116  0.00  0.00    +0.011 C 
ATOM     22  C   UNL     1      -7.510  -1.690   0.489  0.00  0.00    +0.086 C 
ATOM     23  C   UNL     1      -6.052  -1.426   0.152  0.00  0.00    +0.229 C 
ENDBRANCH  12  18
ENDBRANCH   2  11
BRANCH   3  24
ATOM     24  C   UNL     1       3.578  -1.032  -0.114  0.00  0.00    +0.083 C 
ATOM     25  C   UNL     1       3.716  -1.611  -1.369  0.00  0.00    +0.022 C 
ATOM     26  C   UNL     1       3.652  -1.805   1.038  0.00  0.00    +0.022 C 
ATOM     27  C   UNL     1       3.931  -2.985  -1.474  0.00  0.00    +0.038 C 
ATOM     28  C   UNL     1       3.868  -3.179   0.933  0.00  0.00    +0.038 C 
ATOM     29  C   UNL     1       4.007  -3.769  -0.324  0.00  0.00    +0.139 C 
BRANCH  29  30
ATOM     30  O   UNL     1       4.218  -5.110  -0.426  0.00  0.00    -0.471 OA
ATOM     31  C   UNL     1       4.285  -5.852   0.791  0.00  0.00    +0.252 C 
ENDBRANCH  29  30
ENDBRANCH   3  24
BRANCH  10  34
ATOM     32  O   UNL     1       4.242   4.704   0.381  0.00  0.00    -0.269 OA
ATOM     33  N   UNL     1       6.075   3.353   0.281  0.00  0.00    -0.324 N 
ATOM     34  C   UNL     1       4.692   3.545   0.271  0.00  0.00    +0.262 C 
ATOM     35  H   UNL     1       6.678   4.127   0.357  0.00  0.00    +0.145 HD
ATOM     36  H   UNL     1       6.446   2.444   0.211  0.00  0.00    +0.145 HD
ENDBRANCH  10  34
TORSDOF 5
