REMARK  Name = 101812
REMARK  4 active torsions:
REMARK  status: ('A' for Active; 'I' for Inactive)
REMARK    1  A    between atoms: P_1  and  O_22
REMARK    2  A    between atoms: C_8  and  N_10
REMARK    3  A    between atoms: C_9  and  C_24
REMARK    4  A    between atoms: C_24  and  O_25
REMARK                            x       y       z     vdW  Elec       q    Type
REMARK                         _______ _______ _______ _____ _____    ______ ____
ROOT
ATOM      1  P   UNL     1       3.485  -1.761  -0.201  0.00  0.00    +0.477 P 
ATOM      2  O   UNL     1       1.068   1.451   0.881  0.00  0.00    -0.333 OA
ATOM      3  O   UNL     1       2.021  -1.593   0.485  0.00  0.00    -0.269 OA
ATOM      4  O   UNL     1       3.505  -0.350  -1.009  0.00  0.00    -0.271 OA
ATOM      5  O   UNL     1       4.631  -2.025   0.726  0.00  0.00    -0.227 OA
ATOM      6  C   UNL     1       1.256  -0.641  -0.270  0.00  0.00    +0.203 C 
ATOM      7  C   UNL     1       2.278   0.347  -0.809  0.00  0.00    +0.187 C 
ATOM      8  C   UNL     1       0.390   0.198   0.659  0.00  0.00    +0.226 C 
ATOM      9  C   UNL     1       2.386   1.358   0.319  0.00  0.00    +0.176 C 
ENDROOT
BRANCH   8  10
ATOM     10  N   UNL     1      -0.943   0.470   0.125  0.00  0.00    -0.247 N 
ATOM     11  N   UNL     1      -2.563   1.490  -1.022  0.00  0.00    -0.242 NA
ATOM     12  N   UNL     1      -2.217  -1.346   1.115  0.00  0.00    -0.228 NA
ATOM     13  N   UNL     1      -4.563  -1.251   0.451  0.00  0.00    -0.229 NA
ATOM     14  C   UNL     1      -2.083  -0.249   0.355  0.00  0.00    +0.152 C 
ATOM     15  C   UNL     1      -1.284   1.505  -0.708  0.00  0.00    +0.223 C 
ATOM     16  C   UNL     1      -3.074   0.399  -0.364  0.00  0.00    +0.140 C 
ATOM     17  C   UNL     1      -4.354  -0.141  -0.299  0.00  0.00    +0.143 C 
ATOM     18  C   UNL     1      -3.497  -1.777   1.101  0.00  0.00    +0.253 C 
ATOM     19  N   UNL     1      -5.420   0.450  -0.998  0.00  0.00    -0.342 N 
ATOM     20  H   UNL     1      -6.322   0.059  -0.945  0.00  0.00    +0.144 HD
ATOM     21  H   UNL     1      -5.265   1.256  -1.542  0.00  0.00    +0.144 HD
ENDBRANCH   8  10
BRANCH   1  22
ATOM     22  O   UNL     1       3.235  -2.857  -1.363  0.00  0.00    -0.302 OA
ATOM     23  H   UNL     1       2.474  -2.589  -1.901  0.00  0.00    +0.222 HD
ENDBRANCH   1  22
BRANCH   9  24
ATOM     24  C   UNL     1       2.843   2.728  -0.147  0.00  0.00    +0.169 C 
BRANCH  24  25
ATOM     25  O   UNL     1       2.900   3.594   0.973  0.00  0.00    -0.379 OA
ATOM     26  H   UNL     1       3.191   4.474   0.688  0.00  0.00    +0.211 HD
ENDBRANCH  24  25
ENDBRANCH   9  24
TORSDOF 4
