REMARK  Name = 101888872
REMARK  6 active torsions:
REMARK  status: ('A' for Active; 'I' for Inactive)
REMARK    1  A    between atoms: C_10  and  O_31
REMARK    2  A    between atoms: C_12  and  C_24
REMARK    3  A    between atoms: C_16  and  O_33
REMARK    4  A    between atoms: C_18  and  O_35
REMARK    5  A    between atoms: C_20  and  O_37
REMARK    6  A    between atoms: C_26  and  O_29
REMARK                            x       y       z     vdW  Elec       q    Type
REMARK                         _______ _______ _______ _____ _____    ______ ____
ROOT
ATOM      1  O   UNL     1       0.357  -2.042   0.045  0.00  0.00    -0.286 OA
ATOM      2  O   UNL     1       1.200   3.233   0.010  0.00  0.00    -0.287 OA
ATOM      3  C   UNL     1      -0.591   0.107   0.043  0.00  0.00    +0.038 C 
ATOM      4  C   UNL     1       1.924  -0.295   0.019  0.00  0.00    +0.076 C 
ATOM      5  C   UNL     1       2.145   1.081   0.009  0.00  0.00    +0.045 C 
ATOM      6  C   UNL     1      -0.370   1.486   0.034  0.00  0.00    +0.045 C 
ATOM      7  C   UNL     1      -1.899  -0.390   0.058  0.00  0.00    -0.013 C 
ATOM      8  C   UNL     1       0.548  -0.834   0.036  0.00  0.00    +0.198 C 
ATOM      9  C   UNL     1       1.006   2.023   0.017  0.00  0.00    +0.196 C 
ATOM     10  C   UNL     1       3.012  -1.177   0.012  0.00  0.00    +0.140 C 
ATOM     11  C   UNL     1       4.330  -0.691  -0.004  0.00  0.00    +0.068 C 
ATOM     12  C   UNL     1      -2.980   0.492   0.066  0.00  0.00    +0.065 C 
ATOM     13  C   UNL     1       4.553   0.705  -0.015  0.00  0.00    +0.009 C 
ATOM     14  C   UNL     1       3.454   1.579  -0.008  0.00  0.00    +0.004 C 
ATOM     15  C   UNL     1      -1.457   2.368   0.042  0.00  0.00    +0.040 C 
ATOM     16  C   UNL     1      -2.760   1.868   0.058  0.00  0.00    +0.136 C 
ATOM     17  C   UNL     1      -2.208  -1.859   0.068  0.00  0.00    +0.031 C 
ATOM     18  C   UNL     1       5.431  -1.563  -0.010  0.00  0.00    +0.140 C 
ATOM     19  C   UNL     1       5.872   1.189  -0.031  0.00  0.00    +0.037 C 
ATOM     20  C   UNL     1       6.955   0.308  -0.036  0.00  0.00    +0.137 C 
ATOM     21  C   UNL     1       6.734  -1.065  -0.026  0.00  0.00    +0.073 C 
ENDROOT
BRANCH  12  24
ATOM     22  O   UNL     1      -4.945  -0.202  -1.200  0.00  0.00    -0.421 OA
ATOM     23  O   UNL     1      -6.744  -0.827  -2.441  0.00  0.00    -0.244 OA
ATOM     24  C   UNL     1      -4.366  -0.011   0.083  0.00  0.00    +0.154 C 
ATOM     25  C   UNL     1      -5.062  -0.263   1.201  0.00  0.00    +0.074 C 
ATOM     26  C   UNL     1      -6.410  -0.744   1.090  0.00  0.00    +0.143 C 
ATOM     27  C   UNL     1      -6.229  -0.656  -1.341  0.00  0.00    +0.349 C 
ATOM     28  C   UNL     1      -6.983  -0.936  -0.103  0.00  0.00    +0.119 C 
BRANCH  26  29
ATOM     29  O   UNL     1      -7.046  -0.981   2.286  0.00  0.00    -0.505 OA
ATOM     30  H   UNL     1      -6.597  -0.829   3.094  0.00  0.00    +0.292 HD
ENDBRANCH  26  29
ENDBRANCH  12  24
BRANCH  10  31
ATOM     31  O   UNL     1       2.792  -2.527   0.022  0.00  0.00    -0.505 OA
ATOM     32  H   UNL     1       1.916  -2.859   0.033  0.00  0.00    +0.292 HD
ENDBRANCH  10  31
BRANCH  16  33
ATOM     33  O   UNL     1      -3.797   2.753   0.065  0.00  0.00    -0.505 OA
ATOM     34  H   UNL     1      -4.681   2.440   0.076  0.00  0.00    +0.292 HD
ENDBRANCH  16  33
BRANCH  18  35
ATOM     35  O   UNL     1       5.308  -2.923   0.002  0.00  0.00    -0.505 OA
ATOM     36  H   UNL     1       4.457  -3.316   0.013  0.00  0.00    +0.292 HD
ENDBRANCH  18  35
BRANCH  20  37
ATOM     37  O   UNL     1       8.226   0.794  -0.051  0.00  0.00    -0.505 OA
ATOM     38  H   UNL     1       8.374   1.719  -0.058  0.00  0.00    +0.292 HD
ENDBRANCH  20  37
TORSDOF 6
