REMARK  Name = 101878346
REMARK  7 active torsions:
REMARK  status: ('A' for Active; 'I' for Inactive)
REMARK    1  A    between atoms: C_4  and  C_24
REMARK    2  A    between atoms: C_9  and  C_15
REMARK    3  A    between atoms: C_13  and  O_32
REMARK    4  A    between atoms: C_14  and  O_34
REMARK    5  A    between atoms: C_20  and  O_21
REMARK    6  A    between atoms: C_25  and  O_28
REMARK    7  A    between atoms: C_26  and  O_30
REMARK                            x       y       z     vdW  Elec       q    Type
REMARK                         _______ _______ _______ _____ _____    ______ ____
ROOT
ATOM      1  O   UNL     1       2.388   0.143  -0.410  0.00  0.00    -0.455 OA
ATOM      2  O   UNL     1      -2.380  -0.896  -0.082  0.00  0.00    -0.471 OA
ATOM      3  O   UNL     1       0.397   2.061  -0.716  0.00  0.00    -0.291 OA
ATOM      4  C   UNL     1       3.467  -0.676  -0.319  0.00  0.00    +0.152 C 
ATOM      5  C   UNL     1       1.278  -0.635  -0.253  0.00  0.00    +0.154 A 
ATOM      6  C   UNL     1       1.655  -1.964  -0.067  0.00  0.00    +0.074 A 
ATOM      7  C   UNL     1      -0.051  -0.211  -0.276  0.00  0.00    +0.106 A 
ATOM      8  C   UNL     1       3.074  -1.977  -0.109  0.00  0.00    +0.042 C 
ATOM      9  C   UNL     1      -2.656   0.463   0.294  0.00  0.00    +0.196 C 
ATOM     10  C   UNL     1      -1.037  -1.187  -0.085  0.00  0.00    +0.181 A 
ATOM     11  C   UNL     1      -1.920   1.447  -0.615  0.00  0.00    +0.117 C 
ATOM     12  C   UNL     1      -0.439   1.186  -0.529  0.00  0.00    +0.183 C 
ATOM     13  C   UNL     1       0.649  -2.933   0.101  0.00  0.00    +0.174 A 
ATOM     14  C   UNL     1      -0.693  -2.530   0.085  0.00  0.00    +0.202 A 
ENDROOT
BRANCH   9  15
ATOM     15  C   UNL     1      -4.154   0.682   0.233  0.00  0.00    +0.018 C 
ATOM     16  C   UNL     1      -4.861   0.994   1.394  0.00  0.00    +0.002 C 
ATOM     17  C   UNL     1      -4.825   0.571  -0.984  0.00  0.00    +0.002 C 
ATOM     18  C   UNL     1      -6.240   1.195   1.338  0.00  0.00    +0.036 C 
ATOM     19  C   UNL     1      -6.205   0.772  -1.040  0.00  0.00    +0.036 C 
ATOM     20  C   UNL     1      -6.912   1.084   0.121  0.00  0.00    +0.134 C 
BRANCH  20  21
ATOM     21  O   UNL     1      -8.257   1.281   0.066  0.00  0.00    -0.506 OA
ATOM     22  H   UNL     1      -8.732   1.491   0.846  0.00  0.00    +0.292 HD
ENDBRANCH  20  21
ENDBRANCH   9  15
BRANCH   4  24
ATOM     23  O   UNL     1       4.795   1.114  -1.363  0.00  0.00    -0.343 OA
ATOM     24  C   UNL     1       4.817  -0.018  -0.463  0.00  0.00    +0.201 C 
ATOM     25  C   UNL     1       5.419   0.503   0.841  0.00  0.00    +0.174 C 
ATOM     26  C   UNL     1       6.435   1.488   0.300  0.00  0.00    +0.170 C 
ATOM     27  C   UNL     1       5.669   2.128  -0.841  0.00  0.00    +0.174 C 
BRANCH  25  28
ATOM     28  O   UNL     1       4.431   1.198   1.600  0.00  0.00    -0.379 OA
ATOM     29  H   UNL     1       3.783   0.563   1.945  0.00  0.00    +0.211 HD
ENDBRANCH  25  28
BRANCH  26  30
ATOM     30  O   UNL     1       6.862   2.439   1.250  0.00  0.00    -0.379 OA
ATOM     31  H   UNL     1       7.346   1.991   1.961  0.00  0.00    +0.211 HD
ENDBRANCH  26  30
ENDBRANCH   4  24
BRANCH  13  32
ATOM     32  O   UNL     1       0.967  -4.253   0.280  0.00  0.00    -0.503 OA
ATOM     33  H   UNL     1       1.864  -4.522   0.290  0.00  0.00    +0.292 HD
ENDBRANCH  13  32
BRANCH  14  34
ATOM     34  O   UNL     1      -1.673  -3.469   0.250  0.00  0.00    -0.501 OA
ATOM     35  H   UNL     1      -2.574  -3.212   0.241  0.00  0.00    +0.292 HD
ENDBRANCH  14  34
TORSDOF 7
