REMARK  Name = 101882704
REMARK  6 active torsions:
REMARK  status: ('A' for Active; 'I' for Inactive)
REMARK    1  A    between atoms: C_3  and  C_17
REMARK    2  A    between atoms: C_7  and  O_13
REMARK    3  A    between atoms: C_8  and  O_15
REMARK    4  A    between atoms: C_17  and  C_18
REMARK    5  A    between atoms: C_18  and  C_20
REMARK    6  A    between atoms: C_20  and  O_21
REMARK                            x       y       z     vdW  Elec       q    Type
REMARK                         _______ _______ _______ _____ _____    ______ ____
ROOT
ATOM      1  O   UNL     1       3.893   0.267   0.262  0.00  0.00    -0.425 OA
ATOM      2  O   UNL     1       3.464  -1.942   0.380  0.00  0.00    -0.244 OA
ATOM      3  C   UNL     1      -1.089   0.038  -0.462  0.00  0.00    +0.015 C 
ATOM      4  C   UNL     1       1.189   0.819  -0.187  0.00  0.00    +0.012 C 
ATOM      5  C   UNL     1       1.612  -0.502  -0.015  0.00  0.00    +0.113 C 
ATOM      6  C   UNL     1      -0.167   1.085  -0.411  0.00  0.00    -0.001 C 
ATOM      7  C   UNL     1      -0.662  -1.277  -0.290  0.00  0.00    +0.164 C 
ATOM      8  C   UNL     1       0.687  -1.551  -0.066  0.00  0.00    +0.173 C 
ATOM      9  C   UNL     1       2.161   1.899  -0.131  0.00  0.00    +0.033 C 
ATOM     10  C   UNL     1       3.043  -0.803   0.224  0.00  0.00    +0.348 C 
ATOM     11  C   UNL     1       3.446   1.597   0.085  0.00  0.00    +0.127 C 
ATOM     12  C   UNL     1       4.533   2.618   0.163  0.00  0.00    +0.073 C 
ENDROOT
BRANCH   7  13
ATOM     13  O   UNL     1      -1.566  -2.298  -0.340  0.00  0.00    -0.503 OA
ATOM     14  H   UNL     1      -2.472  -2.115  -0.491  0.00  0.00    +0.292 HD
ENDBRANCH   7  13
BRANCH   8  15
ATOM     15  O   UNL     1       1.057  -2.855   0.096  0.00  0.00    -0.503 OA
ATOM     16  H   UNL     1       1.956  -3.071   0.248  0.00  0.00    +0.292 HD
ENDBRANCH   8  15
BRANCH   3  17
ATOM     17  C   UNL     1      -2.530   0.349  -0.702  0.00  0.00    +0.041 C 
BRANCH  17  18
ATOM     18  C   UNL     1      -3.386   0.316   0.568  0.00  0.00    +0.114 C 
BRANCH  18  20
ATOM     19  O   UNL     1      -5.246   0.960  -0.834  0.00  0.00    -0.250 OA
ATOM     20  C   UNL     1      -4.825   0.671   0.280  0.00  0.00    +0.314 C 
BRANCH  20  21
ATOM     21  O   UNL     1      -5.614   0.610   1.381  0.00  0.00    -0.480 OA
ATOM     22  H   UNL     1      -5.243   0.383   2.211  0.00  0.00    +0.295 HD
ENDBRANCH  20  21
ENDBRANCH  18  20
ENDBRANCH  17  18
ENDBRANCH   3  17
TORSDOF 6
