REMARK  Name = 101885878
REMARK  7 active torsions:
REMARK  status: ('A' for Active; 'I' for Inactive)
REMARK    1  A    between atoms: C_4  and  C_15
REMARK    2  A    between atoms: C_8  and  C_28
REMARK    3  A    between atoms: C_15  and  C_24
REMARK    4  A    between atoms: C_18  and  C_20
REMARK    5  A    between atoms: C_24  and  O_25
REMARK    6  A    between atoms: C_28  and  O_29
REMARK    7  A    between atoms: O_29  and  C_30
REMARK                            x       y       z     vdW  Elec       q    Type
REMARK                         _______ _______ _______ _____ _____    ______ ____
ROOT
ATOM      1  O   UNL     1       1.881   0.012  -1.889  0.00  0.00    -0.440 OA
ATOM      2  O   UNL     1      -0.059   0.713  -2.878  0.00  0.00    -0.250 OA
ATOM      3  C   UNL     1       1.321   0.378   0.368  0.00  0.00    +0.066 C 
ATOM      4  C   UNL     1       0.389   1.223  -0.523  0.00  0.00    +0.121 C 
ATOM      5  C   UNL     1       1.702   1.022   1.739  0.00  0.00    +0.005 C 
ATOM      6  C   UNL     1       0.778   2.712  -0.575  0.00  0.00    +0.015 C 
ATOM      7  C   UNL     1       2.067   2.515   1.576  0.00  0.00    +0.000 C 
ATOM      8  C   UNL     1       2.479   0.110  -0.589  0.00  0.00    +0.267 C 
ATOM      9  C   UNL     1       1.022   3.313   0.803  0.00  0.00    +0.001 C 
ATOM     10  C   UNL     1       0.660   0.628  -1.893  0.00  0.00    +0.321 C 
ATOM     11  C   UNL     1       2.900   0.296   2.388  0.00  0.00    +0.000 C 
ATOM     12  C   UNL     1       0.520   0.886   2.728  0.00  0.00    +0.000 C 
ENDROOT
BRANCH   4  15
ATOM     13  O   UNL     1      -0.913  -1.363  -0.360  0.00  0.00    -0.421 OA
ATOM     14  O   UNL     1      -1.599  -3.558  -0.313  0.00  0.00    -0.245 OA
ATOM     15  C   UNL     1      -1.064   1.024  -0.213  0.00  0.00    +0.097 C 
ATOM     16  C   UNL     1      -1.625  -0.192  -0.148  0.00  0.00    +0.151 C 
ATOM     17  C   UNL     1      -2.984  -0.487   0.138  0.00  0.00    +0.040 C 
ATOM     18  C   UNL     1      -3.159  -1.802   0.113  0.00  0.00    +0.056 C 
ATOM     19  C   UNL     1      -1.839  -2.365  -0.204  0.00  0.00    +0.342 C 
BRANCH  18  20
ATOM     20  C   UNL     1      -4.375  -2.611   0.342  0.00  0.00    +0.029 C 
ATOM     21  C   UNL     1      -5.638  -1.870  -0.114  0.00  0.00    +0.005 C 
ATOM     22  C   UNL     1      -4.500  -3.010   1.816  0.00  0.00    +0.005 C 
ENDBRANCH  18  20
BRANCH  15  24
ATOM     23  O   UNL     1      -2.141   2.697   1.136  0.00  0.00    -0.245 OA
ATOM     24  C   UNL     1      -1.947   2.198   0.037  0.00  0.00    +0.341 C 
BRANCH  24  25
ATOM     25  O   UNL     1      -2.492   2.617  -1.137  0.00  0.00    -0.441 OA
ATOM     26  C   UNL     1      -3.368   3.746  -1.047  0.00  0.00    +0.256 C 
ENDBRANCH  24  25
ENDBRANCH  15  24
ENDBRANCH   4  15
BRANCH   8  28
ATOM     27  O   UNL     1       2.498  -2.280  -0.348  0.00  0.00    -0.246 OA
ATOM     28  C   UNL     1       3.118  -1.227  -0.408  0.00  0.00    +0.358 C 
BRANCH  28  29
ATOM     29  O   UNL     1       4.470  -1.079  -0.324  0.00  0.00    -0.446 OA
BRANCH  29  30
ATOM     30  C   UNL     1       5.212  -2.290  -0.148  0.00  0.00    +0.209 C 
ATOM     31  C   UNL     1       6.687  -1.958  -0.073  0.00  0.00    +0.051 C 
ENDBRANCH  29  30
ENDBRANCH  28  29
ENDBRANCH   8  28
TORSDOF 7
