101888872
  -OEChem-03292013293D

 47 51  0     0  0  0  0  0  0999 V2000
    2.7917   -2.5273    0.0221 O   0  0  0  0  0  0  0  0  0  0  0  0
    0.3572   -2.0424    0.0453 O   0  0  0  0  0  0  0  0  0  0  0  0
    1.1996    3.2329    0.0103 O   0  0  0  0  0  0  0  0  0  0  0  0
   -3.7975    2.7533    0.0654 O   0  0  0  0  0  0  0  0  0  0  0  0
   -4.9451   -0.2019   -1.1996 O   0  0  0  0  0  0  0  0  0  0  0  0
    5.3076   -2.9232    0.0017 O   0  0  0  0  0  0  0  0  0  0  0  0
    8.2261    0.7939   -0.0508 O   0  0  0  0  0  0  0  0  0  0  0  0
   -7.0459   -0.9809    2.2857 O   0  0  0  0  0  0  0  0  0  0  0  0
   -6.7437   -0.8268   -2.4405 O   0  0  0  0  0  0  0  0  0  0  0  0
   -0.5905    0.1073    0.0426 C   0  0  0  0  0  0  0  0  0  0  0  0
    1.9241   -0.2946    0.0186 C   0  0  0  0  0  0  0  0  0  0  0  0
    2.1447    1.0813    0.0088 C   0  0  0  0  0  0  0  0  0  0  0  0
   -0.3696    1.4859    0.0337 C   0  0  0  0  0  0  0  0  0  0  0  0
   -1.8991   -0.3901    0.0583 C   0  0  0  0  0  0  0  0  0  0  0  0
    0.5481   -0.8336    0.0360 C   0  0  0  0  0  0  0  0  0  0  0  0
    1.0061    2.0234    0.0165 C   0  0  0  0  0  0  0  0  0  0  0  0
    3.0117   -1.1770    0.0121 C   0  0  0  0  0  0  0  0  0  0  0  0
    4.3296   -0.6908   -0.0041 C   0  0  0  0  0  0  0  0  0  0  0  0
   -2.9802    0.4919    0.0657 C   0  0  0  0  0  0  0  0  0  0  0  0
    4.5535    0.7051   -0.0146 C   0  0  0  0  0  0  0  0  0  0  0  0
    3.4537    1.5792   -0.0080 C   0  0  0  0  0  0  0  0  0  0  0  0
   -1.4572    2.3675    0.0418 C   0  0  0  0  0  0  0  0  0  0  0  0
   -2.7596    1.8676    0.0579 C   0  0  0  0  0  0  0  0  0  0  0  0
   -2.2083   -1.8587    0.0676 C   0  0  0  0  0  0  0  0  0  0  0  0
    5.4310   -1.5628   -0.0100 C   0  0  0  0  0  0  0  0  0  0  0  0
   -4.3662   -0.0115    0.0826 C   0  0  0  0  0  0  0  0  0  0  0  0
    5.8723    1.1887   -0.0307 C   0  0  0  0  0  0  0  0  0  0  0  0
    6.9545    0.3084   -0.0362 C   0  0  0  0  0  0  0  0  0  0  0  0
    6.7342   -1.0652   -0.0259 C   0  0  0  0  0  0  0  0  0  0  0  0
   -5.0617   -0.2633    1.2009 C   0  0  0  0  0  0  0  0  0  0  0  0
   -6.4095   -0.7436    1.0900 C   0  0  0  0  0  0  0  0  0  0  0  0
   -6.2288   -0.6560   -1.3405 C   0  0  0  0  0  0  0  0  0  0  0  0
   -6.9828   -0.9365   -0.1028 C   0  0  0  0  0  0  0  0  0  0  0  0
    3.6293    2.6536   -0.0157 H   0  0  0  0  0  0  0  0  0  0  0  0
   -1.2954    3.4427    0.0355 H   0  0  0  0  0  0  0  0  0  0  0  0
   -1.8167   -2.3250    0.9784 H   0  0  0  0  0  0  0  0  0  0  0  0
   -3.2681   -2.1213    0.0459 H   0  0  0  0  0  0  0  0  0  0  0  0
   -1.7931   -2.3406   -0.8247 H   0  0  0  0  0  0  0  0  0  0  0  0
    6.0546    2.2620   -0.0386 H   0  0  0  0  0  0  0  0  0  0  0  0
    7.5871   -1.7400   -0.0299 H   0  0  0  0  0  0  0  0  0  0  0  0
    1.9119   -2.7321   -0.3290 H   0  0  0  0  0  0  0  0  0  0  0  0
   -4.6332   -0.1154    2.1865 H   0  0  0  0  0  0  0  0  0  0  0  0
   -3.4456    3.6599    0.0584 H   0  0  0  0  0  0  0  0  0  0  0  0
    6.1883   -3.3352   -0.0048 H   0  0  0  0  0  0  0  0  0  0  0  0
   -8.0001   -1.2980   -0.2003 H   0  0  0  0  0  0  0  0  0  0  0  0
    8.1932    1.7660   -0.0561 H   0  0  0  0  0  0  0  0  0  0  0  0
   -7.9443   -1.2994    2.0909 H   0  0  0  0  0  0  0  0  0  0  0  0
  1 17  1  0  0  0  0
  1 41  1  0  0  0  0
  2 15  2  0  0  0  0
  3 16  2  0  0  0  0
  4 23  1  0  0  0  0
  4 43  1  0  0  0  0
  5 26  1  0  0  0  0
  5 32  1  0  0  0  0
  6 25  1  0  0  0  0
  6 44  1  0  0  0  0
  7 28  1  0  0  0  0
  7 46  1  0  0  0  0
  8 31  1  0  0  0  0
  8 47  1  0  0  0  0
  9 32  2  0  0  0  0
 10 13  1  0  0  0  0
 10 14  2  0  0  0  0
 10 15  1  0  0  0  0
 11 12  1  0  0  0  0
 11 15  1  0  0  0  0
 11 17  2  0  0  0  0
 12 16  1  0  0  0  0
 12 21  2  0  0  0  0
 13 16  1  0  0  0  0
 13 22  2  0  0  0  0
 14 19  1  0  0  0  0
 14 24  1  0  0  0  0
 17 18  1  0  0  0  0
 18 20  1  0  0  0  0
 18 25  2  0  0  0  0
 19 23  2  0  0  0  0
 19 26  1  0  0  0  0
 20 21  1  0  0  0  0
 20 27  2  0  0  0  0
 21 34  1  0  0  0  0
 22 23  1  0  0  0  0
 22 35  1  0  0  0  0
 24 36  1  0  0  0  0
 24 37  1  0  0  0  0
 24 38  1  0  0  0  0
 25 29  1  0  0  0  0
 26 30  2  0  0  0  0
 27 28  1  0  0  0  0
 27 39  1  0  0  0  0
 28 29  2  0  0  0  0
 29 40  1  0  0  0  0
 30 31  1  0  0  0  0
 30 42  1  0  0  0  0
 31 33  2  0  0  0  0
 32 33  1  0  0  0  0
 33 45  1  0  0  0  0
M  END
> <PUBCHEM_COMPOUND_CID>
101888872

> <PUBCHEM_CONFORMER_RMSD>
0.6

> <PUBCHEM_CONFORMER_DIVERSEORDER>
1
3
2
4

> <PUBCHEM_MMFF94_PARTIAL_CHARGES>
42
1 -0.53
10 0.09
11 0.09
12 0.09
13 0.09
14 -0.14
15 0.4
16 0.4
17 0.08
19 0.03
2 -0.57
21 -0.15
22 -0.15
23 0.08
24 0.14
25 0.08
26 0.05
27 -0.15
28 0.08
29 -0.15
3 -0.57
30 -0.15
31 0.08
32 0.71
33 -0.14
34 0.15
35 0.15
39 0.15
4 -0.53
40 0.15
41 0.45
42 0.15
43 0.45
44 0.45
45 0.15
46 0.45
47 0.45
5 -0.23
6 -0.53
7 -0.53
8 -0.53
9 -0.57

> <PUBCHEM_EFFECTIVE_ROTOR_COUNT>
1

> <PUBCHEM_PHARMACOPHORE_FEATURES>
13
1 1 donor
1 2 acceptor
1 3 acceptor
1 4 donor
1 6 donor
1 7 donor
1 8 donor
1 9 acceptor
6 10 11 12 13 15 16 rings
6 10 13 14 19 22 23 rings
6 11 12 17 18 20 21 rings
6 18 20 25 27 28 29 rings
6 5 26 30 31 32 33 rings

> <PUBCHEM_HEAVY_ATOM_COUNT>
33

> <PUBCHEM_ATOM_DEF_STEREO_COUNT>
0

> <PUBCHEM_ATOM_UDEF_STEREO_COUNT>
0

> <PUBCHEM_BOND_DEF_STEREO_COUNT>
0

> <PUBCHEM_BOND_UDEF_STEREO_COUNT>
0

> <PUBCHEM_ISOTOPIC_ATOM_COUNT>
0

> <PUBCHEM_COMPONENT_COUNT>
1

> <PUBCHEM_CACTVS_TAUTO_COUNT>
996

> <PUBCHEM_CONFORMER_ID>
0612B36800000001

> <PUBCHEM_MMFF94_ENERGY>
122.5952

> <PUBCHEM_FEATURE_SELFOVERLAP>
66.057

> <PUBCHEM_SHAPE_FINGERPRINT>
10 15 18334572486967778648
10050765 1 18122063104701487896
10076449 9 18201726150493947824
10299344 5 17775849025213450023
11135926 11 18408882936991287383
11578080 2 16807274809789321183
11963148 33 18335696186939586954
12166972 35 17967537878083981996
12236239 1 17775567554905934619
12516196 113 18273494572477931072
12760667 363 18413671314345610609
12838862 33 18337655512970938232
13073987 5 18338237068395618880
13685833 64 18408608062888089728
13782708 43 17988921145787273854
13862211 1 18412824681174365669
14068700 675 17703788141410168801
14118638 360 18336265661374494232
14251764 18 18273497883871017568
14394314 77 18343026553810612729
14849402 71 17845655979184910800
14856354 85 16343702158314759063
15131766 46 14331689402540170274
15183329 4 18413102866406918966
15196674 1 18338517435360548200
15320294 125 17203039807867677653
15419008 47 17603579742961473053
15483637 11 18048037659866080482
16087824 20 18338796707737084549
17492 89 18122624943092511474
18608769 82 18335424624593706690
19319366 153 18113898269273482466
20028762 73 18131346410219266590
20721686 56 18408327674470001074
21130935 74 18271526378097872162
21236236 1 18411982417151288993
21267235 1 18410582768887098672
21792961 116 17967525761912271350
22149856 69 18270412598319532000
22311459 1 18411419540159148364
23522609 53 17986701296547255001
23559900 14 18337103592087578737
23569914 152 17328269500435751495
24771293 8 18130500946566386240
24771750 20 17754472453617731380
3178227 256 18336276712130369827
335352 9 18410856611675315148
3383291 50 18261394472420434155
34797466 226 17632583760506761724
350125 39 18411983554805854648
4073 2 18187652353859640297
4093350 32 16200154331314232768
4258327 124 16806470148331300654
44880568 143 16660362558648038429
46194498 28 17530963618169620572
50009960 94 17681540451810558266
5104073 3 18339923701741691304
54039377 194 17916013746512934151
59755656 215 18335137588050955302
6691757 9 16415485965990454487
9962374 69 18339635771655629919
999808 66 18187093866651637227

> <PUBCHEM_SHAPE_MULTIPOLES>
626.3
20.29
2.6
1.03
0.44
0.7
0.11
-6.61
0.33
-1.45
-0.04
2.84
-0.31
-0.01

> <PUBCHEM_SHAPE_SELFOVERLAP>
1441.513

> <PUBCHEM_SHAPE_VOLUME>
319

> <PUBCHEM_COORDINATE_TYPE>
2
5
10

$$$$
