REMARK  Name = 101866716
REMARK  13 active torsions:
REMARK  status: ('A' for Active; 'I' for Inactive)
REMARK    1  A    between atoms: C_2  and  O_12
REMARK    2  A    between atoms: C_3  and  C_28
REMARK    3  A    between atoms: C_4  and  O_10
REMARK    4  A    between atoms: O_12  and  C_18
REMARK    5  A    between atoms: C_14  and  O_19
REMARK    6  A    between atoms: C_15  and  O_21
REMARK    7  A    between atoms: C_16  and  O_23
REMARK    8  A    between atoms: C_17  and  C_25
REMARK    9  A    between atoms: C_25  and  O_26
REMARK   10  A    between atoms: C_28  and  C_29
REMARK   11  A    between atoms: C_29  and  C_31
REMARK   12  A    between atoms: C_31  and  O_32
REMARK   13  A    between atoms: O_32  and  C_33
REMARK                            x       y       z     vdW  Elec       q    Type
REMARK                         _______ _______ _______ _____ _____    ______ ____
ROOT
ATOM      1  O   UNL     1       3.118   3.053   0.306  0.00  0.00    -0.447 OA
ATOM      2  C   UNL     1       1.053   0.069  -0.234  0.00  0.00    +0.174 C 
ATOM      3  C   UNL     1       1.961  -0.646  -1.019  0.00  0.00    +0.016 C 
ATOM      4  C   UNL     1       1.365   1.339   0.260  0.00  0.00    +0.206 C 
ATOM      5  C   UNL     1       3.218  -0.114  -1.337  0.00  0.00    +0.002 C 
ATOM      6  C   UNL     1       2.622   1.842  -0.072  0.00  0.00    +0.182 C 
ATOM      7  C   UNL     1       3.553   1.161  -0.850  0.00  0.00    +0.041 C 
ATOM      8  C   UNL     1       4.680   2.021  -0.943  0.00  0.00    +0.044 C 
ATOM      9  C   UNL     1       4.365   3.152  -0.226  0.00  0.00    +0.180 C 
ENDROOT
BRANCH   4  10
ATOM     10  O   UNL     1       0.485   2.045   1.027  0.00  0.00    -0.465 OA
ATOM     11  C   UNL     1       0.556   1.851   2.437  0.00  0.00    +0.253 C 
ENDBRANCH   4  10
BRANCH   2  12
ATOM     12  O   UNL     1      -0.167  -0.476   0.059  0.00  0.00    -0.448 OA
BRANCH  12  18
ATOM     13  O   UNL     1      -2.115   0.610   0.743  0.00  0.00    -0.316 OA
ATOM     14  C   UNL     1      -3.428  -0.002  -1.737  0.00  0.00    +0.173 C 
ATOM     15  C   UNL     1      -4.185   0.515  -0.514  0.00  0.00    +0.169 C 
ATOM     16  C   UNL     1      -2.102  -0.647  -1.335  0.00  0.00    +0.210 C 
ATOM     17  C   UNL     1      -3.271   1.363   0.372  0.00  0.00    +0.177 C 
ATOM     18  C   UNL     1      -1.314   0.250  -0.380  0.00  0.00    +0.318 C 
BRANCH  14  19
ATOM     19  O   UNL     1      -4.250  -0.972  -2.389  0.00  0.00    -0.379 OA
ATOM     20  H   UNL     1      -5.092  -0.563  -2.644  0.00  0.00    +0.211 HD
ENDBRANCH  14  19
BRANCH  15  21
ATOM     21  O   UNL     1      -5.291   1.306  -0.944  0.00  0.00    -0.379 OA
ATOM     22  H   UNL     1      -5.872   0.770  -1.506  0.00  0.00    +0.211 HD
ENDBRANCH  15  21
BRANCH  16  23
ATOM     23  O   UNL     1      -1.308  -0.865  -2.501  0.00  0.00    -0.377 OA
ATOM     24  H   UNL     1      -1.792  -1.434  -3.120  0.00  0.00    +0.211 HD
ENDBRANCH  16  23
BRANCH  17  25
ATOM     25  C   UNL     1      -3.971   1.794   1.658  0.00  0.00    +0.169 C 
BRANCH  25  26
ATOM     26  O   UNL     1      -3.065   2.562   2.429  0.00  0.00    -0.379 OA
ATOM     27  H   UNL     1      -3.498   2.843   3.250  0.00  0.00    +0.211 HD
ENDBRANCH  25  26
ENDBRANCH  17  25
ENDBRANCH  12  18
ENDBRANCH   2  12
BRANCH   3  28
ATOM     28  C   UNL     1       1.607  -2.003  -1.538  0.00  0.00    +0.041 C 
BRANCH  28  29
ATOM     29  C   UNL     1       2.278  -3.122  -0.734  0.00  0.00    +0.114 C 
BRANCH  29  31
ATOM     30  O   UNL     1       2.659  -2.935   1.660  0.00  0.00    -0.250 OA
ATOM     31  C   UNL     1       1.887  -3.095   0.725  0.00  0.00    +0.317 C 
BRANCH  31  32
ATOM     32  O   UNL     1       0.536  -3.280   0.824  0.00  0.00    -0.448 OA
BRANCH  32  33
ATOM     33  C   UNL     1       0.011  -3.281   2.156  0.00  0.00    +0.209 C 
ATOM     34  C   UNL     1      -1.487  -3.495   2.094  0.00  0.00    +0.051 C 
ENDBRANCH  32  33
ENDBRANCH  31  32
ENDBRANCH  29  31
ENDBRANCH  28  29
ENDBRANCH   3  28
TORSDOF 13
