REMARK  Name = 101888055
REMARK  9 active torsions:
REMARK  status: ('A' for Active; 'I' for Inactive)
REMARK    1  A    between atoms: C_3  and  O_11
REMARK    2  A    between atoms: C_6  and  O_13
REMARK    3  A    between atoms: C_9  and  O_17
REMARK    4  A    between atoms: C_10  and  O_15
REMARK    5  A    between atoms: O_17  and  C_19
REMARK    6  A    between atoms: C_19  and  C_20
REMARK    7  A    between atoms: C_21  and  C_22
REMARK    8  A    between atoms: C_25  and  O_28
REMARK    9  A    between atoms: C_27  and  O_30
REMARK                            x       y       z     vdW  Elec       q    Type
REMARK                         _______ _______ _______ _____ _____    ______ ____
ROOT
ATOM      1  O   UNL     1       5.567   1.188  -0.618  0.00  0.00    -0.306 OA
ATOM      2  C   UNL     1       4.029  -0.417   0.238  0.00  0.00    +0.082 C 
ATOM      3  C   UNL     1       3.104  -0.848   1.402  0.00  0.00    +0.119 C 
ATOM      4  C   UNL     1       3.423  -0.951  -1.092  0.00  0.00    +0.011 C 
ATOM      5  C   UNL     1       5.456  -0.956   0.413  0.00  0.00    +0.069 C 
ATOM      6  C   UNL     1       4.335   1.093   0.118  0.00  0.00    +0.239 C 
ATOM      7  C   UNL     1       1.670  -0.362   1.200  0.00  0.00    +0.073 C 
ATOM      8  C   UNL     1       1.968  -0.526  -1.300  0.00  0.00    +0.044 C 
ATOM      9  C   UNL     1       1.086  -0.884  -0.109  0.00  0.00    +0.172 C 
ATOM     10  C   UNL     1       6.313  -0.022  -0.434  0.00  0.00    +0.237 C 
ENDROOT
BRANCH   3  11
ATOM     11  O   UNL     1       3.582  -0.384   2.660  0.00  0.00    -0.384 OA
ATOM     12  H   UNL     1       4.493  -0.690   2.793  0.00  0.00    +0.210 HD
ENDBRANCH   3  11
BRANCH   6  13
ATOM     13  O   UNL     1       4.473   1.767   1.363  0.00  0.00    -0.328 OA
ATOM     14  C   UNL     1       4.295   3.169   1.218  0.00  0.00    +0.177 C 
ENDBRANCH   6  13
BRANCH  10  15
ATOM     15  O   UNL     1       6.600  -0.641  -1.681  0.00  0.00    -0.328 OA
ATOM     16  C   UNL     1       7.399   0.195  -2.506  0.00  0.00    +0.177 C 
ENDBRANCH  10  15
BRANCH   9  17
ATOM     17  O   UNL     1      -0.206  -0.324  -0.315  0.00  0.00    -0.449 OA
BRANCH  17  19
ATOM     18  O   UNL     1      -1.178  -2.078   0.833  0.00  0.00    -0.245 OA
ATOM     19  C   UNL     1      -1.248  -1.030   0.211  0.00  0.00    +0.341 C 
BRANCH  19  20
ATOM     20  C   UNL     1      -2.497  -0.299  -0.102  0.00  0.00    +0.082 C 
ATOM     21  C   UNL     1      -3.673  -0.793   0.312  0.00  0.00    +0.007 C 
BRANCH  21  22
ATOM     22  C   UNL     1      -4.981  -0.165   0.055  0.00  0.00    +0.003 C 
ATOM     23  C   UNL     1      -6.148  -0.924   0.144  0.00  0.00    +0.040 C 
ATOM     24  C   UNL     1      -5.053   1.188  -0.277  0.00  0.00    +0.003 C 
ATOM     25  C   UNL     1      -7.386  -0.331  -0.100  0.00  0.00    +0.167 C 
ATOM     26  C   UNL     1      -6.291   1.781  -0.520  0.00  0.00    +0.040 C 
ATOM     27  C   UNL     1      -7.458   1.022  -0.432  0.00  0.00    +0.167 C 
BRANCH  25  28
ATOM     28  O   UNL     1      -8.519  -1.083  -0.010  0.00  0.00    -0.503 OA
ATOM     29  H   UNL     1      -8.462  -1.991   0.214  0.00  0.00    +0.292 HD
ENDBRANCH  25  28
BRANCH  27  30
ATOM     30  O   UNL     1      -8.662   1.614  -0.672  0.00  0.00    -0.503 OA
ATOM     31  H   UNL     1      -9.450   1.111  -0.614  0.00  0.00    +0.292 HD
ENDBRANCH  27  30
ENDBRANCH  21  22
ENDBRANCH  19  20
ENDBRANCH  17  19
ENDBRANCH   9  17
TORSDOF 9
