101839869
  -OEChem-03292013293D

 61 63  0     1  0  0  0  0  0999 V2000
    1.4787    2.6459   -1.5839 O   0  0  0  0  0  0  0  0  0  0  0  0
    2.9156   -2.0071    1.6832 O   0  0  0  0  0  0  0  0  0  0  0  0
   -1.9098   -0.0854    0.4605 O   0  0  0  0  0  0  0  0  0  0  0  0
    5.2781    1.2072    2.1799 O   0  0  0  0  0  0  0  0  0  0  0  0
    7.3022    0.6903    1.3018 O   0  0  0  0  0  0  0  0  0  0  0  0
    5.5433   -1.7738   -2.8525 O   0  0  0  0  0  0  0  0  0  0  0  0
    4.8637   -2.9653   -1.0433 O   0  0  0  0  0  0  0  0  0  0  0  0
   -1.9303   -1.4198   -1.4503 O   0  0  0  0  0  0  0  0  0  0  0  0
   -3.3025   -2.1457    1.9563 O   0  0  0  0  0  0  0  0  0  0  0  0
   -7.9063   -1.8972    0.7603 O   0  0  0  0  0  0  0  0  0  0  0  0
    3.9804   -0.3040    0.4384 N   0  0  0  0  0  0  0  0  0  0  0  0
    3.5610    0.8401   -0.3622 C   0  0  0  0  0  0  0  0  0  0  0  0
    2.0760    0.7602   -0.2609 C   0  0  0  0  0  0  0  0  0  0  0  0
    5.3794   -0.6225    0.6237 C   0  0  1  0  0  0  0  0  0  0  0  0
    1.6986   -0.3292    0.5254 C   0  0  0  0  0  0  0  0  0  0  0  0
    2.9141   -1.0156    0.9771 C   0  0  0  0  0  0  0  0  0  0  0  0
    1.1164    1.5841   -0.8181 C   0  0  0  0  0  0  0  0  0  0  0  0
   -0.2289    1.2917   -0.5694 C   0  0  0  0  0  0  0  0  0  0  0  0
    0.3782   -0.6398    0.7862 C   0  0  0  0  0  0  0  0  0  0  0  0
    6.0703   -0.8712   -0.7201 C   0  0  0  0  0  0  0  0  0  0  0  0
   -0.5942    0.1895    0.2256 C   0  0  0  0  0  0  0  0  0  0  0  0
   -1.2947    2.1629   -1.1569 C   0  0  0  0  0  0  0  0  0  0  0  0
    6.0985    0.4778    1.3864 C   0  0  0  0  0  0  0  0  0  0  0  0
    5.4246   -1.9863   -1.5154 C   0  0  0  0  0  0  0  0  0  0  0  0
   -1.4297    3.4824   -0.4409 C   0  0  0  0  0  0  0  0  0  0  0  0
   -2.5029    3.9649    0.2142 C   0  0  0  0  0  0  0  0  0  0  0  0
   -2.4924   -0.9381   -0.4781 C   0  0  0  0  0  0  0  0  0  0  0  0
   -3.9204   -1.1902   -0.1570 C   0  0  0  0  0  0  0  0  0  0  0  0
   -2.5695    5.2951    0.9092 C   0  0  0  0  0  0  0  0  0  0  0  0
   -3.7753    3.1628    0.2861 C   0  0  0  0  0  0  0  0  0  0  0  0
   -4.9186   -0.8305   -1.0624 C   0  0  0  0  0  0  0  0  0  0  0  0
   -4.2617   -1.7871    1.0565 C   0  0  0  0  0  0  0  0  0  0  0  0
   -6.2582   -1.0679   -0.7543 C   0  0  0  0  0  0  0  0  0  0  0  0
   -5.6013   -2.0243    1.3648 C   0  0  0  0  0  0  0  0  0  0  0  0
   -4.5830   -0.1894   -2.3694 C   0  0  0  0  0  0  0  0  0  0  0  0
   -6.5994   -1.6647    0.4594 C   0  0  0  0  0  0  0  0  0  0  0  0
    3.8859    0.7110   -1.3978 H   0  0  0  0  0  0  0  0  0  0  0  0
    3.9444    1.7696    0.0650 H   0  0  0  0  0  0  0  0  0  0  0  0
    5.4442   -1.5250    1.2437 H   0  0  0  0  0  0  0  0  0  0  0  0
    0.1069   -1.4910    1.4006 H   0  0  0  0  0  0  0  0  0  0  0  0
    7.1187   -1.1542   -0.5665 H   0  0  0  0  0  0  0  0  0  0  0  0
    6.0737    0.0442   -1.3242 H   0  0  0  0  0  0  0  0  0  0  0  0
   -1.0498    2.3678   -2.2078 H   0  0  0  0  0  0  0  0  0  0  0  0
   -2.2495    1.6412   -1.2096 H   0  0  0  0  0  0  0  0  0  0  0  0
    2.4477    2.6895   -1.6432 H   0  0  0  0  0  0  0  0  0  0  0  0
   -0.5475    4.1209   -0.4737 H   0  0  0  0  0  0  0  0  0  0  0  0
    5.7636    1.9103    2.6618 H   0  0  0  0  0  0  0  0  0  0  0  0
    5.1274   -2.4925   -3.3748 H   0  0  0  0  0  0  0  0  0  0  0  0
   -3.3420    5.9255    0.4572 H   0  0  0  0  0  0  0  0  0  0  0  0
   -4.6111    3.7808    0.6329 H   0  0  0  0  0  0  0  0  0  0  0  0
   -4.0684    2.7763   -0.6945 H   0  0  0  0  0  0  0  0  0  0  0  0
   -3.6663    2.3315    0.9900 H   0  0  0  0  0  0  0  0  0  0  0  0
   -1.6179    5.8325    0.8415 H   0  0  0  0  0  0  0  0  0  0  0  0
   -2.8016    5.1596    1.9705 H   0  0  0  0  0  0  0  0  0  0  0  0
   -7.0398   -0.7897   -1.4572 H   0  0  0  0  0  0  0  0  0  0  0  0
   -5.8679   -2.4894    2.3105 H   0  0  0  0  0  0  0  0  0  0  0  0
   -4.0149    0.7316   -2.2210 H   0  0  0  0  0  0  0  0  0  0  0  0
   -4.0121   -0.8764   -3.0019 H   0  0  0  0  0  0  0  0  0  0  0  0
   -5.4855    0.0846   -2.9275 H   0  0  0  0  0  0  0  0  0  0  0  0
   -2.4180   -1.9492    1.6092 H   0  0  0  0  0  0  0  0  0  0  0  0
   -8.4600   -1.5868    0.0234 H   0  0  0  0  0  0  0  0  0  0  0  0
  1 17  1  0  0  0  0
  1 45  1  0  0  0  0
  2 16  2  0  0  0  0
  3 21  1  0  0  0  0
  3 27  1  0  0  0  0
  4 23  1  0  0  0  0
  4 47  1  0  0  0  0
  5 23  2  0  0  0  0
  6 24  1  0  0  0  0
  6 48  1  0  0  0  0
  7 24  2  0  0  0  0
  8 27  2  0  0  0  0
  9 32  1  0  0  0  0
  9 60  1  0  0  0  0
 10 36  1  0  0  0  0
 10 61  1  0  0  0  0
 11 12  1  0  0  0  0
 11 14  1  0  0  0  0
 11 16  1  0  0  0  0
 12 13  1  0  0  0  0
 12 37  1  0  0  0  0
 12 38  1  0  0  0  0
 13 15  1  0  0  0  0
 13 17  2  0  0  0  0
 14 20  1  0  0  0  0
 14 23  1  0  0  0  0
 14 39  1  0  0  0  0
 15 16  1  0  0  0  0
 15 19  2  0  0  0  0
 17 18  1  0  0  0  0
 18 21  2  0  0  0  0
 18 22  1  0  0  0  0
 19 21  1  0  0  0  0
 19 40  1  0  0  0  0
 20 24  1  0  0  0  0
 20 41  1  0  0  0  0
 20 42  1  0  0  0  0
 22 25  1  0  0  0  0
 22 43  1  0  0  0  0
 22 44  1  0  0  0  0
 25 26  2  0  0  0  0
 25 46  1  0  0  0  0
 26 29  1  0  0  0  0
 26 30  1  0  0  0  0
 27 28  1  0  0  0  0
 28 31  1  0  0  0  0
 28 32  2  0  0  0  0
 29 49  1  0  0  0  0
 29 53  1  0  0  0  0
 29 54  1  0  0  0  0
 30 50  1  0  0  0  0
 30 51  1  0  0  0  0
 30 52  1  0  0  0  0
 31 33  2  0  0  0  0
 31 35  1  0  0  0  0
 32 34  1  0  0  0  0
 33 36  1  0  0  0  0
 33 55  1  0  0  0  0
 34 36  2  0  0  0  0
 34 56  1  0  0  0  0
 35 57  1  0  0  0  0
 35 58  1  0  0  0  0
 35 59  1  0  0  0  0
M  END
> <PUBCHEM_COMPOUND_CID>
101839869

> <PUBCHEM_CONFORMER_RMSD>
1

> <PUBCHEM_CONFORMER_DIVERSEORDER>
4
38
74
41
52
39
48
49
27
50
68
76
71
81
36
72
69
64
51
78
65
46
66
75
45
80
67
55
42
54
62
73
61
70
37
53
60
56
44
59
6
32
35
23
9
63
79
40
31
77
58
19
34
16
43
8
12
24
18
22
11
29
14
33
21
30
57
26
17
7
25
47
15
28
5
20
3
10
13
1
2

> <PUBCHEM_MMFF94_PARTIAL_CHARGES>
45
1 -0.53
10 -0.53
11 -0.66
12 0.44
13 -0.14
14 0.36
15 0.09
16 0.54
17 0.08
18 -0.14
19 -0.15
2 -0.57
20 0.06
21 0.08
22 0.28
23 0.66
24 0.66
25 -0.29
26 -0.28
27 0.63
28 0.09
29 0.14
3 -0.23
30 0.14
31 -0.14
32 0.08
33 -0.15
34 -0.15
35 0.14
36 0.08
4 -0.65
40 0.15
45 0.45
46 0.15
47 0.5
48 0.5
5 -0.57
55 0.15
56 0.15
6 -0.65
60 0.45
61 0.45
7 -0.57
8 -0.57
9 -0.53

> <PUBCHEM_EFFECTIVE_ROTOR_COUNT>
9.4

> <PUBCHEM_PHARMACOPHORE_FEATURES>
15
1 1 donor
1 10 donor
1 2 acceptor
1 4 acceptor
1 5 acceptor
1 6 acceptor
1 7 acceptor
1 8 acceptor
1 9 donor
3 26 29 30 hydrophobe
3 4 5 23 anion
3 6 7 24 anion
5 11 12 13 15 16 rings
6 13 15 17 18 19 21 rings
6 28 31 32 33 34 36 rings

> <PUBCHEM_HEAVY_ATOM_COUNT>
36

> <PUBCHEM_ATOM_DEF_STEREO_COUNT>
0

> <PUBCHEM_ATOM_UDEF_STEREO_COUNT>
1

> <PUBCHEM_BOND_DEF_STEREO_COUNT>
0

> <PUBCHEM_BOND_UDEF_STEREO_COUNT>
0

> <PUBCHEM_ISOTOPIC_ATOM_COUNT>
0

> <PUBCHEM_COMPONENT_COUNT>
1

> <PUBCHEM_CACTVS_TAUTO_COUNT>
998

> <PUBCHEM_CONFORMER_ID>
0611F3FD00000004

> <PUBCHEM_MMFF94_ENERGY>
100.9447

> <PUBCHEM_FEATURE_SELFOVERLAP>
76.329

> <PUBCHEM_SHAPE_FINGERPRINT>
11331351 85 18273217512954622957
11411753 29 17988931033841290808
11456790 92 18261403291343429921
11578080 2 17130999655159434201
11646440 116 18334855069365192889
12516196 113 18336542815493013355
12788726 201 18335970983715756377
13540713 5 17751637650721607346
13782708 43 17988364767508550606
140371 6 18187369839094765914
14068700 675 18040712606063765469
14955137 171 18338523061952387375
15082195 135 17676217870780825926
15131766 46 16126666353651600128
15183329 4 17312821584596571567
15351339 4 17677032578784641147
19301679 30 18412269419555672375
23522609 53 16081379488052870255
23536364 44 18187641389077289077
23559900 14 17315633161369010583
23569914 152 17332499303659800615
25269216 80 18263379044064375342
2747138 104 18335985354486418354
3004659 81 17385719235661876290
3383291 50 18261109716663877899
437815 12 18334012831048388807
469060 322 17095799919545479468
5104073 3 18264190441075607992
513202 73 18201441324925769247
5912855 24 18190738626900592659

> <PUBCHEM_SHAPE_MULTIPOLES>
677.19
17.79
4.3
1.85
5.55
6.55
-0.47
-12.75
1.88
-4.98
0.52
1.15
-0.7
2.09

> <PUBCHEM_SHAPE_SELFOVERLAP>
1463.608

> <PUBCHEM_SHAPE_VOLUME>
371

> <PUBCHEM_COORDINATE_TYPE>
2
5
10

$$$$
