REMARK  Name = 101849408
REMARK  10 active torsions:
REMARK  status: ('A' for Active; 'I' for Inactive)
REMARK    1  A    between atoms: C_6  and  O_17
REMARK    2  A    between atoms: C_9  and  C_28
REMARK    3  A    between atoms: O_17  and  C_19
REMARK    4  A    between atoms: C_19  and  C_20
REMARK    5  A    between atoms: C_20  and  C_22
REMARK    6  A    between atoms: C_21  and  C_25
REMARK    7  A    between atoms: C_22  and  O_23
REMARK    8  A    between atoms: C_25  and  O_26
REMARK    9  A    between atoms: C_28  and  O_29
REMARK   10  A    between atoms: O_29  and  C_31
REMARK                            x       y       z     vdW  Elec       q    Type
REMARK                         _______ _______ _______ _____ _____    ______ ____
ROOT
ATOM      1  O   UNL     1      -3.435   1.384  -0.315  0.00  0.00    -0.448 OA
ATOM      2  O   UNL     1      -3.737   3.656  -0.082  0.00  0.00    -0.245 OA
ATOM      3  C   UNL     1      -2.334   0.484  -0.074  0.00  0.00    +0.184 C 
ATOM      4  C   UNL     1      -2.801  -0.977   0.036  0.00  0.00    +0.077 C 
ATOM      5  C   UNL     1      -1.735   1.008   1.228  0.00  0.00    +0.110 C 
ATOM      6  C   UNL     1      -0.332   0.507   1.563  0.00  0.00    +0.181 C 
ATOM      7  C   UNL     1      -1.623  -1.953   0.013  0.00  0.00    -0.037 C 
ATOM      8  C   UNL     1      -0.317  -0.979   1.948  0.00  0.00    +0.069 C 
ATOM      9  C   UNL     1      -0.546  -1.968   0.824  0.00  0.00    -0.004 C 
ATOM     10  C   UNL     1      -3.668  -1.445  -1.121  0.00  0.00    -0.041 C 
ATOM     11  C   UNL     1      -1.850  -2.928  -1.122  0.00  0.00    +0.047 C 
ATOM     12  C   UNL     1      -1.918   2.472   0.990  0.00  0.00    +0.060 C 
ATOM     13  C   UNL     1      -3.139  -2.508  -1.739  0.00  0.00    -0.030 C 
ATOM     14  C   UNL     1      -3.120   2.631   0.143  0.00  0.00    +0.337 C 
ATOM     15  C   UNL     1      -4.994  -0.849  -1.443  0.00  0.00    +0.026 C 
ATOM     16  C   UNL     1      -1.202   3.524   1.392  0.00  0.00    +0.002 C 
ENDROOT
BRANCH   6  17
ATOM     17  O   UNL     1       0.581   0.707   0.486  0.00  0.00    -0.449 OA
BRANCH  17  19
ATOM     18  O   UNL     1       2.316   0.932   1.982  0.00  0.00    -0.245 OA
ATOM     19  C   UNL     1       1.883   0.909   0.839  0.00  0.00    +0.339 C 
BRANCH  19  20
ATOM     20  C   UNL     1       2.716   1.097  -0.389  0.00  0.00    +0.081 C 
ATOM     21  C   UNL     1       3.799   1.883  -0.243  0.00  0.00    +0.010 C 
BRANCH  20  22
ATOM     22  C   UNL     1       2.265   0.465  -1.674  0.00  0.00    +0.170 C 
BRANCH  22  23
ATOM     23  O   UNL     1       1.391   1.354  -2.354  0.00  0.00    -0.377 OA
ATOM     24  H   UNL     1       1.099   0.948  -3.185  0.00  0.00    +0.211 HD
ENDBRANCH  22  23
ENDBRANCH  20  22
BRANCH  21  25
ATOM     25  C   UNL     1       4.809   2.230  -1.292  0.00  0.00    +0.163 C 
BRANCH  25  26
ATOM     26  O   UNL     1       4.836   3.642  -1.448  0.00  0.00    -0.377 OA
ATOM     27  H   UNL     1       5.488   3.880  -2.126  0.00  0.00    +0.211 HD
ENDBRANCH  25  26
ENDBRANCH  21  25
ENDBRANCH  19  20
ENDBRANCH  17  19
ENDBRANCH   6  17
BRANCH   9  28
ATOM     28  C   UNL     1       0.547  -3.003   0.699  0.00  0.00    +0.230 C 
BRANCH  28  29
ATOM     29  O   UNL     1       1.775  -2.357   0.441  0.00  0.00    -0.444 OA
BRANCH  29  31
ATOM     30  O   UNL     1       2.865  -4.393   0.381  0.00  0.00    -0.250 OA
ATOM     31  C   UNL     1       2.870  -3.172   0.301  0.00  0.00    +0.318 C 
ATOM     32  C   UNL     1       4.096  -2.353   0.032  0.00  0.00    +0.121 C 
ENDBRANCH  29  31
ENDBRANCH  28  29
ENDBRANCH   9  28
TORSDOF 10
