REMARK  Name = 101997521
REMARK  13 active torsions:
REMARK  status: ('A' for Active; 'I' for Inactive)
REMARK    1  A    between atoms: C_4  and  C_12
REMARK    2  A    between atoms: C_8  and  C_22
REMARK    3  A    between atoms: N_11  and  C_14
REMARK    4  A    between atoms: C_14  and  C_16
REMARK    5  A    between atoms: C_14  and  C_18
REMARK    6  A    between atoms: C_18  and  C_19
REMARK    7  A    between atoms: C_22  and  C_23
REMARK    8  A    between atoms: C_22  and  C_28
REMARK    9  A    between atoms: C_23  and  C_24
REMARK   10  A    between atoms: C_24  and  C_25
REMARK   11  A    between atoms: C_25  and  C_26
REMARK   12  A    between atoms: C_28  and  C_31
REMARK   13  A    between atoms: N_30  and  O_33
REMARK                            x       y       z     vdW  Elec       q    Type
REMARK                         _______ _______ _______ _____ _____    ______ ____
ROOT
ATOM      1  O   UNL     1      -0.793  -0.419  -1.801  0.00  0.00    -0.274 OA
ATOM      2  N   UNL     1      -0.647   1.309  -0.265  0.00  0.00    -0.217 N 
ATOM      3  N   UNL     1      -1.161   1.928   0.894  0.00  0.00    -0.226 NA
ATOM      4  C   UNL     1       0.679   1.755  -0.703  0.00  0.00    +0.167 C 
ATOM      5  C   UNL     1       0.808   3.278  -0.743  0.00  0.00    +0.032 C 
ATOM      6  C   UNL     1       0.174   3.943   0.477  0.00  0.00    +0.021 C 
ATOM      7  C   UNL     1      -1.222   3.380   0.726  0.00  0.00    +0.088 C 
ATOM      8  C   UNL     1      -1.286   0.228  -0.871  0.00  0.00    +0.239 C 
ATOM      9  H   UNL     1      -0.556   1.708   1.686  0.00  0.00    +0.145 HD
ENDROOT
BRANCH   4  12
ATOM     10  O   UNL     1       1.434   0.914   1.403  0.00  0.00    -0.273 OA
ATOM     11  N   UNL     1       2.875   0.837  -0.424  0.00  0.00    -0.298 N 
ATOM     12  C   UNL     1       1.682   1.121   0.217  0.00  0.00    +0.242 C 
ATOM     13  H   UNL     1       2.954   1.049  -1.382  0.00  0.00    +0.150 HD
BRANCH  11  14
ATOM     14  C   UNL     1       4.011   0.244   0.245  0.00  0.00    +0.129 C 
BRANCH  14  16
ATOM     15  O   UNL     1       5.276   2.061  -0.727  0.00  0.00    -0.294 OA
ATOM     16  C   UNL     1       5.131   1.274   0.209  0.00  0.00    +0.169 C 
ATOM     17  C   UNL     1       6.040   1.325   1.411  0.00  0.00    +0.074 C 
ENDBRANCH  14  16
BRANCH  14  18
ATOM     18  C   UNL     1       4.471  -1.055  -0.421  0.00  0.00    +0.027 C 
BRANCH  18  19
ATOM     19  C   UNL     1       3.400  -2.162  -0.490  0.00  0.00    +0.002 C 
ATOM     20  C   UNL     1       2.950  -2.533   0.926  0.00  0.00    +0.000 C 
ATOM     21  C   UNL     1       3.899  -3.413  -1.215  0.00  0.00    +0.000 C 
ENDBRANCH  18  19
ENDBRANCH  14  18
ENDBRANCH  11  14
ENDBRANCH   4  12
BRANCH   8  22
ATOM     22  C   UNL     1      -2.654  -0.155  -0.357  0.00  0.00    +0.087 C 
BRANCH  22  23
ATOM     23  C   UNL     1      -2.885  -1.665  -0.521  0.00  0.00    +0.010 C 
BRANCH  23  24
ATOM     24  C   UNL     1      -1.881  -2.498   0.287  0.00  0.00    +0.001 C 
BRANCH  24  25
ATOM     25  C   UNL     1      -2.125  -4.008   0.188  0.00  0.00    +0.000 C 
BRANCH  25  26
ATOM     26  C   UNL     1      -1.085  -4.843   0.936  0.00  0.00    +0.000 C 
ATOM     27  C   UNL     1      -1.380  -6.331   0.816  0.00  0.00    +0.000 C 
ENDBRANCH  25  26
ENDBRANCH  24  25
ENDBRANCH  23  24
ENDBRANCH  22  23
BRANCH  22  28
ATOM     28  C   UNL     1      -3.693   0.667  -1.127  0.00  0.00    +0.096 C 
BRANCH  28  31
ATOM     29  O   UNL     1      -5.895  -0.005  -0.443  0.00  0.00    -0.273 OA
ATOM     30  N   UNL     1      -4.989   1.912   0.477  0.00  0.00    -0.197 N 
ATOM     31  C   UNL     1      -4.978   0.806  -0.334  0.00  0.00    +0.245 C 
ATOM     32  H   UNL     1      -4.226   2.532   0.527  0.00  0.00    +0.182 HD
BRANCH  30  33
ATOM     33  O   UNL     1      -6.155   2.103   1.230  0.00  0.00    -0.295 OA
ATOM     34  H   UNL     1      -6.065   2.905   1.767  0.00  0.00    +0.241 HD
ENDBRANCH  30  33
ENDBRANCH  28  31
ENDBRANCH  22  28
ENDBRANCH   8  22
TORSDOF 13
