REMARK  Name = 101967036
REMARK  5 active torsions:
REMARK  status: ('A' for Active; 'I' for Inactive)
REMARK    1  A    between atoms: C_7  and  O_19
REMARK    2  A    between atoms: C_8  and  O_21
REMARK    3  A    between atoms: C_9  and  O_23
REMARK    4  A    between atoms: O_23  and  C_25
REMARK    5  A    between atoms: C_25  and  C_26
REMARK                            x       y       z     vdW  Elec       q    Type
REMARK                         _______ _______ _______ _____ _____    ______ ____
ROOT
ATOM      1  O   UNL     1      -2.031   0.701  -0.966  0.00  0.00    -0.334 OA
ATOM      2  O   UNL     1       0.326  -2.553   0.988  0.00  0.00    -0.444 OA
ATOM      3  O   UNL     1       1.993  -3.876   0.133  0.00  0.00    -0.245 OA
ATOM      4  C   UNL     1      -1.417   1.924  -0.558  0.00  0.00    +0.102 C 
ATOM      5  C   UNL     1      -2.407   2.567   0.425  0.00  0.00    +0.062 C 
ATOM      6  C   UNL     1      -0.053   1.629   0.100  0.00  0.00    +0.071 C 
ATOM      7  C   UNL     1      -3.122   0.358  -0.108  0.00  0.00    +0.225 C 
ATOM      8  C   UNL     1      -3.118   1.371   1.046  0.00  0.00    +0.168 C 
ATOM      9  C   UNL     1       0.831   0.534  -0.542  0.00  0.00    +0.179 C 
ATOM     10  C   UNL     1       0.181  -0.869  -0.703  0.00  0.00    +0.113 C 
ATOM     11  C   UNL     1      -0.461  -1.400   0.585  0.00  0.00    +0.198 C 
ATOM     12  C   UNL     1      -1.225   2.786  -1.806  0.00  0.00    +0.030 C 
ATOM     13  C   UNL     1      -3.033  -1.113   0.297  0.00  0.00    +0.008 C 
ATOM     14  C   UNL     1      -1.909  -1.835   0.519  0.00  0.00    +0.013 C 
ATOM     15  C   UNL     1       1.165  -1.942  -1.037  0.00  0.00    +0.060 C 
ATOM     16  C   UNL     1      -4.366  -1.807   0.488  0.00  0.00    +0.031 C 
ATOM     17  C   UNL     1       1.244  -2.918   0.057  0.00  0.00    +0.338 C 
ATOM     18  C   UNL     1       1.888  -2.073  -2.152  0.00  0.00    +0.002 C 
ENDROOT
BRANCH   7  19
ATOM     19  O   UNL     1      -4.317   0.544  -0.885  0.00  0.00    -0.359 OA
ATOM     20  H   UNL     1      -4.388   1.474  -1.151  0.00  0.00    +0.213 HD
ENDBRANCH   7  19
BRANCH   8  21
ATOM     21  O   UNL     1      -2.381   0.904   2.167  0.00  0.00    -0.379 OA
ATOM     22  H   UNL     1      -2.404   1.572   2.870  0.00  0.00    +0.211 HD
ENDBRANCH   8  21
BRANCH   9  23
ATOM     23  O   UNL     1       1.994   0.410   0.290  0.00  0.00    -0.452 OA
BRANCH  23  25
ATOM     24  O   UNL     1       3.011   2.114  -0.887  0.00  0.00    -0.250 OA
ATOM     25  C   UNL     1       3.013   1.271   0.001  0.00  0.00    +0.316 C 
BRANCH  25  26
ATOM     26  C   UNL     1       4.170   1.014   0.950  0.00  0.00    +0.099 C 
ATOM     27  C   UNL     1       5.094  -0.044   0.360  0.00  0.00    +0.012 C 
ATOM     28  C   UNL     1       4.931   2.305   1.238  0.00  0.00    +0.012 C 
ENDBRANCH  25  26
ENDBRANCH  23  25
ENDBRANCH   9  23
TORSDOF 5
