REMARK  Name = 101991018
REMARK  8 active torsions:
REMARK  status: ('A' for Active; 'I' for Inactive)
REMARK    1  A    between atoms: C_2  and  O_13
REMARK    2  A    between atoms: C_3  and  O_7
REMARK    3  A    between atoms: C_4  and  O_9
REMARK    4  A    between atoms: C_5  and  O_11
REMARK    5  A    between atoms: C_6  and  C_26
REMARK    6  A    between atoms: O_13  and  C_21
REMARK    7  A    between atoms: C_20  and  O_24
REMARK    8  A    between atoms: C_26  and  O_27
REMARK                            x       y       z     vdW  Elec       q    Type
REMARK                         _______ _______ _______ _____ _____    ______ ____
ROOT
ATOM      1  O   UNL     1      -1.432  -0.647  -0.345  0.00  0.00    -0.326 OA
ATOM      2  C   UNL     1      -1.249   0.519   0.454  0.00  0.00    +0.268 C 
ATOM      3  C   UNL     1      -2.276   1.589   0.084  0.00  0.00    +0.197 C 
ATOM      4  C   UNL     1      -3.701   1.040   0.156  0.00  0.00    +0.172 C 
ATOM      5  C   UNL     1      -3.819  -0.294  -0.580  0.00  0.00    +0.169 C 
ATOM      6  C   UNL     1      -2.710  -1.254  -0.144  0.00  0.00    +0.176 C 
ENDROOT
BRANCH   3   7
ATOM      7  O   UNL     1      -2.140   2.676   0.999  0.00  0.00    -0.378 OA
ATOM      8  H   UNL     1      -1.236   3.025   0.954  0.00  0.00    +0.211 HD
ENDBRANCH   3   7
BRANCH   4   9
ATOM      9  O   UNL     1      -4.599   1.965  -0.460  0.00  0.00    -0.379 OA
ATOM     10  H   UNL     1      -4.541   2.822  -0.008  0.00  0.00    +0.211 HD
ENDBRANCH   4   9
BRANCH   5  11
ATOM     11  O   UNL     1      -5.087  -0.879  -0.297  0.00  0.00    -0.379 OA
ATOM     12  H   UNL     1      -5.792  -0.272  -0.573  0.00  0.00    +0.211 HD
ENDBRANCH   5  11
BRANCH   2  13
ATOM     13  O   UNL     1       0.051   1.061   0.226  0.00  0.00    -0.293 OA
BRANCH  13  21
ATOM     14  O   UNL     1       4.735  -0.338  -1.499  0.00  0.00    -0.351 OA
ATOM     15  O   UNL     1       0.927  -0.278   1.927  0.00  0.00    -0.450 OA
ATOM     16  C   UNL     1       3.870  -0.971  -0.553  0.00  0.00    +0.149 C 
ATOM     17  C   UNL     1       3.328  -0.223  -1.727  0.00  0.00    +0.169 C 
ATOM     18  C   UNL     1       3.591  -0.179   0.697  0.00  0.00    +0.063 C 
ATOM     19  C   UNL     1       2.437   0.776   0.279  0.00  0.00    +0.106 C 
ATOM     20  C   UNL     1       2.665   1.029  -1.233  0.00  0.00    +0.146 C 
ATOM     21  C   UNL     1       1.071   0.118   0.557  0.00  0.00    +0.292 C 
ATOM     22  C   UNL     1       3.232  -0.980   1.907  0.00  0.00    +0.016 C 
ATOM     23  C   UNL     1       2.003  -0.952   2.435  0.00  0.00    +0.171 C 
BRANCH  20  24
ATOM     24  O   UNL     1       3.517   2.152  -1.432  0.00  0.00    -0.382 OA
ATOM     25  H   UNL     1       3.648   2.294  -2.383  0.00  0.00    +0.210 HD
ENDBRANCH  20  24
ENDBRANCH  13  21
ENDBRANCH   2  13
BRANCH   6  26
ATOM     26  C   UNL     1      -2.735  -2.550  -0.949  0.00  0.00    +0.169 C 
BRANCH  26  27
ATOM     27  O   UNL     1      -1.680  -3.380  -0.500  0.00  0.00    -0.379 OA
ATOM     28  H   UNL     1      -1.684  -4.209  -1.004  0.00  0.00    +0.211 HD
ENDBRANCH  26  27
ENDBRANCH   6  26
TORSDOF 8
