REMARK  Name = 10199204
REMARK  9 active torsions:
REMARK  status: ('A' for Active; 'I' for Inactive)
REMARK    1  A    between atoms: C_1  and  C_16
REMARK    2  A    between atoms: C_2  and  O_7
REMARK    3  A    between atoms: C_3  and  O_9
REMARK    4  A    between atoms: C_4  and  C_12
REMARK    5  A    between atoms: C_12  and  O_13
REMARK    6  A    between atoms: C_15  and  C_17
REMARK    7  A    between atoms: C_17  and  C_18
REMARK    8  A    between atoms: C_18  and  C_20
REMARK    9  A    between atoms: C_20  and  O_21
REMARK                            x       y       z     vdW  Elec       q    Type
REMARK                         _______ _______ _______ _____ _____    ______ ____
ROOT
ATOM      1  C   UNL     1       0.571  -0.666   0.338  0.00  0.00    +0.067 C 
ATOM      2  C   UNL     1       0.793   0.704   0.376  0.00  0.00    +0.137 C 
ATOM      3  C   UNL     1       1.615  -1.552   0.108  0.00  0.00    +0.137 C 
ATOM      4  C   UNL     1       3.139   0.317  -0.053  0.00  0.00    +0.081 C 
ATOM      5  C   UNL     1       2.083   1.198   0.179  0.00  0.00    +0.043 C 
ATOM      6  C   UNL     1       2.905  -1.058  -0.089  0.00  0.00    +0.043 C 
ENDROOT
BRANCH   2   7
ATOM      7  O   UNL     1      -0.220   1.589   0.601  0.00  0.00    -0.505 OA
ATOM      8  H   UNL     1      -1.093   1.277   0.736  0.00  0.00    +0.292 HD
ENDBRANCH   2   7
BRANCH   3   9
ATOM      9  O   UNL     1       1.417  -2.900   0.067  0.00  0.00    -0.505 OA
ATOM     10  H   UNL     1       0.558  -3.252   0.196  0.00  0.00    +0.292 HD
ENDBRANCH   3   9
BRANCH   4  12
ATOM     11  O   UNL     1       5.470   0.128  -0.470  0.00  0.00    -0.245 OA
ATOM     12  C   UNL     1       4.484   0.831  -0.260  0.00  0.00    +0.338 C 
BRANCH  12  13
ATOM     13  O   UNL     1       4.579   2.190  -0.202  0.00  0.00    -0.477 OA
ATOM     14  H   UNL     1       3.814   2.707  -0.040  0.00  0.00    +0.295 HD
ENDBRANCH  12  13
ENDBRANCH   4  12
BRANCH   1  16
ATOM     15  C   UNL     1      -1.685  -1.417  -0.428  0.00  0.00    -0.025 C 
ATOM     16  C   UNL     1      -0.790  -1.187   0.545  0.00  0.00    +0.001 C 
BRANCH  15  17
ATOM     17  C   UNL     1      -3.065  -1.960  -0.172  0.00  0.00    +0.038 C 
BRANCH  17  18
ATOM     18  C   UNL     1      -4.160  -1.006  -0.652  0.00  0.00    +0.114 C 
BRANCH  18  20
ATOM     19  O   UNL     1      -3.730   0.539   1.179  0.00  0.00    -0.250 OA
ATOM     20  C   UNL     1      -4.120   0.342   0.036  0.00  0.00    +0.317 C 
BRANCH  20  21
ATOM     21  O   UNL     1      -4.616   1.289  -0.814  0.00  0.00    -0.444 OA
ATOM     22  C   UNL     1      -4.670   2.620  -0.290  0.00  0.00    +0.256 C 
ENDBRANCH  20  21
ENDBRANCH  18  20
ENDBRANCH  17  18
ENDBRANCH  15  17
ENDBRANCH   1  16
TORSDOF 9
