REMARK  Name = 101938072
REMARK  10 active torsions:
REMARK  status: ('A' for Active; 'I' for Inactive)
REMARK    1  A    between atoms: C_6  and  O_19
REMARK    2  A    between atoms: C_11  and  C_32
REMARK    3  A    between atoms: O_19  and  C_21
REMARK    4  A    between atoms: C_22  and  O_25
REMARK    5  A    between atoms: C_23  and  O_27
REMARK    6  A    between atoms: C_24  and  C_29
REMARK    7  A    between atoms: C_29  and  O_30
REMARK    8  A    between atoms: C_32  and  O_33
REMARK    9  A    between atoms: C_32  and  C_35
REMARK   10  A    between atoms: C_35  and  O_36
REMARK                            x       y       z     vdW  Elec       q    Type
REMARK                         _______ _______ _______ _____ _____    ______ ____
ROOT
ATOM      1  C   UNL     1      -1.074  -0.308  -0.486  0.00  0.00    +0.004 C 
ATOM      2  C   UNL     1      -0.361   0.859   0.290  0.00  0.00    +0.007 C 
ATOM      3  C   UNL     1      -2.344  -0.736   0.374  0.00  0.00    +0.018 C 
ATOM      4  C   UNL     1       1.120   1.206  -0.124  0.00  0.00    +0.025 C 
ATOM      5  C   UNL     1      -0.116  -1.521  -0.601  0.00  0.00    +0.003 C 
ATOM      6  C   UNL     1       1.938  -0.112  -0.245  0.00  0.00    +0.118 C 
ATOM      7  C   UNL     1      -1.303   2.080   0.385  0.00  0.00    +0.025 C 
ATOM      8  C   UNL     1      -3.138   0.448   0.913  0.00  0.00    -0.049 C 
ATOM      9  C   UNL     1       1.265  -1.158  -1.129  0.00  0.00    +0.030 C 
ATOM     10  C   UNL     1      -3.263  -1.741  -0.360  0.00  0.00    +0.004 C 
ATOM     11  C   UNL     1      -5.349  -0.835   0.814  0.00  0.00    +0.031 C 
ATOM     12  C   UNL     1      -1.515   0.113  -1.911  0.00  0.00    +0.000 C 
ATOM     13  C   UNL     1      -4.444   0.132   1.604  0.00  0.00    +0.024 C 
ATOM     14  C   UNL     1      -4.529  -2.084   0.428  0.00  0.00    +0.003 C 
ATOM     15  C   UNL     1      -2.673   1.708   0.871  0.00  0.00    -0.035 C 
ATOM     16  C   UNL     1       1.254   2.054  -1.409  0.00  0.00    +0.002 C 
ATOM     17  C   UNL     1       1.772   2.055   1.004  0.00  0.00    +0.002 C 
ATOM     18  C   UNL     1      -6.527  -1.268   1.706  0.00  0.00    +0.003 C 
ENDROOT
BRANCH   6  19
ATOM     19  O   UNL     1       3.244   0.152  -0.755  0.00  0.00    -0.331 OA
BRANCH  19  21
ATOM     20  O   UNL     1       4.769  -0.267   0.982  0.00  0.00    -0.326 OA
ATOM     21  C   UNL     1       4.198  -0.767  -0.235  0.00  0.00    +0.266 C 
ATOM     22  C   UNL     1       5.348  -0.905  -1.220  0.00  0.00    +0.196 C 
ATOM     23  C   UNL     1       6.288   0.206  -0.797  0.00  0.00    +0.172 C 
ATOM     24  C   UNL     1       6.048   0.334   0.705  0.00  0.00    +0.176 C 
BRANCH  22  25
ATOM     25  O   UNL     1       5.997  -2.157  -1.029  0.00  0.00    -0.378 OA
ATOM     26  H   UNL     1       5.401  -2.874  -1.297  0.00  0.00    +0.211 HD
ENDBRANCH  22  25
BRANCH  23  27
ATOM     27  O   UNL     1       5.914   1.421  -1.443  0.00  0.00    -0.379 OA
ATOM     28  H   UNL     1       6.066   1.340  -2.398  0.00  0.00    +0.211 HD
ENDBRANCH  23  27
BRANCH  24  29
ATOM     29  C   UNL     1       7.092  -0.393   1.542  0.00  0.00    +0.169 C 
BRANCH  29  30
ATOM     30  O   UNL     1       6.787  -0.204   2.912  0.00  0.00    -0.379 OA
ATOM     31  H   UNL     1       7.446  -0.664   3.456  0.00  0.00    +0.211 HD
ENDBRANCH  29  30
ENDBRANCH  24  29
ENDBRANCH  19  21
ENDBRANCH   6  19
BRANCH  11  32
ATOM     32  C   UNL     1      -5.926  -0.137  -0.433  0.00  0.00    +0.140 C 
BRANCH  32  33
ATOM     33  O   UNL     1      -6.705  -1.086  -1.149  0.00  0.00    -0.382 OA
ATOM     34  H   UNL     1      -6.145  -1.835  -1.406  0.00  0.00    +0.210 HD
ENDBRANCH  32  33
BRANCH  32  35
ATOM     35  C   UNL     1      -6.809   1.029  -0.036  0.00  0.00    +0.166 C 
BRANCH  35  36
ATOM     36  O   UNL     1      -6.959   1.880  -1.168  0.00  0.00    -0.379 OA
ATOM     37  H   UNL     1      -7.523   2.634  -0.933  0.00  0.00    +0.211 HD
ENDBRANCH  35  36
ENDBRANCH  32  35
ENDBRANCH  11  32
TORSDOF 10
