REMARK  Name = 101923079
REMARK  5 active torsions:
REMARK  status: ('A' for Active; 'I' for Inactive)
REMARK    1  A    between atoms: C_5  and  N_20
REMARK    2  A    between atoms: C_10  and  N_29
REMARK    3  A    between atoms: C_15  and  C_33
REMARK    4  A    between atoms: C_21  and  N_25
REMARK    5  A    between atoms: C_33  and  O_34
REMARK                            x       y       z     vdW  Elec       q    Type
REMARK                         _______ _______ _______ _____ _____    ______ ____
ROOT
ATOM      1  F   UNL     1      -2.220   3.136  -0.191  0.00  0.00    -0.201 F 
ATOM      2  O   UNL     1      -1.188  -1.472  -0.048  0.00  0.00    -0.450 OA
ATOM      3  O   UNL     1       2.873   2.985  -0.038  0.00  0.00    -0.286 OA
ATOM      4  N   UNL     1       1.603  -0.917   0.022  0.00  0.00    -0.259 N 
ATOM      5  C   UNL     1      -1.687   0.831  -0.120  0.00  0.00    +0.113 A 
ATOM      6  C   UNL     1      -0.724  -0.179  -0.066  0.00  0.00    +0.175 A 
ATOM      7  C   UNL     1       0.640   0.131  -0.033  0.00  0.00    +0.096 A 
ATOM      8  C   UNL     1      -1.293   2.167  -0.141  0.00  0.00    +0.169 A 
ATOM      9  C   UNL     1       1.022   1.483  -0.055  0.00  0.00    +0.071 A 
ATOM     10  C   UNL     1       0.061   2.498  -0.109  0.00  0.00    +0.075 A 
ATOM     11  C   UNL     1       1.131  -2.267   0.042  0.00  0.00    +0.091 C 
ATOM     12  C   UNL     1      -0.260  -2.491   0.005  0.00  0.00    +0.159 C 
ATOM     13  C   UNL     1       2.461   1.832  -0.021  0.00  0.00    +0.206 C 
ATOM     14  C   UNL     1       2.942  -0.549   0.052  0.00  0.00    +0.079 C 
ATOM     15  C   UNL     1       3.422   0.703   0.035  0.00  0.00    +0.129 C 
ATOM     16  C   UNL     1       1.964  -3.397   0.096  0.00  0.00    +0.018 C 
ATOM     17  C   UNL     1      -0.794  -3.785   0.021  0.00  0.00    +0.039 C 
ATOM     18  C   UNL     1       1.430  -4.691   0.112  0.00  0.00    +0.001 C 
ATOM     19  C   UNL     1       0.054  -4.885   0.075  0.00  0.00    +0.003 C 
ENDROOT
BRANCH   5  20
ATOM     20  N   UNL     1      -3.030   0.524  -0.151  0.00  0.00    -0.306 N 
ATOM     21  C   UNL     1      -5.234   0.107   0.556  0.00  0.00    -0.044 C 
ATOM     22  C   UNL     1      -3.998   0.962   0.856  0.00  0.00    +0.069 C 
ATOM     23  C   UNL     1      -5.161  -0.067  -0.958  0.00  0.00    +0.001 C 
ATOM     24  C   UNL     1      -3.666  -0.275  -1.198  0.00  0.00    +0.089 C 
BRANCH  21  25
ATOM     25  N   UNL     1      -6.472   0.718   1.008  0.00  0.00    +0.383 N 
ATOM     26  H   UNL     1      -6.456   0.805   2.024  0.00  0.00    -0.089 HD
ATOM     27  H   UNL     1      -7.261   0.135   0.729  0.00  0.00    -0.089 HD
ATOM     28  H   UNL     1      -6.567   1.643   0.589  0.00  0.00    -0.089 HD
ENDBRANCH  21  25
ENDBRANCH   5  20
BRANCH  10  29
ATOM     29  N   UNL     1       0.395   3.871  -0.131  0.00  0.00    -0.355 N 
ATOM     30  H   UNL     1      -0.316   4.550  -0.169  0.00  0.00    +0.142 HD
ATOM     31  H   UNL     1       1.340   4.148  -0.109  0.00  0.00    +0.142 HD
ENDBRANCH  10  29
BRANCH  15  33
ATOM     32  O   UNL     1       5.682   0.095  -0.384  0.00  0.00    -0.245 OA
ATOM     33  C   UNL     1       4.876   0.884   0.074  0.00  0.00    +0.342 C 
BRANCH  33  34
ATOM     34  O   UNL     1       5.170   2.048   0.691  0.00  0.00    -0.477 OA
ATOM     35  H   UNL     1       4.480   2.595   1.013  0.00  0.00    +0.295 HD
ENDBRANCH  33  34
ENDBRANCH  15  33
TORSDOF 5
