REMARK  Name = 101916176
REMARK  11 active torsions:
REMARK  status: ('A' for Active; 'I' for Inactive)
REMARK    1  A    between atoms: O_1  and  C_3
REMARK    2  A    between atoms: O_1  and  C_14
REMARK    3  A    between atoms: C_3  and  C_5
REMARK    4  A    between atoms: C_4  and  C_6
REMARK    5  A    between atoms: C_11  and  O_12
REMARK    6  A    between atoms: C_14  and  C_16
REMARK    7  A    between atoms: C_14  and  C_19
REMARK    8  A    between atoms: C_16  and  O_17
REMARK    9  A    between atoms: C_19  and  O_20
REMARK   10  A    between atoms: C_19  and  C_23
REMARK   11  A    between atoms: C_23  and  O_24
REMARK                            x       y       z     vdW  Elec       q    Type
REMARK                         _______ _______ _______ _____ _____    ______ ____
ROOT
ATOM      1  O   UNL     1      -1.500  -0.057   0.437  0.00  0.00    -0.434 OA
ENDROOT
BRANCH   1   3
ATOM      2  O   UNL     1      -0.717   2.114   0.558  0.00  0.00    -0.245 OA
ATOM      3  C   UNL     1      -0.538   0.911   0.442  0.00  0.00    +0.342 C 
BRANCH   3   5
ATOM      4  C   UNL     1       1.891   0.994   0.255  0.00  0.00    +0.007 C 
ATOM      5  C   UNL     1       0.776   0.250   0.281  0.00  0.00    +0.082 C 
BRANCH   4   6
ATOM      6  C   UNL     1       3.253   0.456   0.090  0.00  0.00    +0.000 C 
ATOM      7  C   UNL     1       3.509  -0.889   0.362  0.00  0.00    +0.003 C 
ATOM      8  C   UNL     1       4.286   1.290  -0.336  0.00  0.00    +0.003 C 
ATOM      9  C   UNL     1       4.798  -1.398   0.208  0.00  0.00    +0.037 C 
ATOM     10  C   UNL     1       5.576   0.780  -0.489  0.00  0.00    +0.037 C 
ATOM     11  C   UNL     1       5.831  -0.564  -0.218  0.00  0.00    +0.134 C 
BRANCH  11  12
ATOM     12  O   UNL     1       7.090  -1.061  -0.367  0.00  0.00    -0.506 OA
ATOM     13  H   UNL     1       7.261  -1.964  -0.184  0.00  0.00    +0.292 HD
ENDBRANCH  11  12
ENDBRANCH   4   6
ENDBRANCH   3   5
ENDBRANCH   1   3
BRANCH   1  14
ATOM     14  C   UNL     1      -2.839   0.400   0.583  0.00  0.00    +0.304 C 
BRANCH  14  16
ATOM     15  O   UNL     1      -3.148  -1.734   1.715  0.00  0.00    -0.246 OA
ATOM     16  C   UNL     1      -3.607  -0.656   1.360  0.00  0.00    +0.358 C 
BRANCH  16  17
ATOM     17  O   UNL     1      -4.890  -0.284   1.602  0.00  0.00    -0.478 OA
ATOM     18  H   UNL     1      -5.199   0.551   1.311  0.00  0.00    +0.295 HD
ENDBRANCH  16  17
ENDBRANCH  14  16
BRANCH  14  19
ATOM     19  C   UNL     1      -3.407   0.676  -0.810  0.00  0.00    +0.261 C 
BRANCH  19  20
ATOM     20  O   UNL     1      -4.430   1.650  -0.704  0.00  0.00    -0.371 OA
ATOM     21  H   UNL     1      -4.079   2.442  -0.268  0.00  0.00    +0.211 HD
ENDBRANCH  19  20
BRANCH  19  23
ATOM     22  O   UNL     1      -5.073  -0.753  -1.834  0.00  0.00    -0.247 OA
ATOM     23  C   UNL     1      -3.909  -0.589  -1.488  0.00  0.00    +0.345 C 
BRANCH  23  24
ATOM     24  O   UNL     1      -2.952  -1.535  -1.649  0.00  0.00    -0.478 OA
ATOM     25  H   UNL     1      -2.074  -1.366  -1.369  0.00  0.00    +0.295 HD
ENDBRANCH  23  24
ENDBRANCH  19  23
ENDBRANCH  14  19
ENDBRANCH   1  14
TORSDOF 11
