REMARK  Name = 10198648
REMARK  8 active torsions:
REMARK  status: ('A' for Active; 'I' for Inactive)
REMARK    1  A    between atoms: CA_1  and  N_3
REMARK    2  A    between atoms: CA_1  and  C_13
REMARK    3  A    between atoms: CA_1  and  C_16
REMARK    4  A    between atoms: C_4  and  C_6
REMARK    5  A    between atoms: C_6  and  C_7
REMARK    6  A    between atoms: C_7  and  N_8
REMARK    7  A    between atoms: C_13  and  O_14
REMARK    8  A    between atoms: C_16  and  C_19
REMARK                            x       y       z     vdW  Elec       q    Type
REMARK                         _______ _______ _______ _____ _____    ______ ____
ROOT
ATOM      1  O   UNL     1       2.677  -0.857   1.387  0.00  0.00    -0.275 OA
ATOM      2  N   UNL     1       0.992  -0.625  -0.191  0.00  0.00    -0.297 N 
ATOM      3  C   UNL     1       2.241  -0.362   0.351  0.00  0.00    +0.221 C 
ATOM      4  H   UNL     1       0.732  -0.178  -1.029  0.00  0.00    +0.150 HD
ENDROOT
BRANCH   2   5
ATOM      5  CA  UNL     1       0.061  -1.534   0.434  0.00  0.00    +0.176 C 
BRANCH   5   7
ATOM      6  OXT UNL     1      -1.552  -3.169  -0.324  0.00  0.00    -0.248 OA
ATOM      7  C   UNL     1      -0.756  -2.281  -0.610  0.00  0.00    +0.332 C 
BRANCH   7   8
ATOM      8  O   UNL     1      -0.532  -1.897  -1.890  0.00  0.00    -0.479 OA
ATOM      9  H   UNL     1       0.084  -1.215  -2.073  0.00  0.00    +0.295 HD
ENDBRANCH   7   8
ENDBRANCH   5   7
BRANCH   5  10
ATOM     10  C   UNL     1      -0.874  -0.799   1.405  0.00  0.00    +0.057 C 
BRANCH  10  11
ATOM     11  C   UNL     1      -1.732   0.236   0.734  0.00  0.00    -0.024 C 
ATOM     12  C   UNL     1      -1.434   1.544   0.538  0.00  0.00    -0.005 C 
ENDBRANCH  10  11
ENDBRANCH   5  10
ENDBRANCH   2   5
BRANCH   3  13
ATOM     13  C   UNL     1       3.025   0.625  -0.497  0.00  0.00    +0.061 C 
BRANCH  13  14
ATOM     14  C   UNL     1       4.401   0.924   0.086  0.00  0.00    -0.077 C 
BRANCH  14  15
ATOM     15  N   UNL     1       5.110   1.883  -0.752  0.00  0.00    +0.381 N 
ATOM     16  H   UNL     1       6.027   2.074  -0.350  0.00  0.00    -0.089 HD
ATOM     17  H   UNL     1       4.574   2.750  -0.803  0.00  0.00    -0.089 HD
ATOM     18  H   UNL     1       5.222   1.498  -1.689  0.00  0.00    -0.089 HD
ENDBRANCH  14  15
ENDBRANCH  13  14
ENDBRANCH   3  13
TORSDOF 8
REMARK  Name = 10198648
REMARK  8 active torsions:
REMARK  status: ('A' for Active; 'I' for Inactive)
REMARK    1  A    between atoms: CA_1  and  N_3
REMARK    2  A    between atoms: CA_1  and  C_13
REMARK    3  A    between atoms: CA_1  and  C_16
REMARK    4  A    between atoms: C_4  and  C_6
REMARK    5  A    between atoms: C_6  and  C_7
REMARK    6  A    between atoms: C_7  and  N_8
REMARK    7  A    between atoms: C_13  and  O_14
REMARK    8  A    between atoms: C_16  and  C_19
REMARK                            x       y       z     vdW  Elec       q    Type
REMARK                         _______ _______ _______ _____ _____    ______ ____
ROOT
ATOM      1  N   UNL     1      -2.534   2.034  -0.109  0.00  0.00    +0.000 NA
ENDROOT
TORSDOF 0
REMARK  Name = 10198648
REMARK  8 active torsions:
REMARK  status: ('A' for Active; 'I' for Inactive)
REMARK    1  A    between atoms: CA_1  and  N_3
REMARK    2  A    between atoms: CA_1  and  C_13
REMARK    3  A    between atoms: CA_1  and  C_16
REMARK    4  A    between atoms: C_4  and  C_6
REMARK    5  A    between atoms: C_6  and  C_7
REMARK    6  A    between atoms: C_7  and  N_8
REMARK    7  A    between atoms: C_13  and  O_14
REMARK    8  A    between atoms: C_16  and  C_19
REMARK                            x       y       z     vdW  Elec       q    Type
REMARK                         _______ _______ _______ _____ _____    ______ ____
ROOT
ATOM      1  N   UNL     1      -2.948  -0.118   0.249  0.00  0.00    +0.000 NA
ENDROOT
TORSDOF 0
REMARK  Name = 10198648
REMARK  8 active torsions:
REMARK  status: ('A' for Active; 'I' for Inactive)
REMARK    1  A    between atoms: CA_1  and  N_3
REMARK    2  A    between atoms: CA_1  and  C_13
REMARK    3  A    between atoms: CA_1  and  C_16
REMARK    4  A    between atoms: C_4  and  C_6
REMARK    5  A    between atoms: C_6  and  C_7
REMARK    6  A    between atoms: C_7  and  N_8
REMARK    7  A    between atoms: C_13  and  O_14
REMARK    8  A    between atoms: C_16  and  C_19
REMARK                            x       y       z     vdW  Elec       q    Type
REMARK                         _______ _______ _______ _____ _____    ______ ____
ROOT
ATOM      1  C   UNL     1      -3.415   1.000  -0.260  0.00  0.00    +0.000 C 
ENDROOT
TORSDOF 0
REMARK  Name = 10198648
REMARK  8 active torsions:
REMARK  status: ('A' for Active; 'I' for Inactive)
REMARK    1  A    between atoms: CA_1  and  N_3
REMARK    2  A    between atoms: CA_1  and  C_13
REMARK    3  A    between atoms: CA_1  and  C_16
REMARK    4  A    between atoms: C_4  and  C_6
REMARK    5  A    between atoms: C_6  and  C_7
REMARK    6  A    between atoms: C_7  and  N_8
REMARK    7  A    between atoms: C_13  and  O_14
REMARK    8  A    between atoms: C_16  and  C_19
REMARK                            x       y       z     vdW  Elec       q    Type
REMARK                         _______ _______ _______ _____ _____    ______ ____
ROOT
ATOM      1  C   UNL     1      -2.730   3.393  -0.550  0.00  0.00    +0.000 C 
ENDROOT
TORSDOF 0
