101917121
  -OEChem-03292013293D

 75 77  0     1  0  0  0  0  0999 V2000
   -1.5666    0.0889    2.8970 O   0  0  0  0  0  0  0  0  0  0  0  0
    1.6915    1.7976   -0.2837 O   0  0  0  0  0  0  0  0  0  0  0  0
   -0.1404    4.4343   -0.1929 O   0  0  0  0  0  0  0  0  0  0  0  0
    3.9144    1.9750    0.3082 O   0  0  0  0  0  0  0  0  0  0  0  0
   -6.7044   -3.5436   -0.3869 O   0  0  0  0  0  0  0  0  0  0  0  0
    7.4273   -2.4429    1.3759 O   0  0  0  0  0  0  0  0  0  0  0  0
   -1.9602   -0.8925   -0.6482 C   0  0  2  0  0  0  0  0  0  0  0  0
   -1.8678   -1.8191    0.6177 C   0  0  2  0  0  0  0  0  0  0  0  0
   -1.4482    0.5466   -0.3610 C   0  0  0  0  0  0  0  0  0  0  0  0
   -0.8142    0.9124    0.7836 C   0  0  0  0  0  0  0  0  0  0  0  0
   -0.5915   -1.5418    1.4150 C   0  0  0  0  0  0  0  0  0  0  0  0
   -0.2401    2.3287    1.0186 C   0  0  2  0  0  0  0  0  0  0  0  0
   -0.5683   -0.0943    1.8920 C   0  0  2  0  0  0  0  0  0  0  0  0
   -3.4509   -0.8595   -1.0740 C   0  0  0  0  0  0  0  0  0  0  0  0
   -1.6408    1.5717   -1.4628 C   0  0  0  0  0  0  0  0  0  0  0  0
   -1.1315   -1.4650   -1.8209 C   0  0  0  0  0  0  0  0  0  0  0  0
   -1.8588    2.9656   -0.9110 C   0  0  0  0  0  0  0  0  0  0  0  0
   -0.6767    3.3317   -0.0643 C   0  0  0  0  0  0  0  0  0  0  0  0
   -1.9604   -3.3261    0.3343 C   0  0  0  0  0  0  0  0  0  0  0  0
    1.3011    2.2831    0.9821 C   0  0  0  0  0  0  0  0  0  0  0  0
   -0.7144    2.9281    2.3545 C   0  0  0  0  0  0  0  0  0  0  0  0
   -4.2967   -0.2170    0.0122 C   0  0  0  0  0  0  0  0  0  0  0  0
   -5.7562   -0.1919   -0.3810 C   0  0  0  0  0  0  0  0  0  0  0  0
   -6.2146    1.0669   -1.0695 C   0  0  0  0  0  0  0  0  0  0  0  0
   -6.6278   -1.1892   -0.1347 C   0  0  0  0  0  0  0  0  0  0  0  0
    3.0446    1.6872   -0.5024 C   0  0  0  0  0  0  0  0  0  0  0  0
   -6.3410   -2.5056    0.5157 C   0  0  0  0  0  0  0  0  0  0  0  0
    3.2925    1.1545   -1.8953 C   0  0  0  0  0  0  0  0  0  0  0  0
    3.3253   -0.3731   -1.9248 C   0  0  0  0  0  0  0  0  0  0  0  0
    4.4179   -0.9247   -1.0461 C   0  0  0  0  0  0  0  0  0  0  0  0
    5.6912   -1.1454   -1.5712 C   0  0  0  0  0  0  0  0  0  0  0  0
    4.1559   -1.2143    0.2930 C   0  0  0  0  0  0  0  0  0  0  0  0
    6.7024   -1.6559   -0.7575 C   0  0  0  0  0  0  0  0  0  0  0  0
    5.1671   -1.7249    1.1068 C   0  0  0  0  0  0  0  0  0  0  0  0
    6.4403   -1.9456    0.5816 C   0  0  0  0  0  0  0  0  0  0  0  0
   -2.6742   -1.6225    1.3229 H   0  0  0  0  0  0  0  0  0  0  0  0
    0.2950   -1.7498    0.8029 H   0  0  0  0  0  0  0  0  0  0  0  0
   -0.5472   -2.2121    2.2829 H   0  0  0  0  0  0  0  0  0  0  0  0
    0.4014    0.0767    2.3674 H   0  0  0  0  0  0  0  0  0  0  0  0
   -3.5920   -0.3446   -2.0307 H   0  0  0  0  0  0  0  0  0  0  0  0
   -3.8078   -1.8796   -1.2637 H   0  0  0  0  0  0  0  0  0  0  0  0
   -0.7559    1.5524   -2.1122 H   0  0  0  0  0  0  0  0  0  0  0  0
   -2.4968    1.3465   -2.1003 H   0  0  0  0  0  0  0  0  0  0  0  0
   -1.5009   -2.4453   -2.1403 H   0  0  0  0  0  0  0  0  0  0  0  0
   -0.0755   -1.5726   -1.5512 H   0  0  0  0  0  0  0  0  0  0  0  0
   -1.1787   -0.8200   -2.7058 H   0  0  0  0  0  0  0  0  0  0  0  0
   -2.7661    3.0306   -0.3009 H   0  0  0  0  0  0  0  0  0  0  0  0
   -1.9479    3.6831   -1.7337 H   0  0  0  0  0  0  0  0  0  0  0  0
   -2.0012   -3.8872    1.2752 H   0  0  0  0  0  0  0  0  0  0  0  0
   -1.0889   -3.6912   -0.2185 H   0  0  0  0  0  0  0  0  0  0  0  0
   -2.8620   -3.5804   -0.2291 H   0  0  0  0  0  0  0  0  0  0  0  0
    1.7100    1.6418    1.7707 H   0  0  0  0  0  0  0  0  0  0  0  0
    1.7213    3.2870    1.1273 H   0  0  0  0  0  0  0  0  0  0  0  0
   -0.3994    3.9734    2.4590 H   0  0  0  0  0  0  0  0  0  0  0  0
   -0.3059    2.3864    3.2142 H   0  0  0  0  0  0  0  0  0  0  0  0
   -1.8083    2.9144    2.4283 H   0  0  0  0  0  0  0  0  0  0  0  0
   -3.9826    0.8148    0.2063 H   0  0  0  0  0  0  0  0  0  0  0  0
   -4.2457   -0.7080    0.9835 H   0  0  0  0  0  0  0  0  0  0  0  0
   -1.3711   -0.5287    3.6221 H   0  0  0  0  0  0  0  0  0  0  0  0
   -6.0748    1.9314   -0.4122 H   0  0  0  0  0  0  0  0  0  0  0  0
   -5.6383    1.2303   -1.9859 H   0  0  0  0  0  0  0  0  0  0  0  0
   -7.2732    1.0289   -1.3470 H   0  0  0  0  0  0  0  0  0  0  0  0
   -7.6632   -1.0549   -0.4450 H   0  0  0  0  0  0  0  0  0  0  0  0
   -5.2899   -2.6399    0.7796 H   0  0  0  0  0  0  0  0  0  0  0  0
   -6.9449   -2.6067    1.4228 H   0  0  0  0  0  0  0  0  0  0  0  0
    4.2390    1.5795   -2.2508 H   0  0  0  0  0  0  0  0  0  0  0  0
    2.5142    1.5342   -2.5676 H   0  0  0  0  0  0  0  0  0  0  0  0
    2.3582   -0.7771   -1.5996 H   0  0  0  0  0  0  0  0  0  0  0  0
    3.4674   -0.7192   -2.9559 H   0  0  0  0  0  0  0  0  0  0  0  0
   -6.5355   -4.3873    0.0661 H   0  0  0  0  0  0  0  0  0  0  0  0
    5.9078   -0.9217   -2.6124 H   0  0  0  0  0  0  0  0  0  0  0  0
    3.1672   -1.0526    0.7146 H   0  0  0  0  0  0  0  0  0  0  0  0
    7.6925   -1.8252   -1.1720 H   0  0  0  0  0  0  0  0  0  0  0  0
    4.9498   -1.9472    2.1481 H   0  0  0  0  0  0  0  0  0  0  0  0
    7.0711   -2.5843    2.2699 H   0  0  0  0  0  0  0  0  0  0  0  0
  1 13  1  0  0  0  0
  1 59  1  0  0  0  0
  2 20  1  0  0  0  0
  2 26  1  0  0  0  0
  3 18  2  0  0  0  0
  4 26  2  0  0  0  0
  5 27  1  0  0  0  0
  5 70  1  0  0  0  0
  6 35  1  0  0  0  0
  6 75  1  0  0  0  0
  7  8  1  0  0  0  0
  7  9  1  0  0  0  0
  7 14  1  0  0  0  0
  7 16  1  0  0  0  0
  8 11  1  0  0  0  0
  8 19  1  0  0  0  0
  8 36  1  0  0  0  0
  9 10  2  0  0  0  0
  9 15  1  0  0  0  0
 10 12  1  0  0  0  0
 10 13  1  0  0  0  0
 11 13  1  0  0  0  0
 11 37  1  0  0  0  0
 11 38  1  0  0  0  0
 12 18  1  0  0  0  0
 12 20  1  0  0  0  0
 12 21  1  0  0  0  0
 13 39  1  0  0  0  0
 14 22  1  0  0  0  0
 14 40  1  0  0  0  0
 14 41  1  0  0  0  0
 15 17  1  0  0  0  0
 15 42  1  0  0  0  0
 15 43  1  0  0  0  0
 16 44  1  0  0  0  0
 16 45  1  0  0  0  0
 16 46  1  0  0  0  0
 17 18  1  0  0  0  0
 17 47  1  0  0  0  0
 17 48  1  0  0  0  0
 19 49  1  0  0  0  0
 19 50  1  0  0  0  0
 19 51  1  0  0  0  0
 20 52  1  0  0  0  0
 20 53  1  0  0  0  0
 21 54  1  0  0  0  0
 21 55  1  0  0  0  0
 21 56  1  0  0  0  0
 22 23  1  0  0  0  0
 22 57  1  0  0  0  0
 22 58  1  0  0  0  0
 23 24  1  0  0  0  0
 23 25  2  0  0  0  0
 24 60  1  0  0  0  0
 24 61  1  0  0  0  0
 24 62  1  0  0  0  0
 25 27  1  0  0  0  0
 25 63  1  0  0  0  0
 26 28  1  0  0  0  0
 27 64  1  0  0  0  0
 27 65  1  0  0  0  0
 28 29  1  0  0  0  0
 28 66  1  0  0  0  0
 28 67  1  0  0  0  0
 29 30  1  0  0  0  0
 29 68  1  0  0  0  0
 29 69  1  0  0  0  0
 30 31  2  0  0  0  0
 30 32  1  0  0  0  0
 31 33  1  0  0  0  0
 31 71  1  0  0  0  0
 32 34  2  0  0  0  0
 32 72  1  0  0  0  0
 33 35  2  0  0  0  0
 33 73  1  0  0  0  0
 34 35  1  0  0  0  0
 34 74  1  0  0  0  0
M  END
> <PUBCHEM_COMPOUND_CID>
101917121

> <PUBCHEM_CONFORMER_RMSD>
1.2

> <PUBCHEM_CONFORMER_DIVERSEORDER>
3
4
30
60
53
28
19
50
13
22
47
99
44
16
17
79
98
75
36
91
49
76
82
52
10
81
72
85
38
24
94
68
70
97
31
9
8
74
59
33
55
40
93
73
96
41
56
21
87
92
69
54
11
90
67
95
12
45
23
58
29
65
46
43
83
63
51
2
80
18
62
37
42
88
39
78
15
64
57
89
1
32
77
86
71
25
84
6
48
5
35
66
27
34
61
26
20
7
14

> <PUBCHEM_MMFF94_PARTIAL_CHARGES>
37
1 -0.68
10 -0.28
12 0.2
13 0.42
15 0.14
17 0.06
18 0.45
2 -0.43
20 0.28
22 0.14
23 -0.28
24 0.14
25 -0.29
26 0.66
27 0.42
28 0.06
29 0.14
3 -0.57
30 -0.14
31 -0.15
32 -0.15
33 -0.15
34 -0.15
35 0.08
4 -0.57
5 -0.68
59 0.4
6 -0.53
63 0.15
7 0.14
70 0.4
71 0.15
72 0.15
73 0.15
74 0.15
75 0.45
9 -0.28

> <PUBCHEM_EFFECTIVE_ROTOR_COUNT>
11.4

> <PUBCHEM_PHARMACOPHORE_FEATURES>
11
1 1 acceptor
1 1 donor
1 24 hydrophobe
1 3 acceptor
1 4 acceptor
1 5 acceptor
1 5 donor
1 6 donor
6 30 31 32 33 34 35 rings
6 7 8 9 10 11 13 rings
6 9 10 12 15 17 18 rings

> <PUBCHEM_HEAVY_ATOM_COUNT>
35

> <PUBCHEM_ATOM_DEF_STEREO_COUNT>
4

> <PUBCHEM_ATOM_UDEF_STEREO_COUNT>
0

> <PUBCHEM_BOND_DEF_STEREO_COUNT>
1

> <PUBCHEM_BOND_UDEF_STEREO_COUNT>
0

> <PUBCHEM_ISOTOPIC_ATOM_COUNT>
0

> <PUBCHEM_COMPONENT_COUNT>
1

> <PUBCHEM_CACTVS_TAUTO_COUNT>
26

> <PUBCHEM_CONFORMER_ID>
061321C100000003

> <PUBCHEM_MMFF94_ENERGY>
81.1072

> <PUBCHEM_FEATURE_SELFOVERLAP>
55.837

> <PUBCHEM_SHAPE_FINGERPRINT>
10483366 6 18335134233850360749
10930396 42 18058708257426246178
11135609 12 18411408536722299464
12107698 1 18335700512344992044
12156800 1 16548553122757054084
12166972 35 18040437702529072846
12788726 201 18337670793726144842
13004483 165 18202563994811684332
13560911 43 18409729569671129420
13782708 43 18265897033377829027
14068700 675 18335701620393949764
14251764 30 18335983155558289711
14705955 166 16987996073318103498
14725015 67 18339353085461406970
14955137 171 18201154451502084731
17852330 162 18040716970521010140
20775530 9 18195822983822306678
21279426 13 18408879647008934885
23559900 14 18262235624928013468
24893992 56 18410858764361174509
3004659 81 18333452053947421262
3027735 51 18198066884626437014
3383291 50 18343299240978156854
4098825 35 17967533501791739396
4173938 77 10665814216100574071
463206 1 18340763853385403254
469060 322 18269852937983719018

> <PUBCHEM_SHAPE_MULTIPOLES>
685.07
15.95
4.26
1.94
6.51
2.12
0.52
-16.81
-2.35
-1.76
0.72
0.78
0.31
-0.37

> <PUBCHEM_SHAPE_SELFOVERLAP>
1430.761

> <PUBCHEM_SHAPE_VOLUME>
384.9

> <PUBCHEM_COORDINATE_TYPE>
2
5
10

$$$$
