101973930
  -OEChem-03292013293D

 63 67  0     1  0  0  0  0  0999 V2000
   -2.2078   -0.9958    1.2522 O   0  0  0  0  0  0  0  0  0  0  0  0
    0.9682    2.2319   -1.4108 O   0  0  0  0  0  0  0  0  0  0  0  0
   -3.9999   -0.6907   -1.6198 O   0  0  0  0  0  0  0  0  0  0  0  0
   -5.2593    1.1936   -0.1767 O   0  0  0  0  0  0  0  0  0  0  0  0
    6.8295    0.6988    2.1104 O   0  0  0  0  0  0  0  0  0  0  0  0
   -5.4726    2.6434    1.6093 O   0  0  0  0  0  0  0  0  0  0  0  0
   -2.1547   -3.1861    0.5891 N   0  0  0  0  0  0  0  0  0  0  0  0
   -0.8659   -0.1576   -0.6625 C   0  0  1  0  0  0  0  0  0  0  0  0
    0.2095   -1.2487   -0.4555 C   0  0  2  0  0  0  0  0  0  0  0  0
    1.6056   -0.8286   -0.9369 C   0  0  1  0  0  0  0  0  0  0  0  0
   -2.1246   -0.9153   -0.1658 C   0  0  1  0  0  0  0  0  0  0  0  0
    2.0555    0.4361   -0.1223 C   0  0  2  0  0  0  0  0  0  0  0  0
   -0.4421   -2.4985   -1.0487 C   0  0  0  0  0  0  0  0  0  0  0  0
   -0.4471    1.0662    0.1737 C   0  0  0  0  0  0  0  0  0  0  0  0
   -1.9195   -2.3735   -0.6163 C   0  0  1  0  0  0  0  0  0  0  0  0
    0.9777    1.5667   -0.1552 C   0  0  2  0  0  0  0  0  0  0  0  0
    3.5329    0.8753   -0.4712 C   0  0  1  0  0  0  0  0  0  0  0  0
    2.6054   -1.9860   -0.7648 C   0  0  0  0  0  0  0  0  0  0  0  0
   -1.0639    0.2312   -2.1538 C   0  0  0  0  0  0  0  0  0  0  0  0
    4.0324   -1.5733   -1.1038 C   0  0  0  0  0  0  0  0  0  0  0  0
    4.4275   -0.3582   -0.3047 C   0  0  0  0  0  0  0  0  0  0  0  0
   -3.4383   -0.3263   -0.5878 C   0  0  0  0  0  0  0  0  0  0  0  0
    3.7082    1.4053   -1.9124 C   0  0  0  0  0  0  0  0  0  0  0  0
    3.9731    2.0023    0.4519 C   0  0  0  0  0  0  0  0  0  0  0  0
   -2.2869   -2.3142    1.5343 C   0  0  0  0  0  0  0  0  0  0  0  0
    5.4807   -0.4095    0.5260 C   0  0  0  0  0  0  0  0  0  0  0  0
   -4.0223    0.7318    0.3237 C   0  0  0  0  0  0  0  0  0  0  0  0
    5.0192    1.9568    1.2826 C   0  0  0  0  0  0  0  0  0  0  0  0
   -2.5038   -2.6329    2.9671 C   0  0  0  0  0  0  0  0  0  0  0  0
    5.8567    0.7464    1.3652 C   0  0  0  0  0  0  0  0  0  0  0  0
   -5.8899    2.1593    0.5659 C   0  0  0  0  0  0  0  0  0  0  0  0
   -7.1834    2.5502   -0.0824 C   0  0  0  0  0  0  0  0  0  0  0  0
    0.3093   -1.4411    0.6254 H   0  0  0  0  0  0  0  0  0  0  0  0
    1.5705   -0.5852   -2.0034 H   0  0  0  0  0  0  0  0  0  0  0  0
    2.0799    0.1122    0.9326 H   0  0  0  0  0  0  0  0  0  0  0  0
   -0.3624   -2.4942   -2.1415 H   0  0  0  0  0  0  0  0  0  0  0  0
    0.0231   -3.4200   -0.6835 H   0  0  0  0  0  0  0  0  0  0  0  0
   -0.4751    0.8182    1.2419 H   0  0  0  0  0  0  0  0  0  0  0  0
   -1.1593    1.8835    0.0166 H   0  0  0  0  0  0  0  0  0  0  0  0
   -2.5819   -2.7058   -1.4214 H   0  0  0  0  0  0  0  0  0  0  0  0
    1.2330    2.3232    0.5951 H   0  0  0  0  0  0  0  0  0  0  0  0
    2.3210   -2.8258   -1.4098 H   0  0  0  0  0  0  0  0  0  0  0  0
    2.5711   -2.3565    0.2684 H   0  0  0  0  0  0  0  0  0  0  0  0
   -1.4988   -0.5823   -2.7440 H   0  0  0  0  0  0  0  0  0  0  0  0
   -0.1348    0.5049   -2.6565 H   0  0  0  0  0  0  0  0  0  0  0  0
   -1.7400    1.0896   -2.2417 H   0  0  0  0  0  0  0  0  0  0  0  0
    4.1203   -1.3601   -2.1753 H   0  0  0  0  0  0  0  0  0  0  0  0
    4.7023   -2.4188   -0.9052 H   0  0  0  0  0  0  0  0  0  0  0  0
    3.2266    0.7654   -2.6578 H   0  0  0  0  0  0  0  0  0  0  0  0
    4.7706    1.4692   -2.1829 H   0  0  0  0  0  0  0  0  0  0  0  0
    3.3028    2.4152   -2.0378 H   0  0  0  0  0  0  0  0  0  0  0  0
    3.4091    2.9317    0.4160 H   0  0  0  0  0  0  0  0  0  0  0  0
    0.3211    2.9556   -1.3587 H   0  0  0  0  0  0  0  0  0  0  0  0
    6.0864   -1.3039    0.6265 H   0  0  0  0  0  0  0  0  0  0  0  0
   -3.3249    1.5702    0.3881 H   0  0  0  0  0  0  0  0  0  0  0  0
   -4.1957    0.2997    1.3142 H   0  0  0  0  0  0  0  0  0  0  0  0
    5.2839    2.8050    1.9032 H   0  0  0  0  0  0  0  0  0  0  0  0
   -1.6342   -2.3131    3.5470 H   0  0  0  0  0  0  0  0  0  0  0  0
   -2.6431   -3.7094    3.0973 H   0  0  0  0  0  0  0  0  0  0  0  0
   -3.3958   -2.1140    3.3278 H   0  0  0  0  0  0  0  0  0  0  0  0
   -6.9899    2.9569   -1.0781 H   0  0  0  0  0  0  0  0  0  0  0  0
   -7.6733    3.3205    0.5201 H   0  0  0  0  0  0  0  0  0  0  0  0
   -7.8441    1.6818   -0.1425 H   0  0  0  0  0  0  0  0  0  0  0  0
  1 11  1  0  0  0  0
  1 25  1  0  0  0  0
  2 16  1  0  0  0  0
  2 53  1  0  0  0  0
  3 22  2  0  0  0  0
  4 27  1  0  0  0  0
  4 31  1  0  0  0  0
  5 30  2  0  0  0  0
  6 31  2  0  0  0  0
  7 15  1  0  0  0  0
  7 25  2  0  0  0  0
  8  9  1  0  0  0  0
  8 11  1  0  0  0  0
  8 14  1  0  0  0  0
  8 19  1  0  0  0  0
  9 10  1  0  0  0  0
  9 13  1  0  0  0  0
  9 33  1  0  0  0  0
 10 12  1  0  0  0  0
 10 18  1  0  0  0  0
 10 34  1  0  0  0  0
 11 15  1  0  0  0  0
 11 22  1  0  0  0  0
 12 16  1  0  0  0  0
 12 17  1  0  0  0  0
 12 35  1  0  0  0  0
 13 15  1  0  0  0  0
 13 36  1  0  0  0  0
 13 37  1  0  0  0  0
 14 16  1  0  0  0  0
 14 38  1  0  0  0  0
 14 39  1  0  0  0  0
 15 40  1  0  0  0  0
 16 41  1  0  0  0  0
 17 21  1  0  0  0  0
 17 23  1  0  0  0  0
 17 24  1  0  0  0  0
 18 20  1  0  0  0  0
 18 42  1  0  0  0  0
 18 43  1  0  0  0  0
 19 44  1  0  0  0  0
 19 45  1  0  0  0  0
 19 46  1  0  0  0  0
 20 21  1  0  0  0  0
 20 47  1  0  0  0  0
 20 48  1  0  0  0  0
 21 26  2  0  0  0  0
 22 27  1  0  0  0  0
 23 49  1  0  0  0  0
 23 50  1  0  0  0  0
 23 51  1  0  0  0  0
 24 28  2  0  0  0  0
 24 52  1  0  0  0  0
 25 29  1  0  0  0  0
 26 30  1  0  0  0  0
 26 54  1  0  0  0  0
 27 55  1  0  0  0  0
 27 56  1  0  0  0  0
 28 30  1  0  0  0  0
 28 57  1  0  0  0  0
 29 58  1  0  0  0  0
 29 59  1  0  0  0  0
 29 60  1  0  0  0  0
 31 32  1  0  0  0  0
 32 61  1  0  0  0  0
 32 62  1  0  0  0  0
 32 63  1  0  0  0  0
M  END
> <PUBCHEM_COMPOUND_CID>
101973930

> <PUBCHEM_CONFORMER_RMSD>
0.8

> <PUBCHEM_CONFORMER_DIVERSEORDER>
1
12
11
5
8
6
2
10
3
9
13
4
7

> <PUBCHEM_MMFF94_PARTIAL_CHARGES>
27
1 -0.43
11 0.34
15 0.25
16 0.28
17 0.28
2 -0.68
20 0.14
21 -0.28
22 0.45
24 -0.29
25 0.54
26 -0.14
27 0.34
28 -0.14
29 0.06
3 -0.57
30 0.54
31 0.66
32 0.06
4 -0.43
5 -0.57
52 0.15
53 0.4
54 0.15
57 0.15
6 -0.57
7 -0.7

> <PUBCHEM_EFFECTIVE_ROTOR_COUNT>
5.2

> <PUBCHEM_PHARMACOPHORE_FEATURES>
10
1 2 acceptor
1 2 donor
1 3 acceptor
1 5 acceptor
1 6 acceptor
5 1 7 11 15 25 rings
5 8 9 11 13 15 rings
6 10 12 17 18 20 21 rings
6 17 21 24 26 28 30 rings
6 8 9 10 12 14 16 rings

> <PUBCHEM_HEAVY_ATOM_COUNT>
32

> <PUBCHEM_ATOM_DEF_STEREO_COUNT>
8

> <PUBCHEM_ATOM_UDEF_STEREO_COUNT>
0

> <PUBCHEM_BOND_DEF_STEREO_COUNT>
0

> <PUBCHEM_BOND_UDEF_STEREO_COUNT>
0

> <PUBCHEM_ISOTOPIC_ATOM_COUNT>
0

> <PUBCHEM_COMPONENT_COUNT>
1

> <PUBCHEM_CACTVS_TAUTO_COUNT>
40

> <PUBCHEM_CONFORMER_ID>
0613FFAA00000001

> <PUBCHEM_MMFF94_ENERGY>
99.1069

> <PUBCHEM_FEATURE_SELFOVERLAP>
51.51

> <PUBCHEM_SHAPE_FINGERPRINT>
10366900 7 11600004366534453948
10906281 52 18410867541876577100
11405975 8 17967813898768308456
11578080 2 17059190674733626185
12035758 1 18114186306970069125
12403259 118 18337109089629698406
12422481 6 18041002804208842493
12633257 1 17749105625376265052
13140716 1 18114748255752973068
13224815 77 18266463281712789374
13583140 156 17416965217440540338
13726171 33 17679614334912906844
13782708 43 14273456985230260153
13911987 19 14548730725377221437
14020679 6 17895199921502419617
14251764 30 12324246052863760257
14725015 67 17901385589327026350
14790565 3 18271813359117095997
15082195 135 13038912092452757066
15238133 3 18408609162431775468
15788980 27 16588292930486350934
15840311 113 18059017151727414277
16994733 274 16630251299662585089
19301679 30 17753913893316338307
20511986 3 17632000996988079990
20715895 44 18271806791742685944
21033648 29 18341339954180102874
21304253 335 18342461430286585348
21403212 168 18114174199758071921
21421861 104 18041830711222125266
21859007 373 17897431801131900180
22122407 14 17846499274427659496
23559900 14 18260838085910211718
2838139 119 17916868998432749209
335352 9 18341619153272611702
3383291 50 18334575793613074939
3388396 114 13253939316473364890
3633792 109 16486699052116525196
3680242 22 18114739339844069210
392239 28 17773592922644037242
460360 51 18265343978532763372
5104073 3 18409164420077735682
563151 248 16660650669818765201
57527293 21 17530965830341060430
6086070 43 17418372515278465544
9981440 41 18342177786831717123

> <PUBCHEM_SHAPE_MULTIPOLES>
618.35
14.29
3.24
1.9
2.42
0.69
0.7
-11.39
5.68
3.46
0.87
-0.26
0.54
1.02

> <PUBCHEM_SHAPE_SELFOVERLAP>
1348.328

> <PUBCHEM_SHAPE_VOLUME>
332

> <PUBCHEM_COORDINATE_TYPE>
2
5
10

$$$$
