101910515
  -OEChem-03292013293D

 63 66  0     1  0  0  0  0  0999 V2000
   -4.2132    3.1217    0.3626 Cl  0  0  0  0  0  0  0  0  0  0  0  0
    2.2278   -1.9704   -1.8834 O   0  0  0  0  0  0  0  0  0  0  0  0
    2.1489    1.4633    1.9603 O   0  0  0  0  0  0  0  0  0  0  0  0
   -0.7517   -1.0683   -0.2263 O   0  0  0  0  0  0  0  0  0  0  0  0
    1.7796    0.6419   -3.5075 O   0  0  0  0  0  0  0  0  0  0  0  0
   -1.7166   -2.3645    1.4131 O   0  0  0  0  0  0  0  0  0  0  0  0
   -4.1588   -2.7233   -0.3131 O   0  0  0  0  0  0  0  0  0  0  0  0
   -6.4803    1.4120   -0.5385 O   0  0  0  0  0  0  0  0  0  0  0  0
    2.5691   -1.4406    0.5738 C   0  0  2  0  0  0  0  0  0  0  0  0
    3.5374   -0.3338    1.0262 C   0  0  2  0  0  0  0  0  0  0  0  0
    1.7703   -1.1575   -0.7711 C   0  0  2  0  0  0  0  0  0  0  0  0
    2.9662    1.0810    0.8581 C   0  0  2  0  0  0  0  0  0  0  0  0
    1.1985   -1.5078    1.3131 C   0  0  0  0  0  0  0  0  0  0  0  0
    0.5041   -1.7474   -0.0407 C   0  0  1  0  0  0  0  0  0  0  0  0
    4.8123   -0.3118    0.1594 C   0  0  0  0  0  0  0  0  0  0  0  0
    5.3452    1.1355    0.1948 C   0  0  0  0  0  0  0  0  0  0  0  0
    4.2311    1.9579    0.8718 C   0  0  0  0  0  0  0  0  0  0  0  0
    1.6282    0.2998   -1.1527 C   0  0  0  0  0  0  0  0  0  0  0  0
    3.2445   -2.8272    0.6493 C   0  0  0  0  0  0  0  0  0  0  0  0
    2.1537    1.2734   -0.3905 C   0  0  0  0  0  0  0  0  0  0  0  0
    5.6257    1.6446   -1.2263 C   0  0  0  0  0  0  0  0  0  0  0  0
    6.6413    1.2189    1.0135 C   0  0  0  0  0  0  0  0  0  0  0  0
    0.8800    0.6207   -2.4169 C   0  0  0  0  0  0  0  0  0  0  0  0
   -1.7718   -1.4828    0.5699 C   0  0  0  0  0  0  0  0  0  0  0  0
   -3.0032   -0.7051    0.2823 C   0  0  0  0  0  0  0  0  0  0  0  0
   -3.0183    0.6806    0.4419 C   0  0  0  0  0  0  0  0  0  0  0  0
   -4.1508   -1.3700   -0.1502 C   0  0  0  0  0  0  0  0  0  0  0  0
   -4.1807    1.4014    0.1689 C   0  0  0  0  0  0  0  0  0  0  0  0
   -5.3131   -0.6490   -0.4232 C   0  0  0  0  0  0  0  0  0  0  0  0
   -1.7782    1.3808    0.9072 C   0  0  0  0  0  0  0  0  0  0  0  0
   -5.3283    0.7366   -0.2635 C   0  0  0  0  0  0  0  0  0  0  0  0
   -7.3986    1.5894    0.5376 C   0  0  0  0  0  0  0  0  0  0  0  0
    3.8115   -0.4973    2.0777 H   0  0  0  0  0  0  0  0  0  0  0  0
    0.8735   -0.5924    1.8137 H   0  0  0  0  0  0  0  0  0  0  0  0
    1.0886   -2.3230    2.0367 H   0  0  0  0  0  0  0  0  0  0  0  0
    0.3828   -2.8164   -0.2686 H   0  0  0  0  0  0  0  0  0  0  0  0
    5.5459   -1.0315    0.5414 H   0  0  0  0  0  0  0  0  0  0  0  0
    4.5963   -0.6144   -0.8711 H   0  0  0  0  0  0  0  0  0  0  0  0
    4.0718    2.9295    0.3883 H   0  0  0  0  0  0  0  0  0  0  0  0
    4.4977    2.1883    1.9128 H   0  0  0  0  0  0  0  0  0  0  0  0
    3.6322   -3.0131    1.6571 H   0  0  0  0  0  0  0  0  0  0  0  0
    4.0788   -2.9071   -0.0546 H   0  0  0  0  0  0  0  0  0  0  0  0
    2.5465   -3.6373    0.4109 H   0  0  0  0  0  0  0  0  0  0  0  0
    1.9909    2.3061   -0.6956 H   0  0  0  0  0  0  0  0  0  0  0  0
    3.0985   -1.6124   -2.1250 H   0  0  0  0  0  0  0  0  0  0  0  0
    6.9916    2.2541    1.0925 H   0  0  0  0  0  0  0  0  0  0  0  0
    5.9862    2.6792   -1.2102 H   0  0  0  0  0  0  0  0  0  0  0  0
    4.7256    1.6179   -1.8496 H   0  0  0  0  0  0  0  0  0  0  0  0
    6.3887    1.0320   -1.7197 H   0  0  0  0  0  0  0  0  0  0  0  0
    7.4397    0.6284    0.5503 H   0  0  0  0  0  0  0  0  0  0  0  0
    6.4942    0.8370    2.0302 H   0  0  0  0  0  0  0  0  0  0  0  0
    1.9257    2.4050    1.8615 H   0  0  0  0  0  0  0  0  0  0  0  0
    0.3915    1.5991   -2.3493 H   0  0  0  0  0  0  0  0  0  0  0  0
    0.1023   -0.1238   -2.6147 H   0  0  0  0  0  0  0  0  0  0  0  0
    1.2620    0.8511   -4.3036 H   0  0  0  0  0  0  0  0  0  0  0  0
   -6.2108   -1.1610   -0.7615 H   0  0  0  0  0  0  0  0  0  0  0  0
   -1.1773    1.6968    0.0489 H   0  0  0  0  0  0  0  0  0  0  0  0
   -1.9995    2.2601    1.5198 H   0  0  0  0  0  0  0  0  0  0  0  0
   -1.1654    0.7551    1.5630 H   0  0  0  0  0  0  0  0  0  0  0  0
   -5.0394   -3.0022   -0.6175 H   0  0  0  0  0  0  0  0  0  0  0  0
   -8.2193    2.2209    0.1865 H   0  0  0  0  0  0  0  0  0  0  0  0
   -6.9200    2.0809    1.3903 H   0  0  0  0  0  0  0  0  0  0  0  0
   -7.8096    0.6233    0.8472 H   0  0  0  0  0  0  0  0  0  0  0  0
  1 28  1  0  0  0  0
  2 11  1  0  0  0  0
  2 45  1  0  0  0  0
  3 12  1  0  0  0  0
  3 52  1  0  0  0  0
  4 14  1  0  0  0  0
  4 24  1  0  0  0  0
  5 23  1  0  0  0  0
  5 55  1  0  0  0  0
  6 24  2  0  0  0  0
  7 27  1  0  0  0  0
  7 60  1  0  0  0  0
  8 31  1  0  0  0  0
  8 32  1  0  0  0  0
  9 10  1  0  0  0  0
  9 11  1  0  0  0  0
  9 13  1  0  0  0  0
  9 19  1  0  0  0  0
 10 12  1  0  0  0  0
 10 15  1  0  0  0  0
 10 33  1  0  0  0  0
 11 14  1  0  0  0  0
 11 18  1  0  0  0  0
 12 17  1  0  0  0  0
 12 20  1  0  0  0  0
 13 14  1  0  0  0  0
 13 34  1  0  0  0  0
 13 35  1  0  0  0  0
 14 36  1  0  0  0  0
 15 16  1  0  0  0  0
 15 37  1  0  0  0  0
 15 38  1  0  0  0  0
 16 17  1  0  0  0  0
 16 21  1  0  0  0  0
 16 22  1  0  0  0  0
 17 39  1  0  0  0  0
 17 40  1  0  0  0  0
 18 20  2  0  0  0  0
 18 23  1  0  0  0  0
 19 41  1  0  0  0  0
 19 42  1  0  0  0  0
 19 43  1  0  0  0  0
 20 44  1  0  0  0  0
 21 47  1  0  0  0  0
 21 48  1  0  0  0  0
 21 49  1  0  0  0  0
 22 46  1  0  0  0  0
 22 50  1  0  0  0  0
 22 51  1  0  0  0  0
 23 53  1  0  0  0  0
 23 54  1  0  0  0  0
 24 25  1  0  0  0  0
 25 26  2  0  0  0  0
 25 27  1  0  0  0  0
 26 28  1  0  0  0  0
 26 30  1  0  0  0  0
 27 29  2  0  0  0  0
 28 31  2  0  0  0  0
 29 31  1  0  0  0  0
 29 56  1  0  0  0  0
 30 57  1  0  0  0  0
 30 58  1  0  0  0  0
 30 59  1  0  0  0  0
 32 61  1  0  0  0  0
 32 62  1  0  0  0  0
 32 63  1  0  0  0  0
M  END
> <PUBCHEM_COMPOUND_CID>
101910515

> <PUBCHEM_CONFORMER_RMSD>
0.8

> <PUBCHEM_CONFORMER_DIVERSEORDER>
1
49
53
43
35
38
45
36
34
48
64
51
15
39
23
52
44
62
46
22
42
18
67
56
10
54
50
13
9
40
41
21
17
58
60
55
37
33
61
20
25
59
30
29
11
19
5
65
14
47
32
57
8
63
7
4
31
26
66
27
2
28
12
16
24
3
6

> <PUBCHEM_MMFF94_PARTIAL_CHARGES>
29
1 -0.18
11 0.37
12 0.42
14 0.26
18 -0.25
2 -0.66
20 -0.29
23 0.42
24 0.63
25 0.09
26 -0.14
27 0.08
28 0.18
29 -0.15
3 -0.68
30 0.14
31 0.08
32 0.28
4 -0.41
44 0.15
45 0.4
5 -0.68
52 0.4
55 0.4
56 0.15
6 -0.57
60 0.45
7 -0.53
8 -0.36

> <PUBCHEM_EFFECTIVE_ROTOR_COUNT>
6

> <PUBCHEM_PHARMACOPHORE_FEATURES>
14
1 2 acceptor
1 2 donor
1 3 acceptor
1 3 donor
1 5 acceptor
1 5 donor
1 6 acceptor
1 7 donor
1 8 acceptor
3 16 21 22 hydrophobe
4 9 11 13 14 rings
5 10 12 15 16 17 rings
6 25 26 27 28 29 31 rings
6 9 10 11 12 18 20 rings

> <PUBCHEM_HEAVY_ATOM_COUNT>
32

> <PUBCHEM_ATOM_DEF_STEREO_COUNT>
5

> <PUBCHEM_ATOM_UDEF_STEREO_COUNT>
0

> <PUBCHEM_BOND_DEF_STEREO_COUNT>
0

> <PUBCHEM_BOND_UDEF_STEREO_COUNT>
0

> <PUBCHEM_ISOTOPIC_ATOM_COUNT>
0

> <PUBCHEM_COMPONENT_COUNT>
1

> <PUBCHEM_CACTVS_TAUTO_COUNT>
9

> <PUBCHEM_CONFORMER_ID>
061307F300000001

> <PUBCHEM_MMFF94_ENERGY>
111.7877

> <PUBCHEM_FEATURE_SELFOVERLAP>
71.787

> <PUBCHEM_SHAPE_FINGERPRINT>
10165383 225 18333731330449580276
10906281 52 17385734633657748102
11488393 25 16629704842103901534
11513181 2 18343018878487718478
11578080 2 17896866669535136668
11991303 11 16844727680951901828
12107183 9 17905319637419613787
12236239 1 18113333136985297763
12422481 6 17677038076295176420
12596602 18 16950284048066009177
12633257 1 16370727062502342055
12788726 201 17346320337358023817
13224815 77 18060145340529656427
13402501 40 18272085019661116449
13911987 19 16630527375052884019
14394314 77 18340208497652092881
14739800 52 18340470245341794776
14790565 3 18117003393579680316
14840074 17 17095526231629215692
15238133 3 17968101940475760572
15420108 30 18263629801588705986
15840311 113 18040159535025820356
15961568 22 18410291406426921477
1601671 61 17894910776341754926
17349148 13 17969217996502585887
17980427 23 18187926235028184351
18608769 82 18337393842167518867
20511986 3 18262222370669175543
20691752 17 17313387790662613474
20715895 44 18265890273098882909
21033648 144 18261664901331687007
21033648 29 18269826665874485186
21859007 373 17460864100133187773
22149856 69 18189921759683373265
22393880 68 17988919028457898794
23559900 14 18343017783423239275
2838139 119 18342730862581127568
3411729 13 18409164412083763322
4073 2 18187367657283457195
4098825 35 16056053337677716817
44802255 64 17271738479787974084
474 4 17748830717673783243
5104073 3 18186801361914424987
513202 73 16372106838442944952
513532 50 18271253724651308294
5895379 119 18188224159687485972
5951187 136 17196015835010545037
59755656 215 18342176661159576916
6328613 192 18041004007369299900
653340 110 17898001331312965485
9981440 41 18334297603974940675

> <PUBCHEM_SHAPE_MULTIPOLES>
619.33
15.24
2.88
1.71
11.62
0.55
-1.37
-8.66
1.6
0.9
0.51
-1.72
-0.26
-0.29

> <PUBCHEM_SHAPE_SELFOVERLAP>
1329.919

> <PUBCHEM_SHAPE_VOLUME>
344.2

> <PUBCHEM_COORDINATE_TYPE>
2
5
10

$$$$
