REMARK  Name = 101934786
REMARK  6 active torsions:
REMARK  status: ('A' for Active; 'I' for Inactive)
REMARK    1  A    between atoms: C_4  and  N_14
REMARK    2  A    between atoms: C_5  and  O_23
REMARK    3  A    between atoms: C_7  and  O_25
REMARK    4  A    between atoms: C_10  and  O_27
REMARK    5  A    between atoms: C_15  and  C_17
REMARK    6  A    between atoms: C_17  and  N_19
REMARK                            x       y       z     vdW  Elec       q    Type
REMARK                         _______ _______ _______ _____ _____    ______ ____
ROOT
ATOM      1  O   UNL     1      -0.230   2.626   0.013  0.00  0.00    -0.448 OA
ATOM      2  O   UNL     1      -2.083   2.759  -1.241  0.00  0.00    -0.245 OA
ATOM      3  C   UNL     1      -0.868  -0.021   0.870  0.00  0.00    +0.082 C 
ATOM      4  C   UNL     1       0.572   0.500   0.987  0.00  0.00    +0.118 C 
ATOM      5  C   UNL     1      -0.916  -1.565   0.858  0.00  0.00    +0.144 C 
ATOM      6  C   UNL     1      -1.579   0.629  -0.293  0.00  0.00    +0.087 C 
ATOM      7  C   UNL     1      -2.313  -2.060   0.493  0.00  0.00    +0.145 C 
ATOM      8  C   UNL     1       0.577   2.025   1.055  0.00  0.00    +0.187 C 
ATOM      9  C   UNL     1      -2.734  -1.522  -0.873  0.00  0.00    +0.095 C 
ATOM     10  C   UNL     1      -2.414  -0.070  -1.094  0.00  0.00    +0.116 C 
ATOM     11  C   UNL     1      -1.338   2.078  -0.543  0.00  0.00    +0.340 C 
ATOM     12  C   UNL     1       0.094   2.575   2.395  0.00  0.00    +0.049 C 
ENDROOT
BRANCH   4  14
ATOM     13  O   UNL     1       3.407   0.009   1.060  0.00  0.00    -0.277 OA
ATOM     14  N   UNL     1       1.407   0.059  -0.113  0.00  0.00    -0.304 N 
ATOM     15  C   UNL     1       2.770  -0.151   0.021  0.00  0.00    +0.202 C 
ATOM     16  H   UNL     1       0.989  -0.098  -0.990  0.00  0.00    +0.149 HD
BRANCH  15  17
ATOM     17  C   UNL     1       3.406  -0.597  -1.290  0.00  0.00    +0.013 C 
ATOM     18  C   UNL     1       3.414  -2.118  -1.383  0.00  0.00    -0.015 C 
BRANCH  17  19
ATOM     19  N   UNL     1       4.772  -0.081  -1.335  0.00  0.00    +0.387 N 
ATOM     20  H   UNL     1       4.754   0.937  -1.272  0.00  0.00    -0.089 HD
ATOM     21  H   UNL     1       5.212  -0.359  -2.212  0.00  0.00    -0.089 HD
ATOM     22  H   UNL     1       5.305  -0.460  -0.552  0.00  0.00    -0.089 HD
ENDBRANCH  17  19
ENDBRANCH  15  17
ENDBRANCH   4  14
BRANCH   5  23
ATOM     23  O   UNL     1      -0.581  -2.035   2.165  0.00  0.00    -0.382 OA
ATOM     24  H   UNL     1       0.306  -1.723   2.403  0.00  0.00    +0.210 HD
ENDBRANCH   5  23
BRANCH   7  25
ATOM     25  O   UNL     1      -2.297  -3.485   0.446  0.00  0.00    -0.382 OA
ATOM     26  H   UNL     1      -2.030  -3.834   1.310  0.00  0.00    +0.210 HD
ENDBRANCH   7  25
BRANCH  10  27
ATOM     27  O   UNL     1      -3.067   0.443  -2.197  0.00  0.00    -0.510 OA
ATOM     28  H   UNL     1      -2.946   1.340  -2.438  0.00  0.00    +0.292 HD
ENDBRANCH  10  27
TORSDOF 6
