REMARK  Name = 101911865
REMARK  5 active torsions:
REMARK  status: ('A' for Active; 'I' for Inactive)
REMARK    1  A    between atoms: O_1  and  C_9
REMARK    2  A    between atoms: O_1  and  C_25
REMARK    3  A    between atoms: C_13  and  O_16
REMARK    4  A    between atoms: C_27  and  O_30
REMARK    5  A    between atoms: C_28  and  O_32
REMARK                            x       y       z     vdW  Elec       q    Type
REMARK                         _______ _______ _______ _____ _____    ______ ____
ROOT
ATOM      1  O   UNL     1       0.268  -0.860  -1.464  0.00  0.00    -0.447 OA
ENDROOT
BRANCH   1   9
ATOM      2  O   UNL     1      -3.005   1.773  -1.485  0.00  0.00    -0.449 OA
ATOM      3  O   UNL     1      -1.240   0.911  -2.607  0.00  0.00    -0.245 OA
ATOM      4  C   UNL     1      -4.188   0.453   0.216  0.00  0.00    +0.063 C 
ATOM      5  C   UNL     1      -2.966  -0.425   0.263  0.00  0.00    -0.011 C 
ATOM      6  C   UNL     1      -3.772   1.850  -0.261  0.00  0.00    +0.173 C 
ATOM      7  C   UNL     1      -1.918  -0.212  -0.642  0.00  0.00    +0.106 C 
ATOM      8  C   UNL     1      -2.867  -1.468   1.194  0.00  0.00    +0.008 C 
ATOM      9  C   UNL     1      -0.785  -1.032  -0.614  0.00  0.00    +0.154 C 
ATOM     10  C   UNL     1      -5.237  -0.166  -0.713  0.00  0.00    +0.008 C 
ATOM     11  C   UNL     1      -2.010   0.863  -1.657  0.00  0.00    +0.344 C 
ATOM     12  C   UNL     1      -2.988   2.652   0.778  0.00  0.00    +0.048 C 
ATOM     13  C   UNL     1      -1.734  -2.281   1.224  0.00  0.00    +0.132 C 
ATOM     14  C   UNL     1      -0.695  -2.063   0.321  0.00  0.00    +0.074 C 
ATOM     15  C   UNL     1      -3.968  -1.736   2.172  0.00  0.00    +0.034 C 
BRANCH  13  16
ATOM     16  O   UNL     1      -1.625  -3.297   2.126  0.00  0.00    -0.506 OA
ATOM     17  H   UNL     1      -2.316  -3.456   2.738  0.00  0.00    +0.292 HD
ENDBRANCH  13  16
ENDBRANCH   1   9
BRANCH   1  25
ATOM     18  O   UNL     1       0.742   1.442   0.177  0.00  0.00    -0.476 OA
ATOM     19  C   UNL     1       2.835   2.020   1.297  0.00  0.00    +0.065 C 
ATOM     20  C   UNL     1       1.456   2.532   0.820  0.00  0.00    +0.170 C 
ATOM     21  C   UNL     1       2.937   0.789   0.469  0.00  0.00    +0.017 A 
ATOM     22  C   UNL     1       1.710   0.517  -0.116  0.00  0.00    +0.172 A 
ATOM     23  C   UNL     1       4.018  -0.052   0.269  0.00  0.00    +0.014 A 
ATOM     24  C   UNL     1       2.844   1.694   2.787  0.00  0.00    +0.009 C 
ATOM     25  C   UNL     1       1.507  -0.599  -0.906  0.00  0.00    +0.215 A 
ATOM     26  C   UNL     1       1.573   3.678  -0.184  0.00  0.00    +0.048 C 
ATOM     27  C   UNL     1       3.839  -1.181  -0.534  0.00  0.00    +0.166 A 
ATOM     28  C   UNL     1       2.590  -1.454  -1.116  0.00  0.00    +0.205 A 
ATOM     29  C   UNL     1       5.357   0.238   0.856  0.00  0.00    +0.034 C 
BRANCH  27  30
ATOM     30  O   UNL     1       4.886  -2.024  -0.770  0.00  0.00    -0.503 OA
ATOM     31  H   UNL     1       5.723  -1.850  -0.386  0.00  0.00    +0.292 HD
ENDBRANCH  27  30
BRANCH  28  32
ATOM     32  O   UNL     1       2.435  -2.562  -1.899  0.00  0.00    -0.501 OA
ATOM     33  H   UNL     1       1.604  -2.747  -2.289  0.00  0.00    +0.292 HD
ENDBRANCH  28  32
ENDBRANCH   1  25
TORSDOF 5
