REMARK  Name = 101967125
REMARK  7 active torsions:
REMARK  status: ('A' for Active; 'I' for Inactive)
REMARK    1  A    between atoms: C_7  and  C_21
REMARK    2  A    between atoms: C_8  and  S_11
REMARK    3  A    between atoms: C_9  and  C_24
REMARK    4  A    between atoms: S_11  and  C_13
REMARK    5  A    between atoms: C_14  and  N_16
REMARK    6  A    between atoms: C_21  and  O_22
REMARK    7  A    between atoms: C_24  and  O_25
REMARK                            x       y       z     vdW  Elec       q    Type
REMARK                         _______ _______ _______ _____ _____    ______ ____
ROOT
ATOM      1  O   UNL     1       2.911  -0.504  -1.885  0.00  0.00    -0.270 OA
ATOM      2  N   UNL     1       2.106  -1.209   0.236  0.00  0.00    -0.247 N 
ATOM      3  C   UNL     1       2.173  -0.216   1.325  0.00  0.00    +0.111 C 
ATOM      4  C   UNL     1       0.713  -0.011   1.747  0.00  0.00    +0.062 C 
ATOM      5  C   UNL     1       2.830   0.673   0.292  0.00  0.00    +0.045 C 
ATOM      6  C   UNL     1       2.698  -0.405  -0.694  0.00  0.00    +0.250 C 
ATOM      7  C   UNL     1       0.838  -1.716   0.145  0.00  0.00    +0.135 C 
ATOM      8  C   UNL     1       0.001  -1.102   0.991  0.00  0.00    +0.060 C 
ATOM      9  C   UNL     1       3.323   1.906   0.247  0.00  0.00    -0.013 C 
ATOM     10  C   UNL     1       3.335   2.839   1.450  0.00  0.00    +0.029 C 
ENDROOT
BRANCH   8  11
ATOM     11  S   UNL     1      -1.713  -1.475   1.143  0.00  0.00    +0.087 S 
ATOM     12  O   UNL     1      -2.160  -0.958   2.484  0.00  0.00    -0.247 OA
BRANCH  11  13
ATOM     13  C   UNL     1      -2.388  -0.344  -0.064  0.00  0.00    +0.084 C 
ATOM     14  C   UNL     1      -3.620   0.134   0.138  0.00  0.00    +0.074 C 
BRANCH  14  16
ATOM     15  O   UNL     1      -6.244   1.266   0.400  0.00  0.00    -0.275 OA
ATOM     16  N   UNL     1      -4.216   1.005  -0.722  0.00  0.00    -0.282 N 
ATOM     17  C   UNL     1      -5.492   1.518  -0.539  0.00  0.00    +0.227 C 
ATOM     18  C   UNL     1      -5.913   2.430  -1.661  0.00  0.00    +0.095 C 
ATOM     19  H   UNL     1      -3.713   1.287  -1.520  0.00  0.00    +0.155 HD
ENDBRANCH  14  16
ENDBRANCH  11  13
ENDBRANCH   8  11
BRANCH   7  21
ATOM     20  O   UNL     1      -0.531  -2.901  -1.395  0.00  0.00    -0.244 OA
ATOM     21  C   UNL     1       0.541  -2.763  -0.826  0.00  0.00    +0.352 C 
BRANCH  21  22
ATOM     22  O   UNL     1       1.625  -3.551  -0.997  0.00  0.00    -0.476 OA
ATOM     23  H   UNL     1       2.412  -3.376  -0.519  0.00  0.00    +0.295 HD
ENDBRANCH  21  22
ENDBRANCH   7  21
BRANCH   9  24
ATOM     24  C   UNL     1       3.911   2.521  -1.016  0.00  0.00    +0.159 C 
BRANCH  24  25
ATOM     25  O   UNL     1       5.273   2.862  -0.801  0.00  0.00    -0.378 OA
ATOM     26  H   UNL     1       5.640   3.253  -1.610  0.00  0.00    +0.211 HD
ENDBRANCH  24  25
ENDBRANCH   9  24
TORSDOF 7
