101970445
  -OEChem-03292013293D

 78 79  0     1  0  0  0  0  0999 V2000
    1.4485   -1.5950    0.2756 O   0  0  0  0  0  0  0  0  0  0  0  0
    0.9163   -3.9126    0.0856 O   0  0  0  0  0  0  0  0  0  0  0  0
    4.6183   -2.8751   -2.0674 O   0  0  0  0  0  0  0  0  0  0  0  0
   -1.5853   -0.6982   -0.3868 O   0  0  0  0  0  0  0  0  0  0  0  0
    0.9791    1.1292   -1.7412 O   0  0  0  0  0  0  0  0  0  0  0  0
    2.2045    3.2721    1.9391 O   0  0  0  0  0  0  0  0  0  0  0  0
   -1.8424   -2.8487    0.4046 O   0  0  0  0  0  0  0  0  0  0  0  0
    1.1270   -2.6805   -0.6105 C   0  0  2  0  0  0  0  0  0  0  0  0
    2.6980   -1.7718    0.9520 C   0  0  1  0  0  0  0  0  0  0  0  0
    2.2322   -2.8389   -1.6727 C   0  0  0  0  0  0  0  0  0  0  0  0
    3.6262   -2.9512   -1.0498 C   0  0  2  0  0  0  0  0  0  0  0  0
    3.8548   -1.8200   -0.0492 C   0  0  0  0  0  0  0  0  0  0  0  0
    1.3013    3.1423   -0.3189 C   0  0  0  0  0  0  0  0  0  0  0  0
    2.8266   -0.7381    2.0540 C   0  0  0  0  0  0  0  0  0  0  0  0
   -0.1980   -2.3472   -1.3086 C   0  0  0  0  0  0  0  0  0  0  0  0
    3.1171    1.4384    0.6799 C   0  0  2  0  0  0  0  0  0  0  0  0
    0.3471    1.9811   -0.7771 C   0  0  1  0  0  0  0  0  0  0  0  0
    2.1959    2.6570    0.8659 C   0  0  0  0  0  0  0  0  0  0  0  0
    3.0260    0.5890    1.9252 C   0  0  0  0  0  0  0  0  0  0  0  0
   -2.6469   -0.1588    0.4313 C   0  0  1  0  0  0  0  0  0  0  0  0
    0.4848    4.3464    0.2185 C   0  0  0  0  0  0  0  0  0  0  0  0
    2.2270    3.6610   -1.4312 C   0  0  0  0  0  0  0  0  0  0  0  0
   -1.0311    2.3645   -1.3167 C   0  0  0  0  0  0  0  0  0  0  0  0
   -1.3049   -2.0270   -0.3243 C   0  0  0  0  0  0  0  0  0  0  0  0
    2.7212   -1.3217    3.4455 C   0  0  0  0  0  0  0  0  0  0  0  0
   -2.3664    1.3422    0.6220 C   0  0  0  0  0  0  0  0  0  0  0  0
   -3.9902   -0.4250   -0.2429 C   0  0  0  0  0  0  0  0  0  0  0  0
    4.5562    1.9124    0.4868 C   0  0  0  0  0  0  0  0  0  0  0  0
   -2.1889    2.0771   -0.6827 C   0  0  0  0  0  0  0  0  0  0  0  0
   -5.1440   -0.2845    0.7463 C   0  0  0  0  0  0  0  0  0  0  0  0
   -1.0919    3.0508   -2.6602 C   0  0  0  0  0  0  0  0  0  0  0  0
   -6.4854   -0.5834    0.0747 C   0  0  0  0  0  0  0  0  0  0  0  0
   -7.6473   -0.4112    1.0528 C   0  0  0  0  0  0  0  0  0  0  0  0
   -8.9853   -0.6747    0.3804 C   0  0  0  0  0  0  0  0  0  0  0  0
    2.6651   -2.7539    1.4446 H   0  0  0  0  0  0  0  0  0  0  0  0
    2.2321   -1.9699   -2.3449 H   0  0  0  0  0  0  0  0  0  0  0  0
    2.0463   -3.7199   -2.2994 H   0  0  0  0  0  0  0  0  0  0  0  0
    3.7351   -3.9179   -0.5442 H   0  0  0  0  0  0  0  0  0  0  0  0
    3.9432   -0.8866   -0.6136 H   0  0  0  0  0  0  0  0  0  0  0  0
    4.8148   -1.9604    0.4623 H   0  0  0  0  0  0  0  0  0  0  0  0
   -0.5486   -3.1894   -1.9182 H   0  0  0  0  0  0  0  0  0  0  0  0
   -0.0795   -1.4995   -1.9900 H   0  0  0  0  0  0  0  0  0  0  0  0
    2.7952    0.8749   -0.1929 H   0  0  0  0  0  0  0  0  0  0  0  0
    0.2162    1.3298    0.0914 H   0  0  0  0  0  0  0  0  0  0  0  0
    3.1402    1.1501    2.8541 H   0  0  0  0  0  0  0  0  0  0  0  0
   -2.6082   -0.6431    1.4155 H   0  0  0  0  0  0  0  0  0  0  0  0
   -0.1114    4.8274   -0.5620 H   0  0  0  0  0  0  0  0  0  0  0  0
   -0.1911    4.0394    1.0253 H   0  0  0  0  0  0  0  0  0  0  0  0
    1.1430    5.1244    0.6250 H   0  0  0  0  0  0  0  0  0  0  0  0
    2.9255    4.4121   -1.0439 H   0  0  0  0  0  0  0  0  0  0  0  0
    2.8300    2.8592   -1.8690 H   0  0  0  0  0  0  0  0  0  0  0  0
    1.6596    4.1248   -2.2435 H   0  0  0  0  0  0  0  0  0  0  0  0
    3.5220   -2.0500    3.6117 H   0  0  0  0  0  0  0  0  0  0  0  0
    1.7571   -1.8264    3.5698 H   0  0  0  0  0  0  0  0  0  0  0  0
    2.7976   -0.5626    4.2311 H   0  0  0  0  0  0  0  0  0  0  0  0
    0.0343   -3.9065    0.4907 H   0  0  0  0  0  0  0  0  0  0  0  0
   -1.4761    1.4610    1.2485 H   0  0  0  0  0  0  0  0  0  0  0  0
   -3.1750    1.8201    1.1863 H   0  0  0  0  0  0  0  0  0  0  0  0
    4.4466   -3.5957   -2.6973 H   0  0  0  0  0  0  0  0  0  0  0  0
   -4.0013   -1.4445   -0.6489 H   0  0  0  0  0  0  0  0  0  0  0  0
   -4.1409    0.2264   -1.1110 H   0  0  0  0  0  0  0  0  0  0  0  0
    4.8931    2.5335    1.3252 H   0  0  0  0  0  0  0  0  0  0  0  0
    4.6573    2.5154   -0.4204 H   0  0  0  0  0  0  0  0  0  0  0  0
    5.2440    1.0643    0.3997 H   0  0  0  0  0  0  0  0  0  0  0  0
   -3.1225    2.3817   -1.1536 H   0  0  0  0  0  0  0  0  0  0  0  0
   -5.1685    0.7308    1.1572 H   0  0  0  0  0  0  0  0  0  0  0  0
   -4.9976   -0.9718    1.5884 H   0  0  0  0  0  0  0  0  0  0  0  0
   -0.6258    4.0379   -2.6214 H   0  0  0  0  0  0  0  0  0  0  0  0
   -2.1209    3.1934   -3.0082 H   0  0  0  0  0  0  0  0  0  0  0  0
   -0.5767    2.4543   -3.4197 H   0  0  0  0  0  0  0  0  0  0  0  0
    0.3079    0.5266   -2.1005 H   0  0  0  0  0  0  0  0  0  0  0  0
   -6.4824   -1.6079   -0.3168 H   0  0  0  0  0  0  0  0  0  0  0  0
   -6.6248    0.0891   -0.7807 H   0  0  0  0  0  0  0  0  0  0  0  0
   -7.5268   -1.0982    1.8985 H   0  0  0  0  0  0  0  0  0  0  0  0
   -7.6453    0.6070    1.4590 H   0  0  0  0  0  0  0  0  0  0  0  0
   -9.1510    0.0198   -0.4494 H   0  0  0  0  0  0  0  0  0  0  0  0
   -9.0331   -1.6958   -0.0110 H   0  0  0  0  0  0  0  0  0  0  0  0
   -9.8017   -0.5473    1.0981 H   0  0  0  0  0  0  0  0  0  0  0  0
  1  8  1  0  0  0  0
  1  9  1  0  0  0  0
  2  8  1  0  0  0  0
  2 56  1  0  0  0  0
  3 11  1  0  0  0  0
  3 59  1  0  0  0  0
  4 20  1  0  0  0  0
  4 24  1  0  0  0  0
  5 17  1  0  0  0  0
  5 71  1  0  0  0  0
  6 18  2  0  0  0  0
  7 24  2  0  0  0  0
  8 10  1  0  0  0  0
  8 15  1  0  0  0  0
  9 12  1  0  0  0  0
  9 14  1  0  0  0  0
  9 35  1  0  0  0  0
 10 11  1  0  0  0  0
 10 36  1  0  0  0  0
 10 37  1  0  0  0  0
 11 12  1  0  0  0  0
 11 38  1  0  0  0  0
 12 39  1  0  0  0  0
 12 40  1  0  0  0  0
 13 17  1  0  0  0  0
 13 18  1  0  0  0  0
 13 21  1  0  0  0  0
 13 22  1  0  0  0  0
 14 19  2  0  0  0  0
 14 25  1  0  0  0  0
 15 24  1  0  0  0  0
 15 41  1  0  0  0  0
 15 42  1  0  0  0  0
 16 18  1  0  0  0  0
 16 19  1  0  0  0  0
 16 28  1  0  0  0  0
 16 43  1  0  0  0  0
 17 23  1  0  0  0  0
 17 44  1  0  0  0  0
 19 45  1  0  0  0  0
 20 26  1  0  0  0  0
 20 27  1  0  0  0  0
 20 46  1  0  0  0  0
 21 47  1  0  0  0  0
 21 48  1  0  0  0  0
 21 49  1  0  0  0  0
 22 50  1  0  0  0  0
 22 51  1  0  0  0  0
 22 52  1  0  0  0  0
 23 29  2  0  0  0  0
 23 31  1  0  0  0  0
 25 53  1  0  0  0  0
 25 54  1  0  0  0  0
 25 55  1  0  0  0  0
 26 29  1  0  0  0  0
 26 57  1  0  0  0  0
 26 58  1  0  0  0  0
 27 30  1  0  0  0  0
 27 60  1  0  0  0  0
 27 61  1  0  0  0  0
 28 62  1  0  0  0  0
 28 63  1  0  0  0  0
 28 64  1  0  0  0  0
 29 65  1  0  0  0  0
 30 32  1  0  0  0  0
 30 66  1  0  0  0  0
 30 67  1  0  0  0  0
 31 68  1  0  0  0  0
 31 69  1  0  0  0  0
 31 70  1  0  0  0  0
 32 33  1  0  0  0  0
 32 72  1  0  0  0  0
 32 73  1  0  0  0  0
 33 34  1  0  0  0  0
 33 74  1  0  0  0  0
 33 75  1  0  0  0  0
 34 76  1  0  0  0  0
 34 77  1  0  0  0  0
 34 78  1  0  0  0  0
M  END
> <PUBCHEM_COMPOUND_CID>
101970445

> <PUBCHEM_CONFORMER_RMSD>
0.8

> <PUBCHEM_CONFORMER_DIVERSEORDER>
1
19
5
21
25
4
10
18
3
7
8
12
6
9
22
16
13
2
23
24
14
15
26
17
11
20

> <PUBCHEM_MMFF94_PARTIAL_CHARGES>
29
1 -0.56
11 0.28
13 0.06
14 -0.28
15 0.06
16 0.2
17 0.42
18 0.45
19 -0.29
2 -0.68
20 0.28
23 -0.28
24 0.66
25 0.14
26 0.14
29 -0.29
3 -0.68
31 0.14
4 -0.43
45 0.15
5 -0.68
56 0.4
59 0.4
6 -0.57
65 0.15
7 -0.57
71 0.4
8 0.56
9 0.42

> <PUBCHEM_EFFECTIVE_ROTOR_COUNT>
6.2

> <PUBCHEM_PHARMACOPHORE_FEATURES>
13
1 1 acceptor
1 2 acceptor
1 2 donor
1 3 acceptor
1 3 donor
1 34 hydrophobe
1 5 acceptor
1 5 donor
1 6 acceptor
1 7 acceptor
3 13 21 22 hydrophobe
4 27 30 32 33 hydrophobe
6 1 8 9 10 11 12 rings

> <PUBCHEM_HEAVY_ATOM_COUNT>
34

> <PUBCHEM_ATOM_DEF_STEREO_COUNT>
6

> <PUBCHEM_ATOM_UDEF_STEREO_COUNT>
0

> <PUBCHEM_BOND_DEF_STEREO_COUNT>
2

> <PUBCHEM_BOND_UDEF_STEREO_COUNT>
0

> <PUBCHEM_ISOTOPIC_ATOM_COUNT>
0

> <PUBCHEM_COMPONENT_COUNT>
1

> <PUBCHEM_CACTVS_TAUTO_COUNT>
6

> <PUBCHEM_CONFORMER_ID>
0613F20D00000001

> <PUBCHEM_MMFF94_ENERGY>
70.0597

> <PUBCHEM_FEATURE_SELFOVERLAP>
66.01

> <PUBCHEM_SHAPE_FINGERPRINT>
10165383 225 18131349752346640762
10483366 6 18268731518709065348
11513181 2 17988363796519069886
12156800 1 16051578235084547560
13122387 1 18123455095450218672
13140716 1 17975971278213547793
13533116 47 18272092716854135097
1361 2 18410855495121234603
13726171 33 17902242113849918300
13965767 371 18124290943325282432
14918310 93 17822295737913651620
15297060 5 17842283850205049456
15324884 4 17910367529920596220
15420108 30 17981314900423829598
15840311 113 17918273139648767619
1979834 28 18343011212060018713
20764821 26 16682307419337984224
23559900 14 18335433378396639811
25222932 49 17604425340116924955
35225 105 17485902419059151924
394071 54 18409733980581508923
469060 322 17905630812669948346
57527358 35 14403179656925408744
57527585 103 17400342469786477088
6287921 2 18201715154407115735
6823239 73 18267303136449292298
9896288 288 17258492774017339416

> <PUBCHEM_SHAPE_MULTIPOLES>
658.62
12.44
5.51
2.19
37.37
2.07
-0.61
-5.49
-4.37
-5.87
2.11
-2.42
-0.04
1.72

> <PUBCHEM_SHAPE_SELFOVERLAP>
1323.613

> <PUBCHEM_SHAPE_VOLUME>
381.8

> <PUBCHEM_COORDINATE_TYPE>
2
5
10

$$$$
