REMARK  Name = 101925483
REMARK  15 active torsions:
REMARK  status: ('A' for Active; 'I' for Inactive)
REMARK    1  A    between atoms: C_1  and  C_4
REMARK    2  A    between atoms: C_1  and  N_12
REMARK    3  A    between atoms: C_1  and  C_22
REMARK    4  A    between atoms: N_3  and  C_6
REMARK    5  A    between atoms: N_12  and  C_15
REMARK    6  A    between atoms: C_15  and  C_16
REMARK    7  A    between atoms: C_16  and  C_17
REMARK    8  A    between atoms: C_17  and  N_18
REMARK    9  A    between atoms: C_22  and  C_23
REMARK   10  A    between atoms: C_23  and  C_24
REMARK   11  A    between atoms: C_24  and  N_25
REMARK   12  A    between atoms: N_25  and  C_28
REMARK   13  A    between atoms: C_28  and  C_29
REMARK   14  A    between atoms: C_29  and  C_30
REMARK   15  A    between atoms: C_30  and  N_31
REMARK                            x       y       z     vdW  Elec       q    Type
REMARK                         _______ _______ _______ _____ _____    ______ ____
ROOT
ATOM      1  C   UNL     1      -0.048   2.329  -0.094  0.00  0.00    +0.017 C 
ENDROOT
BRANCH   1   4
ATOM      2  O   UNL     1      -0.721   0.749   1.592  0.00  0.00    -0.277 OA
ATOM      3  N   UNL     1      -1.141   0.249  -0.662  0.00  0.00    -0.286 N 
ATOM      4  C   UNL     1      -0.676   1.025   0.396  0.00  0.00    +0.206 C 
ATOM      5  H   UNL     1      -1.013   0.622  -1.564  0.00  0.00    +0.155 HD
BRANCH   3   6
ATOM      6  C   UNL     1      -1.777  -1.014  -0.591  0.00  0.00    +0.050 C 
ATOM      7  C   UNL     1      -2.010  -1.609   0.649  0.00  0.00    +0.015 C 
ATOM      8  C   UNL     1      -2.171  -1.663  -1.761  0.00  0.00    +0.015 C 
ATOM      9  C   UNL     1      -2.636  -2.853   0.718  0.00  0.00    +0.001 C 
ATOM     10  C   UNL     1      -2.797  -2.907  -1.692  0.00  0.00    +0.001 C 
ATOM     11  C   UNL     1      -3.030  -3.502  -0.452  0.00  0.00    +0.000 C 
ENDBRANCH   3   6
ENDBRANCH   1   4
BRANCH   1  12
ATOM     12  N   UNL     1      -0.844   3.414   0.481  0.00  0.00    +0.391 N 
ATOM     13  H   UNL     1      -0.297   4.275   0.466  0.00  0.00    -0.084 HD
ATOM     14  H   UNL     1      -1.090   3.168   1.440  0.00  0.00    -0.084 HD
BRANCH  12  15
ATOM     15  C   UNL     1      -2.067   3.612  -0.280  0.00  0.00    -0.083 C 
BRANCH  15  16
ATOM     16  C   UNL     1      -2.924   4.742   0.297  0.00  0.00    -0.047 C 
BRANCH  16  17
ATOM     17  C   UNL     1      -4.227   4.957  -0.475  0.00  0.00    -0.088 C 
BRANCH  17  18
ATOM     18  N   UNL     1      -4.986   6.054   0.115  0.00  0.00    +0.380 N 
ATOM     19  H   UNL     1      -5.851   6.188  -0.408  0.00  0.00    -0.089 HD
ATOM     20  H   UNL     1      -4.431   6.910   0.079  0.00  0.00    -0.089 HD
ATOM     21  H   UNL     1      -5.206   5.833   1.086  0.00  0.00    -0.089 HD
ENDBRANCH  17  18
ENDBRANCH  16  17
ENDBRANCH  15  16
ENDBRANCH  12  15
ENDBRANCH   1  12
BRANCH   1  22
ATOM     22  C   UNL     1       1.410   2.443   0.375  0.00  0.00    -0.015 C 
BRANCH  22  23
ATOM     23  C   UNL     1       2.276   1.284  -0.137  0.00  0.00    -0.025 C 
BRANCH  23  24
ATOM     24  C   UNL     1       3.731   1.357   0.333  0.00  0.00    -0.082 C 
BRANCH  24  25
ATOM     25  N   UNL     1       4.545   0.278  -0.213  0.00  0.00    +0.384 N 
ATOM     26  H   UNL     1       4.527   0.329  -1.232  0.00  0.00    -0.085 HD
ATOM     27  H   UNL     1       4.163  -0.612   0.105  0.00  0.00    -0.085 HD
BRANCH  25  28
ATOM     28  C   UNL     1       5.923   0.384   0.245  0.00  0.00    -0.084 C 
BRANCH  28  29
ATOM     29  C   UNL     1       6.803  -0.733  -0.321  0.00  0.00    -0.047 C 
BRANCH  29  30
ATOM     30  C   UNL     1       8.252  -0.655   0.162  0.00  0.00    -0.088 C 
BRANCH  30  31
ATOM     31  N   UNL     1       9.037  -1.734  -0.426  0.00  0.00    +0.380 N 
ATOM     32  H   UNL     1      10.001  -1.672  -0.097  0.00  0.00    -0.089 HD
ATOM     33  H   UNL     1       9.019  -1.654  -1.442  0.00  0.00    -0.089 HD
ATOM     34  H   UNL     1       8.641  -2.633  -0.149  0.00  0.00    -0.089 HD
ENDBRANCH  30  31
ENDBRANCH  29  30
ENDBRANCH  28  29
ENDBRANCH  25  28
ENDBRANCH  24  25
ENDBRANCH  23  24
ENDBRANCH  22  23
ENDBRANCH   1  22
TORSDOF 15
REMARK  Name = 101925483
REMARK  15 active torsions:
REMARK  status: ('A' for Active; 'I' for Inactive)
REMARK    1  A    between atoms: C_1  and  C_4
REMARK    2  A    between atoms: C_1  and  N_12
REMARK    3  A    between atoms: C_1  and  C_22
REMARK    4  A    between atoms: N_3  and  C_6
REMARK    5  A    between atoms: N_12  and  C_15
REMARK    6  A    between atoms: C_15  and  C_16
REMARK    7  A    between atoms: C_16  and  C_17
REMARK    8  A    between atoms: C_17  and  N_18
REMARK    9  A    between atoms: C_22  and  C_23
REMARK   10  A    between atoms: C_23  and  C_24
REMARK   11  A    between atoms: C_24  and  N_25
REMARK   12  A    between atoms: N_25  and  C_28
REMARK   13  A    between atoms: C_28  and  C_29
REMARK   14  A    between atoms: C_29  and  C_30
REMARK   15  A    between atoms: C_30  and  N_31
REMARK                            x       y       z     vdW  Elec       q    Type
REMARK                         _______ _______ _______ _____ _____    ______ ____
ROOT
ATOM      1  N   UNL     1      -3.296  -5.420   0.610  0.00  0.00    +0.000 NA
ATOM      2  N   UNL     1      -2.970  -6.038   1.513  0.00  0.00    +0.000 NA
ENDROOT
TORSDOF 0
