REMARK  Name = 101932818
REMARK  10 active torsions:
REMARK  status: ('A' for Active; 'I' for Inactive)
REMARK    1  A    between atoms: C_6  and  O_19
REMARK    2  A    between atoms: C_7  and  O_21
REMARK    3  A    between atoms: C_9  and  C_25
REMARK    4  A    between atoms: C_16  and  O_23
REMARK    5  A    between atoms: C_25  and  C_26
REMARK    6  A    between atoms: C_27  and  N_29
REMARK    7  A    between atoms: C_30  and  C_32
REMARK    8  A    between atoms: C_33  and  C_35
REMARK    9  A    between atoms: N_34  and  C_35
REMARK   10  A    between atoms: N_34  and  O_36
REMARK                            x       y       z     vdW  Elec       q    Type
REMARK                         _______ _______ _______ _____ _____    ______ ____
ROOT
ATOM      1  O   UNL     1       5.267  -0.427  -1.449  0.00  0.00    -0.348 OA
ATOM      2  O   UNL     1       1.525  -0.629  -0.264  0.00  0.00    -0.449 OA
ATOM      3  O   UNL     1      -0.025  -0.405   1.445  0.00  0.00    -0.245 OA
ATOM      4  C   UNL     1       5.459  -1.326  -0.346  0.00  0.00    +0.172 C 
ATOM      5  C   UNL     1       6.065   0.072  -0.371  0.00  0.00    +0.175 C 
ATOM      6  C   UNL     1       4.215  -1.678   0.411  0.00  0.00    +0.144 C 
ATOM      7  C   UNL     1       5.510   1.282   0.338  0.00  0.00    +0.162 C 
ATOM      8  C   UNL     1       3.166  -2.372  -0.476  0.00  0.00    +0.076 C 
ATOM      9  C   UNL     1       1.736  -2.038  -0.015  0.00  0.00    +0.176 C 
ATOM     10  C   UNL     1       4.157   1.784  -0.118  0.00  0.00    +0.005 C 
ATOM     11  C   UNL     1       3.038   1.826   0.623  0.00  0.00    -0.002 C 
ATOM     12  C   UNL     1       1.744   2.273   0.089  0.00  0.00    +0.009 C 
ATOM     13  C   UNL     1       0.658   0.036   0.537  0.00  0.00    +0.344 C 
ATOM     14  C   UNL     1       0.611   1.438   0.084  0.00  0.00    +0.109 C 
ATOM     15  C   UNL     1       1.606   3.589  -0.379  0.00  0.00    +0.000 C 
ATOM     16  C   UNL     1      -0.629   1.912  -0.360  0.00  0.00    +0.140 C 
ATOM     17  C   UNL     1       0.371   4.057  -0.835  0.00  0.00    +0.003 C 
ATOM     18  C   UNL     1      -0.744   3.221  -0.822  0.00  0.00    +0.037 C 
ENDROOT
BRANCH   6  19
ATOM     19  O   UNL     1       4.577  -2.554   1.480  0.00  0.00    -0.382 OA
ATOM     20  H   UNL     1       5.238  -2.122   2.043  0.00  0.00    +0.210 HD
ENDBRANCH   6  19
BRANCH   7  21
ATOM     21  O   UNL     1       5.526   1.039   1.745  0.00  0.00    -0.377 OA
ATOM     22  H   UNL     1       6.403   0.719   2.008  0.00  0.00    +0.211 HD
ENDBRANCH   7  21
BRANCH  16  23
ATOM     23  O   UNL     1      -1.736   1.117  -0.379  0.00  0.00    -0.505 OA
ATOM     24  H   UNL     1      -1.684   0.233  -0.073  0.00  0.00    +0.292 HD
ENDBRANCH  16  23
BRANCH   9  25
ATOM     25  C   UNL     1       0.706  -2.830  -0.812  0.00  0.00    +0.071 C 
BRANCH  25  26
ATOM     26  C   UNL     1      -0.617  -2.850  -0.113  0.00  0.00    -0.006 C 
ATOM     27  C   UNL     1      -1.740  -2.358  -0.649  0.00  0.00    +0.060 C 
BRANCH  27  29
ATOM     28  O   UNL     1      -4.232  -1.358  -1.645  0.00  0.00    -0.270 OA
ATOM     29  N   UNL     1      -2.939  -2.394  -0.006  0.00  0.00    -0.280 N 
ATOM     30  C   UNL     1      -4.115  -1.890  -0.545  0.00  0.00    +0.249 C 
ATOM     31  H   UNL     1      -2.975  -2.799   0.890  0.00  0.00    +0.155 HD
BRANCH  30  32
ATOM     32  C   UNL     1      -5.270  -2.066   0.381  0.00  0.00    +0.055 C 
ATOM     33  C   UNL     1      -5.938  -0.993   0.818  0.00  0.00    -0.000 C 
BRANCH  33  34
ATOM     34  C   UNL     1      -5.502   0.341   0.362  0.00  0.00    +0.148 C 
BRANCH  34  35
ATOM     35  N   UNL     1      -6.329   1.326   0.234  0.00  0.00    -0.079 NA
BRANCH  35  36
ATOM     36  O   UNL     1      -7.610   0.883   0.592  0.00  0.00    -0.263 OA
ATOM     37  C   UNL     1      -8.510   1.971   0.448  0.00  0.00    +0.202 C 
ENDBRANCH  35  36
ENDBRANCH  34  35
ENDBRANCH  33  34
ENDBRANCH  30  32
ENDBRANCH  27  29
ENDBRANCH  25  26
ENDBRANCH   9  25
TORSDOF 10
