REMARK  Name = 101917122
REMARK  11 active torsions:
REMARK  status: ('A' for Active; 'I' for Inactive)
REMARK    1  A    between atoms: C_2  and  C_17
REMARK    2  A    between atoms: C_7  and  C_25
REMARK    3  A    between atoms: C_8  and  O_15
REMARK    4  A    between atoms: C_17  and  C_18
REMARK    5  A    between atoms: C_18  and  C_21
REMARK    6  A    between atoms: C_25  and  O_26
REMARK    7  A    between atoms: O_26  and  C_28
REMARK    8  A    between atoms: C_28  and  C_29
REMARK    9  A    between atoms: C_29  and  C_30
REMARK   10  A    between atoms: C_30  and  C_31
REMARK   11  A    between atoms: C_36  and  O_37
REMARK                            x       y       z     vdW  Elec       q    Type
REMARK                         _______ _______ _______ _____ _____    ______ ____
ROOT
ATOM      1  O   UNL     1      -0.041   4.299  -0.199  0.00  0.00    -0.296 OA
ATOM      2  C   UNL     1      -1.598  -1.121  -0.504  0.00  0.00    +0.015 C 
ATOM      3  C   UNL     1      -1.419  -2.018   0.773  0.00  0.00    +0.006 C 
ATOM      4  C   UNL     1      -1.152   0.347  -0.259  0.00  0.00    -0.050 C 
ATOM      5  C   UNL     1      -0.502   0.766   0.859  0.00  0.00    -0.016 C 
ATOM      6  C   UNL     1      -0.134  -1.661   1.525  0.00  0.00    +0.034 C 
ATOM      7  C   UNL     1       0.005   2.214   1.051  0.00  0.00    +0.108 C 
ATOM      8  C   UNL     1      -0.170  -0.206   1.976  0.00  0.00    +0.129 C 
ATOM      9  C   UNL     1      -1.431   1.340  -1.371  0.00  0.00    +0.029 C 
ATOM     10  C   UNL     1      -0.777  -1.673  -1.693  0.00  0.00    +0.004 C 
ATOM     11  C   UNL     1      -1.703   2.731  -0.837  0.00  0.00    +0.069 C 
ATOM     12  C   UNL     1      -0.516   3.173  -0.035  0.00  0.00    +0.157 C 
ATOM     13  C   UNL     1      -1.442  -3.533   0.519  0.00  0.00    +0.000 C 
ATOM     14  C   UNL     1      -0.457   2.813   2.391  0.00  0.00    +0.015 C 
ENDROOT
BRANCH   8  15
ATOM     15  O   UNL     1      -1.145  -0.055   3.009  0.00  0.00    -0.380 OA
ATOM     16  H   UNL     1      -1.170   0.871   3.297  0.00  0.00    +0.211 HD
ENDBRANCH   8  15
BRANCH   2  17
ATOM     17  C   UNL     1      -3.101  -1.172  -0.883  0.00  0.00    +0.008 C 
BRANCH  17  18
ATOM     18  C   UNL     1      -3.943  -0.553   0.216  0.00  0.00    +0.026 C 
BRANCH  18  21
ATOM     19  O   UNL     1      -7.331  -0.228  -1.290  0.00  0.00    -0.441 OA
ATOM     20  O   UNL     1      -8.694  -1.431   0.121  0.00  0.00    -0.245 OA
ATOM     21  C   UNL     1      -5.393  -0.609  -0.132  0.00  0.00    +0.005 C 
ATOM     22  C   UNL     1      -5.931   0.073  -1.326  0.00  0.00    +0.231 C 
ATOM     23  C   UNL     1      -6.354  -1.241   0.536  0.00  0.00    +0.077 C 
ATOM     24  C   UNL     1      -7.598  -1.002  -0.198  0.00  0.00    +0.341 C 
ENDBRANCH  18  21
ENDBRANCH  17  18
ENDBRANCH   2  17
BRANCH   7  25
ATOM     25  C   UNL     1       1.545   2.246   0.966  0.00  0.00    +0.219 C 
BRANCH  25  26
ATOM     26  O   UNL     1       1.920   1.757  -0.303  0.00  0.00    -0.448 OA
BRANCH  26  28
ATOM     27  O   UNL     1       4.149   2.058   0.214  0.00  0.00    -0.250 OA
ATOM     28  C   UNL     1       3.270   1.712  -0.563  0.00  0.00    +0.317 C 
BRANCH  28  29
ATOM     29  C   UNL     1       3.501   1.166  -1.954  0.00  0.00    +0.114 C 
BRANCH  29  30
ATOM     30  C   UNL     1       3.612  -0.358  -1.958  0.00  0.00    +0.038 C 
BRANCH  30  31
ATOM     31  C   UNL     1       4.758  -0.837  -1.106  0.00  0.00    -0.021 C 
ATOM     32  C   UNL     1       6.024  -1.002  -1.667  0.00  0.00    -0.001 C 
ATOM     33  C   UNL     1       4.553  -1.114   0.246  0.00  0.00    -0.001 C 
ATOM     34  C   UNL     1       7.085  -1.445  -0.878  0.00  0.00    +0.036 C 
ATOM     35  C   UNL     1       5.614  -1.557   1.036  0.00  0.00    +0.036 C 
ATOM     36  C   UNL     1       6.880  -1.723   0.474  0.00  0.00    +0.134 C 
BRANCH  36  37
ATOM     37  O   UNL     1       7.915  -2.154   1.244  0.00  0.00    -0.506 OA
ATOM     38  H   UNL     1       8.766  -2.265   0.867  0.00  0.00    +0.292 HD
ENDBRANCH  36  37
ENDBRANCH  30  31
ENDBRANCH  29  30
ENDBRANCH  28  29
ENDBRANCH  26  28
ENDBRANCH  25  26
ENDBRANCH   7  25
TORSDOF 11
