REMARK  Name = 101973930
REMARK  5 active torsions:
REMARK  status: ('A' for Active; 'I' for Inactive)
REMARK    1  A    between atoms: C_7  and  C_28
REMARK    2  A    between atoms: C_12  and  O_25
REMARK    3  A    between atoms: C_28  and  C_29
REMARK    4  A    between atoms: C_29  and  O_30
REMARK    5  A    between atoms: O_30  and  C_32
REMARK                            x       y       z     vdW  Elec       q    Type
REMARK                         _______ _______ _______ _____ _____    ______ ____
ROOT
ATOM      1  O   UNL     1      -2.208  -0.996   1.252  0.00  0.00    -0.462 OA
ATOM      2  O   UNL     1       6.830   0.699   2.110  0.00  0.00    -0.287 OA
ATOM      3  N   UNL     1      -2.155  -3.186   0.589  0.00  0.00    -0.240 NA
ATOM      4  C   UNL     1      -0.866  -0.158  -0.662  0.00  0.00    +0.044 C 
ATOM      5  C   UNL     1       0.209  -1.249  -0.456  0.00  0.00    +0.006 C 
ATOM      6  C   UNL     1       1.606  -0.829  -0.937  0.00  0.00    +0.003 C 
ATOM      7  C   UNL     1      -2.125  -0.915  -0.166  0.00  0.00    +0.208 C 
ATOM      8  C   UNL     1       2.055   0.436  -0.122  0.00  0.00    +0.034 C 
ATOM      9  C   UNL     1      -0.442  -2.498  -1.049  0.00  0.00    +0.029 C 
ATOM     10  C   UNL     1      -0.447   1.066   0.174  0.00  0.00    +0.033 C 
ATOM     11  C   UNL     1      -1.919  -2.373  -0.616  0.00  0.00    +0.149 C 
ATOM     12  C   UNL     1       0.978   1.567  -0.155  0.00  0.00    +0.111 C 
ATOM     13  C   UNL     1       3.533   0.875  -0.471  0.00  0.00    +0.036 C 
ATOM     14  C   UNL     1       2.605  -1.986  -0.765  0.00  0.00    +0.004 C 
ATOM     15  C   UNL     1      -1.064   0.231  -2.154  0.00  0.00    +0.004 C 
ATOM     16  C   UNL     1       4.032  -1.573  -1.104  0.00  0.00    +0.022 C 
ATOM     17  C   UNL     1       4.428  -0.358  -0.305  0.00  0.00    -0.038 C 
ATOM     18  C   UNL     1       3.708   1.405  -1.912  0.00  0.00    +0.009 C 
ATOM     19  C   UNL     1       3.973   2.002   0.452  0.00  0.00    -0.020 C 
ATOM     20  C   UNL     1      -2.287  -2.314   1.534  0.00  0.00    +0.196 C 
ATOM     21  C   UNL     1       5.481  -0.409   0.526  0.00  0.00    +0.034 C 
ATOM     22  C   UNL     1       5.019   1.957   1.283  0.00  0.00    +0.038 C 
ATOM     23  C   UNL     1      -2.504  -2.633   2.967  0.00  0.00    +0.094 C 
ATOM     24  C   UNL     1       5.857   0.746   1.365  0.00  0.00    +0.195 C 
ENDROOT
BRANCH  12  25
ATOM     25  O   UNL     1       0.968   2.232  -1.411  0.00  0.00    -0.384 OA
ATOM     26  H   UNL     1       1.862   2.546  -1.617  0.00  0.00    +0.210 HD
ENDBRANCH  12  25
BRANCH   7  28
ATOM     27  O   UNL     1      -4.000  -0.691  -1.620  0.00  0.00    -0.288 OA
ATOM     28  C   UNL     1      -3.438  -0.326  -0.588  0.00  0.00    +0.232 C 
BRANCH  28  29
ATOM     29  C   UNL     1      -4.022   0.732   0.324  0.00  0.00    +0.276 C 
BRANCH  29  30
ATOM     30  O   UNL     1      -5.259   1.194  -0.177  0.00  0.00    -0.440 OA
BRANCH  30  32
ATOM     31  O   UNL     1      -5.473   2.643   1.609  0.00  0.00    -0.250 OA
ATOM     32  C   UNL     1      -5.890   2.159   0.566  0.00  0.00    +0.318 C 
ATOM     33  C   UNL     1      -7.183   2.550  -0.082  0.00  0.00    +0.121 C 
ENDBRANCH  30  32
ENDBRANCH  29  30
ENDBRANCH  28  29
ENDBRANCH   7  28
TORSDOF 5
