REMARK  Name = 101998766
REMARK  11 active torsions:
REMARK  status: ('A' for Active; 'I' for Inactive)
REMARK    1  A    between atoms: C_1  and  C_4
REMARK    2  A    between atoms: C_1  and  N_14
REMARK    3  A    between atoms: C_1  and  C_28
REMARK    4  A    between atoms: N_3  and  C_6
REMARK    5  A    between atoms: C_6  and  C_10
REMARK    6  A    between atoms: C_10  and  O_11
REMARK    7  A    between atoms: C_15  and  C_17
REMARK    8  A    between atoms: C_17  and  N_20
REMARK    9  A    between atoms: C_21  and  O_23
REMARK   10  A    between atoms: O_23  and  C_24
REMARK   11  A    between atoms: C_28  and  C_30
REMARK                            x       y       z     vdW  Elec       q    Type
REMARK                         _______ _______ _______ _____ _____    ______ ____
ROOT
ATOM      1  C   UNL     1       0.988  -0.229  -0.061  0.00  0.00    +0.149 C 
ENDROOT
BRANCH   1   4
ATOM      2  O   UNL     1       2.156   1.491  -1.312  0.00  0.00    -0.273 OA
ATOM      3  N   UNL     1       3.366   0.165   0.161  0.00  0.00    -0.297 N 
ATOM      4  C   UNL     1       2.214   0.573  -0.496  0.00  0.00    +0.241 C 
ATOM      5  H   UNL     1       3.302  -0.583   0.798  0.00  0.00    +0.150 HD
BRANCH   3   6
ATOM      6  C   UNL     1       4.657   0.783  -0.045  0.00  0.00    +0.147 C 
ATOM      7  C   UNL     1       4.578   2.261   0.346  0.00  0.00    +0.031 C 
ATOM      8  C   UNL     1       5.060   0.637  -1.514  0.00  0.00    +0.031 C 
BRANCH   6  10
ATOM      9  O   UNL     1       6.894   0.446   0.836  0.00  0.00    -0.248 OA
ATOM     10  C   UNL     1       5.716   0.101   0.826  0.00  0.00    +0.333 C 
BRANCH  10  11
ATOM     11  O   UNL     1       5.195  -0.912   1.575  0.00  0.00    -0.443 OA
ATOM     12  C   UNL     1       6.121  -1.602   2.421  0.00  0.00    +0.256 C 
ENDBRANCH  10  11
ENDBRANCH   6  10
ENDBRANCH   3   6
ENDBRANCH   1   4
BRANCH   1  14
ATOM     13  O   UNL     1      -1.173   1.060   1.333  0.00  0.00    -0.273 OA
ATOM     14  N   UNL     1      -0.178   0.379  -0.651  0.00  0.00    -0.297 N 
ATOM     15  C   UNL     1      -1.176   0.981   0.106  0.00  0.00    +0.241 C 
ATOM     16  H   UNL     1      -0.272   0.367  -1.631  0.00  0.00    +0.150 HD
BRANCH  15  17
ATOM     17  C   UNL     1      -2.271   1.586  -0.763  0.00  0.00    +0.151 C 
ATOM     18  C   UNL     1      -1.949   3.030  -1.116  0.00  0.00    +0.031 C 
BRANCH  17  20
ATOM     19  O   UNL     1      -4.149  -0.630  -0.751  0.00  0.00    -0.226 OA
ATOM     20  N   UNL     1      -3.514   1.488  -0.045  0.00  0.00    -0.264 N 
ATOM     21  C   UNL     1      -4.350   0.388  -0.098  0.00  0.00    +0.402 C 
ATOM     22  H   UNL     1      -3.785   2.249   0.518  0.00  0.00    +0.153 HD
BRANCH  21  23
ATOM     23  O   UNL     1      -5.446   0.600   0.691  0.00  0.00    -0.442 OA
BRANCH  23  24
ATOM     24  C   UNL     1      -6.402  -0.466   0.730  0.00  0.00    +0.138 C 
ATOM     25  C   UNL     1      -7.532  -0.036   1.662  0.00  0.00    +0.044 C 
ATOM     26  C   UNL     1      -6.931  -0.697  -0.685  0.00  0.00    +0.044 C 
ATOM     27  C   UNL     1      -5.711  -1.719   1.264  0.00  0.00    +0.044 C 
ENDBRANCH  23  24
ENDBRANCH  21  23
ENDBRANCH  17  20
ENDBRANCH  15  17
ENDBRANCH   1  14
BRANCH   1  28
ATOM     28  C   UNL     1       1.118  -1.735  -0.394  0.00  0.00    +0.027 C 
ATOM     29  C   UNL     1      -0.099  -2.501   0.143  0.00  0.00    +0.002 C 
BRANCH  28  30
ATOM     30  C   UNL     1       1.328  -1.985  -1.903  0.00  0.00    +0.002 C 
ATOM     31  C   UNL     1       1.492  -3.457  -2.258  0.00  0.00    +0.000 C 
ENDBRANCH  28  30
ENDBRANCH   1  28
TORSDOF 11
