REMARK  Name = 10195250
REMARK  8 active torsions:
REMARK  status: ('A' for Active; 'I' for Inactive)
REMARK    1  A    between atoms: C_3  and  C_23
REMARK    2  A    between atoms: C_4  and  O_7
REMARK    3  A    between atoms: O_7  and  C_8
REMARK    4  A    between atoms: C_8  and  C_12
REMARK    5  A    between atoms: C_9  and  C_15
REMARK    6  A    between atoms: C_15  and  N_17
REMARK    7  A    between atoms: C_23  and  C_26
REMARK    8  A    between atoms: C_23  and  C_34
REMARK                            x       y       z     vdW  Elec       q    Type
REMARK                         _______ _______ _______ _____ _____    ______ ____
ROOT
ATOM      1  N   UNL     1       2.055   1.742  -0.032  0.00  0.00    -0.324 NA
ATOM      2  N   UNL     1       1.060   3.276  -1.602  0.00  0.00    -0.152 NA
ATOM      3  C   UNL     1       3.265   2.223  -0.385  0.00  0.00    +0.146 C 
ATOM      4  C   UNL     1       1.006   2.303  -0.669  0.00  0.00    +0.252 C 
ATOM      5  C   UNL     1       3.450   3.215  -1.326  0.00  0.00    +0.052 C 
ATOM      6  C   UNL     1       2.301   3.709  -1.907  0.00  0.00    +0.116 C 
ENDROOT
BRANCH   4   7
ATOM      7  O   UNL     1      -0.239   1.838  -0.335  0.00  0.00    -0.403 OA
BRANCH   7   8
ATOM      8  C   UNL     1      -0.296   0.812   0.649  0.00  0.00    +0.248 C 
BRANCH   8  12
ATOM      9  C   UNL     1      -4.361  -0.363   1.236  0.00  0.00    -0.043 C 
ATOM     10  C   UNL     1      -3.590  -1.009   0.277  0.00  0.00    -0.007 C 
ATOM     11  C   UNL     1      -3.823   0.662   2.006  0.00  0.00    -0.007 C 
ATOM     12  C   UNL     1      -1.716   0.402   0.854  0.00  0.00    +0.022 C 
ATOM     13  C   UNL     1      -2.263  -0.626   0.085  0.00  0.00    -0.001 C 
ATOM     14  C   UNL     1      -2.496   1.046   1.814  0.00  0.00    -0.001 C 
BRANCH   9  15
ATOM     15  C   UNL     1      -5.789  -0.776   1.443  0.00  0.00    -0.050 C 
BRANCH  15  17
ATOM     16  O   UNL     1      -8.596  -0.340  -1.647  0.00  0.00    -0.358 OA
ATOM     17  N   UNL     1      -6.497  -0.951   0.176  0.00  0.00    +0.393 N 
ATOM     18  C   UNL     1      -6.507   0.302  -0.593  0.00  0.00    -0.044 C 
ATOM     19  C   UNL     1      -7.873  -1.410   0.407  0.00  0.00    -0.044 C 
ATOM     20  C   UNL     1      -7.261   0.099  -1.904  0.00  0.00    +0.119 C 
ATOM     21  C   UNL     1      -8.595  -1.573  -0.928  0.00  0.00    +0.119 C 
ATOM     22  H   UNL     1      -6.002  -1.661  -0.364  0.00  0.00    -0.079 HD
ENDBRANCH  15  17
ENDBRANCH   9  15
ENDBRANCH   8  12
ENDBRANCH   7   8
ENDBRANCH   4   7
BRANCH   3  23
ATOM     23  C   UNL     1       4.450   1.627   0.298  0.00  0.00    +0.202 C 
BRANCH  23  26
ATOM     24  S   UNL     1       5.510  -0.338  -1.313  0.00  0.00    -0.056 S 
ATOM     25  N   UNL     1       4.089  -0.765   0.797  0.00  0.00    -0.402 NA
ATOM     26  C   UNL     1       4.611   0.124   0.034  0.00  0.00    +0.159 C 
ATOM     27  C   UNL     1       5.203  -1.979  -0.881  0.00  0.00    +0.057 C 
ATOM     28  C   UNL     1       4.424  -2.008   0.280  0.00  0.00    +0.120 C 
ATOM     29  C   UNL     1       5.622  -3.156  -1.522  0.00  0.00    +0.008 C 
ATOM     30  C   UNL     1       4.051  -3.260   0.815  0.00  0.00    +0.085 C 
ATOM     31  C   UNL     1       5.240  -4.382  -0.972  0.00  0.00    -0.004 C 
ATOM     32  C   UNL     1       4.465  -4.436   0.181  0.00  0.00    -0.019 C 
ENDBRANCH  23  26
BRANCH  23  34
ATOM     33  N   UNL     1       4.574   2.105   2.903  0.00  0.00    -0.195 NA
ATOM     34  C   UNL     1       4.526   1.888   1.764  0.00  0.00    +0.087 C 
ENDBRANCH  23  34
ENDBRANCH   3  23
TORSDOF 8
