REMARK  Name = 10198309
REMARK  7 active torsions:
REMARK  status: ('A' for Active; 'I' for Inactive)
REMARK    1  A    between atoms: N_2  and  CA_14
REMARK    2  A    between atoms: C_3  and  CA_6
REMARK    3  A    between atoms: CG_8  and  OD_12
REMARK    4  A    between atoms: CA_14  and  C_16
REMARK    5  A    between atoms: CA_14  and  CB_19
REMARK    6  A    between atoms: C_16  and  O_17
REMARK    7  A    between atoms: CB_19  and  OG_20
REMARK                            x       y       z     vdW  Elec       q    Type
REMARK                         _______ _______ _______ _____ _____    ______ ____
ROOT
ATOM      1  O   HYP A   1      -0.036   2.038   0.408  0.00  0.00    -0.277 OA
ATOM      2  N   SER A   2       0.809  -0.121   0.616  0.00  0.00    -0.296 N 
ATOM      3  C   HYP A   1      -0.197   0.827   0.531  0.00  0.00    +0.203 C 
ATOM      4  H   SER A   2       0.554  -1.067   0.713  0.00  0.00    +0.150 HD
ENDROOT
BRANCH   3   6
ATOM      5  N   HYP A   1      -2.546   1.290   0.453  0.00  0.00    +0.392 N 
ATOM      6  CA  HYP A   1      -1.556   0.214   0.581  0.00  0.00    +0.019 C 
ATOM      7  CB  HYP A   1      -1.850  -0.690  -0.603  0.00  0.00    +0.015 C 
ATOM      8  CG  HYP A   1      -3.365  -0.606  -0.748  0.00  0.00    +0.088 C 
ATOM      9  CD  HYP A   1      -3.790   0.602   0.082  0.00  0.00    -0.051 C 
ATOM     10  H1  HYP A   1      -2.268   1.951  -0.273  0.00  0.00    -0.084 HD
ATOM     11  H2  HYP A   1      -2.643   1.832   1.311  0.00  0.00    -0.084 HD
BRANCH   8  12
ATOM     12  OD  HYP A   1      -3.976  -1.787  -0.244  0.00  0.00    -0.387 OA
ATOM     13  HD  HYP A   1      -3.699  -2.548  -0.779  0.00  0.00    +0.210 HD
ENDBRANCH   8  12
ENDBRANCH   3   6
BRANCH   2  14
ATOM     14  CA  SER A   2       2.214   0.212   0.568  0.00  0.00    +0.201 C 
BRANCH  14  16
ATOM     15  OXT SER A   2       2.190  -0.507  -1.758  0.00  0.00    -0.248 OA
ATOM     16  C   SER A   2       2.622   0.240  -0.890  0.00  0.00    +0.334 C 
BRANCH  16  17
ATOM     17  O   SER A   2       3.579   1.175  -1.131  0.00  0.00    -0.479 OA
ATOM     18  H   SER A   2       3.880   1.726  -0.436  0.00  0.00    +0.295 HD
ENDBRANCH  16  17
ENDBRANCH  14  16
BRANCH  14  19
ATOM     19  CB  SER A   2       3.056  -0.795   1.339  0.00  0.00    +0.168 C 
BRANCH  19  20
ATOM     20  OG  SER A   2       2.845  -2.092   0.796  0.00  0.00    -0.380 OA
ATOM     21  H   SER A   2       3.380  -2.738   1.285  0.00  0.00    +0.211 HD
ENDBRANCH  19  20
ENDBRANCH  14  19
ENDBRANCH   2  14
TORSDOF 7
