10198309
  -OEChem-03292013303D

 29 29  0     1  0  0  0  0  0999 V2000
   -3.9761   -1.7871   -0.2443 O   0  0  0  0  0  0  0  0  0  0  0  0
   -0.0363    2.0384    0.4082 O   0  0  0  0  0  0  0  0  0  0  0  0
    2.8453   -2.0925    0.7963 O   0  0  0  0  0  0  0  0  0  0  0  0
    3.5786    1.1750   -1.1311 O   0  0  0  0  0  0  0  0  0  0  0  0
    2.1899   -0.5073   -1.7576 O   0  0  0  0  0  0  0  0  0  0  0  0
   -2.5455    1.2901    0.4528 N   0  0  0  0  0  0  0  0  0  0  0  0
    0.8089   -0.1206    0.6157 N   0  0  0  0  0  0  0  0  0  0  0  0
   -1.5557    0.2142    0.5805 C   0  0  1  0  0  0  0  0  0  0  0  0
   -1.8500   -0.6903   -0.6028 C   0  0  0  0  0  0  0  0  0  0  0  0
   -3.3654   -0.6063   -0.7476 C   0  0  2  0  0  0  0  0  0  0  0  0
   -3.7897    0.6023    0.0819 C   0  0  0  0  0  0  0  0  0  0  0  0
   -0.1967    0.8269    0.5311 C   0  0  0  0  0  0  0  0  0  0  0  0
    2.2143    0.2118    0.5682 C   0  0  1  0  0  0  0  0  0  0  0  0
    3.0560   -0.7947    1.3387 C   0  0  0  0  0  0  0  0  0  0  0  0
    2.6223    0.2403   -0.8900 C   0  0  0  0  0  0  0  0  0  0  0  0
   -1.6905   -0.3092    1.5348 H   0  0  0  0  0  0  0  0  0  0  0  0
   -1.3682   -0.3093   -1.5124 H   0  0  0  0  0  0  0  0  0  0  0  0
   -1.4942   -1.7120   -0.4328 H   0  0  0  0  0  0  0  0  0  0  0  0
   -3.6510   -0.4924   -1.7989 H   0  0  0  0  0  0  0  0  0  0  0  0
   -4.4370    1.2744   -0.4910 H   0  0  0  0  0  0  0  0  0  0  0  0
   -4.3361    0.3058    0.9845 H   0  0  0  0  0  0  0  0  0  0  0  0
   -2.2787    1.8935   -0.3272 H   0  0  0  0  0  0  0  0  0  0  0  0
    0.5579   -1.1042    0.6626 H   0  0  0  0  0  0  0  0  0  0  0  0
    2.3426    1.2160    0.9886 H   0  0  0  0  0  0  0  0  0  0  0  0
   -3.6601   -2.5318   -0.7839 H   0  0  0  0  0  0  0  0  0  0  0  0
    2.7680   -0.8138    2.3949 H   0  0  0  0  0  0  0  0  0  0  0  0
    4.1220   -0.5573    1.2621 H   0  0  0  0  0  0  0  0  0  0  0  0
    3.3938   -2.7089    1.3110 H   0  0  0  0  0  0  0  0  0  0  0  0
    3.8579    1.1778   -2.0715 H   0  0  0  0  0  0  0  0  0  0  0  0
  1 10  1  0  0  0  0
  1 25  1  0  0  0  0
  2 12  2  0  0  0  0
  3 14  1  0  0  0  0
  3 28  1  0  0  0  0
  4 15  1  0  0  0  0
  4 29  1  0  0  0  0
  5 15  2  0  0  0  0
  6  8  1  0  0  0  0
  6 11  1  0  0  0  0
  6 22  1  0  0  0  0
  7 12  1  0  0  0  0
  7 13  1  0  0  0  0
  7 23  1  0  0  0  0
  8  9  1  0  0  0  0
  8 12  1  0  0  0  0
  8 16  1  0  0  0  0
  9 10  1  0  0  0  0
  9 17  1  0  0  0  0
  9 18  1  0  0  0  0
 10 11  1  0  0  0  0
 10 19  1  0  0  0  0
 11 20  1  0  0  0  0
 11 21  1  0  0  0  0
 13 14  1  0  0  0  0
 13 15  1  0  0  0  0
 13 24  1  0  0  0  0
 14 26  1  0  0  0  0
 14 27  1  0  0  0  0
M  END
> <PUBCHEM_COMPOUND_CID>
10198309

> <PUBCHEM_CONFORMER_RMSD>
0.8

> <PUBCHEM_CONFORMER_DIVERSEORDER>
1
20
3
25
17
23
26
9
2
24
13
12
7
15
10
14
21
22
19
5
8
11
4
18
6
16

> <PUBCHEM_MMFF94_PARTIAL_CHARGES>
19
1 -0.68
10 0.28
11 0.27
12 0.57
13 0.36
14 0.28
15 0.66
2 -0.57
22 0.36
23 0.37
25 0.4
28 0.4
29 0.5
3 -0.68
4 -0.65
5 -0.57
6 -0.9
7 -0.73
8 0.33

> <PUBCHEM_EFFECTIVE_ROTOR_COUNT>
6

> <PUBCHEM_PHARMACOPHORE_FEATURES>
12
1 1 acceptor
1 1 donor
1 2 acceptor
1 3 acceptor
1 3 donor
1 4 acceptor
1 5 acceptor
1 6 cation
1 6 donor
1 7 donor
3 4 5 15 anion
5 6 8 9 10 11 rings

> <PUBCHEM_HEAVY_ATOM_COUNT>
15

> <PUBCHEM_ATOM_DEF_STEREO_COUNT>
3

> <PUBCHEM_ATOM_UDEF_STEREO_COUNT>
0

> <PUBCHEM_BOND_DEF_STEREO_COUNT>
0

> <PUBCHEM_BOND_UDEF_STEREO_COUNT>
0

> <PUBCHEM_ISOTOPIC_ATOM_COUNT>
0

> <PUBCHEM_COMPONENT_COUNT>
1

> <PUBCHEM_CACTVS_TAUTO_COUNT>
2

> <PUBCHEM_CONFORMER_ID>
009B9D2500000001

> <PUBCHEM_MMFF94_ENERGY>
25.0739

> <PUBCHEM_FEATURE_SELFOVERLAP>
60.96

> <PUBCHEM_SHAPE_FINGERPRINT>
10465860 71 18271818942136711613
10751810 167 18342463655417026901
11543360 7 17240478165281020543
12616999 72 18040997392491753890
12932764 1 18411984645822506513
13296908 3 16559031584243803177
14144814 61 18272366481968650627
14252887 29 17418093260325086674
18186145 218 15574715763924357833
18522851 12 18338529568316053595
19107657 162 17560799957110631391
19422 9 18334292054871347139
20279233 1 16845565401042464031
20281407 28 17275107240836974213
20281475 54 18409444791447849827
20645476 183 18261679263164410351
20645477 70 17240762852476635170
20715346 28 16630521825944724441
20871999 31 18272379689009196005
22096605 113 16805604831962640340
22646028 28 18409722941698198531
23402539 116 18411985758772833196
23463225 33 18339917113224896275
23532345 42 17847058917160745036
23557571 272 17987791896206958216
23559900 14 17703235005556940036
23598291 2 18187931603853328788
3082319 5 18113617884874702887
3248919 1 17530965782505719265
6049 1 16128660721382771760
7364860 26 17557983119868652153
8030462 33 18260556601778693464
81228 2 17559681637642173657

> <PUBCHEM_SHAPE_MULTIPOLES>
269.38
7.27
1.6
1.23
2.2
0.16
-0.28
1.76
-0.81
0.1
0.2
-1.18
0.13
-1.02

> <PUBCHEM_SHAPE_SELFOVERLAP>
541.722

> <PUBCHEM_SHAPE_VOLUME>
157.9

> <PUBCHEM_COORDINATE_TYPE>
2
5
10

$$$$
