REMARK  Name = 101970445
REMARK  7 active torsions:
REMARK  status: ('A' for Active; 'I' for Inactive)
REMARK    1  A    between atoms: C_5  and  O_27
REMARK    2  A    between atoms: C_8  and  O_29
REMARK    3  A    between atoms: C_14  and  O_31
REMARK    4  A    between atoms: C_17  and  C_33
REMARK    5  A    between atoms: C_33  and  C_34
REMARK    6  A    between atoms: C_34  and  C_35
REMARK    7  A    between atoms: C_35  and  C_36
REMARK                            x       y       z     vdW  Elec       q    Type
REMARK                         _______ _______ _______ _____ _____    ______ ____
ROOT
ATOM      1  O   UNL     1       1.448  -1.595   0.276  0.00  0.00    -0.332 OA
ATOM      2  O   UNL     1      -1.585  -0.698  -0.387  0.00  0.00    -0.452 OA
ATOM      3  O   UNL     1       2.204   3.272   1.939  0.00  0.00    -0.296 OA
ATOM      4  O   UNL     1      -1.842  -2.849   0.405  0.00  0.00    -0.250 OA
ATOM      5  C   UNL     1       1.127  -2.680  -0.611  0.00  0.00    +0.197 C 
ATOM      6  C   UNL     1       2.698  -1.772   0.952  0.00  0.00    +0.138 C 
ATOM      7  C   UNL     1       2.232  -2.839  -1.673  0.00  0.00    +0.086 C 
ATOM      8  C   UNL     1       3.626  -2.951  -1.050  0.00  0.00    +0.118 C 
ATOM      9  C   UNL     1       3.855  -1.820  -0.049  0.00  0.00    +0.063 C 
ATOM     10  C   UNL     1       1.301   3.142  -0.319  0.00  0.00    +0.080 C 
ATOM     11  C   UNL     1       2.827  -0.738   2.054  0.00  0.00    -0.021 C 
ATOM     12  C   UNL     1      -0.198  -2.347  -1.309  0.00  0.00    +0.165 C 
ATOM     13  C   UNL     1       3.117   1.438   0.680  0.00  0.00    +0.079 C 
ATOM     14  C   UNL     1       0.347   1.981  -0.777  0.00  0.00    +0.135 C 
ATOM     15  C   UNL     1       2.196   2.657   0.866  0.00  0.00    +0.156 C 
ATOM     16  C   UNL     1       3.026   0.589   1.925  0.00  0.00    -0.025 C 
ATOM     17  C   UNL     1      -2.647  -0.159   0.431  0.00  0.00    +0.173 C 
ATOM     18  C   UNL     1       0.485   4.346   0.218  0.00  0.00    +0.010 C 
ATOM     19  C   UNL     1       2.227   3.661  -1.431  0.00  0.00    +0.010 C 
ATOM     20  C   UNL     1      -1.031   2.365  -1.317  0.00  0.00    -0.021 C 
ATOM     21  C   UNL     1      -1.305  -2.027  -0.324  0.00  0.00    +0.322 C 
ATOM     22  C   UNL     1       2.721  -1.322   3.446  0.00  0.00    +0.028 C 
ATOM     23  C   UNL     1      -2.366   1.342   0.622  0.00  0.00    +0.069 C 
ATOM     24  C   UNL     1       4.556   1.912   0.487  0.00  0.00    +0.012 C 
ATOM     25  C   UNL     1      -2.189   2.077  -0.683  0.00  0.00    -0.029 C 
ATOM     26  C   UNL     1      -1.092   3.051  -2.660  0.00  0.00    +0.028 C 
ENDROOT
BRANCH   5  27
ATOM     27  O   UNL     1       0.916  -3.913   0.086  0.00  0.00    -0.363 OA
ATOM     28  H   UNL     1       1.731  -4.167   0.546  0.00  0.00    +0.213 HD
ENDBRANCH   5  27
BRANCH   8  29
ATOM     29  O   UNL     1       4.618  -2.875  -2.067  0.00  0.00    -0.384 OA
ATOM     30  H   UNL     1       4.480  -3.591  -2.708  0.00  0.00    +0.210 HD
ENDBRANCH   8  29
BRANCH  14  31
ATOM     31  O   UNL     1       0.979   1.129  -1.741  0.00  0.00    -0.380 OA
ATOM     32  H   UNL     1       1.857   0.873  -1.419  0.00  0.00    +0.211 HD
ENDBRANCH  14  31
BRANCH  17  33
ATOM     33  C   UNL     1      -3.990  -0.425  -0.243  0.00  0.00    +0.044 C 
BRANCH  33  34
ATOM     34  C   UNL     1      -5.144  -0.284   0.746  0.00  0.00    +0.004 C 
BRANCH  34  35
ATOM     35  C   UNL     1      -6.485  -0.583   0.075  0.00  0.00    +0.000 C 
BRANCH  35  36
ATOM     36  C   UNL     1      -7.647  -0.411   1.053  0.00  0.00    +0.000 C 
ATOM     37  C   UNL     1      -8.985  -0.675   0.380  0.00  0.00    +0.000 C 
ENDBRANCH  35  36
ENDBRANCH  34  35
ENDBRANCH  33  34
ENDBRANCH  17  33
TORSDOF 7
