REMARK  Name = 101995873
REMARK  14 active torsions:
REMARK  status: ('A' for Active; 'I' for Inactive)
REMARK    1  A    between atoms: O_1  and  C_7
REMARK    2  A    between atoms: O_1  and  C_17
REMARK    3  A    between atoms: C_3  and  O_8
REMARK    4  A    between atoms: C_4  and  O_10
REMARK    5  A    between atoms: C_5  and  O_12
REMARK    6  A    between atoms: C_6  and  C_14
REMARK    7  A    between atoms: C_14  and  O_15
REMARK    8  A    between atoms: C_17  and  C_18
REMARK    9  A    between atoms: C_18  and  C_20
REMARK   10  A    between atoms: C_19  and  C_21
REMARK   11  A    between atoms: C_21  and  C_24
REMARK   12  A    between atoms: C_23  and  C_28
REMARK   13  A    between atoms: C_28  and  C_30
REMARK   14  A    between atoms: C_30  and  O_31
REMARK                            x       y       z     vdW  Elec       q    Type
REMARK                         _______ _______ _______ _____ _____    ______ ____
ROOT
ATOM      1  O   UNL     1       1.480   2.043  -0.170  0.00  0.00    -0.328 OA
ENDROOT
BRANCH   1   7
ATOM      2  O   UNL     1       2.132  -0.159  -0.577  0.00  0.00    -0.326 OA
ATOM      3  C   UNL     1       4.628   0.237   0.789  0.00  0.00    +0.172 C 
ATOM      4  C   UNL     1       4.109  -1.152   0.414  0.00  0.00    +0.169 C 
ATOM      5  C   UNL     1       3.487   1.252   0.862  0.00  0.00    +0.196 C 
ATOM      6  C   UNL     1       3.200  -1.078  -0.815  0.00  0.00    +0.176 C 
ATOM      7  C   UNL     1       2.594   1.175  -0.376  0.00  0.00    +0.266 C 
BRANCH   3   8
ATOM      8  O   UNL     1       5.262   0.141   2.065  0.00  0.00    -0.379 OA
ATOM      9  H   UNL     1       5.986  -0.503   2.019  0.00  0.00    +0.211 HD
ENDBRANCH   3   8
BRANCH   4  10
ATOM     10  O   UNL     1       5.214  -2.007   0.132  0.00  0.00    -0.379 OA
ATOM     11  H   UNL     1       5.792  -2.055   0.909  0.00  0.00    +0.211 HD
ENDBRANCH   4  10
BRANCH   5  12
ATOM     12  O   UNL     1       4.030   2.570   0.940  0.00  0.00    -0.378 OA
ATOM     13  H   UNL     1       4.600   2.638   1.722  0.00  0.00    +0.211 HD
ENDBRANCH   5  12
BRANCH   6  14
ATOM     14  C   UNL     1       2.578  -2.433  -1.139  0.00  0.00    +0.169 C 
BRANCH  14  15
ATOM     15  O   UNL     1       1.745  -2.286  -2.275  0.00  0.00    -0.379 OA
ATOM     16  H   UNL     1       1.342  -3.141  -2.493  0.00  0.00    +0.211 HD
ENDBRANCH  14  15
ENDBRANCH   6  14
ENDBRANCH   1   7
BRANCH   1  17
ATOM     17  C   UNL     1       0.860   2.387  -1.399  0.00  0.00    +0.150 C 
BRANCH  17  18
ATOM     18  C   UNL     1      -0.327   3.306  -1.133  0.00  0.00    +0.058 C 
BRANCH  18  20
ATOM     19  C   UNL     1      -2.610   2.427  -0.573  0.00  0.00    -0.030 C 
ATOM     20  C   UNL     1      -1.337   2.662  -0.225  0.00  0.00    -0.028 C 
BRANCH  19  21
ATOM     21  C   UNL     1      -3.620   1.792   0.338  0.00  0.00    +0.033 C 
BRANCH  21  24
ATOM     22  O   UNL     1      -6.128   0.526   1.203  0.00  0.00    -0.296 OA
ATOM     23  C   UNL     1      -3.217  -0.646  -0.461  0.00  0.00    +0.019 C 
ATOM     24  C   UNL     1      -4.197   0.529  -0.273  0.00  0.00    +0.062 C 
ATOM     25  C   UNL     1      -4.143  -1.868  -0.489  0.00  0.00    +0.009 C 
ATOM     26  C   UNL     1      -5.188  -1.607   0.591  0.00  0.00    +0.065 C 
ATOM     27  C   UNL     1      -5.276  -0.102   0.586  0.00  0.00    +0.151 C 
BRANCH  23  28
ATOM     28  C   UNL     1      -2.152  -0.778   0.630  0.00  0.00    +0.110 C 
BRANCH  28  30
ATOM     29  O   UNL     1      -0.992  -2.488  -0.664  0.00  0.00    -0.250 OA
ATOM     30  C   UNL     1      -1.283  -1.985   0.411  0.00  0.00    +0.314 C 
BRANCH  30  31
ATOM     31  O   UNL     1      -0.849  -2.458   1.608  0.00  0.00    -0.480 OA
ATOM     32  H   UNL     1      -1.105  -2.031   2.401  0.00  0.00    +0.295 HD
ENDBRANCH  30  31
ENDBRANCH  28  30
ENDBRANCH  23  28
ENDBRANCH  21  24
ENDBRANCH  19  21
ENDBRANCH  18  20
ENDBRANCH  17  18
ENDBRANCH   1  17
TORSDOF 14
