REMARK  Name = 101996836
REMARK  5 active torsions:
REMARK  status: ('A' for Active; 'I' for Inactive)
REMARK    1  A    between atoms: C_6  and  O_17
REMARK    2  A    between atoms: C_8  and  O_19
REMARK    3  A    between atoms: C_8  and  C_21
REMARK    4  A    between atoms: C_21  and  C_24
REMARK    5  A    between atoms: C_24  and  O_25
REMARK                            x       y       z     vdW  Elec       q    Type
REMARK                         _______ _______ _______ _____ _____    ______ ____
ROOT
ATOM      1  O   UNL     1      -1.185   0.661   1.529  0.00  0.00    -0.348 OA
ATOM      2  O   UNL     1      -0.543  -0.997  -1.101  0.00  0.00    -0.445 OA
ATOM      3  O   UNL     1      -2.601  -1.258  -2.071  0.00  0.00    -0.247 OA
ATOM      4  O   UNL     1       1.780   1.805   1.342  0.00  0.00    -0.289 OA
ATOM      5  C   UNL     1      -1.173  -0.715   1.149  0.00  0.00    +0.193 C 
ATOM      6  C   UNL     1      -2.393  -1.149   0.357  0.00  0.00    +0.206 C 
ATOM      7  C   UNL     1      -0.023  -1.116   0.230  0.00  0.00    +0.230 C 
ATOM      8  C   UNL     1       1.317  -0.390   0.417  0.00  0.00    +0.192 C 
ATOM      9  C   UNL     1      -3.571  -0.228   0.592  0.00  0.00    +0.043 C 
ATOM     10  C   UNL     1      -1.777   1.616   0.643  0.00  0.00    +0.134 C 
ATOM     11  C   UNL     1      -3.218   1.214   0.257  0.00  0.00    +0.037 C 
ATOM     12  C   UNL     1      -1.903  -1.146  -1.075  0.00  0.00    +0.344 C 
ATOM     13  C   UNL     1       1.218   1.134   0.476  0.00  0.00    +0.201 C 
ATOM     14  C   UNL     1      -0.858   2.067  -0.496  0.00  0.00    -0.014 C 
ATOM     15  C   UNL     1       0.464   1.832  -0.587  0.00  0.00    +0.034 C 
ATOM     16  C   UNL     1      -1.487   2.931  -1.564  0.00  0.00    +0.029 C 
ENDROOT
BRANCH   6  17
ATOM     17  O   UNL     1      -2.726  -2.493   0.659  0.00  0.00    -0.375 OA
ATOM     18  H   UNL     1      -3.048  -2.549   1.572  0.00  0.00    +0.211 HD
ENDBRANCH   6  17
BRANCH   8  19
ATOM     19  O   UNL     1       1.833  -0.800   1.686  0.00  0.00    -0.376 OA
ATOM     20  H   UNL     1       1.916  -1.766   1.704  0.00  0.00    +0.211 HD
ENDBRANCH   8  19
BRANCH   8  21
ATOM     21  C   UNL     1       2.330  -0.785  -0.661  0.00  0.00    +0.134 C 
ATOM     22  C   UNL     1       2.435  -2.301  -0.768  0.00  0.00    +0.015 C 
BRANCH  21  24
ATOM     23  O   UNL     1       4.336  -0.379   0.666  0.00  0.00    -0.250 OA
ATOM     24  C   UNL     1       3.675  -0.169  -0.341  0.00  0.00    +0.316 C 
BRANCH  24  25
ATOM     25  O   UNL     1       4.068   0.666  -1.337  0.00  0.00    -0.480 OA
ATOM     26  H   UNL     1       3.521   0.789  -2.088  0.00  0.00    +0.295 HD
ENDBRANCH  24  25
ENDBRANCH  21  24
ENDBRANCH   8  21
TORSDOF 5
