REMARK  Name = 101932819
REMARK  10 active torsions:
REMARK  status: ('A' for Active; 'I' for Inactive)
REMARK    1  A    between atoms: C_6  and  O_19
REMARK    2  A    between atoms: C_7  and  O_21
REMARK    3  A    between atoms: C_9  and  C_25
REMARK    4  A    between atoms: C_16  and  O_23
REMARK    5  A    between atoms: C_25  and  C_26
REMARK    6  A    between atoms: C_27  and  N_29
REMARK    7  A    between atoms: C_30  and  C_32
REMARK    8  A    between atoms: C_32  and  C_33
REMARK    9  A    between atoms: N_34  and  C_35
REMARK   10  A    between atoms: N_34  and  O_36
REMARK                            x       y       z     vdW  Elec       q    Type
REMARK                         _______ _______ _______ _____ _____    ______ ____
ROOT
ATOM      1  O   UNL     1       5.407  -0.765  -1.561  0.00  0.00    -0.348 OA
ATOM      2  O   UNL     1       1.700  -0.549  -0.270  0.00  0.00    -0.449 OA
ATOM      3  O   UNL     1       0.236  -0.227   1.498  0.00  0.00    -0.245 OA
ATOM      4  C   UNL     1       5.505  -1.745  -0.516  0.00  0.00    +0.172 C 
ATOM      5  C   UNL     1       6.290  -0.438  -0.483  0.00  0.00    +0.175 C 
ATOM      6  C   UNL     1       4.245  -1.976   0.259  0.00  0.00    +0.144 C 
ATOM      7  C   UNL     1       5.916   0.789   0.309  0.00  0.00    +0.162 C 
ATOM      8  C   UNL     1       3.093  -2.474  -0.630  0.00  0.00    +0.076 C 
ATOM      9  C   UNL     1       1.731  -1.986  -0.106  0.00  0.00    +0.176 C 
ATOM     10  C   UNL     1       4.630   1.490  -0.075  0.00  0.00    +0.005 C 
ATOM     11  C   UNL     1       3.545   1.632   0.703  0.00  0.00    -0.002 C 
ATOM     12  C   UNL     1       2.308   2.275   0.236  0.00  0.00    +0.009 C 
ATOM     13  C   UNL     1       0.949   0.174   0.595  0.00  0.00    +0.344 C 
ATOM     14  C   UNL     1       1.075   1.595   0.222  0.00  0.00    +0.109 C 
ATOM     15  C   UNL     1       2.332   3.622  -0.153  0.00  0.00    +0.000 C 
ATOM     16  C   UNL     1      -0.102   2.251  -0.155  0.00  0.00    +0.140 C 
ATOM     17  C   UNL     1       1.159   4.272  -0.543  0.00  0.00    +0.003 C 
ATOM     18  C   UNL     1      -0.056   3.589  -0.540  0.00  0.00    +0.037 C 
ENDROOT
BRANCH   6  19
ATOM     19  O   UNL     1       4.515  -2.953   1.267  0.00  0.00    -0.382 OA
ATOM     20  H   UNL     1       5.241  -2.644   1.831  0.00  0.00    +0.210 HD
ENDBRANCH   6  19
BRANCH   7  21
ATOM     21  O   UNL     1       5.935   0.464   1.699  0.00  0.00    -0.377 OA
ATOM     22  H   UNL     1       6.768   0.018   1.915  0.00  0.00    +0.211 HD
ENDBRANCH   7  21
BRANCH  16  23
ATOM     23  O   UNL     1      -1.305   1.609  -0.182  0.00  0.00    -0.505 OA
ATOM     24  H   UNL     1      -1.361   0.710   0.072  0.00  0.00    +0.292 HD
ENDBRANCH  16  23
BRANCH   9  25
ATOM     25  C   UNL     1       0.587  -2.589  -0.912  0.00  0.00    +0.071 C 
BRANCH  25  26
ATOM     26  C   UNL     1      -0.710  -2.478  -0.172  0.00  0.00    -0.006 C 
ATOM     27  C   UNL     1      -1.772  -1.814  -0.644  0.00  0.00    +0.059 C 
BRANCH  27  29
ATOM     28  O   UNL     1      -4.134  -0.442  -1.503  0.00  0.00    -0.274 OA
ATOM     29  N   UNL     1      -2.949  -1.732   0.034  0.00  0.00    -0.283 N 
ATOM     30  C   UNL     1      -4.062  -1.048  -0.439  0.00  0.00    +0.231 C 
ATOM     31  H   UNL     1      -3.016  -2.181   0.907  0.00  0.00    +0.155 HD
BRANCH  30  32
ATOM     32  C   UNL     1      -5.206  -1.128   0.513  0.00  0.00    +0.113 C 
BRANCH  32  33
ATOM     33  C   UNL     1      -6.360  -0.522   0.214  0.00  0.00    +0.006 C 
ATOM     34  C   UNL     1      -7.476  -0.621   1.175  0.00  0.00    +0.123 C 
BRANCH  34  35
ATOM     35  N   UNL     1      -8.621  -0.064   0.956  0.00  0.00    -0.130 NA
BRANCH  35  36
ATOM     36  O   UNL     1      -8.570   0.591  -0.283  0.00  0.00    -0.234 OA
ATOM     37  C   UNL     1      -9.832   1.198  -0.514  0.00  0.00    +0.211 C 
ENDBRANCH  35  36
ENDBRANCH  34  35
ENDBRANCH  32  33
ENDBRANCH  30  32
ENDBRANCH  27  29
ENDBRANCH  25  26
ENDBRANCH   9  25
TORSDOF 10
