101921797
  -OEChem-03292013293D

 63 64  0     1  0  0  0  0  0999 V2000
    2.7657   -0.0413    1.2141 O   0  0  0  0  0  0  0  0  0  0  0  0
    2.5149    2.0714   -1.8126 O   0  0  0  0  0  0  0  0  0  0  0  0
    1.3939    3.2104    0.2993 O   0  0  0  0  0  0  0  0  0  0  0  0
    5.9809    0.5888    1.6942 O   0  0  0  0  0  0  0  0  0  0  0  0
    7.0448   -1.1498   -0.3555 O   0  0  0  0  0  0  0  0  0  0  0  0
    9.0796   -1.0855   -1.4477 O   0  0  0  0  0  0  0  0  0  0  0  0
   -9.6969    2.2745   -0.0247 O   0  0  0  0  0  0  0  0  0  0  0  0
    2.5469    1.1206    0.3932 C   0  0  1  0  0  0  0  0  0  0  0  0
    3.7070    1.0349    1.3495 C   0  0  2  0  0  0  0  0  0  0  0  0
    2.8158    0.8885   -1.0680 C   0  0  2  0  0  0  0  0  0  0  0  0
    1.3054    1.8677    0.7873 C   0  0  2  0  0  0  0  0  0  0  0  0
    5.0624    0.6745    0.8881 C   0  0  0  0  0  0  0  0  0  0  0  0
    4.2279    0.5169   -1.4216 C   0  0  0  0  0  0  0  0  0  0  0  0
    5.2588    0.4159   -0.5675 C   0  0  0  0  0  0  0  0  0  0  0  0
    0.0351    1.2743    0.2360 C   0  0  0  0  0  0  0  0  0  0  0  0
    6.6409    0.0407   -1.0071 C   0  0  0  0  0  0  0  0  0  0  0  0
   -0.7931    0.3897    0.8312 C   0  0  0  0  0  0  0  0  0  0  0  0
   -0.5370   -0.2107    2.1891 C   0  0  0  0  0  0  0  0  0  0  0  0
   -2.0016   -0.0307    0.1170 C   0  0  0  0  0  0  0  0  0  0  0  0
    8.2970   -1.6101   -0.6669 C   0  0  0  0  0  0  0  0  0  0  0  0
   -2.9319   -0.8970    0.5540 C   0  0  0  0  0  0  0  0  0  0  0  0
    8.5867   -2.8693    0.0924 C   0  0  0  0  0  0  0  0  0  0  0  0
   -4.0962   -1.2535   -0.2324 C   0  0  0  0  0  0  0  0  0  0  0  0
   -5.0840   -2.1059    0.1080 C   0  0  0  0  0  0  0  0  0  0  0  0
   -6.2463   -2.3272   -0.8463 C   0  0  0  0  0  0  0  0  0  0  0  0
   -7.6239   -1.9970   -0.2572 C   0  0  0  0  0  0  0  0  0  0  0  0
   -5.1701   -2.8706    1.4026 C   0  0  0  0  0  0  0  0  0  0  0  0
   -7.7604   -0.5553    0.1496 C   0  0  0  0  0  0  0  0  0  0  0  0
   -8.2405    0.4622   -0.5911 C   0  0  0  0  0  0  0  0  0  0  0  0
   -8.3412    1.8471   -0.0039 C   0  0  0  0  0  0  0  0  0  0  0  0
   -8.7405    0.3258   -2.0030 C   0  0  0  0  0  0  0  0  0  0  0  0
    3.6579    1.6299    2.2546 H   0  0  0  0  0  0  0  0  0  0  0  0
    2.1478    0.0964   -1.4271 H   0  0  0  0  0  0  0  0  0  0  0  0
    1.2451    1.9567    1.8774 H   0  0  0  0  0  0  0  0  0  0  0  0
    4.4066    0.3122   -2.4760 H   0  0  0  0  0  0  0  0  0  0  0  0
   -0.2270    1.6308   -0.7613 H   0  0  0  0  0  0  0  0  0  0  0  0
    2.5363    1.8419   -2.7577 H   0  0  0  0  0  0  0  0  0  0  0  0
    0.6163    3.6960    0.6247 H   0  0  0  0  0  0  0  0  0  0  0  0
    7.3336    0.8535   -0.7556 H   0  0  0  0  0  0  0  0  0  0  0  0
    6.6782   -0.1124   -2.0928 H   0  0  0  0  0  0  0  0  0  0  0  0
   -0.4709   -1.3023    2.1215 H   0  0  0  0  0  0  0  0  0  0  0  0
    0.3961    0.1293    2.6441 H   0  0  0  0  0  0  0  0  0  0  0  0
   -1.3425    0.0519    2.8838 H   0  0  0  0  0  0  0  0  0  0  0  0
   -2.1399    0.4137   -0.8689 H   0  0  0  0  0  0  0  0  0  0  0  0
   -2.8310   -1.3539    1.5315 H   0  0  0  0  0  0  0  0  0  0  0  0
    8.5486   -2.6706    1.1664 H   0  0  0  0  0  0  0  0  0  0  0  0
    9.5898   -3.2237   -0.1613 H   0  0  0  0  0  0  0  0  0  0  0  0
    7.8639   -3.6415   -0.1824 H   0  0  0  0  0  0  0  0  0  0  0  0
   -4.1627   -0.7584   -1.2008 H   0  0  0  0  0  0  0  0  0  0  0  0
   -6.1073   -1.7525   -1.7714 H   0  0  0  0  0  0  0  0  0  0  0  0
   -6.2407   -3.3826   -1.1484 H   0  0  0  0  0  0  0  0  0  0  0  0
   -8.3964   -2.2659   -0.9867 H   0  0  0  0  0  0  0  0  0  0  0  0
   -7.8322   -2.6264    0.6166 H   0  0  0  0  0  0  0  0  0  0  0  0
   -5.9059   -2.4151    2.0723 H   0  0  0  0  0  0  0  0  0  0  0  0
   -5.4713   -3.9061    1.2094 H   0  0  0  0  0  0  0  0  0  0  0  0
   -4.2184   -2.9227    1.9366 H   0  0  0  0  0  0  0  0  0  0  0  0
   -7.4286   -0.3401    1.1644 H   0  0  0  0  0  0  0  0  0  0  0  0
   -7.7426    2.5483   -0.5950 H   0  0  0  0  0  0  0  0  0  0  0  0
   -7.9875    1.8855    1.0318 H   0  0  0  0  0  0  0  0  0  0  0  0
   -8.2796    1.0892   -2.6392 H   0  0  0  0  0  0  0  0  0  0  0  0
   -8.5029   -0.6420   -2.4516 H   0  0  0  0  0  0  0  0  0  0  0  0
   -9.8267    0.4558   -2.0392 H   0  0  0  0  0  0  0  0  0  0  0  0
   -9.7175    3.1761    0.3388 H   0  0  0  0  0  0  0  0  0  0  0  0
  1  8  1  0  0  0  0
  1  9  1  0  0  0  0
  2 10  1  0  0  0  0
  2 37  1  0  0  0  0
  3 11  1  0  0  0  0
  3 38  1  0  0  0  0
  4 12  2  0  0  0  0
  5 16  1  0  0  0  0
  5 20  1  0  0  0  0
  6 20  2  0  0  0  0
  7 30  1  0  0  0  0
  7 63  1  0  0  0  0
  8  9  1  0  0  0  0
  8 10  1  0  0  0  0
  8 11  1  0  0  0  0
  9 12  1  0  0  0  0
  9 32  1  0  0  0  0
 10 13  1  0  0  0  0
 10 33  1  0  0  0  0
 11 15  1  0  0  0  0
 11 34  1  0  0  0  0
 12 14  1  0  0  0  0
 13 14  2  0  0  0  0
 13 35  1  0  0  0  0
 14 16  1  0  0  0  0
 15 17  2  0  0  0  0
 15 36  1  0  0  0  0
 16 39  1  0  0  0  0
 16 40  1  0  0  0  0
 17 18  1  0  0  0  0
 17 19  1  0  0  0  0
 18 41  1  0  0  0  0
 18 42  1  0  0  0  0
 18 43  1  0  0  0  0
 19 21  2  0  0  0  0
 19 44  1  0  0  0  0
 20 22  1  0  0  0  0
 21 23  1  0  0  0  0
 21 45  1  0  0  0  0
 22 46  1  0  0  0  0
 22 47  1  0  0  0  0
 22 48  1  0  0  0  0
 23 24  2  0  0  0  0
 23 49  1  0  0  0  0
 24 25  1  0  0  0  0
 24 27  1  0  0  0  0
 25 26  1  0  0  0  0
 25 50  1  0  0  0  0
 25 51  1  0  0  0  0
 26 28  1  0  0  0  0
 26 52  1  0  0  0  0
 26 53  1  0  0  0  0
 27 54  1  0  0  0  0
 27 55  1  0  0  0  0
 27 56  1  0  0  0  0
 28 29  2  0  0  0  0
 28 57  1  0  0  0  0
 29 30  1  0  0  0  0
 29 31  1  0  0  0  0
 30 58  1  0  0  0  0
 30 59  1  0  0  0  0
 31 60  1  0  0  0  0
 31 61  1  0  0  0  0
 31 62  1  0  0  0  0
M  END
> <PUBCHEM_COMPOUND_CID>
101921797

> <PUBCHEM_CONFORMER_RMSD>
1.2

> <PUBCHEM_CONFORMER_DIVERSEORDER>
1
227
127
86
114
112
180
51
209
198
83
70
220
192
215
34
72
110
107
163
96
39
35
148
219
63
75
178
177
217
161
137
236
134
71
212
102
79
18
182
153
43
151
185
58
117
66
108
85
61
164
104
172
105
211
30
47
131
226
232
183
44
27
81
136
41
206
125
191
143
155
162
224
42
21
53
100
142
76
54
157
189
121
170
203
221
31
32
128
36
159
190
144
77
160
165
101
120
135
146
216
3
169
173
154
166
171
201
80
65
230
67
228
139
229
118
124
176
126
64
88
28
91
38
45
132
89
195
103
193
234
145
90
40
55
186
109
12
199
141
69
210
49
113
29
129
214
194
78
133
9
179
140
207
188
150
14
5
26
204
208
196
184
138
231
2
57
25
68
59
147
74
158
167
16
235
174
156
23
11
181
20
175
116
46
130
223
187
168
15
106
98
92
19
22
60
82
37
218
222
56
213
62
202
99
17
123
87
48
95
4
6
200
93
24
111
97
52
115
50
33
94
73
84
205
13
233
149
237
119
8
225
122
7
197
10
152

> <PUBCHEM_MMFF94_PARTIAL_CHARGES>
41
1 -0.3
10 0.51
11 0.51
12 0.56
13 -0.29
14 -0.12
15 -0.29
16 0.42
17 -0.14
18 0.14
19 -0.15
2 -0.68
20 0.66
21 -0.15
22 0.06
23 -0.15
24 -0.28
25 0.14
26 0.14
27 0.14
28 -0.29
29 -0.28
3 -0.68
30 0.42
31 0.14
32 0.1
35 0.15
36 0.15
37 0.4
38 0.4
4 -0.57
44 0.15
45 0.15
49 0.15
5 -0.43
57 0.15
6 -0.57
63 0.4
7 -0.68
8 -0.04
9 0.05

> <PUBCHEM_EFFECTIVE_ROTOR_COUNT>
11.4

> <PUBCHEM_PHARMACOPHORE_FEATURES>
14
1 1 acceptor
1 18 hydrophobe
1 2 acceptor
1 2 donor
1 27 hydrophobe
1 3 acceptor
1 3 donor
1 31 hydrophobe
1 4 acceptor
1 6 acceptor
1 7 acceptor
1 7 donor
4 24 25 26 28 hydrophobe
7 1 8 9 10 12 13 14 rings

> <PUBCHEM_HEAVY_ATOM_COUNT>
31

> <PUBCHEM_ATOM_DEF_STEREO_COUNT>
3

> <PUBCHEM_ATOM_UDEF_STEREO_COUNT>
1

> <PUBCHEM_BOND_DEF_STEREO_COUNT>
4

> <PUBCHEM_BOND_UDEF_STEREO_COUNT>
0

> <PUBCHEM_ISOTOPIC_ATOM_COUNT>
0

> <PUBCHEM_COMPONENT_COUNT>
1

> <PUBCHEM_CACTVS_TAUTO_COUNT>
14

> <PUBCHEM_CONFORMER_ID>
0613340500000001

> <PUBCHEM_MMFF94_ENERGY>
44.8696

> <PUBCHEM_FEATURE_SELFOVERLAP>
71.089

> <PUBCHEM_SHAPE_FINGERPRINT>
10 15 9151175341843024783
10055352 69 11386661727387969343
10162869 55 13973958813964176129
106641 1 10807931561409070999
10666366 153 18272652346090714439
10674148 151 18187361051649674809
10864689 126 18411699915345553331
10917259 69 18270401565176717977
11115154 58 17385727997912554268
11146346 171 11458421311263115976
11408170 132 18335426806880633612
11724838 91 11455893568026060801
11828042 206 18335139804523710108
12730499 353 12901531451730927945
13008946 282 15625930002319005418
14168556 18 9151168758301653587
14251764 18 12751241423960040529
14279260 333 17917994928884157417
14294032 229 18114460038485599877
14400156 413 17702936071370328576
14461889 52 9439411241850648141
14856354 85 17386004031777623251
15183329 4 17894903075618568783
15188451 53 17703796924923782682
15419008 91 17916850435658027753
15510794 2 18273491286996397488
15706992 2 10231749008278189442
1768 4 11746937590117471127
2026 5 18271807977555573967
21585481 104 17312827065634159958
21792965 169 17822302326967892087
21792965 78 18199459983228687775
22224240 67 11312062049433716172
2835820 33 9871455531476175013
3418910 222 11314307218288278919
439807 62 18410013213559293550
474113 269 18060139787285012814
5381727 24 9439407913472507444
5470011 282 17967822686741213334
5718773 13 18342742914707967146
59682541 35 10592042470818157031
6081469 158 18413671297081228758
6126387 218 16559033779636820875
9953998 17 10809332319125056583

> <PUBCHEM_SHAPE_MULTIPOLES>
596.88
32.98
2.82
1.58
19.53
0.62
0.04
11.33
-11.61
1.61
0.15
-0.64
-0.12
1.37

> <PUBCHEM_SHAPE_SELFOVERLAP>
1213.563

> <PUBCHEM_SHAPE_VOLUME>
344.6

> <PUBCHEM_COORDINATE_TYPE>
2
5
10

$$$$
