101997521
  -OEChem-03292013293D

 68 68  0     1  0  0  0  0  0999 V2000
   -0.7935   -0.4187   -1.8007 O   0  0  0  0  0  0  0  0  0  0  0  0
    1.4339    0.9145    1.4025 O   0  0  0  0  0  0  0  0  0  0  0  0
    5.2763    2.0610   -0.7272 O   0  0  0  0  0  0  0  0  0  0  0  0
   -5.8949   -0.0054   -0.4430 O   0  0  0  0  0  0  0  0  0  0  0  0
   -6.1553    2.1029    1.2295 O   0  0  0  0  0  0  0  0  0  0  0  0
   -0.6470    1.3091   -0.2650 N   0  0  0  0  0  0  0  0  0  0  0  0
   -1.1605    1.9278    0.8942 N   0  0  0  0  0  0  0  0  0  0  0  0
    2.8753    0.8370   -0.4240 N   0  0  0  0  0  0  0  0  0  0  0  0
   -4.9889    1.9116    0.4768 N   0  0  0  0  0  0  0  0  0  0  0  0
    0.6795    1.7554   -0.7025 C   0  0  1  0  0  0  0  0  0  0  0  0
    0.8078    3.2779   -0.7426 C   0  0  0  0  0  0  0  0  0  0  0  0
   -2.6537   -0.1551   -0.3569 C   0  0  2  0  0  0  0  0  0  0  0  0
    0.1738    3.9427    0.4774 C   0  0  0  0  0  0  0  0  0  0  0  0
   -1.2220    3.3804    0.7261 C   0  0  0  0  0  0  0  0  0  0  0  0
   -1.2861    0.2282   -0.8714 C   0  0  0  0  0  0  0  0  0  0  0  0
   -2.8845   -1.6652   -0.5208 C   0  0  0  0  0  0  0  0  0  0  0  0
    1.6817    1.1210    0.2174 C   0  0  0  0  0  0  0  0  0  0  0  0
   -3.6935    0.6674   -1.1273 C   0  0  0  0  0  0  0  0  0  0  0  0
    4.0107    0.2440    0.2450 C   0  0  1  0  0  0  0  0  0  0  0  0
   -1.8809   -2.4983    0.2867 C   0  0  0  0  0  0  0  0  0  0  0  0
    4.4707   -1.0547   -0.4214 C   0  0  0  0  0  0  0  0  0  0  0  0
    3.3999   -2.1622   -0.4898 C   0  0  0  0  0  0  0  0  0  0  0  0
   -2.1252   -4.0075    0.1882 C   0  0  0  0  0  0  0  0  0  0  0  0
    5.1312    1.2744    0.2088 C   0  0  0  0  0  0  0  0  0  0  0  0
   -1.0855   -4.8432    0.9361 C   0  0  0  0  0  0  0  0  0  0  0  0
   -4.9778    0.8062   -0.3342 C   0  0  0  0  0  0  0  0  0  0  0  0
    2.9495   -2.5329    0.9260 C   0  0  0  0  0  0  0  0  0  0  0  0
    3.8992   -3.4126   -1.2148 C   0  0  0  0  0  0  0  0  0  0  0  0
    6.0396    1.3248    1.4106 C   0  0  0  0  0  0  0  0  0  0  0  0
   -1.3799   -6.3307    0.8163 C   0  0  0  0  0  0  0  0  0  0  0  0
    0.8509    1.3729   -1.7165 H   0  0  0  0  0  0  0  0  0  0  0  0
    0.2887    3.6464   -1.6372 H   0  0  0  0  0  0  0  0  0  0  0  0
    1.8556    3.5865   -0.8332 H   0  0  0  0  0  0  0  0  0  0  0  0
   -2.7246    0.0622    0.7149 H   0  0  0  0  0  0  0  0  0  0  0  0
    0.8060    3.7796    1.3591 H   0  0  0  0  0  0  0  0  0  0  0  0
    0.1179    5.0259    0.3218 H   0  0  0  0  0  0  0  0  0  0  0  0
   -1.6424    3.8265    1.6337 H   0  0  0  0  0  0  0  0  0  0  0  0
   -1.8970    3.6378   -0.0989 H   0  0  0  0  0  0  0  0  0  0  0  0
   -2.8271   -1.9544   -1.5779 H   0  0  0  0  0  0  0  0  0  0  0  0
   -3.8975   -1.9167   -0.1840 H   0  0  0  0  0  0  0  0  0  0  0  0
   -0.5351    1.6922    1.6640 H   0  0  0  0  0  0  0  0  0  0  0  0
   -3.9316    0.2050   -2.0930 H   0  0  0  0  0  0  0  0  0  0  0  0
   -3.3177    1.6724   -1.3583 H   0  0  0  0  0  0  0  0  0  0  0  0
    3.7590    0.0755    1.2970 H   0  0  0  0  0  0  0  0  0  0  0  0
   -1.9307   -2.2002    1.3415 H   0  0  0  0  0  0  0  0  0  0  0  0
   -0.8578   -2.2937   -0.0480 H   0  0  0  0  0  0  0  0  0  0  0  0
    2.9876    1.0939   -1.4007 H   0  0  0  0  0  0  0  0  0  0  0  0
    5.3579   -1.4363    0.1013 H   0  0  0  0  0  0  0  0  0  0  0  0
    4.8020   -0.8338   -1.4457 H   0  0  0  0  0  0  0  0  0  0  0  0
    2.5288   -1.7888   -1.0423 H   0  0  0  0  0  0  0  0  0  0  0  0
   -2.1268   -4.3002   -0.8692 H   0  0  0  0  0  0  0  0  0  0  0  0
   -3.1246   -4.2334    0.5803 H   0  0  0  0  0  0  0  0  0  0  0  0
   -0.0867   -4.6389    0.5340 H   0  0  0  0  0  0  0  0  0  0  0  0
   -1.0742   -4.5603    1.9949 H   0  0  0  0  0  0  0  0  0  0  0  0
    3.1120   -4.1715   -1.2735 H   0  0  0  0  0  0  0  0  0  0  0  0
    2.2573   -3.3819    0.8994 H   0  0  0  0  0  0  0  0  0  0  0  0
    4.2063   -3.1683   -2.2370 H   0  0  0  0  0  0  0  0  0  0  0  0
    2.4186   -1.7113    1.4139 H   0  0  0  0  0  0  0  0  0  0  0  0
    4.7593   -3.8529   -0.6990 H   0  0  0  0  0  0  0  0  0  0  0  0
    3.8004   -2.8157    1.5550 H   0  0  0  0  0  0  0  0  0  0  0  0
    6.4766    0.3386    1.5849 H   0  0  0  0  0  0  0  0  0  0  0  0
    5.4699    1.6454    2.2861 H   0  0  0  0  0  0  0  0  0  0  0  0
    6.8487    2.0380    1.2307 H   0  0  0  0  0  0  0  0  0  0  0  0
   -2.3606   -6.5719    1.2386 H   0  0  0  0  0  0  0  0  0  0  0  0
   -1.3681   -6.6499   -0.2307 H   0  0  0  0  0  0  0  0  0  0  0  0
   -0.6253   -6.9106    1.3568 H   0  0  0  0  0  0  0  0  0  0  0  0
   -4.2996    2.6541    0.4965 H   0  0  0  0  0  0  0  0  0  0  0  0
   -5.8871    1.6925    2.0692 H   0  0  0  0  0  0  0  0  0  0  0  0
  1 15  2  0  0  0  0
  2 17  2  0  0  0  0
  3 24  2  0  0  0  0
  4 26  2  0  0  0  0
  5  9  1  0  0  0  0
  5 68  1  0  0  0  0
  6  7  1  0  0  0  0
  6 10  1  0  0  0  0
  6 15  1  0  0  0  0
  7 14  1  0  0  0  0
  7 41  1  0  0  0  0
  8 17  1  0  0  0  0
  8 19  1  0  0  0  0
  8 47  1  0  0  0  0
  9 26  1  0  0  0  0
  9 67  1  0  0  0  0
 10 11  1  0  0  0  0
 10 17  1  0  0  0  0
 10 31  1  0  0  0  0
 11 13  1  0  0  0  0
 11 32  1  0  0  0  0
 11 33  1  0  0  0  0
 12 15  1  0  0  0  0
 12 16  1  0  0  0  0
 12 18  1  0  0  0  0
 12 34  1  0  0  0  0
 13 14  1  0  0  0  0
 13 35  1  0  0  0  0
 13 36  1  0  0  0  0
 14 37  1  0  0  0  0
 14 38  1  0  0  0  0
 16 20  1  0  0  0  0
 16 39  1  0  0  0  0
 16 40  1  0  0  0  0
 18 26  1  0  0  0  0
 18 42  1  0  0  0  0
 18 43  1  0  0  0  0
 19 21  1  0  0  0  0
 19 24  1  0  0  0  0
 19 44  1  0  0  0  0
 20 23  1  0  0  0  0
 20 45  1  0  0  0  0
 20 46  1  0  0  0  0
 21 22  1  0  0  0  0
 21 48  1  0  0  0  0
 21 49  1  0  0  0  0
 22 27  1  0  0  0  0
 22 28  1  0  0  0  0
 22 50  1  0  0  0  0
 23 25  1  0  0  0  0
 23 51  1  0  0  0  0
 23 52  1  0  0  0  0
 24 29  1  0  0  0  0
 25 30  1  0  0  0  0
 25 53  1  0  0  0  0
 25 54  1  0  0  0  0
 27 56  1  0  0  0  0
 27 58  1  0  0  0  0
 27 60  1  0  0  0  0
 28 55  1  0  0  0  0
 28 57  1  0  0  0  0
 28 59  1  0  0  0  0
 29 61  1  0  0  0  0
 29 62  1  0  0  0  0
 29 63  1  0  0  0  0
 30 64  1  0  0  0  0
 30 65  1  0  0  0  0
 30 66  1  0  0  0  0
M  END
> <PUBCHEM_COMPOUND_CID>
101997521

> <PUBCHEM_CONFORMER_RMSD>
1.2

> <PUBCHEM_CONFORMER_DIVERSEORDER>
1
23
85
143
57
49
120
43
146
134
53
115
75
103
101
147
133
123
71
100
106
40
64
7
25
140
83
54
125
68
112
114
89
110
61
132
4
136
99
126
113
35
86
104
33
122
142
67
91
74
2
47
121
119
50
52
31
137
135
148
19
98
138
145
17
139
65
90
108
116
6
82
39
128
129
62
111
105
88
44
42
92
24
109
66
18
77
27
48
10
118
149
51
78
5
84
60
15
141
127
79
12
95
41
20
56
73
11
117
80
13
58
34
28
72
144
59
130
124
131
69
81
87
22
96
55
36
38
102
63
93
29
94
9
26
16
30
70
32
8
107
45
76
3
97
37
46
14
21

> <PUBCHEM_MMFF94_PARTIAL_CHARGES>
23
1 -0.57
10 0.36
12 0.06
14 0.27
15 0.57
17 0.57
18 0.06
19 0.36
2 -0.57
24 0.45
26 0.57
29 0.06
3 -0.57
4 -0.57
41 0.36
47 0.37
5 -0.44
6 -0.35
67 0.37
68 0.4
7 -0.64
8 -0.73
9 -0.39

> <PUBCHEM_EFFECTIVE_ROTOR_COUNT>
16.2

> <PUBCHEM_PHARMACOPHORE_FEATURES>
12
1 1 acceptor
1 2 acceptor
1 3 acceptor
1 30 hydrophobe
1 4 acceptor
1 7 donor
1 8 donor
1 9 donor
3 12 16 18 hydrophobe
3 20 23 25 hydrophobe
3 22 27 28 hydrophobe
6 6 7 10 11 13 14 rings

> <PUBCHEM_HEAVY_ATOM_COUNT>
30

> <PUBCHEM_ATOM_DEF_STEREO_COUNT>
2

> <PUBCHEM_ATOM_UDEF_STEREO_COUNT>
1

> <PUBCHEM_BOND_DEF_STEREO_COUNT>
0

> <PUBCHEM_BOND_UDEF_STEREO_COUNT>
0

> <PUBCHEM_ISOTOPIC_ATOM_COUNT>
0

> <PUBCHEM_COMPONENT_COUNT>
1

> <PUBCHEM_CACTVS_TAUTO_COUNT>
32

> <PUBCHEM_CONFORMER_ID>
06145BD100000001

> <PUBCHEM_MMFF94_ENERGY>
45.7978

> <PUBCHEM_FEATURE_SELFOVERLAP>
60.91

> <PUBCHEM_SHAPE_FINGERPRINT>
10190108 129 17833576517198643377
10675989 125 18120639241559934973
10906281 52 18129678464186371469
10940486 97 18042968868343301157
12422481 6 17629769963742535245
12788726 201 17845939532682900273
13140716 1 18196084680116052708
13533116 47 18200875072036878292
140371 6 18412548738406306276
14725015 67 18123184598415834686
14790565 3 18266743472183184897
14866123 147 18264203798192633763
1813 80 17749112145158200652
19319366 153 17531235145669738346
19930381 70 18047748196471329363
23559900 14 17759226780613580821
3383291 50 18337952402511863443
463206 1 18336824294685498454
5309563 4 17472137752850182214

> <PUBCHEM_SHAPE_MULTIPOLES>
568.12
11.69
6.86
1.21
1.3
10.62
0.01
-4.17
-1.01
-2.87
-2.1
0.21
0.06
0.61

> <PUBCHEM_SHAPE_SELFOVERLAP>
1115.369

> <PUBCHEM_SHAPE_VOLUME>
337.8

> <PUBCHEM_COORDINATE_TYPE>
2
5
10

$$$$
