REMARK  Name = 101985997
REMARK  7 active torsions:
REMARK  status: ('A' for Active; 'I' for Inactive)
REMARK    1  A    between atoms: C_2  and  C_29
REMARK    2  A    between atoms: C_5  and  C_17
REMARK    3  A    between atoms: C_6  and  O_25
REMARK    4  A    between atoms: C_22  and  O_23
REMARK    5  A    between atoms: O_25  and  C_27
REMARK    6  A    between atoms: C_29  and  O_30
REMARK    7  A    between atoms: O_30  and  C_32
REMARK                            x       y       z     vdW  Elec       q    Type
REMARK                         _______ _______ _______ _____ _____    ______ ____
ROOT
ATOM      1  O   UNL     1       3.106   0.765  -1.868  0.00  0.00    -0.353 OA
ATOM      2  C   UNL     1       1.253   0.303  -0.218  0.00  0.00    +0.102 C 
ATOM      3  C   UNL     1      -0.316   0.515  -0.189  0.00  0.00    +0.011 C 
ATOM      4  C   UNL     1       1.754   1.059  -1.483  0.00  0.00    +0.127 C 
ATOM      5  C   UNL     1      -1.122  -0.319   0.888  0.00  0.00    +0.026 C 
ATOM      6  C   UNL     1       1.539  -1.226  -0.269  0.00  0.00    +0.174 C 
ATOM      7  C   UNL     1      -0.694  -1.826   0.795  0.00  0.00    +0.006 C 
ATOM      8  C   UNL     1      -0.682   2.024  -0.232  0.00  0.00    +0.000 C 
ATOM      9  C   UNL     1       1.425   2.529  -1.539  0.00  0.00    +0.030 C 
ATOM     10  C   UNL     1       2.088   0.374  -2.798  0.00  0.00    +0.169 C 
ATOM     11  C   UNL     1       0.826  -2.011   0.831  0.00  0.00    +0.044 C 
ATOM     12  C   UNL     1      -0.080   2.728  -1.450  0.00  0.00    +0.003 C 
ATOM     13  C   UNL     1      -0.967   0.232   2.321  0.00  0.00    +0.002 C 
ATOM     14  C   UNL     1      -1.318  -2.744   1.859  0.00  0.00    +0.000 C 
ENDROOT
BRANCH   5  17
ATOM     15  O   UNL     1      -3.034   1.131   0.638  0.00  0.00    -0.333 OA
ATOM     16  O   UNL     1      -5.405   1.005   0.545  0.00  0.00    -0.306 OA
ATOM     17  C   UNL     1      -2.600  -0.231   0.559  0.00  0.00    +0.118 C 
ATOM     18  C   UNL     1      -2.937  -0.684  -0.852  0.00  0.00    +0.035 C 
ATOM     19  C   UNL     1      -4.083   0.217  -1.287  0.00  0.00    +0.064 C 
ATOM     20  C   UNL     1      -4.197   1.257  -0.186  0.00  0.00    +0.237 C 
ATOM     21  C   UNL     1      -5.454  -0.422  -1.340  0.00  0.00    +0.066 C 
ATOM     22  C   UNL     1      -6.027  -0.182   0.044  0.00  0.00    +0.234 C 
BRANCH  22  23
ATOM     23  O   UNL     1      -5.820  -1.293   0.907  0.00  0.00    -0.360 OA
ATOM     24  H   UNL     1      -6.200  -1.100   1.779  0.00  0.00    +0.213 HD
ENDBRANCH  22  23
ENDBRANCH   5  17
BRANCH   6  25
ATOM     25  O   UNL     1       2.933  -1.508  -0.130  0.00  0.00    -0.452 OA
BRANCH  25  27
ATOM     26  O   UNL     1       2.678  -3.441  -1.368  0.00  0.00    -0.250 OA
ATOM     27  C   UNL     1       3.365  -2.653  -0.733  0.00  0.00    +0.317 C 
ATOM     28  C   UNL     1       4.837  -2.817  -0.504  0.00  0.00    +0.121 C 
ENDBRANCH  25  27
ENDBRANCH   6  25
BRANCH   2  29
ATOM     29  C   UNL     1       1.994   0.917   1.002  0.00  0.00    +0.214 C 
BRANCH  29  30
ATOM     30  O   UNL     1       3.347   1.064   0.645  0.00  0.00    -0.448 OA
BRANCH  30  32
ATOM     31  O   UNL     1       3.834   1.948   2.723  0.00  0.00    -0.250 OA
ATOM     32  C   UNL     1       4.176   1.597   1.602  0.00  0.00    +0.318 C 
ATOM     33  C   UNL     1       5.579   1.693   1.084  0.00  0.00    +0.121 C 
ENDBRANCH  30  32
ENDBRANCH  29  30
ENDBRANCH   2  29
TORSDOF 7
