101916176
  -OEChem-03292013293D

 33 33  0     1  0  0  0  0  0999 V2000
   -1.4996   -0.0569    0.4373 O   0  0  0  0  0  0  0  0  0  0  0  0
   -4.4303    1.6500   -0.7035 O   0  0  0  0  0  0  0  0  0  0  0  0
   -4.8902   -0.2845    1.6019 O   0  0  0  0  0  0  0  0  0  0  0  0
   -2.9521   -1.5354   -1.6488 O   0  0  0  0  0  0  0  0  0  0  0  0
   -3.1478   -1.7339    1.7150 O   0  0  0  0  0  0  0  0  0  0  0  0
   -5.0729   -0.7528   -1.8342 O   0  0  0  0  0  0  0  0  0  0  0  0
   -0.7172    2.1136    0.5583 O   0  0  0  0  0  0  0  0  0  0  0  0
    7.0895   -1.0611   -0.3671 O   0  0  0  0  0  0  0  0  0  0  0  0
   -2.8388    0.3997    0.5834 C   0  0  1  0  0  0  0  0  0  0  0  0
   -3.4067    0.6757   -0.8097 C   0  0  1  0  0  0  0  0  0  0  0  0
   -3.6069   -0.6560    1.3602 C   0  0  0  0  0  0  0  0  0  0  0  0
   -3.9090   -0.5891   -1.4885 C   0  0  0  0  0  0  0  0  0  0  0  0
    3.2530    0.4555    0.0904 C   0  0  0  0  0  0  0  0  0  0  0  0
   -0.5385    0.9115    0.4422 C   0  0  0  0  0  0  0  0  0  0  0  0
    1.8912    0.9941    0.2547 C   0  0  0  0  0  0  0  0  0  0  0  0
    0.7762    0.2503    0.2809 C   0  0  0  0  0  0  0  0  0  0  0  0
    3.5088   -0.8887    0.3621 C   0  0  0  0  0  0  0  0  0  0  0  0
    4.2864    1.2898   -0.3356 C   0  0  0  0  0  0  0  0  0  0  0  0
    4.7979   -1.3983    0.2081 C   0  0  0  0  0  0  0  0  0  0  0  0
    5.5757    0.7803   -0.4895 C   0  0  0  0  0  0  0  0  0  0  0  0
    5.8314   -0.5637   -0.2177 C   0  0  0  0  0  0  0  0  0  0  0  0
   -2.8668    1.3010    1.2106 H   0  0  0  0  0  0  0  0  0  0  0  0
   -2.6443    1.1027   -1.4710 H   0  0  0  0  0  0  0  0  0  0  0  0
   -5.1082    1.3079   -0.0959 H   0  0  0  0  0  0  0  0  0  0  0  0
    1.8292    2.0762    0.3458 H   0  0  0  0  0  0  0  0  0  0  0  0
    0.7749   -0.8277    0.1691 H   0  0  0  0  0  0  0  0  0  0  0  0
    2.7405   -1.5702    0.7151 H   0  0  0  0  0  0  0  0  0  0  0  0
    4.1052    2.3396   -0.5529 H   0  0  0  0  0  0  0  0  0  0  0  0
    4.9926   -2.4450    0.4256 H   0  0  0  0  0  0  0  0  0  0  0  0
    6.3722    1.4405   -0.8220 H   0  0  0  0  0  0  0  0  0  0  0  0
   -5.3850   -0.9755    2.0918 H   0  0  0  0  0  0  0  0  0  0  0  0
   -3.3053   -2.3454   -2.0746 H   0  0  0  0  0  0  0  0  0  0  0  0
    7.6771   -0.3465   -0.6675 H   0  0  0  0  0  0  0  0  0  0  0  0
  1  9  1  0  0  0  0
  1 14  1  0  0  0  0
  2 10  1  0  0  0  0
  2 24  1  0  0  0  0
  3 11  1  0  0  0  0
  3 31  1  0  0  0  0
  4 12  1  0  0  0  0
  4 32  1  0  0  0  0
  5 11  2  0  0  0  0
  6 12  2  0  0  0  0
  7 14  2  0  0  0  0
  8 21  1  0  0  0  0
  8 33  1  0  0  0  0
  9 10  1  0  0  0  0
  9 11  1  0  0  0  0
  9 22  1  0  0  0  0
 10 12  1  0  0  0  0
 10 23  1  0  0  0  0
 13 15  1  0  0  0  0
 13 17  2  0  0  0  0
 13 18  1  0  0  0  0
 14 16  1  0  0  0  0
 15 16  2  0  0  0  0
 15 25  1  0  0  0  0
 16 26  1  0  0  0  0
 17 19  1  0  0  0  0
 17 27  1  0  0  0  0
 18 20  2  0  0  0  0
 18 28  1  0  0  0  0
 19 21  2  0  0  0  0
 19 29  1  0  0  0  0
 20 21  1  0  0  0  0
 20 30  1  0  0  0  0
M  END
> <PUBCHEM_COMPOUND_CID>
101916176

> <PUBCHEM_CONFORMER_RMSD>
0.8

> <PUBCHEM_CONFORMER_DIVERSEORDER>
1
4
38
34
15
29
16
28
14
18
7
25
6
23
26
35
33
27
40
42
32
30
13
17
12
21
22
31
20
36
5
19
10
39
2
43
44
9
11
24
8
37
3
41

> <PUBCHEM_MMFF94_PARTIAL_CHARGES>
31
1 -0.43
10 0.34
11 0.66
12 0.66
13 0.03
14 0.71
15 -0.18
16 -0.14
17 -0.15
18 -0.15
19 -0.15
2 -0.68
20 -0.15
21 0.08
24 0.4
25 0.15
26 0.15
27 0.15
28 0.15
29 0.15
3 -0.65
30 0.15
31 0.5
32 0.5
33 0.45
4 -0.65
5 -0.57
6 -0.57
7 -0.57
8 -0.53
9 0.34

> <PUBCHEM_EFFECTIVE_ROTOR_COUNT>
7

> <PUBCHEM_PHARMACOPHORE_FEATURES>
11
1 2 acceptor
1 2 donor
1 3 acceptor
1 4 acceptor
1 5 acceptor
1 6 acceptor
1 7 acceptor
1 8 donor
3 3 5 11 anion
3 4 6 12 anion
6 13 17 18 19 20 21 rings

> <PUBCHEM_HEAVY_ATOM_COUNT>
21

> <PUBCHEM_ATOM_DEF_STEREO_COUNT>
2

> <PUBCHEM_ATOM_UDEF_STEREO_COUNT>
0

> <PUBCHEM_BOND_DEF_STEREO_COUNT>
1

> <PUBCHEM_BOND_UDEF_STEREO_COUNT>
0

> <PUBCHEM_ISOTOPIC_ATOM_COUNT>
0

> <PUBCHEM_COMPONENT_COUNT>
1

> <PUBCHEM_CACTVS_TAUTO_COUNT>
4

> <PUBCHEM_CONFORMER_ID>
06131E1000000001

> <PUBCHEM_MMFF94_ENERGY>
39.6722

> <PUBCHEM_FEATURE_SELFOVERLAP>
55.948

> <PUBCHEM_SHAPE_FINGERPRINT>
10 15 12463280389908954262
10680689 15 18272370879920527937
10912923 1 17346603010393050592
11046707 91 17632573868168300745
11315181 36 16343697746576334785
12091667 2 18413108347080392808
12236239 1 18060699494585214796
12596602 18 15985099722049604474
12616971 3 18201446903951123024
12633257 1 17132121246781413152
12788726 201 18196646294245046385
13668630 136 18131912659118540582
13760787 5 18341334474055053704
14251764 75 13193109729573989839
15183329 4 17095517362616460680
15188451 53 15913034443887428989
15537594 2 18273501152199185674
15788980 27 18413387631365313212
15880784 105 17275099561514733066
17780758 139 16559032692424584467
17844677 252 17968107425349931532
17857418 61 18130782344227871302
18186145 218 17022899068676635288
18222031 100 18201712956064335704
18927931 339 18201447956033403452
19784866 240 17917142918603671461
200 152 18410575076495442984
20281475 54 17847061090609531560
20645477 56 15357691977143382317
20645477 70 18113905931805770962
21709351 56 16877948260822797454
220451 1 17918000481733298980
22061861 79 17822291263021587926
22646028 1 17989205949722166048
23198884 109 17530956965444178381
23402539 116 18409450271747199416
23466295 7 18124030397888631687
23522609 53 17701286778422363984
23557571 272 16515687757755588591
23559900 14 18186519930087814192
29717793 49 18341898451217724684
3004659 81 18412255126241712220
312425 54 16056891186960300942
314194 84 18272373070828394762
351380 3 18272090500307988866
4214541 1 18040439884219770152
5104073 3 16486972955076780514
5283173 99 17676765388294500588
531348 171 18341326678631214157
542803 24 13118002202054546416
559249 180 17775564230654001879
59755656 520 17894629215650574497
602551 16 16343699967633615902
7495541 125 16773790420912556048

> <PUBCHEM_SHAPE_MULTIPOLES>
385.22
15.62
1.6
1.38
13.47
0.11
-0.23
-3.77
-3.15
-0.02
0.1
-2.8
-0.5
0.11

> <PUBCHEM_SHAPE_SELFOVERLAP>
804.262

> <PUBCHEM_SHAPE_VOLUME>
215.1

> <PUBCHEM_COORDINATE_TYPE>
2
5
10

$$$$
