REMARK  Name = 101942830
REMARK  9 active torsions:
REMARK  status: ('A' for Active; 'I' for Inactive)
REMARK    1  A    between atoms: C_3  and  C_28
REMARK    2  A    between atoms: C_4  and  O_19
REMARK    3  A    between atoms: C_6  and  O_15
REMARK    4  A    between atoms: C_13  and  O_17
REMARK    5  A    between atoms: O_19  and  C_21
REMARK    6  A    between atoms: C_21  and  C_22
REMARK    7  A    between atoms: C_28  and  O_29
REMARK    8  A    between atoms: O_29  and  C_31
REMARK    9  A    between atoms: C_31  and  C_32
REMARK                            x       y       z     vdW  Elec       q    Type
REMARK                         _______ _______ _______ _____ _____    ______ ____
ROOT
ATOM      1  O   UNL     1       1.712   1.569  -1.163  0.00  0.00    -0.475 OA
ATOM      2  C   UNL     1      -0.684   1.996  -1.068  0.00  0.00    +0.092 C 
ATOM      3  C   UNL     1       0.424   0.911  -1.167  0.00  0.00    +0.195 C 
ATOM      4  C   UNL     1      -2.082   1.462  -1.411  0.00  0.00    +0.204 C 
ATOM      5  C   UNL     1      -0.598   2.699   0.286  0.00  0.00    +0.037 C 
ATOM      6  C   UNL     1      -2.079   0.909  -2.849  0.00  0.00    +0.172 C 
ATOM      7  C   UNL     1       0.291   0.167  -2.481  0.00  0.00    +0.015 C 
ATOM      8  C   UNL     1       0.832   3.098   0.540  0.00  0.00    +0.015 C 
ATOM      9  C   UNL     1      -0.831   0.157  -3.218  0.00  0.00    +0.005 C 
ATOM     10  C   UNL     1       1.887   2.522  -0.187  0.00  0.00    +0.135 C 
ATOM     11  C   UNL     1       1.124   4.048   1.527  0.00  0.00    +0.035 C 
ATOM     12  C   UNL     1       3.205   2.925   0.045  0.00  0.00    +0.040 C 
ATOM     13  C   UNL     1       2.443   4.438   1.765  0.00  0.00    +0.134 C 
ATOM     14  C   UNL     1       3.481   3.880   1.022  0.00  0.00    +0.040 C 
ENDROOT
BRANCH   6  15
ATOM     15  O   UNL     1      -3.213   0.078  -3.068  0.00  0.00    -0.377 OA
ATOM     16  H   UNL     1      -4.019   0.562  -2.831  0.00  0.00    +0.211 HD
ENDBRANCH   6  15
BRANCH  13  17
ATOM     17  O   UNL     1       2.714   5.368   2.722  0.00  0.00    -0.506 OA
ATOM     18  H   UNL     1       2.016   5.743   3.222  0.00  0.00    +0.292 HD
ENDBRANCH  13  17
BRANCH   4  19
ATOM     19  O   UNL     1      -2.493   0.443  -0.507  0.00  0.00    -0.446 OA
BRANCH  19  21
ATOM     20  O   UNL     1      -4.699   1.016  -0.828  0.00  0.00    -0.245 OA
ATOM     21  C   UNL     1      -3.834   0.329  -0.307  0.00  0.00    +0.341 C 
BRANCH  21  22
ATOM     22  C   UNL     1      -4.131  -0.765   0.652  0.00  0.00    +0.076 C 
ATOM     23  C   UNL     1      -5.329  -1.473   0.554  0.00  0.00    +0.006 C 
ATOM     24  C   UNL     1      -3.211  -1.085   1.650  0.00  0.00    +0.006 C 
ATOM     25  C   UNL     1      -5.606  -2.502   1.455  0.00  0.00    +0.000 C 
ATOM     26  C   UNL     1      -3.489  -2.114   2.551  0.00  0.00    +0.000 C 
ATOM     27  C   UNL     1      -4.686  -2.822   2.453  0.00  0.00    +0.000 C 
ENDBRANCH  21  22
ENDBRANCH  19  21
ENDBRANCH   4  19
BRANCH   3  28
ATOM     28  C   UNL     1       0.444  -0.163  -0.060  0.00  0.00    +0.253 C 
BRANCH  28  29
ATOM     29  O   UNL     1       1.542  -1.014  -0.302  0.00  0.00    -0.441 OA
BRANCH  29  31
ATOM     30  O   UNL     1       1.022  -2.273   1.555  0.00  0.00    -0.245 OA
ATOM     31  C   UNL     1       1.725  -2.039   0.584  0.00  0.00    +0.341 C 
BRANCH  31  32
ATOM     32  C   UNL     1       2.909  -2.858   0.219  0.00  0.00    +0.076 C 
ATOM     33  C   UNL     1       3.266  -3.956   1.003  0.00  0.00    +0.006 C 
ATOM     34  C   UNL     1       3.663  -2.530  -0.907  0.00  0.00    +0.006 C 
ATOM     35  C   UNL     1       4.377  -4.726   0.659  0.00  0.00    +0.000 C 
ATOM     36  C   UNL     1       4.774  -3.300  -1.251  0.00  0.00    +0.000 C 
ATOM     37  C   UNL     1       5.131  -4.398  -0.468  0.00  0.00    +0.000 C 
ENDBRANCH  31  32
ENDBRANCH  29  31
ENDBRANCH  28  29
ENDBRANCH   3  28
TORSDOF 9
