REMARK  Name = 101934919
REMARK  3 active torsions:
REMARK  status: ('A' for Active; 'I' for Inactive)
REMARK    1  A    between atoms: C_7  and  C_14
REMARK    2  A    between atoms: C_9  and  C_16
REMARK    3  A    between atoms: C_16  and  O_17
REMARK                            x       y       z     vdW  Elec       q    Type
REMARK                         _______ _______ _______ _____ _____    ______ ____
ROOT
ATOM      1 CL   UNL     1       3.862  -0.315   0.556  0.00  0.00    -0.101 Cl
ATOM      2  S   UNL     1       0.662  -1.637  -0.142  0.00  0.00    +0.008 S 
ATOM      3  O   UNL     1       1.190  -1.780   1.201  0.00  0.00    -0.171 OA
ATOM      4  O   UNL     1       0.617  -2.776  -1.038  0.00  0.00    -0.171 OA
ATOM      5  O   UNL     1       1.783   2.326   1.060  0.00  0.00    -0.273 OA
ATOM      6  N   UNL     1       0.625   0.825  -0.340  0.00  0.00    -0.250 N 
ATOM      7  C   UNL     1      -1.024  -0.883  -0.025  0.00  0.00    +0.154 C 
ATOM      8  C   UNL     1       1.410  -0.244  -0.979  0.00  0.00    +0.230 C 
ATOM      9  C   UNL     1      -0.676   0.591   0.260  0.00  0.00    +0.197 C 
ATOM     10  C   UNL     1       2.669   0.492  -0.483  0.00  0.00    +0.197 C 
ATOM     11  C   UNL     1       1.693   1.443   0.238  0.00  0.00    +0.246 C 
ATOM     12  C   UNL     1      -1.771  -1.105  -1.349  0.00  0.00    +0.027 C 
ENDROOT
BRANCH   7  14
ATOM     13 CL   UNL     1      -3.510  -1.048   1.037  0.00  0.00    -0.112 Cl
ATOM     14  C   UNL     1      -1.804  -1.520   1.126  0.00  0.00    +0.119 C 
ENDBRANCH   7  14
BRANCH   9  16
ATOM     15  O   UNL     1      -1.575   2.047  -1.442  0.00  0.00    -0.248 OA
ATOM     16  C   UNL     1      -1.617   1.606  -0.304  0.00  0.00    +0.334 C 
BRANCH  16  17
ATOM     17  O   UNL     1      -2.532   1.977   0.625  0.00  0.00    -0.479 OA
ATOM     18  H   UNL     1      -2.509   1.599   1.482  0.00  0.00    +0.295 HD
ENDBRANCH  16  17
ENDBRANCH   9  16
TORSDOF 3
