101998766
  -OEChem-03292013293D

 63 62  0     1  0  0  0  0  0999 V2000
    2.1565    1.4906   -1.3124 O   0  0  0  0  0  0  0  0  0  0  0  0
   -1.1734    1.0597    1.3326 O   0  0  0  0  0  0  0  0  0  0  0  0
   -5.4461    0.6001    0.6905 O   0  0  0  0  0  0  0  0  0  0  0  0
    5.1947   -0.9125    1.5745 O   0  0  0  0  0  0  0  0  0  0  0  0
    6.8935    0.4459    0.8355 O   0  0  0  0  0  0  0  0  0  0  0  0
   -4.1485   -0.6303   -0.7508 O   0  0  0  0  0  0  0  0  0  0  0  0
   -0.1784    0.3787   -0.6506 N   0  0  0  0  0  0  0  0  0  0  0  0
    3.3662    0.1652    0.1605 N   0  0  0  0  0  0  0  0  0  0  0  0
   -3.5141    1.4877   -0.0448 N   0  0  0  0  0  0  0  0  0  0  0  0
    1.1179   -1.7351   -0.3935 C   0  0  2  0  0  0  0  0  0  0  0  0
    0.9879   -0.2289   -0.0614 C   0  0  1  0  0  0  0  0  0  0  0  0
    1.3283   -1.9847   -1.9035 C   0  0  0  0  0  0  0  0  0  0  0  0
    2.2137    0.5734   -0.4959 C   0  0  0  0  0  0  0  0  0  0  0  0
   -0.0988   -2.5012    0.1427 C   0  0  0  0  0  0  0  0  0  0  0  0
    4.6565    0.7829   -0.0446 C   0  0  0  0  0  0  0  0  0  0  0  0
    1.4923   -3.4570   -2.2582 C   0  0  0  0  0  0  0  0  0  0  0  0
   -1.1763    0.9810    0.1059 C   0  0  0  0  0  0  0  0  0  0  0  0
   -2.2709    1.5864   -0.7631 C   0  0  2  0  0  0  0  0  0  0  0  0
    4.5781    2.2608    0.3456 C   0  0  0  0  0  0  0  0  0  0  0  0
    5.0603    0.6367   -1.5136 C   0  0  0  0  0  0  0  0  0  0  0  0
    5.7156    0.1013    0.8264 C   0  0  0  0  0  0  0  0  0  0  0  0
   -1.9488    3.0302   -1.1157 C   0  0  0  0  0  0  0  0  0  0  0  0
   -6.4020   -0.4655    0.7296 C   0  0  0  0  0  0  0  0  0  0  0  0
   -4.3501    0.3884   -0.0977 C   0  0  0  0  0  0  0  0  0  0  0  0
   -7.5322   -0.0357    1.6623 C   0  0  0  0  0  0  0  0  0  0  0  0
   -6.9312   -0.6965   -0.6851 C   0  0  0  0  0  0  0  0  0  0  0  0
   -5.7112   -1.7192    1.2642 C   0  0  0  0  0  0  0  0  0  0  0  0
    6.1207   -1.6023    2.4205 C   0  0  0  0  0  0  0  0  0  0  0  0
    1.9969   -2.1338    0.1292 H   0  0  0  0  0  0  0  0  0  0  0  0
    0.9242   -0.1235    1.0297 H   0  0  0  0  0  0  0  0  0  0  0  0
    0.4862   -1.5834   -2.4793 H   0  0  0  0  0  0  0  0  0  0  0  0
    2.2258   -1.4549   -2.2429 H   0  0  0  0  0  0  0  0  0  0  0  0
   -1.0023   -2.2802   -0.4354 H   0  0  0  0  0  0  0  0  0  0  0  0
    0.0679   -3.5824    0.1092 H   0  0  0  0  0  0  0  0  0  0  0  0
   -0.2919   -2.2410    1.1891 H   0  0  0  0  0  0  0  0  0  0  0  0
   -0.2353    0.4192   -1.6641 H   0  0  0  0  0  0  0  0  0  0  0  0
    3.2979   -0.5713    0.8563 H   0  0  0  0  0  0  0  0  0  0  0  0
    2.2856   -3.9195   -1.6626 H   0  0  0  0  0  0  0  0  0  0  0  0
    1.7602   -3.5587   -3.3150 H   0  0  0  0  0  0  0  0  0  0  0  0
    0.5651   -4.0158   -2.1013 H   0  0  0  0  0  0  0  0  0  0  0  0
   -2.3654    1.0002   -1.6851 H   0  0  0  0  0  0  0  0  0  0  0  0
    5.0463   -0.4162   -1.8206 H   0  0  0  0  0  0  0  0  0  0  0  0
    6.0789    1.0064   -1.6812 H   0  0  0  0  0  0  0  0  0  0  0  0
    4.4070    1.1881   -2.1961 H   0  0  0  0  0  0  0  0  0  0  0  0
    4.2196    2.3756    1.3758 H   0  0  0  0  0  0  0  0  0  0  0  0
    5.5656    2.7348    0.2948 H   0  0  0  0  0  0  0  0  0  0  0  0
    3.9146    2.8418   -0.3017 H   0  0  0  0  0  0  0  0  0  0  0  0
   -1.8412    3.6452   -0.2148 H   0  0  0  0  0  0  0  0  0  0  0  0
   -1.0094    3.0968   -1.6747 H   0  0  0  0  0  0  0  0  0  0  0  0
   -2.7444    3.4699   -1.7264 H   0  0  0  0  0  0  0  0  0  0  0  0
   -3.7753    2.2468    0.5778 H   0  0  0  0  0  0  0  0  0  0  0  0
   -7.8438   -1.3040   -0.6575 H   0  0  0  0  0  0  0  0  0  0  0  0
   -6.2435   -1.2281   -1.3474 H   0  0  0  0  0  0  0  0  0  0  0  0
   -7.1763    0.2548   -1.1717 H   0  0  0  0  0  0  0  0  0  0  0  0
   -8.3083   -0.8036    1.7441 H   0  0  0  0  0  0  0  0  0  0  0  0
   -5.0885   -1.4833    2.1351 H   0  0  0  0  0  0  0  0  0  0  0  0
   -5.0724   -2.2311    0.5401 H   0  0  0  0  0  0  0  0  0  0  0  0
   -7.1474    0.1765    2.6664 H   0  0  0  0  0  0  0  0  0  0  0  0
   -7.9976    0.8909    1.3070 H   0  0  0  0  0  0  0  0  0  0  0  0
   -6.4554   -2.4620    1.5758 H   0  0  0  0  0  0  0  0  0  0  0  0
    5.5741   -2.3822    2.9573 H   0  0  0  0  0  0  0  0  0  0  0  0
    6.5539   -0.9115    3.1500 H   0  0  0  0  0  0  0  0  0  0  0  0
    6.9045   -2.0730    1.8194 H   0  0  0  0  0  0  0  0  0  0  0  0
  1 13  2  0  0  0  0
  2 17  2  0  0  0  0
  3 23  1  0  0  0  0
  3 24  1  0  0  0  0
  4 21  1  0  0  0  0
  4 28  1  0  0  0  0
  5 21  2  0  0  0  0
  6 24  2  0  0  0  0
  7 11  1  0  0  0  0
  7 17  1  0  0  0  0
  7 36  1  0  0  0  0
  8 13  1  0  0  0  0
  8 15  1  0  0  0  0
  8 37  1  0  0  0  0
  9 18  1  0  0  0  0
  9 24  1  0  0  0  0
  9 51  1  0  0  0  0
 10 11  1  0  0  0  0
 10 12  1  0  0  0  0
 10 14  1  0  0  0  0
 10 29  1  0  0  0  0
 11 13  1  0  0  0  0
 11 30  1  0  0  0  0
 12 16  1  0  0  0  0
 12 31  1  0  0  0  0
 12 32  1  0  0  0  0
 14 33  1  0  0  0  0
 14 34  1  0  0  0  0
 14 35  1  0  0  0  0
 15 19  1  0  0  0  0
 15 20  1  0  0  0  0
 15 21  1  0  0  0  0
 16 38  1  0  0  0  0
 16 39  1  0  0  0  0
 16 40  1  0  0  0  0
 17 18  1  0  0  0  0
 18 22  1  0  0  0  0
 18 41  1  0  0  0  0
 19 45  1  0  0  0  0
 19 46  1  0  0  0  0
 19 47  1  0  0  0  0
 20 42  1  0  0  0  0
 20 43  1  0  0  0  0
 20 44  1  0  0  0  0
 22 48  1  0  0  0  0
 22 49  1  0  0  0  0
 22 50  1  0  0  0  0
 23 25  1  0  0  0  0
 23 26  1  0  0  0  0
 23 27  1  0  0  0  0
 25 55  1  0  0  0  0
 25 58  1  0  0  0  0
 25 59  1  0  0  0  0
 26 52  1  0  0  0  0
 26 53  1  0  0  0  0
 26 54  1  0  0  0  0
 27 56  1  0  0  0  0
 27 57  1  0  0  0  0
 27 60  1  0  0  0  0
 28 61  1  0  0  0  0
 28 62  1  0  0  0  0
 28 63  1  0  0  0  0
M  END
> <PUBCHEM_COMPOUND_CID>
101998766

> <PUBCHEM_CONFORMER_RMSD>
1.2

> <PUBCHEM_CONFORMER_DIVERSEORDER>
1
104
12
27
49
167
158
102
77
168
113
193
30
195
111
96
91
90
39
16
46
95
187
125
139
116
69
36
55
28
175
163
85
129
120
200
196
174
110
34
15
156
172
191
131
185
128
53
180
38
101
14
75
204
8
142
127
118
79
35
83
201
51
88
146
64
154
164
121
124
62
54
143
47
199
122
74
11
165
152
100
141
145
84
73
86
99
192
105
119
134
188
173
98
93
114
179
61
144
109
147
117
171
202
33
26
177
13
136
157
126
71
135
48
70
66
80
151
60
130
150
198
57
58
52
140
148
87
63
161
176
20
50
18
7
184
160
159
186
115
190
32
162
103
24
137
94
178
194
40
92
155
97
132
166
138
25
29
133
56
169
31
19
6
112
107
72
67
78
181
23
41
81
82
21
203
17
9
44
108
68
183
45
89
106
182
3
43
59
42
2
170
189
4
123
76
5
22
149
153
65
10
37
197

> <PUBCHEM_MMFF94_PARTIAL_CHARGES>
21
1 -0.57
11 0.36
13 0.57
15 0.36
17 0.57
18 0.36
2 -0.57
21 0.66
23 0.28
24 0.78
28 0.28
3 -0.43
36 0.37
37 0.37
4 -0.43
5 -0.57
51 0.37
6 -0.57
7 -0.73
8 -0.73
9 -0.73

> <PUBCHEM_EFFECTIVE_ROTOR_COUNT>
14

> <PUBCHEM_PHARMACOPHORE_FEATURES>
11
1 1 acceptor
1 14 hydrophobe
1 16 hydrophobe
1 2 acceptor
1 5 acceptor
1 6 acceptor
1 7 donor
1 8 donor
1 9 donor
3 15 19 20 hydrophobe
4 23 25 26 27 hydrophobe

> <PUBCHEM_HEAVY_ATOM_COUNT>
28

> <PUBCHEM_ATOM_DEF_STEREO_COUNT>
3

> <PUBCHEM_ATOM_UDEF_STEREO_COUNT>
0

> <PUBCHEM_BOND_DEF_STEREO_COUNT>
0

> <PUBCHEM_BOND_UDEF_STEREO_COUNT>
0

> <PUBCHEM_ISOTOPIC_ATOM_COUNT>
0

> <PUBCHEM_COMPONENT_COUNT>
1

> <PUBCHEM_CACTVS_TAUTO_COUNT>
8

> <PUBCHEM_CONFORMER_ID>
061460AE00000001

> <PUBCHEM_MMFF94_ENERGY>
66.8619

> <PUBCHEM_FEATURE_SELFOVERLAP>
55.824

> <PUBCHEM_SHAPE_FINGERPRINT>
10066227 112 12031784773195468411
11135609 99 17022908977451024594
11646440 116 17561360682524539416
11719270 70 18342175553110970135
11963148 33 18335420201031294067
12166972 35 14345798270811422925
13533116 47 17603866711053421256
13540713 4 18124881149072709477
13668630 136 16153425043355450169
13911882 115 18342189851431573431
14068700 675 13479126904439713255
14251757 52 14189574122160589475
15048467 5 13183021825819906617
15849732 13 14056721274621618827
16728300 4 17898269646804688978
16994733 274 14189276184991198626
17349148 13 16443357441984656061
173720 79 18260547835803423806
17913733 40 17703785894852109166
18222031 100 13262399938769653334
19377110 9 18202568345787193617
20567600 75 16081359722834958086
21150785 3 12901549052480026120
21304304 249 17967532346382505690
21424621 283 15339117952879846442
21521721 280 17988364878824155344
22149856 69 18058752238165293563
22224240 67 18060698416152706615
22956985 138 17974569088015540382
23402539 116 17821444651795022421
4093350 32 16056888987725984430
4325135 7 18408041814653024997
4340502 62 18131074826562131710
465052 167 18040998440679915468
469060 322 18058746722689450825
474229 33 18411135852905080335
5104073 3 18197222451623121169
5385378 56 17989211408610353430
5758199 1 17704355484914276995
59755656 215 18200607933513484486
6328613 192 11239995672372388475

> <PUBCHEM_SHAPE_MULTIPOLES>
526.07
18.82
2.78
1.8
13.19
0.96
0.14
0.86
10.4
-0.94
-1.39
-1.52
1.09
0.08

> <PUBCHEM_SHAPE_SELFOVERLAP>
1034.002

> <PUBCHEM_SHAPE_VOLUME>
314.4

> <PUBCHEM_COORDINATE_TYPE>
2
5
10

$$$$
