101992
  -OEChem-03292013323D

 36 37  0     1  0  0  0  0  0999 V2000
    0.4011   -1.7635   -0.0042 S   0  0  0  0  0  0  0  0  0  0  0  0
   -0.9006    0.5695    0.0915 O   0  0  0  0  0  0  0  0  0  0  0  0
   -4.7098   -1.0488    0.0199 O   0  0  0  0  0  0  0  0  0  0  0  0
   -3.3392    0.8281    1.5495 O   0  0  0  0  0  0  0  0  0  0  0  0
   -2.4761   -2.5920   -0.9333 O   0  0  0  0  0  0  0  0  0  0  0  0
   -0.3608    3.2545   -0.1101 O   0  0  0  0  0  0  0  0  0  0  0  0
    3.5831   -0.1142    2.4979 O   0  5  0  0  0  0  0  0  0  0  0  0
    1.7404   -1.2652    2.1839 O   0  0  0  0  0  0  0  0  0  0  0  0
    2.6880   -0.5704    1.7495 N   0  3  0  0  0  0  0  0  0  0  0  0
   -3.5083   -0.4697   -0.4833 C   0  0  1  0  0  0  0  0  0  0  0  0
   -3.3013    0.9178    0.1239 C   0  0  2  0  0  0  0  0  0  0  0  0
   -2.3315   -1.3978   -0.1650 C   0  0  2  0  0  0  0  0  0  0  0  0
   -1.9396    1.4724   -0.3056 C   0  0  1  0  0  0  0  0  0  0  0  0
   -1.0048   -0.7150   -0.5249 C   0  0  2  0  0  0  0  0  0  0  0  0
   -1.6360    2.8237    0.3305 C   0  0  0  0  0  0  0  0  0  0  0  0
    1.7846   -0.7659   -0.5360 C   0  0  0  0  0  0  0  0  0  0  0  0
    2.7497   -0.2885    0.3548 C   0  0  0  0  0  0  0  0  0  0  0  0
    1.8884   -0.4624   -1.8957 C   0  0  0  0  0  0  0  0  0  0  0  0
    3.8112    0.4869   -0.1114 C   0  0  0  0  0  0  0  0  0  0  0  0
    2.9501    0.3130   -2.3620 C   0  0  0  0  0  0  0  0  0  0  0  0
    3.9114    0.7876   -1.4699 C   0  0  0  0  0  0  0  0  0  0  0  0
   -3.6285   -0.3811   -1.5703 H   0  0  0  0  0  0  0  0  0  0  0  0
   -4.1111    1.5915   -0.1778 H   0  0  0  0  0  0  0  0  0  0  0  0
   -2.3697   -1.6736    0.8967 H   0  0  0  0  0  0  0  0  0  0  0  0
   -1.8930    1.5786   -1.3974 H   0  0  0  0  0  0  0  0  0  0  0  0
   -0.9416   -0.5984   -1.6132 H   0  0  0  0  0  0  0  0  0  0  0  0
   -1.6002    2.7639    1.4230 H   0  0  0  0  0  0  0  0  0  0  0  0
   -2.3779    3.5741    0.0422 H   0  0  0  0  0  0  0  0  0  0  0  0
   -4.7947   -1.9334   -0.3754 H   0  0  0  0  0  0  0  0  0  0  0  0
   -4.1948    0.4345    1.7921 H   0  0  0  0  0  0  0  0  0  0  0  0
   -1.7098   -3.1573   -0.7362 H   0  0  0  0  0  0  0  0  0  0  0  0
    0.2842    2.5716    0.1418 H   0  0  0  0  0  0  0  0  0  0  0  0
    1.1627   -0.8292   -2.6174 H   0  0  0  0  0  0  0  0  0  0  0  0
    4.5825    0.8774    0.5476 H   0  0  0  0  0  0  0  0  0  0  0  0
    3.0301    0.5448   -3.4200 H   0  0  0  0  0  0  0  0  0  0  0  0
    4.7382    1.3907   -1.8337 H   0  0  0  0  0  0  0  0  0  0  0  0
  1 14  1  0  0  0  0
  1 16  1  0  0  0  0
  2 13  1  0  0  0  0
  2 14  1  0  0  0  0
  3 10  1  0  0  0  0
  3 29  1  0  0  0  0
  4 11  1  0  0  0  0
  4 30  1  0  0  0  0
  5 12  1  0  0  0  0
  5 31  1  0  0  0  0
  6 15  1  0  0  0  0
  6 32  1  0  0  0  0
  7  9  1  0  0  0  0
  8  9  2  0  0  0  0
  9 17  1  0  0  0  0
 10 11  1  0  0  0  0
 10 12  1  0  0  0  0
 10 22  1  0  0  0  0
 11 13  1  0  0  0  0
 11 23  1  0  0  0  0
 12 14  1  0  0  0  0
 12 24  1  0  0  0  0
 13 15  1  0  0  0  0
 13 25  1  0  0  0  0
 14 26  1  0  0  0  0
 15 27  1  0  0  0  0
 15 28  1  0  0  0  0
 16 17  1  0  0  0  0
 16 18  2  0  0  0  0
 17 19  2  0  0  0  0
 18 20  1  0  0  0  0
 18 33  1  0  0  0  0
 19 21  1  0  0  0  0
 19 34  1  0  0  0  0
 20 21  2  0  0  0  0
 20 35  1  0  0  0  0
 21 36  1  0  0  0  0
M  CHG  2   7  -1   9   1
M  END
> <PUBCHEM_COMPOUND_CID>
101992

> <PUBCHEM_CONFORMER_RMSD>
0.8

> <PUBCHEM_CONFORMER_DIVERSEORDER>
1
12
3
10
6
13
9
4
5
11
7
8
2

> <PUBCHEM_MMFF94_PARTIAL_CHARGES>
29
1 -0.33
10 0.28
11 0.28
12 0.28
13 0.28
14 0.51
15 0.28
16 0.1
17 0.13
18 -0.15
19 -0.15
2 -0.56
20 -0.15
21 -0.15
29 0.4
3 -0.68
30 0.4
31 0.4
32 0.4
33 0.15
34 0.15
35 0.15
36 0.15
4 -0.68
5 -0.68
6 -0.68
7 -0.52
8 -0.52
9 0.91

> <PUBCHEM_EFFECTIVE_ROTOR_COUNT>
5.2

> <PUBCHEM_PHARMACOPHORE_FEATURES>
14
1 2 acceptor
1 3 acceptor
1 3 donor
1 4 acceptor
1 4 donor
1 5 acceptor
1 5 donor
1 6 acceptor
1 6 donor
1 7 acceptor
1 7 anion
1 8 acceptor
6 16 17 18 19 20 21 rings
6 2 10 11 12 13 14 rings

> <PUBCHEM_HEAVY_ATOM_COUNT>
21

> <PUBCHEM_ATOM_DEF_STEREO_COUNT>
5

> <PUBCHEM_ATOM_UDEF_STEREO_COUNT>
0

> <PUBCHEM_BOND_DEF_STEREO_COUNT>
0

> <PUBCHEM_BOND_UDEF_STEREO_COUNT>
0

> <PUBCHEM_ISOTOPIC_ATOM_COUNT>
0

> <PUBCHEM_COMPONENT_COUNT>
1

> <PUBCHEM_CACTVS_TAUTO_COUNT>
1

> <PUBCHEM_CONFORMER_ID>
00018E6800000001

> <PUBCHEM_MMFF94_ENERGY>
70.948

> <PUBCHEM_FEATURE_SELFOVERLAP>
71.153

> <PUBCHEM_SHAPE_FINGERPRINT>
10366900 7 17346601841708272012
10369192 42 16556762330263673064
10498660 4 18340773654379154725
11471102 22 15430034353541438278
11640471 11 17895202086260882092
11759241 127 16843860139959382821
12173636 292 18127695933415896885
12236239 1 17967812769076099166
12403814 3 17675928690400489317
12553582 1 18412263965141976093
12788726 201 18335425655813008465
13009979 54 18041828520530231090
13224815 77 18260836981454146135
13965767 371 17753615633375039956
14081887 123 18201149975513263297
14386348 128 17915469289474722417
14787075 74 17462597170491271547
16752209 62 18337952286225557565
18186145 218 17560807563265493463
18981168 100 18056473946159856821
19786989 88 16056581180267728086
20600515 1 18055896921783339803
20645477 70 15791720919416849330
20715895 44 17391048371581336029
21486144 27 16559026099449344519
23402539 116 18342739671638101942
23419403 2 16619485074691730311
23557571 272 18131636698483958340
23559900 14 18200035019114506702
23598288 3 18187921712733608521
23598291 2 17750800935120510686
312423 11 18041288651277299410
3323516 105 16486979487663878550
350125 39 17908718236698760871
3524813 1 17346602984380478302
3797600 57 17533533176537309584
4340502 62 16588320388497052715
474 4 17023476372911563012
5281201 14 16128382562067864264
6049 1 17275389772090809512
6287921 2 17059488698404262352
7097593 13 17609201369240117242
7615 1 17895193234074997276
77492 1 17967810565636621950
81228 2 18272936042088146263
90316 7 18337096883227356017
9925002 15 15976345654780890406
9981440 41 17253452591863556164

> <PUBCHEM_SHAPE_MULTIPOLES>
389.95
7.7
2.4
1.89
0.92
1.38
-0.64
-0.04
0.05
2.07
0.07
-2.64
-0.28
-1.06

> <PUBCHEM_SHAPE_SELFOVERLAP>
804.436

> <PUBCHEM_SHAPE_VOLUME>
223.7

> <PUBCHEM_COORDINATE_TYPE>
2
5
10

$$$$
