101923079
  -OEChem-03292013293D

 46 50  0     1  0  0  0  0  0999 V2000
   -2.2204    3.1363   -0.1913 F   0  0  0  0  0  0  0  0  0  0  0  0
   -1.1880   -1.4724   -0.0483 O   0  0  0  0  0  0  0  0  0  0  0  0
    2.8732    2.9847   -0.0382 O   0  0  0  0  0  0  0  0  0  0  0  0
    5.1697    2.0481    0.6907 O   0  0  0  0  0  0  0  0  0  0  0  0
    5.6822    0.0953   -0.3837 O   0  0  0  0  0  0  0  0  0  0  0  0
   -3.0305    0.5241   -0.1514 N   0  0  3  0  0  0  0  0  0  0  0  0
   -6.4719    0.7182    1.0082 N   0  0  0  0  0  0  0  0  0  0  0  0
    1.6027   -0.9175    0.0220 N   0  0  0  0  0  0  0  0  0  0  0  0
    0.3953    3.8712   -0.1312 N   0  0  0  0  0  0  0  0  0  0  0  0
   -5.2343    0.1069    0.5559 C   0  0  2  0  0  0  0  0  0  0  0  0
   -3.9977    0.9617    0.8556 C   0  0  0  0  0  0  0  0  0  0  0  0
   -5.1608   -0.0674   -0.9575 C   0  0  0  0  0  0  0  0  0  0  0  0
   -3.6657   -0.2753   -1.1981 C   0  0  0  0  0  0  0  0  0  0  0  0
   -1.6872    0.8308   -0.1203 C   0  0  0  0  0  0  0  0  0  0  0  0
   -0.7239   -0.1791   -0.0662 C   0  0  0  0  0  0  0  0  0  0  0  0
    0.6399    0.1314   -0.0328 C   0  0  0  0  0  0  0  0  0  0  0  0
   -1.2927    2.1674   -0.1413 C   0  0  0  0  0  0  0  0  0  0  0  0
    1.0222    1.4832   -0.0549 C   0  0  0  0  0  0  0  0  0  0  0  0
    0.0613    2.4984   -0.1086 C   0  0  0  0  0  0  0  0  0  0  0  0
    1.1313   -2.2667    0.0417 C   0  0  0  0  0  0  0  0  0  0  0  0
   -0.2602   -2.4911    0.0052 C   0  0  0  0  0  0  0  0  0  0  0  0
    2.4613    1.8318   -0.0209 C   0  0  0  0  0  0  0  0  0  0  0  0
    2.9416   -0.5491    0.0523 C   0  0  0  0  0  0  0  0  0  0  0  0
    3.4225    0.7025    0.0355 C   0  0  0  0  0  0  0  0  0  0  0  0
    1.9643   -3.3971    0.0955 C   0  0  0  0  0  0  0  0  0  0  0  0
   -0.7940   -3.7847    0.0213 C   0  0  0  0  0  0  0  0  0  0  0  0
    1.4304   -4.6909    0.1117 C   0  0  0  0  0  0  0  0  0  0  0  0
    0.0538   -4.8849    0.0746 C   0  0  0  0  0  0  0  0  0  0  0  0
    4.8757    0.8843    0.0745 C   0  0  0  0  0  0  0  0  0  0  0  0
   -5.1200   -0.8742    1.0354 H   0  0  0  0  0  0  0  0  0  0  0  0
   -4.2105    2.0300    0.7318 H   0  0  0  0  0  0  0  0  0  0  0  0
   -3.6357    0.7886    1.8752 H   0  0  0  0  0  0  0  0  0  0  0  0
   -5.4952    0.8426   -1.4724 H   0  0  0  0  0  0  0  0  0  0  0  0
   -5.7625   -0.9052   -1.3230 H   0  0  0  0  0  0  0  0  0  0  0  0
   -3.4192   -1.3362   -1.0902 H   0  0  0  0  0  0  0  0  0  0  0  0
   -3.3791    0.0583   -2.2009 H   0  0  0  0  0  0  0  0  0  0  0  0
   -6.4592    0.8103    2.0229 H   0  0  0  0  0  0  0  0  0  0  0  0
   -7.2584    0.1117    0.7808 H   0  0  0  0  0  0  0  0  0  0  0  0
    3.6355   -1.3784    0.0991 H   0  0  0  0  0  0  0  0  0  0  0  0
    3.0460   -3.3162    0.1262 H   0  0  0  0  0  0  0  0  0  0  0  0
    1.3594    4.1713   -0.1109 H   0  0  0  0  0  0  0  0  0  0  0  0
   -0.3406    4.5644   -0.1715 H   0  0  0  0  0  0  0  0  0  0  0  0
   -1.8698   -3.9367   -0.0077 H   0  0  0  0  0  0  0  0  0  0  0  0
    2.0965   -5.5483    0.1534 H   0  0  0  0  0  0  0  0  0  0  0  0
   -0.3562   -5.8901    0.0872 H   0  0  0  0  0  0  0  0  0  0  0  0
    6.1367    2.2069    0.7370 H   0  0  0  0  0  0  0  0  0  0  0  0
  1 17  1  0  0  0  0
  2 15  1  0  0  0  0
  2 21  1  0  0  0  0
  3 22  2  0  0  0  0
  4 29  1  0  0  0  0
  4 46  1  0  0  0  0
  5 29  2  0  0  0  0
  6 11  1  0  0  0  0
  6 13  1  0  0  0  0
  6 14  1  0  0  0  0
  7 10  1  0  0  0  0
  7 37  1  0  0  0  0
  7 38  1  0  0  0  0
  8 16  1  0  0  0  0
  8 20  1  0  0  0  0
  8 23  1  0  0  0  0
  9 19  1  0  0  0  0
  9 41  1  0  0  0  0
  9 42  1  0  0  0  0
 10 11  1  0  0  0  0
 10 12  1  0  0  0  0
 10 30  1  0  0  0  0
 11 31  1  0  0  0  0
 11 32  1  0  0  0  0
 12 13  1  0  0  0  0
 12 33  1  0  0  0  0
 12 34  1  0  0  0  0
 13 35  1  0  0  0  0
 13 36  1  0  0  0  0
 14 15  1  0  0  0  0
 14 17  2  0  0  0  0
 15 16  2  0  0  0  0
 16 18  1  0  0  0  0
 17 19  1  0  0  0  0
 18 19  2  0  0  0  0
 18 22  1  0  0  0  0
 20 21  1  0  0  0  0
 20 25  2  0  0  0  0
 21 26  2  0  0  0  0
 22 24  1  0  0  0  0
 23 24  2  0  0  0  0
 23 39  1  0  0  0  0
 24 29  1  0  0  0  0
 25 27  1  0  0  0  0
 25 40  1  0  0  0  0
 26 28  1  0  0  0  0
 26 43  1  0  0  0  0
 27 28  2  0  0  0  0
 27 44  1  0  0  0  0
 28 45  1  0  0  0  0
M  END
> <PUBCHEM_COMPOUND_CID>
101923079

> <PUBCHEM_CONFORMER_RMSD>
0.8

> <PUBCHEM_CONFORMER_DIVERSEORDER>
2
1

> <PUBCHEM_MMFF94_PARTIAL_CHARGES>
38
1 -0.19
10 0.27
11 0.37
13 0.37
14 0.1
15 0.08
16 0.1
17 0.19
18 0.09
19 0.1
2 -0.17
20 0.1
21 0.08
22 0.47
23 -0.05
24 0.03
25 -0.15
26 -0.15
27 -0.15
28 -0.15
29 0.71
3 -0.57
37 0.36
38 0.36
39 0.15
4 -0.65
40 0.15
41 0.4
42 0.4
43 0.15
44 0.15
45 0.15
46 0.5
5 -0.57
6 -0.84
7 -0.99
8 -0.3
9 -0.9

> <PUBCHEM_EFFECTIVE_ROTOR_COUNT>
3.2

> <PUBCHEM_PHARMACOPHORE_FEATURES>
17
1 2 acceptor
1 24 anion
1 3 acceptor
1 4 acceptor
1 5 acceptor
1 6 cation
1 7 cation
1 7 donor
1 8 cation
1 9 cation
1 9 donor
3 4 5 29 anion
5 6 10 11 12 13 rings
6 14 15 16 17 18 19 rings
6 2 8 15 16 20 21 rings
6 20 21 25 26 27 28 rings
6 8 16 18 22 23 24 rings

> <PUBCHEM_HEAVY_ATOM_COUNT>
29

> <PUBCHEM_ATOM_DEF_STEREO_COUNT>
1

> <PUBCHEM_ATOM_UDEF_STEREO_COUNT>
0

> <PUBCHEM_BOND_DEF_STEREO_COUNT>
0

> <PUBCHEM_BOND_UDEF_STEREO_COUNT>
0

> <PUBCHEM_ISOTOPIC_ATOM_COUNT>
0

> <PUBCHEM_COMPONENT_COUNT>
1

> <PUBCHEM_CACTVS_TAUTO_COUNT>
3

> <PUBCHEM_CONFORMER_ID>
0613390700000002

> <PUBCHEM_MMFF94_ENERGY>
115.7887

> <PUBCHEM_FEATURE_SELFOVERLAP>
86.78

> <PUBCHEM_SHAPE_FINGERPRINT>
10074138 170 17978478122423759290
10090160 65 18408317787512885527
10190108 129 18194429730659340905
10319926 262 18054203687953938352
10411042 1 17762056536691425539
10493431 412 18340206387767050057
10693767 8 18130774638461093895
10906281 52 18270414908985790412
10967382 1 18410290306882904462
1100329 8 18266739262962124048
11135609 187 18266160886066249181
11445158 3 17750240373369581397
12236239 1 17846780724003590349
12838862 33 18338778096398604992
13140716 1 18267024049210927009
13583140 156 16661183954100808037
1361 2 18410575102201768003
138480 1 17834111940427173734
13911987 19 18334566966911436701
14028597 1 17774736268302199033
14787075 74 18131064956780389992
14790565 3 18410580625308742413
14863182 85 18335149665192777006
14866123 147 18267019647133647450
15403338 16 16879885492715412546
15927050 60 18413108380955718278
16728300 4 17461974619783288034
17138139 8 17627762513445839623
19591789 44 18410575102038308830
19930381 70 18265612091560248051
20028762 73 18272086158033113343
20642791 13 17908694378598458574
20739085 24 18334869289970962453
20775438 99 15825748910285272031
21197605 99 18192163800925894299
21267235 1 18411144636108361004
21421861 104 18192151490963223331
21781051 124 17970372449415277082
21796203 349 17619380635095622643
221490 88 18048599218449706687
23559900 14 17833537999298715386
23569917 315 18341049704776130710
266924 87 18264759957422679293
283562 15 18342456998149861104
3178227 256 18337122258268447177
335352 9 18410856594833127580
3383291 50 18338229372326661706
340366 18 18042405905816194668
350125 39 18266178323369804418
352729 6 18337959016344319142
3886686 26 17549223353627307872
404807 14 15189146585744046732
484989 97 17975688712911646015
5486654 2 18410578417747903740
59755656 215 18337391543600496437
6669772 16 18342178847868111150

> <PUBCHEM_SHAPE_MULTIPOLES>
546.13
9.67
5.57
0.77
6.04
6.28
-0.03
-5.31
1.01
-3.32
0.17
0.66
-0.03
-0.14

> <PUBCHEM_SHAPE_SELFOVERLAP>
1236.084

> <PUBCHEM_SHAPE_VOLUME>
285.8

> <PUBCHEM_COORDINATE_TYPE>
2
5
10

$$$$
