REMARK  Name = 101919087
REMARK  16 active torsions:
REMARK  status: ('A' for Active; 'I' for Inactive)
REMARK    1  A    between atoms: C_2  and  O_7
REMARK    2  A    between atoms: C_3  and  O_9
REMARK    3  A    between atoms: C_4  and  C_22
REMARK    4  A    between atoms: C_5  and  O_11
REMARK    5  A    between atoms: C_6  and  O_13
REMARK    6  A    between atoms: O_13  and  C_15
REMARK    7  A    between atoms: C_15  and  C_16
REMARK    8  A    between atoms: C_16  and  C_18
REMARK    9  A    between atoms: C_18  and  C_19
REMARK   10  A    between atoms: C_19  and  O_20
REMARK   11  A    between atoms: C_22  and  O_23
REMARK   12  A    between atoms: O_23  and  C_25
REMARK   13  A    between atoms: C_25  and  C_26
REMARK   14  A    between atoms: C_26  and  C_28
REMARK   15  A    between atoms: C_28  and  C_29
REMARK   16  A    between atoms: C_29  and  O_30
REMARK                            x       y       z     vdW  Elec       q    Type
REMARK                         _______ _______ _______ _____ _____    ______ ____
ROOT
ATOM      1  O   UNL     1       0.091  -1.009   0.257  0.00  0.00    -0.315 OA
ATOM      2  C   UNL     1      -0.382  -3.383   0.140  0.00  0.00    +0.171 C 
ATOM      3  C   UNL     1       1.080  -3.665  -0.209  0.00  0.00    +0.173 C 
ATOM      4  C   UNL     1      -0.788  -1.979  -0.315  0.00  0.00    +0.192 C 
ATOM      5  C   UNL     1       1.988  -2.525   0.252  0.00  0.00    +0.211 C 
ATOM      6  C   UNL     1       1.439  -1.166  -0.182  0.00  0.00    +0.321 C 
ENDROOT
BRANCH   2   7
ATOM      7  O   UNL     1      -1.214  -4.345  -0.503  0.00  0.00    -0.379 OA
ATOM      8  H   UNL     1      -0.959  -5.236  -0.216  0.00  0.00    +0.211 HD
ENDBRANCH   2   7
BRANCH   3   9
ATOM      9  O   UNL     1       1.465  -4.875   0.446  0.00  0.00    -0.379 OA
ATOM     10  H   UNL     1       0.889  -5.598   0.154  0.00  0.00    +0.211 HD
ENDBRANCH   3   9
BRANCH   5  11
ATOM     11  O   UNL     1       3.283  -2.689  -0.326  0.00  0.00    -0.377 OA
ATOM     12  H   UNL     1       3.649  -3.547  -0.061  0.00  0.00    +0.211 HD
ENDBRANCH   5  11
BRANCH   6  13
ATOM     13  O   UNL     1       2.258  -0.154   0.403  0.00  0.00    -0.419 OA
BRANCH  13  15
ATOM     14  O   UNL     1       0.974   1.474  -0.594  0.00  0.00    -0.245 OA
ATOM     15  C   UNL     1       1.912   1.131   0.114  0.00  0.00    +0.339 C 
BRANCH  15  16
ATOM     16  C   UNL     1       2.846   2.108   0.747  0.00  0.00    +0.056 C 
ATOM     17  C   UNL     1       3.448   1.837   1.916  0.00  0.00    +0.002 C 
BRANCH  16  18
ATOM     18  C   UNL     1       3.035   3.433   0.045  0.00  0.00    +0.065 C 
BRANCH  18  19
ATOM     19  C   UNL     1       3.687   3.284  -1.326  0.00  0.00    +0.142 C 
BRANCH  19  20
ATOM     20  O   UNL     1       4.977   2.705  -1.183  0.00  0.00    -0.382 OA
ATOM     21  H   UNL     1       5.389   2.612  -2.057  0.00  0.00    +0.210 HD
ENDBRANCH  19  20
ENDBRANCH  18  19
ENDBRANCH  16  18
ENDBRANCH  15  16
ENDBRANCH  13  15
ENDBRANCH   6  13
BRANCH   4  22
ATOM     22  C   UNL     1      -2.206  -1.631   0.126  0.00  0.00    +0.241 C 
BRANCH  22  23
ATOM     23  O   UNL     1      -2.507  -0.320  -0.318  0.00  0.00    -0.443 OA
BRANCH  23  25
ATOM     24  O   UNL     1      -4.603  -0.462   0.618  0.00  0.00    -0.245 OA
ATOM     25  C   UNL     1      -3.750   0.155  -0.006  0.00  0.00    +0.337 C 
BRANCH  25  26
ATOM     26  C   UNL     1      -3.976   1.528  -0.545  0.00  0.00    +0.056 C 
ATOM     27  C   UNL     1      -5.200   1.937  -0.914  0.00  0.00    +0.002 C 
BRANCH  26  28
ATOM     28  C   UNL     1      -2.761   2.410  -0.711  0.00  0.00    +0.065 C 
BRANCH  28  29
ATOM     29  C   UNL     1      -2.092   2.747   0.619  0.00  0.00    +0.142 C 
BRANCH  29  30
ATOM     30  O   UNL     1      -3.005   3.454   1.448  0.00  0.00    -0.382 OA
ATOM     31  H   UNL     1      -2.577   3.666   2.292  0.00  0.00    +0.210 HD
ENDBRANCH  29  30
ENDBRANCH  28  29
ENDBRANCH  26  28
ENDBRANCH  25  26
ENDBRANCH  23  25
ENDBRANCH  22  23
ENDBRANCH   4  22
TORSDOF 16
