REMARK  Name = 101933230
REMARK  3 active torsions:
REMARK  status: ('A' for Active; 'I' for Inactive)
REMARK    1  A    between atoms: C_6  and  O_31
REMARK    2  A    between atoms: C_7  and  O_33
REMARK    3  A    between atoms: C_25  and  O_35
REMARK                            x       y       z     vdW  Elec       q    Type
REMARK                         _______ _______ _______ _____ _____    ______ ____
ROOT
ATOM      1  O   UNL     1      -0.130  -2.586  -1.893  0.00  0.00    -0.286 OA
ATOM      2  O   UNL     1       0.793  -2.468   3.345  0.00  0.00    -0.287 OA
ATOM      3  O   UNL     1      -3.577  -1.300   1.506  0.00  0.00    -0.275 OA
ATOM      4  N   UNL     1      -2.183  -1.758  -0.323  0.00  0.00    -0.281 N 
ATOM      5  C   UNL     1       3.628   2.166   0.297  0.00  0.00    +0.058 C 
ATOM      6  C   UNL     1       4.484   1.072  -0.416  0.00  0.00    +0.131 C 
ATOM      7  C   UNL     1       2.647   1.579   1.353  0.00  0.00    +0.117 C 
ATOM      8  C   UNL     1       3.712   0.135  -1.338  0.00  0.00    -0.022 C 
ATOM      9  C   UNL     1       4.541   3.220   0.950  0.00  0.00    +0.005 C 
ATOM     10  C   UNL     1       1.678   2.594   1.993  0.00  0.00    +0.055 C 
ATOM     11  C   UNL     1       3.792  -1.201  -1.165  0.00  0.00    -0.032 C 
ATOM     12  C   UNL     1       3.089  -2.267  -1.964  0.00  0.00    +0.030 C 
ATOM     13  C   UNL     1       2.916   0.789  -2.438  0.00  0.00    +0.028 C 
ATOM     14  C   UNL     1       0.818   3.301   0.980  0.00  0.00    -0.024 C 
ATOM     15  C   UNL     1       2.490  -3.382  -1.094  0.00  0.00    +0.034 C 
ATOM     16  C   UNL     1       1.419  -2.927  -0.132  0.00  0.00    +0.022 C 
ATOM     17  C   UNL     1      -0.437   2.922   0.693  0.00  0.00    -0.004 C 
ATOM     18  C   UNL     1       0.088  -2.543  -0.684  0.00  0.00    +0.205 C 
ATOM     19  C   UNL     1       1.626  -2.908   1.189  0.00  0.00    +0.041 C 
ATOM     20  C   UNL     1      -0.983  -2.113   0.269  0.00  0.00    +0.093 C 
ATOM     21  C   UNL     1       0.581  -2.490   2.138  0.00  0.00    +0.197 C 
ATOM     22  C   UNL     1      -0.728  -2.096   1.583  0.00  0.00    +0.060 C 
ATOM     23  C   UNL     1      -1.231   3.538  -0.348  0.00  0.00    -0.000 C 
ATOM     24  C   UNL     1      -4.457  -1.009  -0.702  0.00  0.00    +0.119 C 
ATOM     25  C   UNL     1      -5.077   0.360  -0.395  0.00  0.00    +0.146 C 
ATOM     26  C   UNL     1      -3.364  -1.364   0.297  0.00  0.00    +0.229 C 
ATOM     27  C   UNL     1      -2.436   3.137  -0.785  0.00  0.00    -0.000 C 
ATOM     28  C   UNL     1      -4.254   1.498  -0.937  0.00  0.00    +0.003 C 
ATOM     29  C   UNL     1      -3.229   2.045  -0.265  0.00  0.00    -0.002 C 
ATOM     30  H   UNL     1      -2.203  -1.788  -1.306  0.00  0.00    +0.155 HD
ENDROOT
BRANCH   6  31
ATOM     31  O   UNL     1       5.494   1.710  -1.208  0.00  0.00    -0.380 OA
ATOM     32  H   UNL     1       6.007   2.316  -0.651  0.00  0.00    +0.211 HD
ENDBRANCH   6  31
BRANCH   7  33
ATOM     33  O   UNL     1       1.860   0.537   0.779  0.00  0.00    -0.384 OA
ATOM     34  H   UNL     1       2.444  -0.119   0.367  0.00  0.00    +0.210 HD
ENDBRANCH   7  33
BRANCH  25  35
ATOM     35  O   UNL     1      -6.382   0.422  -0.972  0.00  0.00    -0.349 OA
ATOM     36  C   UNL     1      -7.190   1.387  -0.316  0.00  0.00    +0.174 C 
ENDBRANCH  25  35
TORSDOF 3
