101935270
  -OEChem-03292013293D

 60 61  0     1  0  0  0  0  0999 V2000
    2.4338    1.3853    0.1818 O   0  0  0  0  0  0  0  0  0  0  0  0
    0.2314    0.4169    2.4247 O   0  0  0  0  0  0  0  0  0  0  0  0
    1.2345   -3.8076   -0.0824 O   0  0  0  0  0  0  0  0  0  0  0  0
    3.6347    3.3100    0.5479 O   0  0  0  0  0  0  0  0  0  0  0  0
    5.8477   -1.1908    0.5187 O   0  0  0  0  0  0  0  0  0  0  0  0
   -8.0998    1.4580    0.2504 O   0  0  0  0  0  0  0  0  0  0  0  0
    0.3458   -0.3333    0.2249 N   0  0  0  0  0  0  0  0  0  0  0  0
    2.4871   -1.8494    0.0949 N   0  0  0  0  0  0  0  0  0  0  0  0
    4.3032    0.0228   -0.7406 N   0  0  0  0  0  0  0  0  0  0  0  0
    0.0749   -1.7503    0.4557 C   0  0  1  0  0  0  0  0  0  0  0  0
   -1.1438   -2.1936   -0.3394 C   0  0  0  0  0  0  0  0  0  0  0  0
    1.2190    1.8728    0.7852 C   0  0  1  0  0  0  0  0  0  0  0  0
    0.4003    2.6603   -0.2215 C   0  0  0  0  0  0  0  0  0  0  0  0
   -2.3679   -1.3400   -0.0099 C   0  0  0  0  0  0  0  0  0  0  0  0
    0.5297    0.5935    1.2450 C   0  0  0  0  0  0  0  0  0  0  0  0
   -3.5796   -1.7647   -0.8422 C   0  0  0  0  0  0  0  0  0  0  0  0
    1.3166   -2.5930    0.0877 C   0  0  0  0  0  0  0  0  0  0  0  0
    1.1516    3.9139   -0.6752 C   0  0  0  0  0  0  0  0  0  0  0  0
   -0.9622    3.0418    0.3615 C   0  0  0  0  0  0  0  0  0  0  0  0
   -4.7841   -0.9067   -0.5512 C   0  0  0  0  0  0  0  0  0  0  0  0
    4.7347    1.3864   -0.4552 C   0  0  2  0  0  0  0  0  0  0  0  0
    3.5564    2.1527    0.1542 C   0  0  0  0  0  0  0  0  0  0  0  0
    3.7926   -2.2266   -0.1263 C   0  0  0  0  0  0  0  0  0  0  0  0
   -5.6746   -1.2730    0.4582 C   0  0  0  0  0  0  0  0  0  0  0  0
   -5.0082    0.2542   -1.2913 C   0  0  0  0  0  0  0  0  0  0  0  0
    5.2104    2.0711   -1.7249 C   0  0  0  0  0  0  0  0  0  0  0  0
    4.7840   -1.1008   -0.0843 C   0  0  0  0  0  0  0  0  0  0  0  0
   -6.7889   -0.4785    0.7274 C   0  0  0  0  0  0  0  0  0  0  0  0
   -6.1226    1.0487   -1.0222 C   0  0  0  0  0  0  0  0  0  0  0  0
   -7.0129    0.6823   -0.0129 C   0  0  0  0  0  0  0  0  0  0  0  0
    4.2562   -3.4625   -0.3386 C   0  0  0  0  0  0  0  0  0  0  0  0
   -0.0981   -1.9058    1.5274 H   0  0  0  0  0  0  0  0  0  0  0  0
   -1.3640   -3.2481   -0.1319 H   0  0  0  0  0  0  0  0  0  0  0  0
   -0.9307   -2.1250   -1.4144 H   0  0  0  0  0  0  0  0  0  0  0  0
    1.4604    2.4681    1.6748 H   0  0  0  0  0  0  0  0  0  0  0  0
    0.2233    2.0592   -1.1223 H   0  0  0  0  0  0  0  0  0  0  0  0
   -2.5993   -1.4246    1.0595 H   0  0  0  0  0  0  0  0  0  0  0  0
   -2.1625   -0.2810   -0.2063 H   0  0  0  0  0  0  0  0  0  0  0  0
    0.5932   -0.0663   -0.7234 H   0  0  0  0  0  0  0  0  0  0  0  0
   -3.8226   -2.8168   -0.6454 H   0  0  0  0  0  0  0  0  0  0  0  0
   -3.3424   -1.7075   -1.9124 H   0  0  0  0  0  0  0  0  0  0  0  0
    1.4702    4.5278    0.1731 H   0  0  0  0  0  0  0  0  0  0  0  0
    2.0095    3.6703   -1.3072 H   0  0  0  0  0  0  0  0  0  0  0  0
    0.4969    4.5404   -1.2930 H   0  0  0  0  0  0  0  0  0  0  0  0
   -1.5383    3.6356   -0.3566 H   0  0  0  0  0  0  0  0  0  0  0  0
   -1.5608    2.1577    0.6018 H   0  0  0  0  0  0  0  0  0  0  0  0
   -0.8497    3.6364    1.2746 H   0  0  0  0  0  0  0  0  0  0  0  0
    5.5310    1.3537    0.2958 H   0  0  0  0  0  0  0  0  0  0  0  0
    2.3771   -0.8574    0.2852 H   0  0  0  0  0  0  0  0  0  0  0  0
    3.4590   -0.0697   -1.2993 H   0  0  0  0  0  0  0  0  0  0  0  0
   -5.5095   -2.1741    1.0429 H   0  0  0  0  0  0  0  0  0  0  0  0
   -4.3202    0.5513   -2.0784 H   0  0  0  0  0  0  0  0  0  0  0  0
    4.4068    2.1329   -2.4677 H   0  0  0  0  0  0  0  0  0  0  0  0
    6.0418    1.5204   -2.1774 H   0  0  0  0  0  0  0  0  0  0  0  0
    5.5480    3.0920   -1.5174 H   0  0  0  0  0  0  0  0  0  0  0  0
   -7.4786   -0.7687    1.5153 H   0  0  0  0  0  0  0  0  0  0  0  0
   -6.2854    1.9511   -1.6054 H   0  0  0  0  0  0  0  0  0  0  0  0
    3.6107   -4.3317   -0.3686 H   0  0  0  0  0  0  0  0  0  0  0  0
    5.3146   -3.6492   -0.4950 H   0  0  0  0  0  0  0  0  0  0  0  0
   -8.0978    2.2192   -0.3550 H   0  0  0  0  0  0  0  0  0  0  0  0
  1 12  1  0  0  0  0
  1 22  1  0  0  0  0
  2 15  2  0  0  0  0
  3 17  2  0  0  0  0
  4 22  2  0  0  0  0
  5 27  2  0  0  0  0
  6 30  1  0  0  0  0
  6 60  1  0  0  0  0
  7 10  1  0  0  0  0
  7 15  1  0  0  0  0
  7 39  1  0  0  0  0
  8 17  1  0  0  0  0
  8 23  1  0  0  0  0
  8 49  1  0  0  0  0
  9 21  1  0  0  0  0
  9 27  1  0  0  0  0
  9 50  1  0  0  0  0
 10 11  1  0  0  0  0
 10 17  1  0  0  0  0
 10 32  1  0  0  0  0
 11 14  1  0  0  0  0
 11 33  1  0  0  0  0
 11 34  1  0  0  0  0
 12 13  1  0  0  0  0
 12 15  1  0  0  0  0
 12 35  1  0  0  0  0
 13 18  1  0  0  0  0
 13 19  1  0  0  0  0
 13 36  1  0  0  0  0
 14 16  1  0  0  0  0
 14 37  1  0  0  0  0
 14 38  1  0  0  0  0
 16 20  1  0  0  0  0
 16 40  1  0  0  0  0
 16 41  1  0  0  0  0
 18 42  1  0  0  0  0
 18 43  1  0  0  0  0
 18 44  1  0  0  0  0
 19 45  1  0  0  0  0
 19 46  1  0  0  0  0
 19 47  1  0  0  0  0
 20 24  2  0  0  0  0
 20 25  1  0  0  0  0
 21 22  1  0  0  0  0
 21 26  1  0  0  0  0
 21 48  1  0  0  0  0
 23 27  1  0  0  0  0
 23 31  2  0  0  0  0
 24 28  1  0  0  0  0
 24 51  1  0  0  0  0
 25 29  2  0  0  0  0
 25 52  1  0  0  0  0
 26 53  1  0  0  0  0
 26 54  1  0  0  0  0
 26 55  1  0  0  0  0
 28 30  2  0  0  0  0
 28 56  1  0  0  0  0
 29 30  1  0  0  0  0
 29 57  1  0  0  0  0
 31 58  1  0  0  0  0
 31 59  1  0  0  0  0
M  END
> <PUBCHEM_COMPOUND_CID>
101935270

> <PUBCHEM_CONFORMER_RMSD>
0.8

> <PUBCHEM_CONFORMER_DIVERSEORDER>
1
57
68
51
27
64
31
62
11
36
45
6
39
34
24
23
69
54
13
43
56
18
25
29
59
66
49
60
21
28
67
2
22
53
37
63
46
50
14
61
48
70
42
3
30
19
4
16
52
41
32
40
8
9
58
12
44
47
10
20
55
5
33
15
17
26
38
35
7
65

> <PUBCHEM_MMFF94_PARTIAL_CHARGES>
35
1 -0.43
10 0.36
12 0.34
15 0.57
16 0.14
17 0.57
2 -0.57
20 -0.14
21 0.36
22 0.66
23 0.12
24 -0.15
25 -0.15
27 0.62
28 -0.15
29 -0.15
3 -0.57
30 0.08
31 -0.3
39 0.37
4 -0.57
49 0.37
5 -0.57
50 0.37
51 0.15
52 0.15
56 0.15
57 0.15
58 0.15
59 0.15
6 -0.53
60 0.45
7 -0.73
8 -0.54
9 -0.73

> <PUBCHEM_EFFECTIVE_ROTOR_COUNT>
6.4

> <PUBCHEM_PHARMACOPHORE_FEATURES>
10
1 2 acceptor
1 3 acceptor
1 4 acceptor
1 5 acceptor
1 6 donor
1 7 donor
1 8 donor
1 9 donor
3 13 18 19 hydrophobe
6 20 24 25 28 29 30 rings

> <PUBCHEM_HEAVY_ATOM_COUNT>
31

> <PUBCHEM_ATOM_DEF_STEREO_COUNT>
3

> <PUBCHEM_ATOM_UDEF_STEREO_COUNT>
0

> <PUBCHEM_BOND_DEF_STEREO_COUNT>
0

> <PUBCHEM_BOND_UDEF_STEREO_COUNT>
0

> <PUBCHEM_ISOTOPIC_ATOM_COUNT>
0

> <PUBCHEM_COMPONENT_COUNT>
1

> <PUBCHEM_CACTVS_TAUTO_COUNT>
108

> <PUBCHEM_CONFORMER_ID>
061368A600000001

> <PUBCHEM_MMFF94_ENERGY>
82.5062

> <PUBCHEM_FEATURE_SELFOVERLAP>
50.763

> <PUBCHEM_SHAPE_FINGERPRINT>
10483366 6 18410581695166549380
10673678 19 18261124014166420334
10675989 125 18411134783912332976
11135609 187 18266182905973770112
11273773 38 18413386532228537359
11421498 54 13984655902809491743
11578080 2 14058151795732757700
13627175 23 18059867126197735691
14117953 113 18271811194743892206
14464042 87 18059860532268051083
14790565 3 18412265038693921799
14931854 50 18270138902150898236
15081414 286 18409728482538326237
15183329 4 17917719015304441797
15210252 30 18115870874938233332
15483637 11 17976818692747237045
15781502 409 17968380160231797371
1601671 61 18263073461045945261
16087824 20 18339361847353310133
17093844 170 18268141132219960368
17909252 39 18340764854001708232
17980427 26 17128427003666147096
20511986 3 17345468374417265016
20715895 44 18411695530610646546
20721686 56 18408040715774399953
21298829 104 18342173427291913136
22122407 14 18341624677038261155
23559900 14 18411973668677200291
24771293 8 18128796690652793082
3459 83 18342460331175708409
4073 2 18041284369754737475
4098825 35 18409169918400525275
4144715 1 18335150825494038019
484989 97 18335704884526838190
550186 83 17677590099229928096
6328613 192 18413110546346202571

> <PUBCHEM_SHAPE_MULTIPOLES>
587.81
16.72
4.55
1.15
27.71
0.63
-0.16
1.36
2.65
-5.56
0.41
-0.01
0.39
-0.3

> <PUBCHEM_SHAPE_SELFOVERLAP>
1213.593

> <PUBCHEM_SHAPE_VOLUME>
331.8

> <PUBCHEM_COORDINATE_TYPE>
2
5
10

$$$$
