REMARK  Name = 101938339
REMARK  11 active torsions:
REMARK  status: ('A' for Active; 'I' for Inactive)
REMARK    1  A    between atoms: C_1  and  C_4
REMARK    2  A    between atoms: C_1  and  N_17
REMARK    3  A    between atoms: C_1  and  C_28
REMARK    4  A    between atoms: N_3  and  C_6
REMARK    5  A    between atoms: C_6  and  C_9
REMARK    6  A    between atoms: C_6  and  C_12
REMARK    7  A    between atoms: C_12  and  C_14
REMARK    8  A    between atoms: C_18  and  O_20
REMARK    9  A    between atoms: O_20  and  C_21
REMARK   10  A    between atoms: C_21  and  C_22
REMARK   11  A    between atoms: C_28  and  C_30
REMARK                            x       y       z     vdW  Elec       q    Type
REMARK                         _______ _______ _______ _____ _____    ______ ____
ROOT
ATOM      1  C   UNL     1       0.513  -0.101  -0.738  0.00  0.00    +0.155 C 
ENDROOT
BRANCH   1   4
ATOM      2  O   UNL     1       0.492   1.991  -1.962  0.00  0.00    -0.273 OA
ATOM      3  N   UNL     1       2.217   1.594  -0.458  0.00  0.00    -0.297 N 
ATOM      4  C   UNL     1       1.056   1.264  -1.147  0.00  0.00    +0.241 C 
ATOM      5  H   UNL     1       2.587   0.936   0.174  0.00  0.00    +0.150 HD
BRANCH   3   6
ATOM      6  C   UNL     1       2.908   2.848  -0.620  0.00  0.00    +0.148 C 
BRANCH   6   9
ATOM      7  O   UNL     1       4.701   1.425  -1.444  0.00  0.00    -0.274 OA
ATOM      8  N   UNL     1       4.974   3.702  -1.551  0.00  0.00    -0.327 N 
ATOM      9  C   UNL     1       4.266   2.558  -1.250  0.00  0.00    +0.237 C 
ATOM     10  H   UNL     1       5.866   3.635  -1.962  0.00  0.00    +0.145 HD
ATOM     11  H   UNL     1       4.588   4.586  -1.355  0.00  0.00    +0.145 HD
ENDBRANCH   6   9
BRANCH   6  12
ATOM     12  C   UNL     1       3.027   3.647   0.698  0.00  0.00    +0.027 C 
ATOM     13  C   UNL     1       1.655   3.991   1.298  0.00  0.00    +0.002 C 
BRANCH  12  14
ATOM     14  C   UNL     1       3.875   2.924   1.767  0.00  0.00    +0.002 C 
ATOM     15  C   UNL     1       4.021   3.701   3.068  0.00  0.00    +0.000 C 
ENDBRANCH  12  14
ENDBRANCH   6  12
ENDBRANCH   3   6
ENDBRANCH   1   4
BRANCH   1  17
ATOM     16  O   UNL     1      -1.206   0.785   1.429  0.00  0.00    -0.226 OA
ATOM     17  N   UNL     1      -0.925  -0.004  -0.735  0.00  0.00    -0.264 N 
ATOM     18  C   UNL     1      -1.664   0.430   0.348  0.00  0.00    +0.402 C 
ATOM     19  H   UNL     1      -1.409  -0.263  -1.552  0.00  0.00    +0.153 HD
BRANCH  18  20
ATOM     20  O   UNL     1      -2.995   0.409   0.039  0.00  0.00    -0.430 OA
BRANCH  20  21
ATOM     21  C   UNL     1      -3.884   0.837   1.076  0.00  0.00    +0.237 C 
BRANCH  21  22
ATOM     22  C   UNL     1      -5.296   0.753   0.577  0.00  0.00    +0.021 C 
ATOM     23  C   UNL     1      -5.878   1.850  -0.060  0.00  0.00    -0.001 C 
ATOM     24  C   UNL     1      -6.028  -0.421   0.749  0.00  0.00    -0.001 C 
ATOM     25  C   UNL     1      -7.191   1.772  -0.524  0.00  0.00    -0.000 C 
ATOM     26  C   UNL     1      -7.341  -0.500   0.285  0.00  0.00    -0.000 C 
ATOM     27  C   UNL     1      -7.922   0.597  -0.351  0.00  0.00    -0.000 C 
ENDBRANCH  21  22
ENDBRANCH  20  21
ENDBRANCH  18  20
ENDBRANCH   1  17
BRANCH   1  28
ATOM     28  C   UNL     1       1.018  -1.185  -1.698  0.00  0.00    +0.057 C 
BRANCH  28  30
ATOM     29  N   UNL     1       0.178  -4.627  -0.694  0.00  0.00    -0.312 N 
ATOM     30  C   UNL     1       0.906  -2.574  -1.119  0.00  0.00    -0.004 C 
ATOM     31  C   UNL     1       1.781  -3.168  -0.167  0.00  0.00    +0.011 C 
ATOM     32  C   UNL     1       1.302  -4.456   0.082  0.00  0.00    +0.048 C 
ATOM     33  C   UNL     1      -0.069  -3.495  -1.423  0.00  0.00    +0.058 C 
ATOM     34  C   UNL     1       2.939  -2.733   0.508  0.00  0.00    +0.001 C 
ATOM     35  C   UNL     1       1.925  -5.334   0.977  0.00  0.00    +0.015 C 
ATOM     36  C   UNL     1       3.572  -3.600   1.405  0.00  0.00    +0.000 C 
ATOM     37  C   UNL     1       3.071  -4.880   1.635  0.00  0.00    +0.001 C 
ATOM     38  H   UNL     1      -0.370  -5.445  -0.721  0.00  0.00    +0.152 HD
ENDBRANCH  28  30
ENDBRANCH   1  28
TORSDOF 11
