REMARK  Name = 101917121
REMARK  13 active torsions:
REMARK  status: ('A' for Active; 'I' for Inactive)
REMARK    1  A    between atoms: C_2  and  C_17
REMARK    2  A    between atoms: C_7  and  C_25
REMARK    3  A    between atoms: C_8  and  O_15
REMARK    4  A    between atoms: C_17  and  C_18
REMARK    5  A    between atoms: C_18  and  C_19
REMARK    6  A    between atoms: C_21  and  C_22
REMARK    7  A    between atoms: C_22  and  O_23
REMARK    8  A    between atoms: C_25  and  O_26
REMARK    9  A    between atoms: O_26  and  C_28
REMARK   10  A    between atoms: C_28  and  C_29
REMARK   11  A    between atoms: C_29  and  C_30
REMARK   12  A    between atoms: C_30  and  C_31
REMARK   13  A    between atoms: C_36  and  O_37
REMARK                            x       y       z     vdW  Elec       q    Type
REMARK                         _______ _______ _______ _____ _____    ______ ____
ROOT
ATOM      1  O   UNL     1      -0.140   4.434  -0.193  0.00  0.00    -0.296 OA
ATOM      2  C   UNL     1      -1.960  -0.892  -0.648  0.00  0.00    +0.015 C 
ATOM      3  C   UNL     1      -1.868  -1.819   0.618  0.00  0.00    +0.006 C 
ATOM      4  C   UNL     1      -1.448   0.547  -0.361  0.00  0.00    -0.050 C 
ATOM      5  C   UNL     1      -0.814   0.912   0.784  0.00  0.00    -0.016 C 
ATOM      6  C   UNL     1      -0.592  -1.542   1.415  0.00  0.00    +0.034 C 
ATOM      7  C   UNL     1      -0.240   2.329   1.019  0.00  0.00    +0.108 C 
ATOM      8  C   UNL     1      -0.568  -0.094   1.892  0.00  0.00    +0.129 C 
ATOM      9  C   UNL     1      -1.641   1.572  -1.463  0.00  0.00    +0.029 C 
ATOM     10  C   UNL     1      -1.131  -1.465  -1.821  0.00  0.00    +0.004 C 
ATOM     11  C   UNL     1      -1.859   2.966  -0.911  0.00  0.00    +0.069 C 
ATOM     12  C   UNL     1      -0.677   3.332  -0.064  0.00  0.00    +0.157 C 
ATOM     13  C   UNL     1      -1.960  -3.326   0.334  0.00  0.00    +0.000 C 
ATOM     14  C   UNL     1      -0.714   2.928   2.354  0.00  0.00    +0.015 C 
ENDROOT
BRANCH   8  15
ATOM     15  O   UNL     1      -1.567   0.089   2.897  0.00  0.00    -0.380 OA
ATOM     16  H   UNL     1      -1.553   1.010   3.202  0.00  0.00    +0.211 HD
ENDBRANCH   8  15
BRANCH   2  17
ATOM     17  C   UNL     1      -3.451  -0.860  -1.074  0.00  0.00    +0.008 C 
BRANCH  17  18
ATOM     18  C   UNL     1      -4.297  -0.217   0.012  0.00  0.00    +0.022 C 
BRANCH  18  19
ATOM     19  C   UNL     1      -5.756  -0.192  -0.381  0.00  0.00    -0.046 C 
ATOM     20  C   UNL     1      -6.215   1.067  -1.069  0.00  0.00    +0.026 C 
ATOM     21  C   UNL     1      -6.628  -1.189  -0.135  0.00  0.00    -0.003 C 
BRANCH  21  22
ATOM     22  C   UNL     1      -6.341  -2.506   0.516  0.00  0.00    +0.163 C 
BRANCH  22  23
ATOM     23  O   UNL     1      -6.704  -3.544  -0.387  0.00  0.00    -0.377 OA
ATOM     24  H   UNL     1      -6.524  -4.405   0.021  0.00  0.00    +0.211 HD
ENDBRANCH  22  23
ENDBRANCH  21  22
ENDBRANCH  18  19
ENDBRANCH  17  18
ENDBRANCH   2  17
BRANCH   7  25
ATOM     25  C   UNL     1       1.301   2.283   0.982  0.00  0.00    +0.219 C 
BRANCH  25  26
ATOM     26  O   UNL     1       1.692   1.798  -0.284  0.00  0.00    -0.448 OA
BRANCH  26  28
ATOM     27  O   UNL     1       3.914   1.975   0.308  0.00  0.00    -0.250 OA
ATOM     28  C   UNL     1       3.045   1.687  -0.502  0.00  0.00    +0.317 C 
BRANCH  28  29
ATOM     29  C   UNL     1       3.292   1.155  -1.895  0.00  0.00    +0.114 C 
BRANCH  29  30
ATOM     30  C   UNL     1       3.325  -0.373  -1.925  0.00  0.00    +0.038 C 
BRANCH  30  31
ATOM     31  C   UNL     1       4.418  -0.925  -1.046  0.00  0.00    -0.021 C 
ATOM     32  C   UNL     1       5.691  -1.145  -1.571  0.00  0.00    -0.001 C 
ATOM     33  C   UNL     1       4.156  -1.214   0.293  0.00  0.00    -0.001 C 
ATOM     34  C   UNL     1       6.702  -1.656  -0.757  0.00  0.00    +0.036 C 
ATOM     35  C   UNL     1       5.167  -1.725   1.107  0.00  0.00    +0.036 C 
ATOM     36  C   UNL     1       6.440  -1.946   0.582  0.00  0.00    +0.134 C 
BRANCH  36  37
ATOM     37  O   UNL     1       7.427  -2.443   1.376  0.00  0.00    -0.506 OA
ATOM     38  H   UNL     1       8.283  -2.591   1.023  0.00  0.00    +0.292 HD
ENDBRANCH  36  37
ENDBRANCH  30  31
ENDBRANCH  29  30
ENDBRANCH  28  29
ENDBRANCH  26  28
ENDBRANCH  25  26
ENDBRANCH   7  25
TORSDOF 13
