REMARK  Name = 101937721
REMARK  7 active torsions:
REMARK  status: ('A' for Active; 'I' for Inactive)
REMARK    1  A    between atoms: C_3  and  O_22
REMARK    2  A    between atoms: C_7  and  O_28
REMARK    3  A    between atoms: C_8  and  O_24
REMARK    4  A    between atoms: C_9  and  O_32
REMARK    5  A    between atoms: C_11  and  O_26
REMARK    6  A    between atoms: O_28  and  C_30
REMARK    7  A    between atoms: O_32  and  C_34
REMARK                            x       y       z     vdW  Elec       q    Type
REMARK                         _______ _______ _______ _____ _____    ______ ____
ROOT
ATOM      1  O   UNL     1       4.738  -1.631  -0.407  0.00  0.00    -0.455 OA
ATOM      2  C   UNL     1      -0.321  -1.828  -0.440  0.00  0.00    +0.051 C 
ATOM      3  C   UNL     1      -1.554  -1.044   0.206  0.00  0.00    +0.130 C 
ATOM      4  C   UNL     1       1.035  -1.132   0.041  0.00  0.00    +0.018 C 
ATOM      5  C   UNL     1       1.096   0.400  -0.324  0.00  0.00    +0.073 C 
ATOM      6  C   UNL     1      -2.972  -1.776   0.085  0.00  0.00    +0.026 C 
ATOM      7  C   UNL     1      -1.514   0.425  -0.302  0.00  0.00    +0.233 C 
ATOM      8  C   UNL     1      -0.339  -3.325   0.012  0.00  0.00    +0.113 C 
ATOM      9  C   UNL     1      -0.205   1.144   0.066  0.00  0.00    +0.213 C 
ATOM     10  C   UNL     1      -2.833  -3.275   0.476  0.00  0.00    +0.005 C 
ATOM     11  C   UNL     1       2.394   1.130   0.251  0.00  0.00    +0.113 C 
ATOM     12  C   UNL     1      -1.688  -4.008  -0.210  0.00  0.00    +0.029 C 
ATOM     13  C   UNL     1       2.308  -1.896  -0.447  0.00  0.00    +0.065 C 
ATOM     14  C   UNL     1      -0.363  -1.818  -1.996  0.00  0.00    +0.005 C 
ATOM     15  C   UNL     1      -4.035  -1.210   1.077  0.00  0.00    +0.002 C 
ATOM     16  C   UNL     1      -3.630  -1.671  -1.309  0.00  0.00    +0.002 C 
ATOM     17  C   UNL     1       3.598   0.270   0.022  0.00  0.00    +0.035 C 
ATOM     18  C   UNL     1       3.513  -1.071  -0.257  0.00  0.00    +0.121 C 
ATOM     19  C   UNL     1       2.288   1.467   1.750  0.00  0.00    +0.034 C 
ATOM     20  C   UNL     1       4.986   0.562   0.052  0.00  0.00    +0.041 C 
ATOM     21  C   UNL     1       5.634  -0.625  -0.213  0.00  0.00    +0.179 C 
ENDROOT
BRANCH   3  22
ATOM     22  O   UNL     1      -1.277  -0.996   1.629  0.00  0.00    -0.383 OA
ATOM     23  H   UNL     1      -1.292  -1.896   1.992  0.00  0.00    +0.210 HD
ENDBRANCH   3  22
BRANCH   8  24
ATOM     24  O   UNL     1       0.027  -3.475   1.385  0.00  0.00    -0.384 OA
ATOM     25  H   UNL     1       0.882  -3.045   1.540  0.00  0.00    +0.210 HD
ENDBRANCH   8  24
BRANCH  11  26
ATOM     26  O   UNL     1       2.535   2.369  -0.458  0.00  0.00    -0.382 OA
ATOM     27  H   UNL     1       2.604   2.192  -1.409  0.00  0.00    +0.211 HD
ENDBRANCH  11  26
BRANCH   7  28
ATOM     28  O   UNL     1      -2.572   1.185   0.286  0.00  0.00    -0.446 OA
BRANCH  28  30
ATOM     29  O   UNL     1      -2.646   2.546  -1.578  0.00  0.00    -0.250 OA
ATOM     30  C   UNL     1      -3.042   2.220  -0.468  0.00  0.00    +0.318 C 
ATOM     31  C   UNL     1      -4.141   2.921   0.271  0.00  0.00    +0.121 C 
ENDBRANCH  28  30
ENDBRANCH   7  28
BRANCH   9  32
ATOM     32  O   UNL     1      -0.222   2.434  -0.553  0.00  0.00    -0.448 OA
BRANCH  32  34
ATOM     33  O   UNL     1      -0.273   3.440   1.526  0.00  0.00    -0.250 OA
ATOM     34  C   UNL     1      -0.255   3.494   0.304  0.00  0.00    +0.318 C 
ATOM     35  C   UNL     1      -0.269   4.771  -0.480  0.00  0.00    +0.121 C 
ENDBRANCH  32  34
ENDBRANCH   9  32
TORSDOF 7
