REMARK  Name = 101960703
REMARK  5 active torsions:
REMARK  status: ('A' for Active; 'I' for Inactive)
REMARK    1  A    between atoms: C_8  and  O_23
REMARK    2  A    between atoms: C_12  and  O_29
REMARK    3  A    between atoms: C_13  and  O_25
REMARK    4  A    between atoms: C_18  and  O_27
REMARK    5  A    between atoms: O_29  and  C_31
REMARK                            x       y       z     vdW  Elec       q    Type
REMARK                         _______ _______ _______ _____ _____    ______ ____
ROOT
ATOM      1  O   UNL     1       2.605  -2.480  -1.263  0.00  0.00    -0.353 OA
ATOM      2  O   UNL     1      -0.241  -0.080   2.249  0.00  0.00    -0.331 OA
ATOM      3  C   UNL     1       1.420   0.021   0.477  0.00  0.00    +0.082 C 
ATOM      4  C   UNL     1       0.739  -1.184  -0.294  0.00  0.00    +0.039 C 
ATOM      5  C   UNL     1      -0.759  -1.336   0.198  0.00  0.00    +0.034 C 
ATOM      6  C   UNL     1       1.587  -2.450  -0.244  0.00  0.00    +0.143 C 
ATOM      7  C   UNL     1      -1.517  -0.049  -0.311  0.00  0.00    +0.050 C 
ATOM      8  C   UNL     1       0.302   0.793   1.233  0.00  0.00    +0.224 C 
ATOM      9  C   UNL     1       3.062  -2.372   0.083  0.00  0.00    +0.146 C 
ATOM     10  C   UNL     1       2.495  -0.479   1.492  0.00  0.00    +0.014 C 
ATOM     11  C   UNL     1       3.567  -1.042   0.556  0.00  0.00    +0.050 C 
ATOM     12  C   UNL     1      -0.883   1.205   0.342  0.00  0.00    +0.219 C 
ATOM     13  C   UNL     1       2.352   0.865  -0.451  0.00  0.00    +0.133 C 
ATOM     14  C   UNL     1      -0.709  -1.334   1.735  0.00  0.00    +0.145 C 
ATOM     15  C   UNL     1      -3.094  -0.093  -0.251  0.00  0.00    +0.028 C 
ATOM     16  C   UNL     1      -1.409  -2.615  -0.366  0.00  0.00    +0.005 C 
ATOM     17  C   UNL     1       3.631   0.051  -0.486  0.00  0.00    -0.016 C 
ATOM     18  C   UNL     1      -3.566  -1.422  -0.907  0.00  0.00    +0.110 C 
ATOM     19  C   UNL     1      -2.928  -2.653  -0.271  0.00  0.00    +0.029 C 
ATOM     20  C   UNL     1      -3.703   0.058   1.164  0.00  0.00    +0.003 C 
ATOM     21  C   UNL     1      -3.663   1.083  -1.087  0.00  0.00    +0.003 C 
ATOM     22  C   UNL     1       4.681   0.281  -1.283  0.00  0.00    -0.007 C 
ENDROOT
BRANCH   8  23
ATOM     23  O   UNL     1       0.858   1.947   1.863  0.00  0.00    -0.361 OA
ATOM     24  H   UNL     1       1.604   1.682   2.423  0.00  0.00    +0.213 HD
ENDBRANCH   8  23
BRANCH  13  25
ATOM     25  O   UNL     1       1.829   1.102  -1.745  0.00  0.00    -0.380 OA
ATOM     26  H   UNL     1       1.014   1.624  -1.673  0.00  0.00    +0.211 HD
ENDBRANCH  13  25
BRANCH  18  27
ATOM     27  O   UNL     1      -4.985  -1.559  -0.862  0.00  0.00    -0.384 OA
ATOM     28  H   UNL     1      -5.399  -0.780  -1.265  0.00  0.00    +0.210 HD
ENDBRANCH  18  27
BRANCH  12  29
ATOM     29  O   UNL     1      -0.453   2.125  -0.655  0.00  0.00    -0.447 OA
BRANCH  29  31
ATOM     30  O   UNL     1      -0.785   3.886   0.803  0.00  0.00    -0.250 OA
ATOM     31  C   UNL     1      -0.453   3.442  -0.288  0.00  0.00    +0.318 C 
ATOM     32  C   UNL     1       0.020   4.289  -1.430  0.00  0.00    +0.121 C 
ENDBRANCH  29  31
ENDBRANCH  12  29
TORSDOF 5
