REMARK  Name = 101935270
REMARK  6 active torsions:
REMARK  status: ('A' for Active; 'I' for Inactive)
REMARK    1  A    between atoms: C_9  and  C_25
REMARK    2  A    between atoms: C_10  and  C_22
REMARK    3  A    between atoms: C_25  and  C_26
REMARK    4  A    between atoms: C_26  and  C_27
REMARK    5  A    between atoms: C_27  and  C_28
REMARK    6  A    between atoms: C_33  and  O_34
REMARK                            x       y       z     vdW  Elec       q    Type
REMARK                         _______ _______ _______ _____ _____    ______ ____
ROOT
ATOM      1  O   UNL     1       2.434   1.385   0.182  0.00  0.00    -0.442 OA
ATOM      2  O   UNL     1       0.231   0.417   2.425  0.00  0.00    -0.271 OA
ATOM      3  O   UNL     1       1.234  -3.808  -0.082  0.00  0.00    -0.273 OA
ATOM      4  O   UNL     1       3.635   3.310   0.548  0.00  0.00    -0.248 OA
ATOM      5  O   UNL     1       5.848  -1.191   0.519  0.00  0.00    -0.269 OA
ATOM      6  N   UNL     1       0.346  -0.333   0.225  0.00  0.00    -0.295 N 
ATOM      7  N   UNL     1       2.487  -1.849   0.095  0.00  0.00    -0.279 N 
ATOM      8  N   UNL     1       4.303   0.023  -0.741  0.00  0.00    -0.292 N 
ATOM      9  C   UNL     1       0.075  -1.750   0.456  0.00  0.00    +0.149 C 
ATOM     10  C   UNL     1       1.219   1.873   0.785  0.00  0.00    +0.244 C 
ATOM     11  C   UNL     1       0.530   0.594   1.245  0.00  0.00    +0.263 C 
ATOM     12  C   UNL     1       1.317  -2.593   0.088  0.00  0.00    +0.244 C 
ATOM     13  C   UNL     1       4.735   1.386  -0.455  0.00  0.00    +0.172 C 
ATOM     14  C   UNL     1       3.556   2.153   0.154  0.00  0.00    +0.335 C 
ATOM     15  C   UNL     1       3.793  -2.227  -0.126  0.00  0.00    +0.104 C 
ATOM     16  C   UNL     1       5.210   2.071  -1.725  0.00  0.00    +0.033 C 
ATOM     17  C   UNL     1       4.784  -1.101  -0.084  0.00  0.00    +0.260 C 
ATOM     18  C   UNL     1       4.256  -3.462  -0.339  0.00  0.00    +0.021 C 
ATOM     19  H   UNL     1       0.401  -0.017  -0.706  0.00  0.00    +0.150 HD
ATOM     20  H   UNL     1       2.364  -0.892   0.291  0.00  0.00    +0.155 HD
ATOM     21  H   UNL     1       3.627  -0.109  -1.444  0.00  0.00    +0.150 HD
ENDROOT
BRANCH  10  22
ATOM     22  C   UNL     1       0.400   2.660  -0.222  0.00  0.00    +0.049 C 
ATOM     23  C   UNL     1       1.152   3.914  -0.675  0.00  0.00    +0.004 C 
ATOM     24  C   UNL     1      -0.962   3.042   0.361  0.00  0.00    +0.004 C 
ENDBRANCH  10  22
BRANCH   9  25
ATOM     25  C   UNL     1      -1.144  -2.194  -0.339  0.00  0.00    +0.029 C 
BRANCH  25  26
ATOM     26  C   UNL     1      -2.368  -1.340  -0.010  0.00  0.00    +0.007 C 
BRANCH  26  27
ATOM     27  C   UNL     1      -3.580  -1.765  -0.842  0.00  0.00    +0.026 C 
BRANCH  27  28
ATOM     28  C   UNL     1      -4.784  -0.907  -0.551  0.00  0.00    -0.022 C 
ATOM     29  C   UNL     1      -5.675  -1.273   0.458  0.00  0.00    -0.001 C 
ATOM     30  C   UNL     1      -5.008   0.254  -1.291  0.00  0.00    -0.001 C 
ATOM     31  C   UNL     1      -6.789  -0.478   0.727  0.00  0.00    +0.036 C 
ATOM     32  C   UNL     1      -6.123   1.049  -1.022  0.00  0.00    +0.036 C 
ATOM     33  C   UNL     1      -7.013   0.682  -0.013  0.00  0.00    +0.134 C 
BRANCH  33  34
ATOM     34  O   UNL     1      -8.100   1.458   0.250  0.00  0.00    -0.506 OA
ATOM     35  H   UNL     1      -8.698   1.212   0.928  0.00  0.00    +0.292 HD
ENDBRANCH  33  34
ENDBRANCH  27  28
ENDBRANCH  26  27
ENDBRANCH  25  26
ENDBRANCH   9  25
TORSDOF 6
