101935262
  -OEChem-03292013293D

 54 55  0     1  0  0  0  0  0999 V2000
    2.0195   -2.3364    1.5062 O   0  0  0  0  0  0  0  0  0  0  0  0
    0.9419   -0.1658    0.4644 O   0  0  0  0  0  0  0  0  0  0  0  0
    0.4761    0.1884   -1.7594 O   0  0  0  0  0  0  0  0  0  0  0  0
    2.5921    4.2226    0.6333 O   0  0  0  0  0  0  0  0  0  0  0  0
   -9.3648    0.3779   -1.4479 O   0  0  0  0  0  0  0  0  0  0  0  0
   -8.7376    1.0442    0.6421 O   0  0  0  0  0  0  0  0  0  0  0  0
    2.4862    1.8977    0.7095 N   0  0  0  0  0  0  0  0  0  0  0  0
    0.5887   -2.3318    1.4052 C   0  0  1  0  0  0  0  0  0  0  0  0
    1.2961   -1.9067    2.6699 C   0  0  0  0  0  0  0  0  0  0  0  0
    0.0516   -1.2859    0.4697 C   0  0  1  0  0  0  0  0  0  0  0  0
   -0.0131   -3.6970    1.3211 C   0  0  0  0  0  0  0  0  0  0  0  0
   -1.3277   -0.7938    0.8214 C   0  0  0  0  0  0  0  0  0  0  0  0
    1.0629    0.4884   -0.7247 C   0  0  0  0  0  0  0  0  0  0  0  0
    2.0128    1.6755   -0.6337 C   0  0  2  0  0  0  0  0  0  0  0  0
   -2.4349   -0.8090    0.0622 C   0  0  0  0  0  0  0  0  0  0  0  0
    3.1801    1.5562   -1.6246 C   0  0  0  0  0  0  0  0  0  0  0  0
    4.0871    0.3689   -1.3930 C   0  0  0  0  0  0  0  0  0  0  0  0
   -3.7480   -0.3274    0.4300 C   0  0  0  0  0  0  0  0  0  0  0  0
    2.7361    3.1585    1.2295 C   0  0  0  0  0  0  0  0  0  0  0  0
    5.1952    0.4906   -0.5545 C   0  0  0  0  0  0  0  0  0  0  0  0
    3.8157   -0.8481   -2.0178 C   0  0  0  0  0  0  0  0  0  0  0  0
   -4.8009   -0.3848   -0.4007 C   0  0  0  0  0  0  0  0  0  0  0  0
    6.0319   -0.6049   -0.3409 C   0  0  0  0  0  0  0  0  0  0  0  0
    4.6523   -1.9436   -1.8044 C   0  0  0  0  0  0  0  0  0  0  0  0
    3.1976    3.1064    2.6614 C   0  0  0  0  0  0  0  0  0  0  0  0
    5.7605   -1.8220   -0.9660 C   0  0  0  0  0  0  0  0  0  0  0  0
   -6.1173    0.0972   -0.0413 C   0  0  0  0  0  0  0  0  0  0  0  0
   -7.1631    0.0364   -0.8765 C   0  0  0  0  0  0  0  0  0  0  0  0
   -8.4769    0.5480   -0.4407 C   0  0  0  0  0  0  0  0  0  0  0  0
    1.3403   -0.8571    2.9309 H   0  0  0  0  0  0  0  0  0  0  0  0
    1.2829   -2.5734    3.5232 H   0  0  0  0  0  0  0  0  0  0  0  0
    0.0325   -1.7480   -0.5265 H   0  0  0  0  0  0  0  0  0  0  0  0
    0.0388   -4.0798    0.2966 H   0  0  0  0  0  0  0  0  0  0  0  0
   -1.0638   -3.6747    1.6271 H   0  0  0  0  0  0  0  0  0  0  0  0
    0.5070   -4.4110    1.9690 H   0  0  0  0  0  0  0  0  0  0  0  0
   -1.4129   -0.3688    1.8220 H   0  0  0  0  0  0  0  0  0  0  0  0
    1.4142    2.5534   -0.9094 H   0  0  0  0  0  0  0  0  0  0  0  0
   -2.3475   -1.2290   -0.9388 H   0  0  0  0  0  0  0  0  0  0  0  0
    2.7866    1.4994   -2.6486 H   0  0  0  0  0  0  0  0  0  0  0  0
    3.7847    2.4729   -1.5977 H   0  0  0  0  0  0  0  0  0  0  0  0
    2.6484    1.0843    1.2967 H   0  0  0  0  0  0  0  0  0  0  0  0
   -3.8554    0.0941    1.4265 H   0  0  0  0  0  0  0  0  0  0  0  0
    5.4190    1.4333   -0.0624 H   0  0  0  0  0  0  0  0  0  0  0  0
    2.9591   -0.9573   -2.6772 H   0  0  0  0  0  0  0  0  0  0  0  0
   -4.6858   -0.8076   -1.3964 H   0  0  0  0  0  0  0  0  0  0  0  0
    6.8947   -0.5102    0.3119 H   0  0  0  0  0  0  0  0  0  0  0  0
    4.4413   -2.8911   -2.2913 H   0  0  0  0  0  0  0  0  0  0  0  0
    2.3696    2.7882    3.3008 H   0  0  0  0  0  0  0  0  0  0  0  0
    3.5356    4.0974    2.9766 H   0  0  0  0  0  0  0  0  0  0  0  0
    4.0288    2.4029    2.7637 H   0  0  0  0  0  0  0  0  0  0  0  0
    6.4119   -2.6750   -0.7998 H   0  0  0  0  0  0  0  0  0  0  0  0
   -6.2299    0.5202    0.9539 H   0  0  0  0  0  0  0  0  0  0  0  0
   -7.0771   -0.3810   -1.8746 H   0  0  0  0  0  0  0  0  0  0  0  0
  -10.2588    0.7034   -1.2084 H   0  0  0  0  0  0  0  0  0  0  0  0
  1  8  1  0  0  0  0
  1  9  1  0  0  0  0
  2 10  1  0  0  0  0
  2 13  1  0  0  0  0
  3 13  2  0  0  0  0
  4 19  2  0  0  0  0
  5 29  1  0  0  0  0
  5 54  1  0  0  0  0
  6 29  2  0  0  0  0
  7 14  1  0  0  0  0
  7 19  1  0  0  0  0
  7 41  1  0  0  0  0
  8  9  1  0  0  0  0
  8 10  1  0  0  0  0
  8 11  1  0  0  0  0
  9 30  1  0  0  0  0
  9 31  1  0  0  0  0
 10 12  1  0  0  0  0
 10 32  1  0  0  0  0
 11 33  1  0  0  0  0
 11 34  1  0  0  0  0
 11 35  1  0  0  0  0
 12 15  2  0  0  0  0
 12 36  1  0  0  0  0
 13 14  1  0  0  0  0
 14 16  1  0  0  0  0
 14 37  1  0  0  0  0
 15 18  1  0  0  0  0
 15 38  1  0  0  0  0
 16 17  1  0  0  0  0
 16 39  1  0  0  0  0
 16 40  1  0  0  0  0
 17 20  2  0  0  0  0
 17 21  1  0  0  0  0
 18 22  2  0  0  0  0
 18 42  1  0  0  0  0
 19 25  1  0  0  0  0
 20 23  1  0  0  0  0
 20 43  1  0  0  0  0
 21 24  2  0  0  0  0
 21 44  1  0  0  0  0
 22 27  1  0  0  0  0
 22 45  1  0  0  0  0
 23 26  2  0  0  0  0
 23 46  1  0  0  0  0
 24 26  1  0  0  0  0
 24 47  1  0  0  0  0
 25 48  1  0  0  0  0
 25 49  1  0  0  0  0
 25 50  1  0  0  0  0
 26 51  1  0  0  0  0
 27 28  2  0  0  0  0
 27 52  1  0  0  0  0
 28 29  1  0  0  0  0
 28 53  1  0  0  0  0
M  END
> <PUBCHEM_COMPOUND_CID>
101935262

> <PUBCHEM_CONFORMER_RMSD>
1.2

> <PUBCHEM_CONFORMER_DIVERSEORDER>
1
60
23
28
58
53
81
69
34
27
44
55
71
65
51
68
40
38
56
50
4
77
17
15
52
13
18
86
19
49
20
21
36
25
82
35
41
37
70
7
79
85
89
39
80
63
75
59
66
22
32
14
45
16
57
76
78
29
67
33
48
11
9
12
73
6
47
83
10
5
87
61
46
43
64
88
62
31
24
30
26
8
84
74
54
42
3
2
72

> <PUBCHEM_MMFF94_PARTIAL_CHARGES>
44
1 -0.3
10 0.51
11 0.09
12 -0.29
13 0.66
14 0.36
15 -0.15
16 0.14
17 -0.14
18 -0.15
19 0.57
2 -0.43
20 -0.15
21 -0.15
22 -0.15
23 -0.15
24 -0.15
25 0.06
26 -0.15
27 -0.15
28 -0.14
29 0.71
3 -0.57
30 0.1
31 0.1
36 0.15
38 0.15
4 -0.57
41 0.37
42 0.15
43 0.15
44 0.15
45 0.15
46 0.15
47 0.15
5 -0.65
51 0.15
52 0.15
53 0.15
54 0.5
6 -0.57
7 -0.73
8 -0.04
9 -0.05

> <PUBCHEM_EFFECTIVE_ROTOR_COUNT>
12.6

> <PUBCHEM_PHARMACOPHORE_FEATURES>
8
1 1 acceptor
1 3 acceptor
1 4 acceptor
1 5 acceptor
1 6 acceptor
1 7 donor
3 5 6 29 anion
6 17 20 21 23 24 26 rings

> <PUBCHEM_HEAVY_ATOM_COUNT>
29

> <PUBCHEM_ATOM_DEF_STEREO_COUNT>
3

> <PUBCHEM_ATOM_UDEF_STEREO_COUNT>
0

> <PUBCHEM_BOND_DEF_STEREO_COUNT>
3

> <PUBCHEM_BOND_UDEF_STEREO_COUNT>
0

> <PUBCHEM_ISOTOPIC_ATOM_COUNT>
0

> <PUBCHEM_COMPONENT_COUNT>
1

> <PUBCHEM_CACTVS_TAUTO_COUNT>
6

> <PUBCHEM_CONFORMER_ID>
0613689E00000001

> <PUBCHEM_MMFF94_ENERGY>
54.8299

> <PUBCHEM_FEATURE_SELFOVERLAP>
40.654

> <PUBCHEM_SHAPE_FINGERPRINT>
11135609 127 17346027978623142833
11828532 37 18263936582538266599
12107698 1 17988928851428412965
12166972 35 15912782625955439036
15183329 4 17846511317990184597
18335252 114 18413105052967077677
20832881 197 18409738352652454818
21033648 29 18042405909900047897
22393880 68 18335138743550385515
23559900 14 18194130835669732756
24893992 56 17749114396227381139
249057 25 16916800586770103769
4066623 53 17632858616411992521
44317340 157 18201442545060172229
495365 180 17914341418847784384
504579 68 18410564099366292959
513532 50 18341323487781866578
59755656 215 17676209044195615111
6679774 75 17095509717538219642
7399639 24 17115804756719577290
9658208 31 18042691774201609571

> <PUBCHEM_SHAPE_MULTIPOLES>
556.61
19.82
3.56
2.16
62.88
1.62
-0.79
4.24
9.78
-5.49
-2.75
-2.42
-0.09
2.03

> <PUBCHEM_SHAPE_SELFOVERLAP>
1141.975

> <PUBCHEM_SHAPE_VOLUME>
318.2

> <PUBCHEM_COORDINATE_TYPE>
2
5
10

$$$$
