101960703
  -OEChem-03292013293D

 59 64  0     1  0  0  0  0  0999 V2000
    2.6048   -2.4800   -1.2629 O   0  0  0  0  0  0  0  0  0  0  0  0
   -0.2413   -0.0802    2.2490 O   0  0  0  0  0  0  0  0  0  0  0  0
    0.8580    1.9473    1.8630 O   0  0  0  0  0  0  0  0  0  0  0  0
   -0.4529    2.1253   -0.6549 O   0  0  0  0  0  0  0  0  0  0  0  0
    1.8286    1.1020   -1.7449 O   0  0  0  0  0  0  0  0  0  0  0  0
   -4.9854   -1.5593   -0.8620 O   0  0  0  0  0  0  0  0  0  0  0  0
   -0.7846    3.8863    0.8030 O   0  0  0  0  0  0  0  0  0  0  0  0
    1.4203    0.0205    0.4772 C   0  0  1  0  0  0  0  0  0  0  0  0
    0.7393   -1.1843   -0.2941 C   0  0  2  0  0  0  0  0  0  0  0  0
   -0.7588   -1.3361    0.1981 C   0  0  2  0  0  0  0  0  0  0  0  0
    1.5868   -2.4496   -0.2439 C   0  0  2  0  0  0  0  0  0  0  0  0
   -1.5174   -0.0490   -0.3114 C   0  0  2  0  0  0  0  0  0  0  0  0
    0.3018    0.7931    1.2330 C   0  0  1  0  0  0  0  0  0  0  0  0
    3.0618   -2.3724    0.0829 C   0  0  2  0  0  0  0  0  0  0  0  0
    2.4952   -0.4789    1.4922 C   0  0  0  0  0  0  0  0  0  0  0  0
    3.5674   -1.0419    0.5562 C   0  0  2  0  0  0  0  0  0  0  0  0
   -0.8833    1.2048    0.3424 C   0  0  1  0  0  0  0  0  0  0  0  0
    2.3521    0.8647   -0.4507 C   0  0  1  0  0  0  0  0  0  0  0  0
   -0.7088   -1.3341    1.7346 C   0  0  0  0  0  0  0  0  0  0  0  0
   -3.0941   -0.0930   -0.2510 C   0  0  0  0  0  0  0  0  0  0  0  0
   -1.4092   -2.6155   -0.3663 C   0  0  0  0  0  0  0  0  0  0  0  0
    3.6312    0.0515   -0.4863 C   0  0  0  0  0  0  0  0  0  0  0  0
   -3.5658   -1.4218   -0.9070 C   0  0  1  0  0  0  0  0  0  0  0  0
   -2.9276   -2.6528   -0.2712 C   0  0  0  0  0  0  0  0  0  0  0  0
   -3.7027    0.0575    1.1637 C   0  0  0  0  0  0  0  0  0  0  0  0
   -3.6634    1.0834   -1.0872 C   0  0  0  0  0  0  0  0  0  0  0  0
    4.6810    0.2813   -1.2834 C   0  0  0  0  0  0  0  0  0  0  0  0
   -0.4528    3.4422   -0.2878 C   0  0  0  0  0  0  0  0  0  0  0  0
    0.0199    4.2891   -1.4303 C   0  0  0  0  0  0  0  0  0  0  0  0
    0.6692   -0.9384   -1.3618 H   0  0  0  0  0  0  0  0  0  0  0  0
    1.0728   -3.3727   -0.0351 H   0  0  0  0  0  0  0  0  0  0  0  0
   -1.2969    0.0118   -1.3897 H   0  0  0  0  0  0  0  0  0  0  0  0
    3.5313   -3.2248    0.5528 H   0  0  0  0  0  0  0  0  0  0  0  0
    2.1196   -1.2314    2.1936 H   0  0  0  0  0  0  0  0  0  0  0  0
    2.8996    0.3507    2.0880 H   0  0  0  0  0  0  0  0  0  0  0  0
    4.5204   -1.1594    1.0830 H   0  0  0  0  0  0  0  0  0  0  0  0
   -1.6267    1.6958    0.9748 H   0  0  0  0  0  0  0  0  0  0  0  0
    2.5762    1.8357    0.0073 H   0  0  0  0  0  0  0  0  0  0  0  0
   -1.6712   -1.5463    2.1985 H   0  0  0  0  0  0  0  0  0  0  0  0
   -0.0364   -2.1172    2.1039 H   0  0  0  0  0  0  0  0  0  0  0  0
   -1.0261   -3.5035    0.1491 H   0  0  0  0  0  0  0  0  0  0  0  0
   -1.1335   -2.7225   -1.4239 H   0  0  0  0  0  0  0  0  0  0  0  0
   -3.2936   -1.4037   -1.9710 H   0  0  0  0  0  0  0  0  0  0  0  0
   -3.2967   -3.5556   -0.7748 H   0  0  0  0  0  0  0  0  0  0  0  0
   -3.2481   -2.7626    0.7709 H   0  0  0  0  0  0  0  0  0  0  0  0
    0.1249    2.5176    2.1478 H   0  0  0  0  0  0  0  0  0  0  0  0
   -4.7959    0.1334    1.1060 H   0  0  0  0  0  0  0  0  0  0  0  0
   -3.3675    0.9586    1.6818 H   0  0  0  0  0  0  0  0  0  0  0  0
   -4.7576    1.0505   -1.1374 H   0  0  0  0  0  0  0  0  0  0  0  0
   -3.2872    1.0568   -2.1161 H   0  0  0  0  0  0  0  0  0  0  0  0
   -3.3883    2.0524   -0.6575 H   0  0  0  0  0  0  0  0  0  0  0  0
   -3.4998   -0.7952    1.8100 H   0  0  0  0  0  0  0  0  0  0  0  0
    0.9587    1.5180   -1.6489 H   0  0  0  0  0  0  0  0  0  0  0  0
    4.6736    1.0959   -1.9992 H   0  0  0  0  0  0  0  0  0  0  0  0
    5.5675   -0.3416   -1.2331 H   0  0  0  0  0  0  0  0  0  0  0  0
   -5.2171   -2.3820   -1.3257 H   0  0  0  0  0  0  0  0  0  0  0  0
    1.0737    4.0825   -1.6321 H   0  0  0  0  0  0  0  0  0  0  0  0
   -0.0889    5.3452   -1.1677 H   0  0  0  0  0  0  0  0  0  0  0  0
   -0.5884    4.0908   -2.3165 H   0  0  0  0  0  0  0  0  0  0  0  0
  1 11  1  0  0  0  0
  1 14  1  0  0  0  0
  2 13  1  0  0  0  0
  2 19  1  0  0  0  0
  3 13  1  0  0  0  0
  3 46  1  0  0  0  0
  4 17  1  0  0  0  0
  4 28  1  0  0  0  0
  5 18  1  0  0  0  0
  5 53  1  0  0  0  0
  6 23  1  0  0  0  0
  6 56  1  0  0  0  0
  7 28  2  0  0  0  0
  8  9  1  0  0  0  0
  8 13  1  0  0  0  0
  8 15  1  0  0  0  0
  8 18  1  0  0  0  0
  9 10  1  0  0  0  0
  9 11  1  0  0  0  0
  9 30  1  0  0  0  0
 10 12  1  0  0  0  0
 10 19  1  0  0  0  0
 10 21  1  0  0  0  0
 11 14  1  0  0  0  0
 11 31  1  0  0  0  0
 12 17  1  0  0  0  0
 12 20  1  0  0  0  0
 12 32  1  0  0  0  0
 13 17  1  0  0  0  0
 14 16  1  0  0  0  0
 14 33  1  0  0  0  0
 15 16  1  0  0  0  0
 15 34  1  0  0  0  0
 15 35  1  0  0  0  0
 16 22  1  0  0  0  0
 16 36  1  0  0  0  0
 17 37  1  0  0  0  0
 18 22  1  0  0  0  0
 18 38  1  0  0  0  0
 19 39  1  0  0  0  0
 19 40  1  0  0  0  0
 20 23  1  0  0  0  0
 20 25  1  0  0  0  0
 20 26  1  0  0  0  0
 21 24  1  0  0  0  0
 21 41  1  0  0  0  0
 21 42  1  0  0  0  0
 22 27  2  0  0  0  0
 23 24  1  0  0  0  0
 23 43  1  0  0  0  0
 24 44  1  0  0  0  0
 24 45  1  0  0  0  0
 25 47  1  0  0  0  0
 25 48  1  0  0  0  0
 25 52  1  0  0  0  0
 26 49  1  0  0  0  0
 26 50  1  0  0  0  0
 26 51  1  0  0  0  0
 27 54  1  0  0  0  0
 27 55  1  0  0  0  0
 28 29  1  0  0  0  0
 29 57  1  0  0  0  0
 29 58  1  0  0  0  0
 29 59  1  0  0  0  0
M  END
> <PUBCHEM_COMPOUND_CID>
101960703

> <PUBCHEM_CONFORMER_RMSD>
0.8

> <PUBCHEM_CONFORMER_DIVERSEORDER>
1

> <PUBCHEM_MMFF94_PARTIAL_CHARGES>
27
1 -0.3
11 -0.05
13 0.56
14 -0.05
16 0.23
17 0.28
18 0.42
19 0.28
2 -0.56
22 -0.28
23 0.28
27 -0.3
28 0.66
29 0.06
3 -0.68
31 0.1
33 0.1
4 -0.43
46 0.4
5 -0.68
53 0.4
54 0.15
55 0.15
56 0.4
6 -0.68
7 -0.57
9 0.09

> <PUBCHEM_EFFECTIVE_ROTOR_COUNT>
4

> <PUBCHEM_PHARMACOPHORE_FEATURES>
13
1 1 acceptor
1 2 acceptor
1 3 acceptor
1 3 donor
1 5 acceptor
1 5 donor
1 6 acceptor
1 6 donor
1 7 acceptor
3 20 25 26 hydrophobe
6 10 12 20 21 23 24 rings
8 2 8 9 10 12 13 17 19 rings
9 1 8 9 11 14 15 16 18 22 rings

> <PUBCHEM_HEAVY_ATOM_COUNT>
29

> <PUBCHEM_ATOM_DEF_STEREO_COUNT>
11

> <PUBCHEM_ATOM_UDEF_STEREO_COUNT>
0

> <PUBCHEM_BOND_DEF_STEREO_COUNT>
0

> <PUBCHEM_BOND_UDEF_STEREO_COUNT>
0

> <PUBCHEM_ISOTOPIC_ATOM_COUNT>
0

> <PUBCHEM_COMPONENT_COUNT>
1

> <PUBCHEM_CACTVS_TAUTO_COUNT>
2

> <PUBCHEM_CONFORMER_ID>
0613CBFF00000001

> <PUBCHEM_MMFF94_ENERGY>
128.793

> <PUBCHEM_FEATURE_SELFOVERLAP>
66.044

> <PUBCHEM_SHAPE_FINGERPRINT>
10863032 1 18413105061008619574
10930396 42 17979043271923234312
10948715 1 17530971314787638470
11578080 2 17630585861125341712
116883 192 18267020561850392070
12035759 4 18263946417860290188
12422481 6 17692279351554922737
12553582 1 18411138056254873571
12788726 201 18261956237131276976
13140716 1 18339919432728587618
13224815 77 18273495675867995990
13911987 19 17972622119246677668
14790565 3 17981047414689339353
14955137 171 18194148367245849649
15210252 30 18261673765516522884
15664445 248 18270133429671719900
1601671 61 18343022194491795731
16752209 62 18123178009486843154
16945 1 18342168938808151562
17349148 13 18040153998838965794
17492 54 18262520415265860502
1813 80 18411422821445558271
20600515 1 17987254372301504644
20691752 17 18340190956129111747
20715895 44 17974274427108754357
20905425 154 18270959025407346502
21285901 2 18200027322838989487
22149856 69 17767404948951473619
23402539 116 18261103050531073354
23419403 2 17559378339983967912
23558518 356 18046068159825187626
23559900 14 18125709339311395959
238 59 17830458636723219767
2748010 2 18126551560437781274
350125 39 17979927003385853072
6287921 2 17763459913143977221
70251023 43 18269564835873464370
7164475 11 18264203613186461526
7364860 26 18050842522796922945
81228 2 18336549313377709704
9981440 41 17038658635521361705

> <PUBCHEM_SHAPE_MULTIPOLES>
555.72
6.69
4
1.56
0.9
3.92
-0.49
-3.29
2.27
0.78
1.02
-0.22
0.34
-0.34

> <PUBCHEM_SHAPE_SELFOVERLAP>
1229.243

> <PUBCHEM_SHAPE_VOLUME>
290.2

> <PUBCHEM_COORDINATE_TYPE>
2
5
10

$$$$
