REMARK  Name = 101940102
REMARK  13 active torsions:
REMARK  status: ('A' for Active; 'I' for Inactive)
REMARK    1  A    between atoms: C_5  and  C_32
REMARK    2  A    between atoms: C_11  and  C_14
REMARK    3  A    between atoms: C_15  and  C_18
REMARK    4  A    between atoms: N_17  and  CA_20
REMARK    5  A    between atoms: CA_20  and  C_22
REMARK    6  A    between atoms: CA_20  and  CB_25
REMARK    7  A    between atoms: C_22  and  O_23
REMARK    8  A    between atoms: CB_25  and  CG_26
REMARK    9  A    between atoms: CG_26  and  CD_29
REMARK   10  A    between atoms: C_32  and  C_33
REMARK   11  A    between atoms: C_33  and  C_34
REMARK   12  A    between atoms: C_34  and  C_35
REMARK   13  A    between atoms: C_35  and  C_36
REMARK                            x       y       z     vdW  Elec       q    Type
REMARK                         _______ _______ _______ _____ _____    ______ ____
ROOT
ATOM      1  O   UNL     1      -3.132   2.305   1.842  0.00  0.00    -0.354 OA
ATOM      2  N   UNL     1      -4.922   2.938  -0.778  0.00  0.00    +0.389 N 
ATOM      3  C   UNL     1      -2.869   2.263   0.432  0.00  0.00    +0.122 C 
ATOM      4  C   UNL     1      -3.662   1.184   1.120  0.00  0.00    +0.140 C 
ATOM      5  C   UNL     1      -5.155   1.155   0.939  0.00  0.00    +0.009 C 
ATOM      6  C   UNL     1      -3.575   3.343  -0.367  0.00  0.00    -0.007 C 
ATOM      7  C   UNL     1      -5.697   2.486   0.384  0.00  0.00    -0.078 C 
ATOM      8  C   UNL     1      -1.575   1.984  -0.210  0.00  0.00    +0.002 C 
ATOM      9  C   UNL     1      -2.647   3.535  -1.544  0.00  0.00    -0.045 C 
ATOM     10  C   UNL     1      -1.544   2.780  -1.424  0.00  0.00    -0.009 C 
ATOM     11  C   UNL     1      -0.578   1.186   0.186  0.00  0.00    -0.002 C 
ATOM     12  H   UNL     1      -4.852   2.177  -1.453  0.00  0.00    -0.084 HD
ATOM     13  H   UNL     1      -5.393   3.739  -1.199  0.00  0.00    -0.084 HD
ENDROOT
BRANCH  11  14
ATOM     14  C   UNL     1       0.653   1.023  -0.555  0.00  0.00    +0.004 C 
ATOM     15  C   UNL     1       1.643   0.219  -0.145  0.00  0.00    +0.058 C 
BRANCH  15  18
ATOM     16  O   UNL     1       3.058   0.703  -2.003  0.00  0.00    -0.270 OA
ATOM     17  N   UNL     1       3.793  -0.780  -0.371  0.00  0.00    -0.293 N 
ATOM     18  C   ACE A   0       2.889   0.093  -0.953  0.00  0.00    +0.246 C 
ATOM     19  H   UNL     1       3.548  -1.215   0.477  0.00  0.00    +0.150 HD
BRANCH  17  20
ATOM     20  CA  UNL     1       5.081  -1.081  -0.955  0.00  0.00    +0.172 C 
BRANCH  20  22
ATOM     21  OXT UNL     1       6.537  -2.996  -1.183  0.00  0.00    -0.248 OA
ATOM     22  C   UNL     1       5.516  -2.516  -0.702  0.00  0.00    +0.332 C 
BRANCH  22  23
ATOM     23  O   UNL     1       4.663  -3.240   0.060  0.00  0.00    -0.479 OA
ATOM     24  H   UNL     1       3.892  -2.839   0.411  0.00  0.00    +0.295 HD
ENDBRANCH  22  23
ENDBRANCH  20  22
BRANCH  20  25
ATOM     25  CB  UNL     1       6.154  -0.091  -0.487  0.00  0.00    +0.041 C 
BRANCH  25  26
ATOM     26  CG  UNL     1       6.519  -0.227   0.994  0.00  0.00    +0.087 C 
BRANCH  26  29
ATOM     27  OE1 UNL     1       8.114   1.518   0.548  0.00  0.00    -0.275 OA
ATOM     28  NE2 UNL     1       7.999   0.668   2.684  0.00  0.00    -0.329 N 
ATOM     29  CD  UNL     1       7.623   0.740   1.362  0.00  0.00    +0.219 C 
ATOM     30 HE21 UNL     1       8.711   1.256   3.026  0.00  0.00    +0.145 HD
ATOM     31 HE22 UNL     1       7.557   0.028   3.287  0.00  0.00    +0.145 HD
ENDBRANCH  26  29
ENDBRANCH  25  26
ENDBRANCH  20  25
ENDBRANCH  17  20
ENDBRANCH  15  18
ENDBRANCH  11  14
BRANCH   5  32
ATOM     32  C   UNL     1      -5.535  -0.012   0.019  0.00  0.00    +0.000 C 
BRANCH  32  33
ATOM     33  C   UNL     1      -5.486  -1.367   0.718  0.00  0.00    +0.000 C 
BRANCH  33  34
ATOM     34  C   UNL     1      -5.884  -2.535  -0.187  0.00  0.00    +0.000 C 
BRANCH  34  35
ATOM     35  C   UNL     1      -5.794  -3.869   0.558  0.00  0.00    +0.000 C 
BRANCH  35  36
ATOM     36  C   UNL     1      -6.154  -5.041  -0.355  0.00  0.00    +0.000 C 
ATOM     37  C   UNL     1      -6.034  -6.370   0.373  0.00  0.00    +0.000 C 
ENDBRANCH  35  36
ENDBRANCH  34  35
ENDBRANCH  33  34
ENDBRANCH  32  33
ENDBRANCH   5  32
TORSDOF 13
