10195250
  -OEChem-03292013303D

 56 60  0     1  0  0  0  0  0999 V2000
    5.5102   -0.3381   -1.3127 S   0  0  0  0  0  0  0  0  0  0  0  0
   -8.5959   -0.3395   -1.6469 O   0  0  0  0  0  0  0  0  0  0  0  0
   -0.2386    1.8378   -0.3349 O   0  0  0  0  0  0  0  0  0  0  0  0
   -6.4970   -0.9505    0.1760 N   0  0  0  0  0  0  0  0  0  0  0  0
    4.0894   -0.7649    0.7972 N   0  0  0  0  0  0  0  0  0  0  0  0
    2.0546    1.7417   -0.0321 N   0  0  0  0  0  0  0  0  0  0  0  0
    1.0604    3.2755   -1.6024 N   0  0  0  0  0  0  0  0  0  0  0  0
    4.5735    2.1054    2.9033 N   0  0  0  0  0  0  0  0  0  0  0  0
   -6.5067    0.3018   -0.5929 C   0  0  0  0  0  0  0  0  0  0  0  0
   -7.8735   -1.4103    0.4066 C   0  0  0  0  0  0  0  0  0  0  0  0
   -5.7891   -0.7762    1.4426 C   0  0  0  0  0  0  0  0  0  0  0  0
   -7.2612    0.0991   -1.9038 C   0  0  0  0  0  0  0  0  0  0  0  0
   -8.5950   -1.5734   -0.9281 C   0  0  0  0  0  0  0  0  0  0  0  0
   -4.3607   -0.3627    1.2356 C   0  0  0  0  0  0  0  0  0  0  0  0
   -3.5902   -1.0093    0.2767 C   0  0  0  0  0  0  0  0  0  0  0  0
   -3.8232    0.6620    2.0057 C   0  0  0  0  0  0  0  0  0  0  0  0
   -1.7157    0.4016    0.8535 C   0  0  0  0  0  0  0  0  0  0  0  0
   -2.2629   -0.6259    0.0850 C   0  0  0  0  0  0  0  0  0  0  0  0
   -2.4959    1.0456    1.8140 C   0  0  0  0  0  0  0  0  0  0  0  0
   -0.2965    0.8120    0.6487 C   0  0  0  0  0  0  0  0  0  0  0  0
    4.4502    1.6269    0.2976 C   0  0  1  0  0  0  0  0  0  0  0  0
    4.6108    0.1239    0.0343 C   0  0  0  0  0  0  0  0  0  0  0  0
    3.2646    2.2227   -0.3851 C   0  0  0  0  0  0  0  0  0  0  0  0
    5.2031   -1.9789   -0.8807 C   0  0  0  0  0  0  0  0  0  0  0  0
    4.4237   -2.0079    0.2797 C   0  0  0  0  0  0  0  0  0  0  0  0
    1.0062    2.3025   -0.6693 C   0  0  0  0  0  0  0  0  0  0  0  0
    3.4505    3.2153   -1.3257 C   0  0  0  0  0  0  0  0  0  0  0  0
    5.6217   -3.1556   -1.5223 C   0  0  0  0  0  0  0  0  0  0  0  0
    4.0514   -3.2603    0.8148 C   0  0  0  0  0  0  0  0  0  0  0  0
    5.2398   -4.3817   -0.9722 C   0  0  0  0  0  0  0  0  0  0  0  0
    4.4648   -4.4357    0.1811 C   0  0  0  0  0  0  0  0  0  0  0  0
    2.3009    3.7095   -1.9073 C   0  0  0  0  0  0  0  0  0  0  0  0
    4.5263    1.8877    1.7641 C   0  0  0  0  0  0  0  0  0  0  0  0
   -5.5006    0.6475   -0.8498 H   0  0  0  0  0  0  0  0  0  0  0  0
   -6.9970    1.0964   -0.0146 H   0  0  0  0  0  0  0  0  0  0  0  0
   -8.4178   -0.6876    1.0286 H   0  0  0  0  0  0  0  0  0  0  0  0
   -7.8703   -2.3738    0.9288 H   0  0  0  0  0  0  0  0  0  0  0  0
   -5.7772   -1.7236    1.9975 H   0  0  0  0  0  0  0  0  0  0  0  0
   -6.3105   -0.0448    2.0749 H   0  0  0  0  0  0  0  0  0  0  0  0
   -6.7559   -0.6255   -2.5541 H   0  0  0  0  0  0  0  0  0  0  0  0
   -7.3230    1.0465   -2.4489 H   0  0  0  0  0  0  0  0  0  0  0  0
   -9.6378   -1.8586   -0.7556 H   0  0  0  0  0  0  0  0  0  0  0  0
   -8.1348   -2.3557   -1.5440 H   0  0  0  0  0  0  0  0  0  0  0  0
   -3.9917   -1.8211   -0.3234 H   0  0  0  0  0  0  0  0  0  0  0  0
   -4.4197    1.1713    2.7574 H   0  0  0  0  0  0  0  0  0  0  0  0
   -1.6650   -1.1359   -0.6658 H   0  0  0  0  0  0  0  0  0  0  0  0
   -2.0817    1.8488    2.4178 H   0  0  0  0  0  0  0  0  0  0  0  0
    0.2919   -0.0592    0.3300 H   0  0  0  0  0  0  0  0  0  0  0  0
    0.1243    1.1715    1.5974 H   0  0  0  0  0  0  0  0  0  0  0  0
    5.3526    2.1143   -0.1044 H   0  0  0  0  0  0  0  0  0  0  0  0
    4.4258    3.5944   -1.6025 H   0  0  0  0  0  0  0  0  0  0  0  0
    6.2269   -3.1211   -2.4231 H   0  0  0  0  0  0  0  0  0  0  0  0
    3.4461   -3.3139    1.7153 H   0  0  0  0  0  0  0  0  0  0  0  0
    5.5532   -5.3045   -1.4532 H   0  0  0  0  0  0  0  0  0  0  0  0
    4.1773   -5.3985    0.5945 H   0  0  0  0  0  0  0  0  0  0  0  0
    2.3469    4.4916   -2.6576 H   0  0  0  0  0  0  0  0  0  0  0  0
  1 22  1  0  0  0  0
  1 24  1  0  0  0  0
  2 12  1  0  0  0  0
  2 13  1  0  0  0  0
  3 20  1  0  0  0  0
  3 26  1  0  0  0  0
  4  9  1  0  0  0  0
  4 10  1  0  0  0  0
  4 11  1  0  0  0  0
  5 22  2  0  0  0  0
  5 25  1  0  0  0  0
  6 23  2  0  0  0  0
  6 26  1  0  0  0  0
  7 26  2  0  0  0  0
  7 32  1  0  0  0  0
  8 33  3  0  0  0  0
  9 12  1  0  0  0  0
  9 34  1  0  0  0  0
  9 35  1  0  0  0  0
 10 13  1  0  0  0  0
 10 36  1  0  0  0  0
 10 37  1  0  0  0  0
 11 14  1  0  0  0  0
 11 38  1  0  0  0  0
 11 39  1  0  0  0  0
 12 40  1  0  0  0  0
 12 41  1  0  0  0  0
 13 42  1  0  0  0  0
 13 43  1  0  0  0  0
 14 15  2  0  0  0  0
 14 16  1  0  0  0  0
 15 18  1  0  0  0  0
 15 44  1  0  0  0  0
 16 19  2  0  0  0  0
 16 45  1  0  0  0  0
 17 18  2  0  0  0  0
 17 19  1  0  0  0  0
 17 20  1  0  0  0  0
 18 46  1  0  0  0  0
 19 47  1  0  0  0  0
 20 48  1  0  0  0  0
 20 49  1  0  0  0  0
 21 22  1  0  0  0  0
 21 23  1  0  0  0  0
 21 33  1  0  0  0  0
 21 50  1  0  0  0  0
 23 27  1  0  0  0  0
 24 25  1  0  0  0  0
 24 28  2  0  0  0  0
 25 29  2  0  0  0  0
 27 32  2  0  0  0  0
 27 51  1  0  0  0  0
 28 30  1  0  0  0  0
 28 52  1  0  0  0  0
 29 31  1  0  0  0  0
 29 53  1  0  0  0  0
 30 31  2  0  0  0  0
 30 54  1  0  0  0  0
 31 55  1  0  0  0  0
 32 56  1  0  0  0  0
M  END
> <PUBCHEM_COMPOUND_CID>
10195250

> <PUBCHEM_CONFORMER_RMSD>
1.2

> <PUBCHEM_CONFORMER_DIVERSEORDER>
1
247
19
280
205
123
26
114
2
112
36
182
193
221
168
102
39
161
142
21
241
113
15
52
90
277
180
218
203
216
289
32
131
169
197
208
103
292
173
225
132
188
128
69
223
134
6
93
3
235
73
30
54
259
279
107
5
37
163
143
246
115
224
260
291
217
136
120
119
245
248
162
126
99
80
43
46
215
255
104
171
189
12
184
31
283
230
204
78
146
24
174
238
57
156
34
211
121
272
48
178
122
7
8
117
165
151
135
141
265
27
270
127
118
207
14
252
10
53
191
253
271
88
237
72
290
166
38
144
51
214
269
190
20
276
219
172
76
187
23
192
18
257
200
150
74
61
176
267
194
140
109
287
212
66
124
185
130
89
145
44
41
85
87
83
81
108
148
234
198
68
240
254
264
33
274
96
175
183
101
286
71
11
153
28
160
262
139
284
13
177
220
201
209
196
195
106
179
77
63
159
278
133
42
261
229
25
17
49
275
22
45
35
266
155
281
47
55
186
210
285
9
273
94
138
79
97
98
263
213
75
16
110
67
84
154
29
236
167
157
288
91
158
59
60
228
105
95
56
111
62
282
86
100
242
50
239
170
4
251
244
152
199
149
233
249
226
250
227
82
147
206
256
125
58
65
129
164
92
268
181
70
137
222
231
202
116
64
40
243
232
258

> <PUBCHEM_MMFF94_PARTIAL_CHARGES>
43
1 -0.08
10 0.27
11 0.41
12 0.28
13 0.28
14 -0.14
15 -0.15
16 -0.15
17 -0.14
18 -0.15
19 -0.15
2 -0.56
20 0.42
21 0.52
22 0.2
23 0.17
24 0.04
25 0.23
26 0.7
27 -0.15
28 -0.15
29 -0.15
3 -0.36
30 -0.15
31 -0.15
32 0.16
33 0.36
4 -0.81
44 0.15
45 0.15
46 0.15
47 0.15
5 -0.57
51 0.15
52 0.15
53 0.15
54 0.15
55 0.15
56 0.15
6 -0.62
7 -0.62
8 -0.56
9 0.27

> <PUBCHEM_EFFECTIVE_ROTOR_COUNT>
8.2

> <PUBCHEM_PHARMACOPHORE_FEATURES>
11
1 2 acceptor
1 4 cation
1 5 acceptor
1 6 acceptor
1 8 acceptor
3 6 7 26 cation
5 1 5 22 24 25 rings
6 14 15 16 17 18 19 rings
6 2 4 9 10 12 13 rings
6 24 25 28 29 30 31 rings
6 6 7 23 26 27 32 rings

> <PUBCHEM_HEAVY_ATOM_COUNT>
33

> <PUBCHEM_ATOM_DEF_STEREO_COUNT>
0

> <PUBCHEM_ATOM_UDEF_STEREO_COUNT>
1

> <PUBCHEM_BOND_DEF_STEREO_COUNT>
0

> <PUBCHEM_BOND_UDEF_STEREO_COUNT>
0

> <PUBCHEM_ISOTOPIC_ATOM_COUNT>
0

> <PUBCHEM_COMPONENT_COUNT>
1

> <PUBCHEM_CACTVS_TAUTO_COUNT>
4

> <PUBCHEM_CONFORMER_ID>
009B913200000001

> <PUBCHEM_MMFF94_ENERGY>
80.9181

> <PUBCHEM_FEATURE_SELFOVERLAP>
55.899

> <PUBCHEM_SHAPE_FINGERPRINT>
10554248 39 18334300907263525421
10951579 204 17023176068893322341
11409948 41 18340757209630257047
12107183 9 17980221706825666480
12147406 95 17823125749497663498
12202916 173 17967811657317860778
12677640 9 17841156554081083529
13008946 170 18197498630421067049
13533116 47 18273218603369381568
1361 2 18408892845206513554
13726171 33 11885941183623860618
13835254 42 18343301444439201176
14118638 360 18201726158240097896
14565420 104 10519981556417101252
15183329 4 17894345601558954961
17852330 134 18263072233803338949
19315092 285 17917433077729961480
20775530 9 18192718835243311426
21133410 58 18187076282666020595
22002106 203 18269833117465216942
23524908 199 18337099100363722727
3044373 193 18260832635316598975
3534868 343 18263942075174912461
376196 1 8717671954155732516
397830 11 10879985879278476261
4144715 1 17677062368751730001
437795 70 17240483577087825517
4756326 101 15648490899428396094
4760202 70 8718239328057591529
5372103 7 15576433322258665694
57359948 33 15213289851045383356
57816373 69 17917436380433386550
59682541 52 18259987089326078101
6201320 221 17916853631250826647
6441014 3 17762338016216564714
9555976 147 16987168106523165371
9831232 110 18259705622850189711

> <PUBCHEM_SHAPE_MULTIPOLES>
646.33
23.25
4.88
2
50.33
2.13
0.44
16.77
-6.46
-12.7
-1.8
0.21
-1.12
0.74

> <PUBCHEM_SHAPE_SELFOVERLAP>
1396.892

> <PUBCHEM_SHAPE_VOLUME>
356

> <PUBCHEM_COORDINATE_TYPE>
2
5
10

$$$$
