REMARK  Name = 101934782
REMARK  12 active torsions:
REMARK  status: ('A' for Active; 'I' for Inactive)
REMARK    1  A    between atoms: N_2  and  C_17
REMARK    2  A    between atoms: C_3  and  C_5
REMARK    3  A    between atoms: C_5  and  C_6
REMARK    4  A    between atoms: C_5  and  C_10
REMARK    5  A    between atoms: C_6  and  C_7
REMARK    6  A    between atoms: C_10  and  C_13
REMARK    7  A    between atoms: N_12  and  O_15
REMARK    8  A    between atoms: C_17  and  C_20
REMARK    9  A    between atoms: C_17  and  C_26
REMARK   10  A    between atoms: N_19  and  C_22
REMARK   11  A    between atoms: C_22  and  C_23
REMARK   12  A    between atoms: C_26  and  C_27
REMARK                            x       y       z     vdW  Elec       q    Type
REMARK                         _______ _______ _______ _____ _____    ______ ____
ROOT
ATOM      1  O   UNL     1      -0.519   0.331  -1.943  0.00  0.00    -0.275 OA
ATOM      2  N   UNL     1      -0.039   0.343   0.325  0.00  0.00    -0.298 N 
ATOM      3  C   UNL     1      -0.861   0.160  -0.773  0.00  0.00    +0.223 C 
ATOM      4  H   UNL     1      -0.406   0.180   1.224  0.00  0.00    +0.150 HD
ENDROOT
BRANCH   3   5
ATOM      5  C   UNL     1      -2.280  -0.291  -0.425  0.00  0.00    +0.086 C 
BRANCH   5   6
ATOM      6  C   UNL     1      -3.323   0.233  -1.432  0.00  0.00    +0.010 C 
BRANCH   6   7
ATOM      7  C   UNL     1      -3.803   1.679  -1.183  0.00  0.00    +0.000 C 
ATOM      8  C   UNL     1      -4.876   2.120  -2.180  0.00  0.00    +0.000 C 
ATOM      9  C   UNL     1      -2.611   2.637  -1.253  0.00  0.00    +0.000 C 
ENDBRANCH   6   7
ENDBRANCH   5   6
BRANCH   5  10
ATOM     10  C   UNL     1      -2.333  -1.825  -0.313  0.00  0.00    +0.096 C 
BRANCH  10  13
ATOM     11  O   UNL     1      -4.597  -2.502   0.110  0.00  0.00    -0.273 OA
ATOM     12  N   UNL     1      -3.124  -2.397   1.888  0.00  0.00    -0.197 N 
ATOM     13  C   UNL     1      -3.478  -2.283   0.568  0.00  0.00    +0.245 C 
ATOM     14  H   UNL     1      -2.210  -2.209   2.203  0.00  0.00    +0.182 HD
BRANCH  12  15
ATOM     15  O   UNL     1      -4.143  -2.799   2.761  0.00  0.00    -0.295 OA
ATOM     16  H   UNL     1      -3.794  -2.849   3.665  0.00  0.00    +0.241 HD
ENDBRANCH  12  15
ENDBRANCH  10  13
ENDBRANCH   5  10
ENDBRANCH   3   5
BRANCH   2  17
ATOM     17  C   UNL     1       1.337   0.764   0.203  0.00  0.00    +0.149 C 
BRANCH  17  20
ATOM     18  O   UNL     1       1.908  -1.571   0.522  0.00  0.00    -0.273 OA
ATOM     19  N   UNL     1       3.222  -0.280  -0.892  0.00  0.00    -0.303 N 
ATOM     20  C   UNL     1       2.175  -0.494  -0.006  0.00  0.00    +0.240 C 
ATOM     21  H   UNL     1       3.347   0.625  -1.258  0.00  0.00    +0.149 HD
BRANCH  19  22
ATOM     22  C   UNL     1       4.137  -1.321  -1.302  0.00  0.00    +0.089 C 
BRANCH  22  23
ATOM     23  C   UNL     1       5.359  -1.419  -0.382  0.00  0.00    +0.020 C 
ATOM     24  C   UNL     1       6.126  -0.096  -0.386  0.00  0.00    +0.002 C 
ATOM     25  C   UNL     1       6.288  -2.563  -0.796  0.00  0.00    +0.002 C 
ENDBRANCH  22  23
ENDBRANCH  19  22
ENDBRANCH  17  20
BRANCH  17  26
ATOM     26  C   UNL     1       1.824   1.525   1.443  0.00  0.00    +0.029 C 
BRANCH  26  27
ATOM     27  C   UNL     1       1.016   2.795   1.781  0.00  0.00    +0.002 C 
ATOM     28  C   UNL     1       1.084   3.777   0.609  0.00  0.00    +0.000 C 
ATOM     29  C   UNL     1       1.512   3.479   3.055  0.00  0.00    +0.000 C 
ENDBRANCH  26  27
ENDBRANCH  17  26
ENDBRANCH   2  17
TORSDOF 12
