REMARK  Name = 101935262
REMARK  12 active torsions:
REMARK  status: ('A' for Active; 'I' for Inactive)
REMARK    1  A    between atoms: O_1  and  C_3
REMARK    2  A    between atoms: O_1  and  C_17
REMARK    3  A    between atoms: C_3  and  C_4
REMARK    4  A    between atoms: C_4  and  N_6
REMARK    5  A    between atoms: C_4  and  C_10
REMARK    6  A    between atoms: C_10  and  C_11
REMARK    7  A    between atoms: C_17  and  C_19
REMARK    8  A    between atoms: C_17  and  C_22
REMARK    9  A    between atoms: C_23  and  C_24
REMARK   10  A    between atoms: C_25  and  C_26
REMARK   11  A    between atoms: C_27  and  C_29
REMARK   12  A    between atoms: C_29  and  O_30
REMARK                            x       y       z     vdW  Elec       q    Type
REMARK                         _______ _______ _______ _____ _____    ______ ____
ROOT
ATOM      1  O   UNL     1       0.942  -0.166   0.464  0.00  0.00    -0.444 OA
ENDROOT
BRANCH   1   3
ATOM      2  O   UNL     1       0.476   0.188  -1.759  0.00  0.00    -0.248 OA
ATOM      3  C   UNL     1       1.063   0.488  -0.725  0.00  0.00    +0.336 C 
BRANCH   3   4
ATOM      4  C   UNL     1       2.013   1.675  -0.634  0.00  0.00    +0.176 C 
BRANCH   4   6
ATOM      5  O   UNL     1       2.592   4.223   0.633  0.00  0.00    -0.275 OA
ATOM      6  N   UNL     1       2.486   1.898   0.710  0.00  0.00    -0.297 N 
ATOM      7  C   UNL     1       2.736   3.159   1.230  0.00  0.00    +0.223 C 
ATOM      8  C   UNL     1       3.198   3.106   2.661  0.00  0.00    +0.095 C 
ATOM      9  H   UNL     1       2.640   1.115   1.287  0.00  0.00    +0.150 HD
ENDBRANCH   4   6
BRANCH   4  10
ATOM     10  C   UNL     1       3.180   1.556  -1.625  0.00  0.00    +0.057 C 
BRANCH  10  11
ATOM     11  C   UNL     1       4.087   0.369  -1.393  0.00  0.00    -0.020 C 
ATOM     12  C   UNL     1       5.195   0.491  -0.554  0.00  0.00    -0.004 C 
ATOM     13  C   UNL     1       3.816  -0.848  -2.018  0.00  0.00    -0.004 C 
ATOM     14  C   UNL     1       6.032  -0.605  -0.341  0.00  0.00    -0.000 C 
ATOM     15  C   UNL     1       4.652  -1.944  -1.804  0.00  0.00    -0.000 C 
ATOM     16  C   UNL     1       5.761  -1.822  -0.966  0.00  0.00    -0.000 C 
ENDBRANCH  10  11
ENDBRANCH   4  10
ENDBRANCH   3   4
ENDBRANCH   1   3
BRANCH   1  17
ATOM     17  C   UNL     1       0.052  -1.286   0.470  0.00  0.00    +0.218 C 
BRANCH  17  19
ATOM     18  O   UNL     1       2.019  -2.336   1.506  0.00  0.00    -0.350 OA
ATOM     19  C   UNL     1       0.589  -2.332   1.405  0.00  0.00    +0.161 C 
ATOM     20  C   UNL     1       1.296  -1.907   2.670  0.00  0.00    +0.173 C 
ATOM     21  C   UNL     1      -0.013  -3.697   1.321  0.00  0.00    +0.036 C 
ENDBRANCH  17  19
BRANCH  17  22
ATOM     22  C   UNL     1      -1.328  -0.794   0.821  0.00  0.00    +0.019 C 
ATOM     23  C   UNL     1      -2.435  -0.809   0.062  0.00  0.00    -0.001 C 
BRANCH  23  24
ATOM     24  C   UNL     1      -3.748  -0.327   0.430  0.00  0.00    -0.000 C 
ATOM     25  C   UNL     1      -4.801  -0.385  -0.401  0.00  0.00    +0.000 C 
BRANCH  25  26
ATOM     26  C   UNL     1      -6.117   0.097  -0.041  0.00  0.00    +0.007 C 
ATOM     27  C   UNL     1      -7.163   0.036  -0.876  0.00  0.00    +0.082 C 
BRANCH  27  29
ATOM     28  O   UNL     1      -8.738   1.044   0.642  0.00  0.00    -0.245 OA
ATOM     29  C   UNL     1      -8.477   0.548  -0.441  0.00  0.00    +0.338 C 
BRANCH  29  30
ATOM     30  O   UNL     1      -9.365   0.378  -1.448  0.00  0.00    -0.477 OA
ATOM     31  H   UNL     1      -9.090  -0.012  -2.254  0.00  0.00    +0.295 HD
ENDBRANCH  29  30
ENDBRANCH  27  29
ENDBRANCH  25  26
ENDBRANCH  23  24
ENDBRANCH  17  22
ENDBRANCH   1  17
TORSDOF 12
