101919087
  -OEChem-03292013293D

 50 50  0     1  0  0  0  0  0999 V2000
    0.0915   -1.0087    0.2565 O   0  0  0  0  0  0  0  0  0  0  0  0
   -1.2138   -4.3454   -0.5027 O   0  0  0  0  0  0  0  0  0  0  0  0
    1.4649   -4.8745    0.4463 O   0  0  0  0  0  0  0  0  0  0  0  0
    3.2834   -2.6887   -0.3257 O   0  0  0  0  0  0  0  0  0  0  0  0
    2.2576   -0.1540    0.4030 O   0  0  0  0  0  0  0  0  0  0  0  0
   -2.5068   -0.3204   -0.3183 O   0  0  0  0  0  0  0  0  0  0  0  0
    0.9741    1.4742   -0.5935 O   0  0  0  0  0  0  0  0  0  0  0  0
   -4.6031   -0.4618    0.6183 O   0  0  0  0  0  0  0  0  0  0  0  0
    4.9774    2.7046   -1.1832 O   0  0  0  0  0  0  0  0  0  0  0  0
   -3.0052    3.4538    1.4482 O   0  0  0  0  0  0  0  0  0  0  0  0
   -0.3818   -3.3831    0.1399 C   0  0  1  0  0  0  0  0  0  0  0  0
    1.0796   -3.6650   -0.2089 C   0  0  1  0  0  0  0  0  0  0  0  0
   -0.7877   -1.9792   -0.3148 C   0  0  1  0  0  0  0  0  0  0  0  0
    1.9883   -2.5251    0.2517 C   0  0  2  0  0  0  0  0  0  0  0  0
    1.4388   -1.1661   -0.1821 C   0  0  1  0  0  0  0  0  0  0  0  0
   -2.2059   -1.6308    0.1259 C   0  0  0  0  0  0  0  0  0  0  0  0
    1.9124    1.1314    0.1141 C   0  0  0  0  0  0  0  0  0  0  0  0
   -3.7499    0.1550   -0.0061 C   0  0  0  0  0  0  0  0  0  0  0  0
    2.8464    2.1078    0.7472 C   0  0  0  0  0  0  0  0  0  0  0  0
   -3.9764    1.5280   -0.5447 C   0  0  0  0  0  0  0  0  0  0  0  0
    3.0350    3.4329    0.0455 C   0  0  0  0  0  0  0  0  0  0  0  0
   -2.7608    2.4101   -0.7114 C   0  0  0  0  0  0  0  0  0  0  0  0
    3.4476    1.8369    1.9163 C   0  0  0  0  0  0  0  0  0  0  0  0
    3.6870    3.2841   -1.3264 C   0  0  0  0  0  0  0  0  0  0  0  0
   -2.0921    2.7474    0.6185 C   0  0  0  0  0  0  0  0  0  0  0  0
   -5.2004    1.9366   -0.9138 C   0  0  0  0  0  0  0  0  0  0  0  0
   -0.5302   -3.4926    1.2212 H   0  0  0  0  0  0  0  0  0  0  0  0
    1.1964   -3.8494   -1.2832 H   0  0  0  0  0  0  0  0  0  0  0  0
   -0.7410   -1.8898   -1.4087 H   0  0  0  0  0  0  0  0  0  0  0  0
    2.1212   -2.5551    1.3397 H   0  0  0  0  0  0  0  0  0  0  0  0
    1.4949   -1.0585   -1.2742 H   0  0  0  0  0  0  0  0  0  0  0  0
   -2.2740   -1.6537    1.2204 H   0  0  0  0  0  0  0  0  0  0  0  0
   -2.9274   -2.3379   -0.2988 H   0  0  0  0  0  0  0  0  0  0  0  0
   -1.1001   -4.2470   -1.4634 H   0  0  0  0  0  0  0  0  0  0  0  0
    1.3885   -4.7364    1.4058 H   0  0  0  0  0  0  0  0  0  0  0  0
    3.1875   -2.6644   -1.2931 H   0  0  0  0  0  0  0  0  0  0  0  0
    2.0630    3.9289   -0.0620 H   0  0  0  0  0  0  0  0  0  0  0  0
    3.6596    4.0934    0.6606 H   0  0  0  0  0  0  0  0  0  0  0  0
   -3.0535    3.3496   -1.1984 H   0  0  0  0  0  0  0  0  0  0  0  0
   -2.0370    1.9302   -1.3805 H   0  0  0  0  0  0  0  0  0  0  0  0
    3.0914    2.6534   -1.9939 H   0  0  0  0  0  0  0  0  0  0  0  0
    3.8018    4.2682   -1.7923 H   0  0  0  0  0  0  0  0  0  0  0  0
    4.1113    2.5567    2.3846 H   0  0  0  0  0  0  0  0  0  0  0  0
    3.2941    0.9016    2.4439 H   0  0  0  0  0  0  0  0  0  0  0  0
   -1.7579    1.8502    1.1489 H   0  0  0  0  0  0  0  0  0  0  0  0
   -1.2215    3.3881    0.4440 H   0  0  0  0  0  0  0  0  0  0  0  0
   -5.3649    2.9272   -1.3246 H   0  0  0  0  0  0  0  0  0  0  0  0
   -6.0675    1.2918   -0.8154 H   0  0  0  0  0  0  0  0  0  0  0  0
    5.3603    2.6378   -2.0745 H   0  0  0  0  0  0  0  0  0  0  0  0
   -2.5379    3.6596    2.2757 H   0  0  0  0  0  0  0  0  0  0  0  0
  1 13  1  0  0  0  0
  1 15  1  0  0  0  0
  2 11  1  0  0  0  0
  2 34  1  0  0  0  0
  3 12  1  0  0  0  0
  3 35  1  0  0  0  0
  4 14  1  0  0  0  0
  4 36  1  0  0  0  0
  5 15  1  0  0  0  0
  5 17  1  0  0  0  0
  6 16  1  0  0  0  0
  6 18  1  0  0  0  0
  7 17  2  0  0  0  0
  8 18  2  0  0  0  0
  9 24  1  0  0  0  0
  9 49  1  0  0  0  0
 10 25  1  0  0  0  0
 10 50  1  0  0  0  0
 11 12  1  0  0  0  0
 11 13  1  0  0  0  0
 11 27  1  0  0  0  0
 12 14  1  0  0  0  0
 12 28  1  0  0  0  0
 13 16  1  0  0  0  0
 13 29  1  0  0  0  0
 14 15  1  0  0  0  0
 14 30  1  0  0  0  0
 15 31  1  0  0  0  0
 16 32  1  0  0  0  0
 16 33  1  0  0  0  0
 17 19  1  0  0  0  0
 18 20  1  0  0  0  0
 19 21  1  0  0  0  0
 19 23  2  0  0  0  0
 20 22  1  0  0  0  0
 20 26  2  0  0  0  0
 21 24  1  0  0  0  0
 21 37  1  0  0  0  0
 21 38  1  0  0  0  0
 22 25  1  0  0  0  0
 22 39  1  0  0  0  0
 22 40  1  0  0  0  0
 23 43  1  0  0  0  0
 23 44  1  0  0  0  0
 24 41  1  0  0  0  0
 24 42  1  0  0  0  0
 25 45  1  0  0  0  0
 25 46  1  0  0  0  0
 26 47  1  0  0  0  0
 26 48  1  0  0  0  0
M  END
> <PUBCHEM_COMPOUND_CID>
101919087

> <PUBCHEM_CONFORMER_RMSD>
1

> <PUBCHEM_CONFORMER_DIVERSEORDER>
1
17
54
96
117
52
101
58
11
68
94
34
112
64
118
36
102
73
66
28
60
111
103
65
57
40
62
75
51
84
27
39
82
98
90
115
8
92
106
24
77
55
38
95
53
69
31
114
47
70
56
104
33
105
67
42
6
78
37
30
113
72
85
35
80
97
14
81
44
3
15
109
119
32
99
46
45
74
63
79
110
4
87
89
10
21
59
23
100
13
18
86
43
91
116
19
22
2
20
83
108
26
29
9
76
93
49
71
7
48
50
88
61
16
41
5
107
12
25

> <PUBCHEM_MMFF94_PARTIAL_CHARGES>
35
1 -0.56
10 -0.68
11 0.28
12 0.28
13 0.28
14 0.28
15 0.56
16 0.28
17 0.71
18 0.71
19 -0.12
2 -0.68
20 -0.12
21 0.14
22 0.14
23 -0.3
24 0.28
25 0.28
26 -0.3
3 -0.68
34 0.4
35 0.4
36 0.4
4 -0.68
43 0.15
44 0.15
47 0.15
48 0.15
49 0.4
5 -0.43
50 0.4
6 -0.43
7 -0.57
8 -0.57
9 -0.68

> <PUBCHEM_EFFECTIVE_ROTOR_COUNT>
12.2

> <PUBCHEM_PHARMACOPHORE_FEATURES>
16
1 1 acceptor
1 10 acceptor
1 10 donor
1 2 acceptor
1 2 donor
1 23 hydrophobe
1 26 hydrophobe
1 3 acceptor
1 3 donor
1 4 acceptor
1 4 donor
1 7 acceptor
1 8 acceptor
1 9 acceptor
1 9 donor
6 1 11 12 13 14 15 rings

> <PUBCHEM_HEAVY_ATOM_COUNT>
26

> <PUBCHEM_ATOM_DEF_STEREO_COUNT>
5

> <PUBCHEM_ATOM_UDEF_STEREO_COUNT>
0

> <PUBCHEM_BOND_DEF_STEREO_COUNT>
0

> <PUBCHEM_BOND_UDEF_STEREO_COUNT>
0

> <PUBCHEM_ISOTOPIC_ATOM_COUNT>
0

> <PUBCHEM_COMPONENT_COUNT>
1

> <PUBCHEM_CACTVS_TAUTO_COUNT>
1

> <PUBCHEM_CONFORMER_ID>
0613296F00000001

> <PUBCHEM_MMFF94_ENERGY>
54.5367

> <PUBCHEM_FEATURE_SELFOVERLAP>
81.217

> <PUBCHEM_SHAPE_FINGERPRINT>
10670039 82 18120375621142478164
11370993 70 18339065047748658137
11725454 13 16771241851400857896
12107183 9 18191845981908817264
12553582 1 17475232401440143737
12788726 201 17612865315930793106
13140716 1 18337669831606679891
13533116 47 18197773311560777621
138480 1 17978224963591293861
14114211 68 18338252513051068725
14251757 5 17905622347195014564
14466204 15 18049432652432103482
14790565 3 18338803291419944798
15081414 286 18051981311631855455
15210252 30 17904215723961905966
17818456 19 18193819656635835048
18785283 64 18335700486142866307
19930381 70 18411411792254710185
21860390 5 17983854476121406799
23559900 14 18267291046211702417
350125 39 18411143493699502457
5252454 2 18199758109883028547
5939293 188 18122053213487387347
7808743 9 18048318035509965572
9981440 41 18337380660237589369

> <PUBCHEM_SHAPE_MULTIPOLES>
476.37
8.64
6.72
1.09
3.79
5.45
0.19
-9.66
-1.1
-3.15
-0.22
-0.63
-1.02
-0.54

> <PUBCHEM_SHAPE_SELFOVERLAP>
958.332

> <PUBCHEM_SHAPE_VOLUME>
275.6

> <PUBCHEM_COORDINATE_TYPE>
2
5
10

$$$$
