REMARK  Name = 101992
REMARK  8 active torsions:
REMARK  status: ('A' for Active; 'I' for Inactive)
REMARK    1  A    between atoms: C_2  and  O_7
REMARK    2  A    between atoms: C_3  and  O_9
REMARK    3  A    between atoms: C_4  and  O_11
REMARK    4  A    between atoms: C_5  and  C_23
REMARK    5  A    between atoms: C_6  and  S_13
REMARK    6  A    between atoms: S_13  and  C_14
REMARK    7  A    between atoms: C_15  and  N_22
REMARK    8  A    between atoms: C_23  and  O_24
REMARK                            x       y       z     vdW  Elec       q    Type
REMARK                         _______ _______ _______ _____ _____    ______ ____
ROOT
ATOM      1  O   UNL     1      -0.901   0.570   0.091  0.00  0.00    -0.340 OA
ATOM      2  C   UNL     1      -3.508  -0.470  -0.483  0.00  0.00    +0.170 C 
ATOM      3  C   UNL     1      -3.301   0.918   0.124  0.00  0.00    +0.169 C 
ATOM      4  C   UNL     1      -2.332  -1.398  -0.165  0.00  0.00    +0.178 C 
ATOM      5  C   UNL     1      -1.940   1.472  -0.306  0.00  0.00    +0.175 C 
ATOM      6  C   UNL     1      -1.005  -0.715  -0.525  0.00  0.00    +0.196 C 
ENDROOT
BRANCH   2   7
ATOM      7  O   UNL     1      -4.710  -1.049   0.020  0.00  0.00    -0.379 OA
ATOM      8  H   UNL     1      -5.458  -0.465  -0.179  0.00  0.00    +0.211 HD
ENDBRANCH   2   7
BRANCH   3   9
ATOM      9  O   UNL     1      -3.339   0.828   1.550  0.00  0.00    -0.379 OA
ATOM     10  H   UNL     1      -4.199   0.477   1.829  0.00  0.00    +0.211 HD
ENDBRANCH   3   9
BRANCH   4  11
ATOM     11  O   UNL     1      -2.476  -2.592  -0.933  0.00  0.00    -0.379 OA
ATOM     12  H   UNL     1      -3.315  -3.023  -0.706  0.00  0.00    +0.211 HD
ENDBRANCH   4  11
BRANCH   6  13
ATOM     13  S   UNL     1       0.401  -1.764  -0.004  0.00  0.00    -0.081 S 
BRANCH  13  14
ATOM     14  C   UNL     1       1.785  -0.766  -0.536  0.00  0.00    +0.050 C 
ATOM     15  C   UNL     1       2.750  -0.288   0.355  0.00  0.00    +0.149 C 
ATOM     16  C   UNL     1       1.888  -0.462  -1.896  0.00  0.00    +0.008 C 
ATOM     17  C   UNL     1       3.811   0.487  -0.111  0.00  0.00    +0.025 C 
ATOM     18  C   UNL     1       2.950   0.313  -2.362  0.00  0.00    +0.001 C 
ATOM     19  C   UNL     1       3.911   0.788  -1.470  0.00  0.00    +0.002 C 
BRANCH  15  22
ATOM     20  O   UNL     1       3.583  -0.114   2.498  0.00  0.00    -0.126 OA
ATOM     21  O   UNL     1       1.740  -1.265   2.184  0.00  0.00    -0.126 OA
ATOM     22  N   UNL     1       2.688  -0.570   1.750  0.00  0.00    +0.058 N 
ENDBRANCH  15  22
ENDBRANCH  13  14
ENDBRANCH   6  13
BRANCH   5  23
ATOM     23  C   UNL     1      -1.636   2.824   0.331  0.00  0.00    +0.169 C 
BRANCH  23  24
ATOM     24  O   UNL     1      -0.361   3.255  -0.110  0.00  0.00    -0.379 OA
ATOM     25  H   UNL     1      -0.155   4.115   0.288  0.00  0.00    +0.211 HD
ENDBRANCH  23  24
ENDBRANCH   5  23
TORSDOF 8
