REMARK  Name = 101995634
REMARK  9 active torsions:
REMARK  status: ('A' for Active; 'I' for Inactive)
REMARK    1  A    between atoms: C_5  and  O_31
REMARK    2  A    between atoms: C_6  and  C_13
REMARK    3  A    between atoms: C_7  and  O_11
REMARK    4  A    between atoms: C_8  and  C_15
REMARK    5  A    between atoms: C_16  and  C_17
REMARK    6  A    between atoms: C_18  and  C_19
REMARK    7  A    between atoms: C_20  and  C_23
REMARK    8  A    between atoms: C_25  and  O_29
REMARK    9  A    between atoms: O_31  and  C_33
REMARK                            x       y       z     vdW  Elec       q    Type
REMARK                         _______ _______ _______ _____ _____    ______ ____
ROOT
ATOM      1  O   UNL     1      -5.456  -1.539   0.803  0.00  0.00    -0.352 OA
ATOM      2  O   UNL     1      -3.530  -0.377  -1.190  0.00  0.00    -0.348 OA
ATOM      3  C   UNL     1      -4.965  -0.440  -1.230  0.00  0.00    +0.157 C 
ATOM      4  C   UNL     1      -5.178  -0.131   1.048  0.00  0.00    +0.159 C 
ATOM      5  C   UNL     1      -5.561   0.566  -0.258  0.00  0.00    +0.222 C 
ATOM      6  C   UNL     1      -5.547  -1.726  -0.630  0.00  0.00    +0.143 C 
ATOM      7  C   UNL     1      -3.661   0.021   1.263  0.00  0.00    +0.170 C 
ATOM      8  C   UNL     1      -2.887  -0.576   0.075  0.00  0.00    +0.166 C 
ATOM      9  C   UNL     1      -5.381  -0.210  -2.677  0.00  0.00    +0.036 C 
ATOM     10  C   UNL     1      -6.004   0.344   2.236  0.00  0.00    +0.036 C 
ENDROOT
BRANCH   7  11
ATOM     11  O   UNL     1      -3.244  -0.657   2.448  0.00  0.00    -0.379 OA
ATOM     12  H   UNL     1      -3.720  -0.296   3.212  0.00  0.00    +0.211 HD
ENDBRANCH   7  11
BRANCH   6  13
ATOM     13  C   UNL     1      -4.920  -3.043  -1.051  0.00  0.00    +0.032 C 
ATOM     14  C   UNL     1      -5.526  -4.219  -0.303  0.00  0.00    +0.003 C 
ENDBRANCH   6  13
BRANCH   8  15
ATOM     15  C   UNL     1      -1.514   0.014  -0.027  0.00  0.00    +0.005 C 
ATOM     16  C   UNL     1      -0.328  -0.611   0.048  0.00  0.00    -0.002 C 
BRANCH  16  17
ATOM     17  C   UNL     1       0.981  -0.005  -0.055  0.00  0.00    -0.000 C 
ATOM     18  C   UNL     1       2.117  -0.715   0.033  0.00  0.00    +0.000 C 
BRANCH  18  19
ATOM     19  C   UNL     1       3.431  -0.116  -0.071  0.00  0.00    +0.003 C 
ATOM     20  C   UNL     1       4.565  -0.826   0.017  0.00  0.00    +0.037 C 
BRANCH  20  23
ATOM     21  O   UNL     1       5.796   1.162  -0.287  0.00  0.00    -0.421 OA
ATOM     22  O   UNL     1       6.857   3.147  -0.591  0.00  0.00    -0.244 OA
ATOM     23  C   UNL     1       5.872  -0.241  -0.085  0.00  0.00    +0.148 C 
ATOM     24  C   UNL     1       7.055  -0.882  -0.008  0.00  0.00    +0.047 C 
ATOM     25  C   UNL     1       8.259  -0.080  -0.140  0.00  0.00    +0.144 C 
ATOM     26  C   UNL     1       7.202  -2.367   0.205  0.00  0.00    +0.037 C 
ATOM     27  C   UNL     1       6.914   1.935  -0.415  0.00  0.00    +0.349 C 
ATOM     28  C   UNL     1       8.210   1.242  -0.332  0.00  0.00    +0.119 C 
BRANCH  25  29
ATOM     29  O   UNL     1       9.500  -0.691  -0.067  0.00  0.00    -0.471 OA
ATOM     30  C   UNL     1       9.962  -0.720   1.268  0.00  0.00    +0.252 C 
ENDBRANCH  25  29
ENDBRANCH  20  23
ENDBRANCH  18  19
ENDBRANCH  16  17
ENDBRANCH   8  15
BRANCH   5  31
ATOM     31  O   UNL     1      -5.033   1.869  -0.381  0.00  0.00    -0.447 OA
BRANCH  31  33
ATOM     32  O   UNL     1      -6.977   2.768   0.485  0.00  0.00    -0.250 OA
ATOM     33  C   UNL     1      -5.849   2.893   0.029  0.00  0.00    +0.318 C 
ATOM     34  C   UNL     1      -5.162   4.212  -0.160  0.00  0.00    +0.121 C 
ENDBRANCH  31  33
ENDBRANCH   5  31
TORSDOF 9
