101932819
  -OEChem-03292013293D

 59 61  0     1  0  0  0  0  0999 V2000
    5.4067   -0.7650   -1.5609 O   0  0  0  0  0  0  0  0  0  0  0  0
    4.5150   -2.9534    1.2667 O   0  0  0  0  0  0  0  0  0  0  0  0
    5.9347    0.4641    1.6989 O   0  0  0  0  0  0  0  0  0  0  0  0
    1.7003   -0.5487   -0.2696 O   0  0  0  0  0  0  0  0  0  0  0  0
    0.2360   -0.2267    1.4985 O   0  0  0  0  0  0  0  0  0  0  0  0
   -1.3047    1.6095   -0.1824 O   0  0  0  0  0  0  0  0  0  0  0  0
   -4.1344   -0.4418   -1.5029 O   0  0  0  0  0  0  0  0  0  0  0  0
   -8.5696    0.5906   -0.2826 O   0  0  0  0  0  0  0  0  0  0  0  0
   -2.9492   -1.7316    0.0340 N   0  0  0  0  0  0  0  0  0  0  0  0
   -8.6215   -0.0643    0.9558 N   0  0  0  0  0  0  0  0  0  0  0  0
    5.5053   -1.7448   -0.5165 C   0  0  1  0  0  0  0  0  0  0  0  0
    6.2898   -0.4377   -0.4830 C   0  0  2  0  0  0  0  0  0  0  0  0
    4.2454   -1.9764    0.2593 C   0  0  1  0  0  0  0  0  0  0  0  0
    5.9157    0.7894    0.3088 C   0  0  1  0  0  0  0  0  0  0  0  0
    3.0926   -2.4741   -0.6304 C   0  0  0  0  0  0  0  0  0  0  0  0
    1.7309   -1.9862   -0.1062 C   0  0  2  0  0  0  0  0  0  0  0  0
    4.6301    1.4895   -0.0748 C   0  0  0  0  0  0  0  0  0  0  0  0
    0.5866   -2.5893   -0.9122 C   0  0  0  0  0  0  0  0  0  0  0  0
    3.5445    1.6324    0.7028 C   0  0  0  0  0  0  0  0  0  0  0  0
    2.3078    2.2745    0.2365 C   0  0  0  0  0  0  0  0  0  0  0  0
   -0.7096   -2.4780   -0.1725 C   0  0  0  0  0  0  0  0  0  0  0  0
    0.9486    0.1742    0.5953 C   0  0  0  0  0  0  0  0  0  0  0  0
    1.0748    1.5946    0.2223 C   0  0  0  0  0  0  0  0  0  0  0  0
    2.3321    3.6221   -0.1533 C   0  0  0  0  0  0  0  0  0  0  0  0
   -0.1023    2.2511   -0.1547 C   0  0  0  0  0  0  0  0  0  0  0  0
   -1.7720   -1.8144   -0.6439 C   0  0  0  0  0  0  0  0  0  0  0  0
    1.1586    4.2724   -0.5428 C   0  0  0  0  0  0  0  0  0  0  0  0
   -0.0559    3.5893   -0.5400 C   0  0  0  0  0  0  0  0  0  0  0  0
   -4.0619   -1.0483   -0.4385 C   0  0  0  0  0  0  0  0  0  0  0  0
   -5.2060   -1.1277    0.5132 C   0  0  0  0  0  0  0  0  0  0  0  0
   -6.3604   -0.5224    0.2136 C   0  0  0  0  0  0  0  0  0  0  0  0
   -7.4762   -0.6209    1.1755 C   0  0  0  0  0  0  0  0  0  0  0  0
   -9.8317    1.1981   -0.5139 C   0  0  0  0  0  0  0  0  0  0  0  0
    6.0323   -2.6579   -0.7640 H   0  0  0  0  0  0  0  0  0  0  0  0
    7.3570   -0.5041   -0.6592 H   0  0  0  0  0  0  0  0  0  0  0  0
    3.9510   -1.0771    0.7961 H   0  0  0  0  0  0  0  0  0  0  0  0
    6.7126    1.5293    0.1616 H   0  0  0  0  0  0  0  0  0  0  0  0
    3.2162   -2.0926   -1.6515 H   0  0  0  0  0  0  0  0  0  0  0  0
    3.1013   -3.5695   -0.6806 H   0  0  0  0  0  0  0  0  0  0  0  0
    1.6524   -2.2483    0.9576 H   0  0  0  0  0  0  0  0  0  0  0  0
    4.6094    1.8907   -1.0871 H   0  0  0  0  0  0  0  0  0  0  0  0
    4.7504   -3.7874    0.8252 H   0  0  0  0  0  0  0  0  0  0  0  0
    0.7676   -3.6570   -1.0854 H   0  0  0  0  0  0  0  0  0  0  0  0
    0.5172   -2.1060   -1.8947 H   0  0  0  0  0  0  0  0  0  0  0  0
    6.8252    0.1361    1.9119 H   0  0  0  0  0  0  0  0  0  0  0  0
    3.5133    1.2244    1.7084 H   0  0  0  0  0  0  0  0  0  0  0  0
   -0.7744   -2.9864    0.7871 H   0  0  0  0  0  0  0  0  0  0  0  0
    3.2625    4.1861   -0.1460 H   0  0  0  0  0  0  0  0  0  0  0  0
   -1.7303   -1.3078   -1.6023 H   0  0  0  0  0  0  0  0  0  0  0  0
    1.1924    5.3164   -0.8412 H   0  0  0  0  0  0  0  0  0  0  0  0
   -0.9627    4.1062   -0.8424 H   0  0  0  0  0  0  0  0  0  0  0  0
   -2.9982   -2.2023    0.9345 H   0  0  0  0  0  0  0  0  0  0  0  0
   -1.2344    0.7341    0.2289 H   0  0  0  0  0  0  0  0  0  0  0  0
   -5.0743   -1.6817    1.4370 H   0  0  0  0  0  0  0  0  0  0  0  0
   -6.4668    0.0243   -0.7148 H   0  0  0  0  0  0  0  0  0  0  0  0
   -7.3071   -1.1908    2.1029 H   0  0  0  0  0  0  0  0  0  0  0  0
   -9.7975    1.7108   -1.4788 H   0  0  0  0  0  0  0  0  0  0  0  0
  -10.0491    1.9333    0.2671 H   0  0  0  0  0  0  0  0  0  0  0  0
  -10.6192    0.4389   -0.5471 H   0  0  0  0  0  0  0  0  0  0  0  0
  1 11  1  0  0  0  0
  1 12  1  0  0  0  0
  2 13  1  0  0  0  0
  2 42  1  0  0  0  0
  3 14  1  0  0  0  0
  3 45  1  0  0  0  0
  4 16  1  0  0  0  0
  4 22  1  0  0  0  0
  5 22  2  0  0  0  0
  6 25  1  0  0  0  0
  6 53  1  0  0  0  0
  7 29  2  0  0  0  0
  8 10  1  0  0  0  0
  8 33  1  0  0  0  0
  9 26  1  0  0  0  0
  9 29  1  0  0  0  0
  9 52  1  0  0  0  0
 10 32  2  0  0  0  0
 11 12  1  0  0  0  0
 11 13  1  0  0  0  0
 11 34  1  0  0  0  0
 12 14  1  0  0  0  0
 12 35  1  0  0  0  0
 13 15  1  0  0  0  0
 13 36  1  0  0  0  0
 14 17  1  0  0  0  0
 14 37  1  0  0  0  0
 15 16  1  0  0  0  0
 15 38  1  0  0  0  0
 15 39  1  0  0  0  0
 16 18  1  0  0  0  0
 16 40  1  0  0  0  0
 17 19  2  0  0  0  0
 17 41  1  0  0  0  0
 18 21  1  0  0  0  0
 18 43  1  0  0  0  0
 18 44  1  0  0  0  0
 19 20  1  0  0  0  0
 19 46  1  0  0  0  0
 20 23  2  0  0  0  0
 20 24  1  0  0  0  0
 21 26  2  0  0  0  0
 21 47  1  0  0  0  0
 22 23  1  0  0  0  0
 23 25  1  0  0  0  0
 24 27  2  0  0  0  0
 24 48  1  0  0  0  0
 25 28  2  0  0  0  0
 26 49  1  0  0  0  0
 27 28  1  0  0  0  0
 27 50  1  0  0  0  0
 28 51  1  0  0  0  0
 29 30  1  0  0  0  0
 30 31  2  0  0  0  0
 30 54  1  0  0  0  0
 31 32  1  0  0  0  0
 31 55  1  0  0  0  0
 32 56  1  0  0  0  0
 33 57  1  0  0  0  0
 33 58  1  0  0  0  0
 33 59  1  0  0  0  0
M  END
> <PUBCHEM_COMPOUND_CID>
101932819

> <PUBCHEM_CONFORMER_RMSD>
1.2

> <PUBCHEM_CONFORMER_DIVERSEORDER>
6
177
41
130
15
38
90
127
60
79
43
171
50
84
57
134
47
68
174
139
40
173
34
2
161
31
82
78
35
83
24
145
29
55
19
103
66
71
93
110
140
75
163
170
97
99
100
102
58
30
117
52
178
17
86
27
56
11
115
129
148
126
73
101
168
14
158
39
146
119
45
113
70
51
81
13
92
89
142
69
121
12
80
162
144
128
159
123
7
120
179
137
77
5
49
164
25
33
98
124
76
46
9
149
114
157
94
22
104
133
44
176
116
4
150
125
42
88
155
167
156
175
91
153
108
109
74
96
16
166
32
172
111
152
135
36
65
154
59
23
3
132
136
28
10
105
53
95
18
20
8
64
54
61
48
169
143
147
87
37
63
141
26
21
62
107
106
85
165
122
1
138
67
160
131
72
112
151
118

> <PUBCHEM_MMFF94_PARTIAL_CHARGES>
48
1 -0.3
10 -0.51
11 -0.05
12 -0.05
13 0.38
14 0.51
16 0.28
17 -0.29
18 0.14
19 -0.18
2 -0.68
20 0.03
21 -0.29
22 0.63
23 0.09
24 -0.15
25 0.08
26 -0.04
27 -0.15
28 -0.15
29 0.62
3 -0.68
30 -0.14
31 -0.14
32 0.38
33 0.28
34 0.1
35 0.1
4 -0.43
41 0.15
42 0.4
45 0.4
46 0.15
47 0.15
48 0.15
49 0.15
5 -0.57
50 0.15
51 0.15
52 0.37
53 0.45
54 0.15
55 0.15
56 0.06
6 -0.53
7 -0.57
8 -0.22
9 -0.54

> <PUBCHEM_EFFECTIVE_ROTOR_COUNT>
8.2

> <PUBCHEM_PHARMACOPHORE_FEATURES>
11
1 1 acceptor
1 10 acceptor
1 2 acceptor
1 2 donor
1 3 acceptor
1 3 donor
1 5 acceptor
1 6 donor
1 7 acceptor
1 9 donor
6 20 23 24 25 27 28 rings

> <PUBCHEM_HEAVY_ATOM_COUNT>
33

> <PUBCHEM_ATOM_DEF_STEREO_COUNT>
2

> <PUBCHEM_ATOM_UDEF_STEREO_COUNT>
3

> <PUBCHEM_BOND_DEF_STEREO_COUNT>
4

> <PUBCHEM_BOND_UDEF_STEREO_COUNT>
0

> <PUBCHEM_ISOTOPIC_ATOM_COUNT>
0

> <PUBCHEM_COMPONENT_COUNT>
1

> <PUBCHEM_CACTVS_TAUTO_COUNT>
28

> <PUBCHEM_CONFORMER_ID>
06135F1300000006

> <PUBCHEM_MMFF94_ENERGY>
85.4442

> <PUBCHEM_FEATURE_SELFOVERLAP>
55.826

> <PUBCHEM_SHAPE_FINGERPRINT>
10675989 125 18266742579152169396
10816530 90 18334299803034820260
12788726 201 18262235509280706434
14020679 6 18113901623205097715
14117953 113 18341900696578272324
14170010 4 18413392050686259299
14400156 260 18335982052152745000
14849402 71 18337116756357136383
14918310 93 17774736255301382766
15064986 96 17987813994299239855
15183329 4 18343867714770554491
15439362 3 18193841667663030248
15840311 113 17561081423149235050
16087824 20 18411139129833751996
16992787 43 18337398235645210596
18335252 114 18412258450625663581
18365409 1 16630232697990902111
20721686 56 18408604761129143521
21792934 111 18340760456155832674
24771293 8 18129647742801572706
3178227 256 18334857259408669049
4093350 32 17132119048095884734
4144715 1 17899141791448780003
484989 97 18266179427445464150

> <PUBCHEM_SHAPE_MULTIPOLES>
622.21
20.96
4.29
1.09
56.7
3.2
-0.12
-1.71
-2.05
-4.26
0.74
-0.2
-0.22
0.62

> <PUBCHEM_SHAPE_SELFOVERLAP>
1298.693

> <PUBCHEM_SHAPE_VOLUME>
348.6

> <PUBCHEM_COORDINATE_TYPE>
2
5
10

$$$$
