REMARK  Name = 102093878
REMARK  9 active torsions:
REMARK  status: ('A' for Active; 'I' for Inactive)
REMARK    1  A    between atoms: C_5  and  O_22
REMARK    2  A    between atoms: C_8  and  O_24
REMARK    3  A    between atoms: C_17  and  O_26
REMARK    4  A    between atoms: C_19  and  O_28
REMARK    5  A    between atoms: C_19  and  C_32
REMARK    6  A    between atoms: C_20  and  O_30
REMARK    7  A    between atoms: C_20  and  C_37
REMARK    8  A    between atoms: C_33  and  C_34
REMARK    9  A    between atoms: C_38  and  C_39
REMARK                            x       y       z     vdW  Elec       q    Type
REMARK                         _______ _______ _______ _____ _____    ______ ____
ROOT
ATOM      1  O   UNL     1      -0.406  -2.854   0.472  0.00  0.00    -0.329 OA
ATOM      2  O   UNL     1      -0.143   1.270  -0.293  0.00  0.00    -0.291 OA
ATOM      3  O   UNL     1      -0.481  -1.785   2.926  0.00  0.00    -0.289 OA
ATOM      4  C   UNL     1       0.047  -1.040  -1.015  0.00  0.00    +0.111 C 
ATOM      5  C   UNL     1      -0.728  -2.383  -0.861  0.00  0.00    +0.214 C 
ATOM      6  C   UNL     1       1.331  -1.393  -0.208  0.00  0.00    +0.072 C 
ATOM      7  C   UNL     1       0.799  -2.242   0.941  0.00  0.00    +0.154 C 
ATOM      8  C   UNL     1      -2.269  -2.298  -0.975  0.00  0.00    +0.139 C 
ATOM      9  C   UNL     1      -0.713   0.191  -0.464  0.00  0.00    +0.176 C 
ATOM     10  C   UNL     1       0.417  -0.687  -2.469  0.00  0.00    +0.013 C 
ATOM     11  C   UNL     1      -2.798  -1.243   0.003  0.00  0.00    +0.064 C 
ATOM     12  C   UNL     1       2.289  -0.306   0.232  0.00  0.00    +0.048 C 
ATOM     13  C   UNL     1      -2.188   0.097  -0.245  0.00  0.00    +0.049 C 
ATOM     14  C   UNL     1       0.415  -1.421   2.164  0.00  0.00    +0.197 C 
ATOM     15  C   UNL     1       1.766  -3.341   1.380  0.00  0.00    +0.038 C 
ATOM     16  C   UNL     1      -2.792  -2.048  -2.397  0.00  0.00    +0.035 C 
ATOM     17  C   UNL     1       2.049   0.309   1.539  0.00  0.00    +0.131 C 
ATOM     18  C   UNL     1       1.182  -0.169   2.450  0.00  0.00    +0.049 C 
ATOM     19  C   UNL     1       3.352  -0.013  -0.540  0.00  0.00    +0.133 C 
ATOM     20  C   UNL     1      -2.911   1.224  -0.310  0.00  0.00    +0.132 C 
ATOM     21  C   UNL     1       0.891   0.488   3.769  0.00  0.00    +0.037 C 
ENDROOT
BRANCH   5  22
ATOM     22  O   UNL     1      -0.214  -3.329  -1.807  0.00  0.00    -0.362 OA
ATOM     23  H   UNL     1       0.752  -3.374  -1.727  0.00  0.00    +0.213 HD
ENDBRANCH   5  22
BRANCH   8  24
ATOM     24  O   UNL     1      -2.829  -3.551  -0.546  0.00  0.00    -0.382 OA
ATOM     25  H   UNL     1      -2.525  -3.751   0.353  0.00  0.00    +0.210 HD
ENDBRANCH   8  24
BRANCH  17  26
ATOM     26  O   UNL     1       2.720   1.495   1.807  0.00  0.00    -0.506 OA
ATOM     27  H   UNL     1       3.327   1.841   1.182  0.00  0.00    +0.292 HD
ENDBRANCH  17  26
BRANCH  19  28
ATOM     28  O   UNL     1       3.542  -0.616  -1.765  0.00  0.00    -0.506 OA
ATOM     29  H   UNL     1       2.923  -1.246  -2.078  0.00  0.00    +0.292 HD
ENDBRANCH  19  28
BRANCH  20  30
ATOM     30  O   UNL     1      -2.327   2.447  -0.572  0.00  0.00    -0.506 OA
ATOM     31  H   UNL     1      -1.402   2.505  -0.709  0.00  0.00    +0.292 HD
ENDBRANCH  20  30
BRANCH  19  32
ATOM     32  C   UNL     1       4.358   0.947  -0.137  0.00  0.00    +0.036 C 
ATOM     33  C   UNL     1       5.440   1.285  -0.857  0.00  0.00    +0.003 C 
BRANCH  33  34
ATOM     34  C   UNL     1       6.414   2.254  -0.403  0.00  0.00    -0.004 C 
ATOM     35  C   UNL     1       7.497   2.596  -1.118  0.00  0.00    -0.026 C 
ATOM     36  C   UNL     1       8.509   3.594  -0.661  0.00  0.00    +0.031 C 
ENDBRANCH  33  34
ENDBRANCH  19  32
BRANCH  20  37
ATOM     37  C   UNL     1      -4.348   1.237  -0.112  0.00  0.00    +0.036 C 
ATOM     38  C   UNL     1      -5.131   2.327  -0.164  0.00  0.00    +0.003 C 
BRANCH  38  39
ATOM     39  C   UNL     1      -6.562   2.276   0.042  0.00  0.00    -0.004 C 
ATOM     40  C   UNL     1      -7.349   3.361  -0.008  0.00  0.00    -0.026 C 
ATOM     41  C   UNL     1      -8.827   3.323   0.202  0.00  0.00    +0.031 C 
ENDBRANCH  38  39
ENDBRANCH  20  37
TORSDOF 9
