REMARK  Name = 102043608
REMARK  1 active torsions:
REMARK  status: ('A' for Active; 'I' for Inactive)
REMARK    1  A    between atoms: C_16  and  O_38
REMARK                            x       y       z     vdW  Elec       q    Type
REMARK                         _______ _______ _______ _____ _____    ______ ____
ROOT
ATOM      1  O   UNL     1      -0.525   1.230   1.347  0.00  0.00    -0.311 OA
ATOM      2  O   UNL     1      -3.702   1.754   1.398  0.00  0.00    -0.273 OA
ATOM      3  O   UNL     1      -4.492  -3.183   0.445  0.00  0.00    -0.273 OA
ATOM      4  O   UNL     1       0.701   3.374  -0.129  0.00  0.00    -0.287 OA
ATOM      5  O   UNL     1       6.038  -0.165  -0.205  0.00  0.00    -0.479 OA
ATOM      6  N   UNL     1      -4.572   0.150  -0.050  0.00  0.00    -0.273 N 
ATOM      7  N   UNL     1      -3.035  -1.533   1.222  0.00  0.00    -0.295 N 
ATOM      8  N   UNL     1       1.126  -0.112   0.212  0.00  0.00    -0.374 NA
ATOM      9  C   UNL     1      -1.819  -0.452  -0.594  0.00  0.00    +0.036 C 
ATOM     10  C   UNL     1      -2.396  -0.259   0.840  0.00  0.00    +0.178 C 
ATOM     11  C   UNL     1      -4.260  -1.073  -0.778  0.00  0.00    +0.129 C 
ATOM     12  C   UNL     1      -0.888   0.723  -1.050  0.00  0.00    +0.047 C 
ATOM     13  C   UNL     1      -2.960  -0.868  -1.571  0.00  0.00    +0.029 C 
ATOM     14  C   UNL     1       0.141   0.971   0.105  0.00  0.00    +0.194 C 
ATOM     15  C   UNL     1      -3.616   0.689   0.800  0.00  0.00    +0.247 C 
ATOM     16  C   UNL     1      -1.303   0.137   1.837  0.00  0.00    +0.259 C 
ATOM     17  C   UNL     1      -5.501  -1.336  -1.629  0.00  0.00    +0.029 C 
ATOM     18  C   UNL     1      -3.999  -2.066   0.356  0.00  0.00    +0.239 C 
ATOM     19  C   UNL     1      -5.898   0.652  -0.336  0.00  0.00    +0.094 C 
ATOM     20  C   UNL     1      -6.612  -0.571  -0.897  0.00  0.00    +0.024 C 
ATOM     21  C   UNL     1      -0.186   0.332  -2.372  0.00  0.00    +0.005 C 
ATOM     22  C   UNL     1      -1.689   2.020  -1.331  0.00  0.00    +0.005 C 
ATOM     23  C   UNL     1       1.036   2.205  -0.090  0.00  0.00    +0.215 C 
ATOM     24  C   UNL     1       2.409   0.385   0.029  0.00  0.00    +0.036 C 
ATOM     25  C   UNL     1       2.422   1.764  -0.162  0.00  0.00    +0.051 C 
ATOM     26  C   UNL     1       3.611  -0.316   0.025  0.00  0.00    +0.046 C 
ATOM     27  C   UNL     1       3.569   2.503  -0.358  0.00  0.00    +0.007 C 
ATOM     28  C   UNL     1       4.796   0.409  -0.177  0.00  0.00    +0.140 C 
ATOM     29  C   UNL     1       4.773   1.805  -0.367  0.00  0.00    +0.037 C 
ATOM     30  C   UNL     1       3.678  -1.755   0.217  0.00  0.00    +0.003 C 
ATOM     31  C   UNL     1       6.164  -1.589  -0.014  0.00  0.00    +0.152 C 
ATOM     32  C   UNL     1       4.875  -2.344   0.198  0.00  0.00    +0.013 C 
ATOM     33  C   UNL     1       6.869  -2.132  -1.263  0.00  0.00    +0.048 C 
ATOM     34  C   UNL     1       7.069  -1.781   1.209  0.00  0.00    +0.048 C 
ATOM     35  H   UNL     1      -2.791  -1.994   2.058  0.00  0.00    +0.150 HD
ATOM     36  H   UNL     1       0.907  -1.055   0.388  0.00  0.00    +0.126 HD
ATOM     37  H   UNL     1       1.443  -0.773   0.868  0.00  0.00    +0.126 HD
ENDROOT
BRANCH  16  38
ATOM     38  O   UNL     1      -1.822   0.432   3.133  0.00  0.00    -0.359 OA
ATOM     39  H   UNL     1      -1.094   0.676   3.725  0.00  0.00    +0.213 HD
ENDBRANCH  16  38
TORSDOF 1
