10206893
  -OEChem-03292013303D

 77 80  0     1  0  0  0  0  0999 V2000
    1.7166   -0.0763   -0.0596 O   0  0  0  0  0  0  0  0  0  0  0  0
   -1.3717   -3.2805    0.5339 O   0  0  0  0  0  0  0  0  0  0  0  0
    3.7874   -0.2312   -1.1273 O   0  0  0  0  0  0  0  0  0  0  0  0
    0.4762   -4.7335   -0.8257 O   0  0  0  0  0  0  0  0  0  0  0  0
    2.9779    1.2693    2.1175 O   0  0  0  0  0  0  0  0  0  0  0  0
    5.7551    0.5307    2.4001 O   0  0  0  0  0  0  0  0  0  0  0  0
    7.1562    0.7997   -0.1804 O   0  0  0  0  0  0  0  0  0  0  0  0
   -1.8844   -2.3446    2.5827 O   0  0  0  0  0  0  0  0  0  0  0  0
   -0.2576    0.8377   -1.2554 C   0  0  1  0  0  0  0  0  0  0  0  0
   -1.9090    2.9251    0.2390 C   0  0  1  0  0  0  0  0  0  0  0  0
   -1.2439    0.4357   -0.0946 C   0  0  1  0  0  0  0  0  0  0  0  0
   -2.3570    1.4812    0.0480 C   0  0  0  0  0  0  0  0  0  0  0  0
    0.2313    2.3064   -1.0019 C   0  0  0  0  0  0  0  0  0  0  0  0
   -0.8928    3.3284   -0.8408 C   0  0  0  0  0  0  0  0  0  0  0  0
   -3.2158    3.7222    0.0588 C   0  0  0  0  0  0  0  0  0  0  0  0
   -3.7037    1.4018    0.0758 C   0  0  0  0  0  0  0  0  0  0  0  0
    1.0343   -0.0497   -1.3143 C   0  0  2  0  0  0  0  0  0  0  0  0
   -1.7506   -1.0237   -0.1199 C   0  0  0  0  0  0  0  0  0  0  0  0
   -4.3365    2.7379    0.3491 C   0  0  0  0  0  0  0  0  0  0  0  0
   -0.9681    0.7817   -2.6331 C   0  0  0  0  0  0  0  0  0  0  0  0
   -1.3490    3.1518    1.6540 C   0  0  0  0  0  0  0  0  0  0  0  0
   -0.6836   -2.1079    0.0823 C   0  0  2  0  0  0  0  0  0  0  0  0
   -4.6245    0.2406   -0.0843 C   0  0  0  0  0  0  0  0  0  0  0  0
    0.8573   -1.4681   -1.7709 C   0  0  0  0  0  0  0  0  0  0  0  0
    0.0999   -2.4050   -1.1755 C   0  0  0  0  0  0  0  0  0  0  0  0
   -5.5334    0.4232   -1.3003 C   0  0  0  0  0  0  0  0  0  0  0  0
   -5.4552    0.0356    1.1819 C   0  0  0  0  0  0  0  0  0  0  0  0
    3.0202    0.4939   -0.1681 C   0  0  2  0  0  0  0  0  0  0  0  0
    0.0155   -3.7864   -1.7682 C   0  0  0  0  0  0  0  0  0  0  0  0
    3.6804    0.4207    1.2098 C   0  0  1  0  0  0  0  0  0  0  0  0
    5.1392    0.8740    1.1580 C   0  0  2  0  0  0  0  0  0  0  0  0
   -2.1124   -3.1231    1.6667 C   0  0  0  0  0  0  0  0  0  0  0  0
    5.8849    0.1902    0.0128 C   0  0  1  0  0  0  0  0  0  0  0  0
    5.0967    0.3047   -1.2843 C   0  0  0  0  0  0  0  0  0  0  0  0
   -3.2797   -4.0624    1.6345 C   0  0  0  0  0  0  0  0  0  0  0  0
   -0.6717    0.5098    0.8419 H   0  0  0  0  0  0  0  0  0  0  0  0
    0.8424    2.3428   -0.0932 H   0  0  0  0  0  0  0  0  0  0  0  0
    0.8823    2.6311   -1.8239 H   0  0  0  0  0  0  0  0  0  0  0  0
   -0.4602    4.3085   -0.6026 H   0  0  0  0  0  0  0  0  0  0  0  0
   -1.3869    3.4533   -1.8124 H   0  0  0  0  0  0  0  0  0  0  0  0
   -3.2759    4.6036    0.7073 H   0  0  0  0  0  0  0  0  0  0  0  0
   -3.3253    4.0857   -0.9717 H   0  0  0  0  0  0  0  0  0  0  0  0
    1.6706    0.4152   -2.0833 H   0  0  0  0  0  0  0  0  0  0  0  0
   -2.4815   -1.0877    0.6838 H   0  0  0  0  0  0  0  0  0  0  0  0
   -2.2866   -1.2292   -1.0548 H   0  0  0  0  0  0  0  0  0  0  0  0
   -4.6514    2.8057    1.3963 H   0  0  0  0  0  0  0  0  0  0  0  0
   -5.1954    2.9598   -0.2890 H   0  0  0  0  0  0  0  0  0  0  0  0
   -0.2980    1.1242   -3.4302 H   0  0  0  0  0  0  0  0  0  0  0  0
   -1.8621    1.4115   -2.6685 H   0  0  0  0  0  0  0  0  0  0  0  0
   -1.2901   -0.2317   -2.8913 H   0  0  0  0  0  0  0  0  0  0  0  0
   -2.0751    2.8642    2.4235 H   0  0  0  0  0  0  0  0  0  0  0  0
   -0.4363    2.5761    1.8375 H   0  0  0  0  0  0  0  0  0  0  0  0
   -1.1049    4.2087    1.8105 H   0  0  0  0  0  0  0  0  0  0  0  0
    0.0200   -1.8282    0.8767 H   0  0  0  0  0  0  0  0  0  0  0  0
   -4.1146   -0.6949   -0.2754 H   0  0  0  0  0  0  0  0  0  0  0  0
    1.4032   -1.7350   -2.6742 H   0  0  0  0  0  0  0  0  0  0  0  0
   -4.9495    0.6365   -2.2029 H   0  0  0  0  0  0  0  0  0  0  0  0
   -6.2621    1.2287   -1.1642 H   0  0  0  0  0  0  0  0  0  0  0  0
   -6.1043   -0.4938   -1.4872 H   0  0  0  0  0  0  0  0  0  0  0  0
   -4.8117   -0.0859    2.0607 H   0  0  0  0  0  0  0  0  0  0  0  0
   -6.0656   -0.8704    1.0938 H   0  0  0  0  0  0  0  0  0  0  0  0
   -6.1397    0.8697    1.3708 H   0  0  0  0  0  0  0  0  0  0  0  0
    2.9267    1.5409   -0.4831 H   0  0  0  0  0  0  0  0  0  0  0  0
    0.6109   -3.8932   -2.6812 H   0  0  0  0  0  0  0  0  0  0  0  0
   -1.0217   -4.0243   -2.0264 H   0  0  0  0  0  0  0  0  0  0  0  0
    3.6183   -0.5983    1.6124 H   0  0  0  0  0  0  0  0  0  0  0  0
    5.2110    1.9648    1.0656 H   0  0  0  0  0  0  0  0  0  0  0  0
    6.0527   -0.8658    0.2575 H   0  0  0  0  0  0  0  0  0  0  0  0
    5.0379    1.3438   -1.6326 H   0  0  0  0  0  0  0  0  0  0  0  0
    5.6020   -0.2561   -2.0783 H   0  0  0  0  0  0  0  0  0  0  0  0
    1.4072   -4.5307   -0.6305 H   0  0  0  0  0  0  0  0  0  0  0  0
    2.0451    0.9936    2.1100 H   0  0  0  0  0  0  0  0  0  0  0  0
   -2.9247   -5.0943    1.5783 H   0  0  0  0  0  0  0  0  0  0  0  0
   -3.9197   -3.8271    0.7803 H   0  0  0  0  0  0  0  0  0  0  0  0
   -3.8649   -3.9447    2.5510 H   0  0  0  0  0  0  0  0  0  0  0  0
    5.2495    0.9683    3.1063 H   0  0  0  0  0  0  0  0  0  0  0  0
    7.6344    0.7487    0.6648 H   0  0  0  0  0  0  0  0  0  0  0  0
  1 17  1  0  0  0  0
  1 28  1  0  0  0  0
  2 22  1  0  0  0  0
  2 32  1  0  0  0  0
  3 28  1  0  0  0  0
  3 34  1  0  0  0  0
  4 29  1  0  0  0  0
  4 71  1  0  0  0  0
  5 30  1  0  0  0  0
  5 72  1  0  0  0  0
  6 31  1  0  0  0  0
  6 76  1  0  0  0  0
  7 33  1  0  0  0  0
  7 77  1  0  0  0  0
  8 32  2  0  0  0  0
  9 11  1  0  0  0  0
  9 13  1  0  0  0  0
  9 17  1  0  0  0  0
  9 20  1  0  0  0  0
 10 12  1  0  0  0  0
 10 14  1  0  0  0  0
 10 15  1  0  0  0  0
 10 21  1  0  0  0  0
 11 12  1  0  0  0  0
 11 18  1  0  0  0  0
 11 36  1  0  0  0  0
 12 16  2  0  0  0  0
 13 14  1  0  0  0  0
 13 37  1  0  0  0  0
 13 38  1  0  0  0  0
 14 39  1  0  0  0  0
 14 40  1  0  0  0  0
 15 19  1  0  0  0  0
 15 41  1  0  0  0  0
 15 42  1  0  0  0  0
 16 19  1  0  0  0  0
 16 23  1  0  0  0  0
 17 24  1  0  0  0  0
 17 43  1  0  0  0  0
 18 22  1  0  0  0  0
 18 44  1  0  0  0  0
 18 45  1  0  0  0  0
 19 46  1  0  0  0  0
 19 47  1  0  0  0  0
 20 48  1  0  0  0  0
 20 49  1  0  0  0  0
 20 50  1  0  0  0  0
 21 51  1  0  0  0  0
 21 52  1  0  0  0  0
 21 53  1  0  0  0  0
 22 25  1  0  0  0  0
 22 54  1  0  0  0  0
 23 26  1  0  0  0  0
 23 27  1  0  0  0  0
 23 55  1  0  0  0  0
 24 25  2  0  0  0  0
 24 56  1  0  0  0  0
 25 29  1  0  0  0  0
 26 57  1  0  0  0  0
 26 58  1  0  0  0  0
 26 59  1  0  0  0  0
 27 60  1  0  0  0  0
 27 61  1  0  0  0  0
 27 62  1  0  0  0  0
 28 30  1  0  0  0  0
 28 63  1  0  0  0  0
 29 64  1  0  0  0  0
 29 65  1  0  0  0  0
 30 31  1  0  0  0  0
 30 66  1  0  0  0  0
 31 33  1  0  0  0  0
 31 67  1  0  0  0  0
 32 35  1  0  0  0  0
 33 34  1  0  0  0  0
 33 68  1  0  0  0  0
 34 69  1  0  0  0  0
 34 70  1  0  0  0  0
 35 73  1  0  0  0  0
 35 74  1  0  0  0  0
 35 75  1  0  0  0  0
M  END
> <PUBCHEM_COMPOUND_CID>
10206893

> <PUBCHEM_CONFORMER_RMSD>
1

> <PUBCHEM_CONFORMER_DIVERSEORDER>
1
13
17
18
6
11
23
21
14
8
9
7
3
19
15
2
12
4
22
10
20
16
5

> <PUBCHEM_MMFF94_PARTIAL_CHARGES>
31
1 -0.56
10 0.14
11 0.14
12 -0.28
16 -0.28
17 0.42
19 0.14
2 -0.43
22 0.42
23 0.14
24 -0.29
25 -0.28
28 0.56
29 0.42
3 -0.56
30 0.28
31 0.28
32 0.66
33 0.28
34 0.28
35 0.06
4 -0.68
5 -0.68
56 0.15
6 -0.68
7 -0.68
71 0.4
72 0.4
76 0.4
77 0.4
8 -0.57

> <PUBCHEM_EFFECTIVE_ROTOR_COUNT>
8.6

> <PUBCHEM_PHARMACOPHORE_FEATURES>
16
1 1 acceptor
1 3 acceptor
1 4 acceptor
1 4 donor
1 5 acceptor
1 5 donor
1 6 acceptor
1 6 donor
1 7 acceptor
1 7 donor
1 8 acceptor
3 23 26 27 hydrophobe
5 10 12 15 16 19 rings
6 3 28 30 31 33 34 rings
6 9 10 11 12 13 14 rings
7 9 11 17 18 22 24 25 rings

> <PUBCHEM_HEAVY_ATOM_COUNT>
35

> <PUBCHEM_ATOM_DEF_STEREO_COUNT>
9

> <PUBCHEM_ATOM_UDEF_STEREO_COUNT>
0

> <PUBCHEM_BOND_DEF_STEREO_COUNT>
0

> <PUBCHEM_BOND_UDEF_STEREO_COUNT>
0

> <PUBCHEM_ISOTOPIC_ATOM_COUNT>
0

> <PUBCHEM_COMPONENT_COUNT>
1

> <PUBCHEM_CACTVS_TAUTO_COUNT>
1

> <PUBCHEM_CONFORMER_ID>
009BBEAD00000001

> <PUBCHEM_MMFF94_ENERGY>
111.9088

> <PUBCHEM_FEATURE_SELFOVERLAP>
81.336

> <PUBCHEM_SHAPE_FINGERPRINT>
10032420 55 18268686378255085293
10074138 170 18334847342566143994
10906281 52 18265636354300235749
10930396 42 17910640441006851970
1100329 8 18261961863812702001
11387372 6 17677325001607193626
11421498 54 12895073990171315837
12128747 34 18198629839634643678
12156800 1 16157701026985958874
12160290 23 18191000452644634070
12597179 24 18339083683426918347
12608794 3 17840316841484701719
13140716 1 18193574474058636117
133893 2 17327138110853406486
13402501 40 18060416911217161816
140371 6 18336846233531511821
14068700 675 17825672419547562259
14114207 22 16155089639894343491
14400156 162 18120655730545864234
14787075 74 18273492364843869293
14844126 61 18336827623090247066
15230672 131 18339646621793657398
15775530 1 17910428045863124030
16114785 44 17987499572079294254
20511986 3 16877938364849356364
20764821 26 18049748470652744435
21033648 29 18059859527419920218
21304304 249 18334858337904077757
22182313 1 18126876904042343694
238918 7 18342748402848074511
3383291 50 18200863067513621570
35225 105 18267840887655502240
352729 6 18264229035271908189
392239 28 17989208122986654953
5080951 261 18044629088599973906
5171179 24 17908996408788306599
5265222 85 18341345431360632534
57527358 35 15266524845413630841
57527452 28 16226048885955464643
6442390 28 18271524204611961108
7226269 152 18335138713437570037
9981440 41 18341614780637415563

> <PUBCHEM_SHAPE_MULTIPOLES>
673.33
11.34
5.08
2.1
14.76
4.37
-0.34
-5.24
-3.45
-5.2
-0.75
0.56
0.77
1.82

> <PUBCHEM_SHAPE_SELFOVERLAP>
1413.686

> <PUBCHEM_SHAPE_VOLUME>
375.1

> <PUBCHEM_COORDINATE_TYPE>
2
5
10

$$$$
