REMARK  Name = 102031094
REMARK  4 active torsions:
REMARK  status: ('A' for Active; 'I' for Inactive)
REMARK    1  A    between atoms: C_7  and  O_27
REMARK    2  A    between atoms: C_8  and  O_29
REMARK    3  A    between atoms: C_9  and  C_22
REMARK    4  A    between atoms: C_22  and  O_25
REMARK                            x       y       z     vdW  Elec       q    Type
REMARK                         _______ _______ _______ _____ _____    ______ ____
ROOT
ATOM      1  O   UNL     1      -0.920   1.266  -1.089  0.00  0.00    -0.197 OA
ATOM      2  O   UNL     1      -0.365   2.595  -0.845  0.00  0.00    -0.221 OA
ATOM      3  O   UNL     1       0.585  -2.213  -1.269  0.00  0.00    -0.296 OA
ATOM      4  O   UNL     1       3.882  -0.505  -1.821  0.00  0.00    -0.296 OA
ATOM      5  C   UNL     1       1.060  -0.504   0.394  0.00  0.00    +0.065 C 
ATOM      6  C   UNL     1       0.025   0.475   1.035  0.00  0.00    +0.090 C 
ATOM      7  C   UNL     1      -1.297   0.691   0.181  0.00  0.00    +0.220 C 
ATOM      8  C   UNL     1       0.714   1.863   1.185  0.00  0.00    +0.143 C 
ATOM      9  C   UNL     1      -2.116  -0.593  -0.181  0.00  0.00    +0.079 C 
ATOM     10  C   UNL     1       2.216  -0.991   1.305  0.00  0.00    +0.015 C 
ATOM     11  C   UNL     1       1.891   0.189  -0.665  0.00  0.00    +0.067 C 
ATOM     12  C   UNL     1       0.926   2.427  -0.239  0.00  0.00    +0.152 C 
ATOM     13  C   UNL     1       0.360  -1.769  -0.141  0.00  0.00    +0.150 C 
ATOM     14  C   UNL     1      -1.984  -1.715   0.861  0.00  0.00    +0.015 C 
ATOM     15  C   UNL     1       3.325  -1.500   0.340  0.00  0.00    +0.058 C 
ATOM     16  C   UNL     1      -0.637  -2.457   0.801  0.00  0.00    +0.058 C 
ATOM     17  C   UNL     1       1.816   1.477  -1.031  0.00  0.00    +0.041 C 
ATOM     18  C   UNL     1       3.138  -0.595  -0.861  0.00  0.00    +0.150 C 
ATOM     19  C   UNL     1       1.567   3.818  -0.181  0.00  0.00    +0.035 C 
ATOM     20  C   UNL     1       4.714  -1.389   0.938  0.00  0.00    +0.008 C 
ATOM     21  C   UNL     1      -0.830  -3.919   0.393  0.00  0.00    +0.008 C 
ENDROOT
BRANCH   9  22
ATOM     22  C   UNL     1      -3.606  -0.311  -0.441  0.00  0.00    +0.093 C 
ATOM     23  C   UNL     1      -4.325  -1.599  -0.814  0.00  0.00    +0.029 C 
ATOM     24  C   UNL     1      -3.765   0.742  -1.530  0.00  0.00    +0.029 C 
BRANCH  22  25
ATOM     25  O   UNL     1      -4.178   0.179   0.767  0.00  0.00    -0.387 OA
ATOM     26  H   UNL     1      -4.080  -0.487   1.465  0.00  0.00    +0.210 HD
ENDBRANCH  22  25
ENDBRANCH   9  22
BRANCH   7  27
ATOM     27  O   UNL     1      -2.136   1.579   0.933  0.00  0.00    -0.361 OA
ATOM     28  H   UNL     1      -1.637   2.378   1.162  0.00  0.00    +0.213 HD
ENDBRANCH   7  27
BRANCH   8  29
ATOM     29  O   UNL     1      -0.063   2.759   1.974  0.00  0.00    -0.382 OA
ATOM     30  H   UNL     1      -0.183   2.386   2.861  0.00  0.00    +0.210 HD
ENDBRANCH   8  29
TORSDOF 4
