REMARK  Name = 102004432
REMARK  13 active torsions:
REMARK  status: ('A' for Active; 'I' for Inactive)
REMARK    1  A    between atoms: C_1  and  C_4
REMARK    2  A    between atoms: C_1  and  C_19
REMARK    3  A    between atoms: C_1  and  C_35
REMARK    4  A    between atoms: C_3  and  C_9
REMARK    5  A    between atoms: C_11  and  C_14
REMARK    6  A    between atoms: C_14  and  C_15
REMARK    7  A    between atoms: C_15  and  C_17
REMARK    8  A    between atoms: C_20  and  O_25
REMARK    9  A    between atoms: C_21  and  O_27
REMARK   10  A    between atoms: C_22  and  C_34
REMARK   11  A    between atoms: C_23  and  C_32
REMARK   12  A    between atoms: C_24  and  O_29
REMARK   13  A    between atoms: C_35  and  C_36
REMARK                            x       y       z     vdW  Elec       q    Type
REMARK                         _______ _______ _______ _____ _____    ______ ____
ROOT
ATOM      1  C   UNL     1      -0.618  -0.245  -0.553  0.00  0.00    +0.029 C 
ENDROOT
BRANCH   1   4
ATOM      2  O   UNL     1       3.381  -2.124   1.476  0.00  0.00    -0.296 OA
ATOM      3  C   UNL     1       1.660  -0.725   0.485  0.00  0.00    +0.058 C 
ATOM      4  C   UNL     1       0.133  -0.990   0.558  0.00  0.00    +0.011 C 
ATOM      5  C   UNL     1       0.054  -2.515   0.331  0.00  0.00    +0.008 C 
ATOM      6  C   UNL     1       2.228  -1.998   1.080  0.00  0.00    +0.150 C 
ATOM      7  C   UNL     1       1.210  -3.107   1.131  0.00  0.00    +0.065 C 
ATOM      8  C   UNL     1      -0.498  -0.625   1.915  0.00  0.00    +0.001 C 
BRANCH   3   9
ATOM      9  C   UNL     1       2.141   0.522   1.159  0.00  0.00    +0.007 C 
ATOM     10  C   UNL     1       2.587   1.758   0.394  0.00  0.00    +0.000 C 
ATOM     11  C   UNL     1       3.594   0.930   1.184  0.00  0.00    +0.001 C 
ATOM     12  C   UNL     1       2.639   1.643  -1.111  0.00  0.00    +0.000 C 
ATOM     13  C   UNL     1       2.195   3.136   0.863  0.00  0.00    +0.000 C 
BRANCH  11  14
ATOM     14  C   UNL     1       4.676   0.132   0.542  0.00  0.00    +0.008 C 
BRANCH  14  15
ATOM     15  C   UNL     1       5.945   0.957   0.325  0.00  0.00    +0.065 C 
BRANCH  15  17
ATOM     16  O   UNL     1       6.957  -1.032  -0.604  0.00  0.00    -0.296 OA
ATOM     17  C   UNL     1       7.075   0.151  -0.290  0.00  0.00    +0.151 C 
ATOM     18  C   UNL     1       8.374   0.885  -0.501  0.00  0.00    +0.072 C 
ENDBRANCH  15  17
ENDBRANCH  14  15
ENDBRANCH  11  14
ENDBRANCH   3   9
ENDBRANCH   1   4
BRANCH   1  19
ATOM     19  C   UNL     1      -2.058   0.008  -0.141  0.00  0.00    +0.045 A 
ATOM     20  C   UNL     1      -2.921  -1.067   0.076  0.00  0.00    +0.139 A 
ATOM     21  C   UNL     1      -2.518   1.315   0.021  0.00  0.00    +0.139 A 
ATOM     22  C   UNL     1      -4.243  -0.834   0.454  0.00  0.00    +0.109 A 
ATOM     23  C   UNL     1      -3.840   1.548   0.399  0.00  0.00    +0.109 A 
ATOM     24  C   UNL     1      -4.703   0.473   0.616  0.00  0.00    +0.146 A 
BRANCH  20  25
ATOM     25  O   UNL     1      -2.468  -2.344  -0.085  0.00  0.00    -0.506 OA
ATOM     26  H   UNL     1      -1.579  -2.497  -0.339  0.00  0.00    +0.292 HD
ENDBRANCH  20  25
BRANCH  21  27
ATOM     27  O   UNL     1      -1.672   2.364  -0.193  0.00  0.00    -0.506 OA
ATOM     28  H   UNL     1      -0.784   2.206  -0.447  0.00  0.00    +0.292 HD
ENDBRANCH  21  27
BRANCH  24  29
ATOM     29  O   UNL     1      -5.997   0.700   0.986  0.00  0.00    -0.505 OA
ATOM     30  H   UNL     1      -6.576  -0.022   1.132  0.00  0.00    +0.292 HD
ENDBRANCH  24  29
BRANCH  23  32
ATOM     31  O   UNL     1      -3.605   3.902   0.392  0.00  0.00    -0.283 OA
ATOM     32  C   UNL     1      -4.320   2.915   0.569  0.00  0.00    +0.240 C 
ENDBRANCH  23  32
BRANCH  22  34
ATOM     33  O   UNL     1      -6.359  -1.891   0.487  0.00  0.00    -0.283 OA
ATOM     34  C   UNL     1      -5.145  -1.958   0.680  0.00  0.00    +0.240 C 
ENDBRANCH  22  34
ENDBRANCH   1  19
BRANCH   1  35
ATOM     35  C   UNL     1      -0.489  -1.023  -1.883  0.00  0.00    +0.005 C 
BRANCH  35  36
ATOM     36  C   UNL     1      -0.736  -0.195  -3.163  0.00  0.00    +0.000 C 
ATOM     37  C   UNL     1      -2.139   0.413  -3.204  0.00  0.00    +0.000 C 
ATOM     38  C   UNL     1      -0.522  -1.078  -4.396  0.00  0.00    +0.000 C 
ENDBRANCH  35  36
ENDBRANCH   1  35
TORSDOF 13
