REMARK  Name = 102041154
REMARK  6 active torsions:
REMARK  status: ('A' for Active; 'I' for Inactive)
REMARK    1  A    between atoms: C_6  and  O_22
REMARK    2  A    between atoms: C_8  and  O_24
REMARK    3  A    between atoms: C_17  and  O_26
REMARK    4  A    between atoms: C_19  and  O_28
REMARK    5  A    between atoms: C_19  and  C_30
REMARK    6  A    between atoms: C_31  and  C_32
REMARK                            x       y       z     vdW  Elec       q    Type
REMARK                         _______ _______ _______ _____ _____    ______ ____
ROOT
ATOM      1  O   UNL     1      -2.418  -0.423  -1.320  0.00  0.00    -0.329 OA
ATOM      2  O   UNL     1      -0.295   0.165   2.185  0.00  0.00    -0.291 OA
ATOM      3  O   UNL     1      -2.023  -2.856  -0.339  0.00  0.00    -0.289 OA
ATOM      4  C   UNL     1      -1.125   1.010   0.067  0.00  0.00    +0.111 C 
ATOM      5  C   UNL     1      -0.172   0.215  -0.868  0.00  0.00    +0.072 C 
ATOM      6  C   UNL     1      -2.432   0.910  -0.759  0.00  0.00    +0.217 C 
ATOM      7  C   UNL     1      -1.069  -0.909  -1.383  0.00  0.00    +0.154 C 
ATOM      8  C   UNL     1      -3.757   1.119   0.025  0.00  0.00    +0.150 C 
ATOM      9  C   UNL     1      -1.266   0.371   1.455  0.00  0.00    +0.177 C 
ATOM     10  C   UNL     1      -0.640   2.450   0.298  0.00  0.00    +0.013 C 
ATOM     11  C   UNL     1       1.173  -0.253  -0.358  0.00  0.00    +0.048 C 
ATOM     12  C   UNL     1      -1.028  -2.148  -0.500  0.00  0.00    +0.197 C 
ATOM     13  C   UNL     1      -3.740   0.410   1.371  0.00  0.00    -0.013 C 
ATOM     14  C   UNL     1      -0.764  -1.321  -2.821  0.00  0.00    +0.038 C 
ATOM     15  C   UNL     1      -2.607   0.052   1.990  0.00  0.00    +0.031 C 
ATOM     16  C   UNL     1      -4.967   0.684  -0.832  0.00  0.00    +0.039 C 
ATOM     17  C   UNL     1       1.272  -1.611   0.181  0.00  0.00    +0.131 C 
ATOM     18  C   UNL     1       0.273  -2.517   0.148  0.00  0.00    +0.049 C 
ATOM     19  C   UNL     1       2.236   0.567  -0.459  0.00  0.00    +0.133 C 
ATOM     20  C   UNL     1      -5.055   0.150   2.062  0.00  0.00    +0.029 C 
ATOM     21  C   UNL     1       0.319  -3.911   0.710  0.00  0.00    +0.037 C 
ENDROOT
BRANCH   6  22
ATOM     22  O   UNL     1      -2.348   1.855  -1.841  0.00  0.00    -0.361 OA
ATOM     23  H   UNL     1      -1.518   1.718  -2.326  0.00  0.00    +0.213 HD
ENDBRANCH   6  22
BRANCH   8  24
ATOM     24  O   UNL     1      -3.899   2.523   0.287  0.00  0.00    -0.378 OA
ATOM     25  H   UNL     1      -3.152   2.828   0.825  0.00  0.00    +0.211 HD
ENDBRANCH   8  24
BRANCH  17  26
ATOM     26  O   UNL     1       2.492  -1.871   0.785  0.00  0.00    -0.506 OA
ATOM     27  H   UNL     1       3.162  -1.217   0.788  0.00  0.00    +0.292 HD
ENDBRANCH  17  26
BRANCH  19  28
ATOM     28  O   UNL     1       2.112   1.851  -0.943  0.00  0.00    -0.506 OA
ATOM     29  H   UNL     1       1.274   2.172  -1.212  0.00  0.00    +0.292 HD
ENDBRANCH  19  28
BRANCH  19  30
ATOM     30  C   UNL     1       3.567   0.155  -0.068  0.00  0.00    +0.036 C 
ATOM     31  C   UNL     1       4.668   0.920  -0.142  0.00  0.00    +0.003 C 
BRANCH  31  32
ATOM     32  C   UNL     1       5.977   0.455   0.266  0.00  0.00    -0.004 C 
ATOM     33  C   UNL     1       7.080   1.215   0.194  0.00  0.00    -0.026 C 
ATOM     34  C   UNL     1       8.436   0.747   0.611  0.00  0.00    +0.031 C 
ENDBRANCH  31  32
ENDBRANCH  19  30
TORSDOF 6
