REMARK  Name = 10203245
REMARK  12 active torsions:
REMARK  status: ('A' for Active; 'I' for Inactive)
REMARK    1  A    between atoms: C_1  and  N_6
REMARK    2  A    between atoms: C_1  and  N_18
REMARK    3  A    between atoms: C_2  and  N_5
REMARK    4  A    between atoms: N_6  and  C_8
REMARK    5  A    between atoms: C_8  and  C_11
REMARK    6  A    between atoms: N_18  and  C_20
REMARK    7  A    between atoms: C_20  and  C_21
REMARK    8  A    between atoms: C_21  and  S_22
REMARK    9  A    between atoms: S_22  and  C_23
REMARK   10  A    between atoms: C_23  and  C_26
REMARK   11  A    between atoms: C_25  and  C_29
REMARK   12  A    between atoms: C_29  and  N_30
REMARK                            x       y       z     vdW  Elec       q    Type
REMARK                         _______ _______ _______ _____ _____    ______ ____
ROOT
ATOM      1  C   UNL     1      -3.226   0.748  -0.394  0.00  0.00    +0.118 C 
ATOM      2  C   UNL     1      -4.479   0.814   0.107  0.00  0.00    +0.194 C 
ENDROOT
BRANCH   2   5
ATOM      3  O   UNL     1      -5.069  -1.368   0.358  0.00  0.00    -0.126 OA
ATOM      4  O   UNL     1      -6.442  -0.006  -0.696  0.00  0.00    -0.126 OA
ATOM      5  N   UNL     1      -5.390  -0.257  -0.089  0.00  0.00    +0.062 N 
ENDBRANCH   2   5
BRANCH   1   6
ATOM      6  N   UNL     1      -2.858  -0.399  -1.107  0.00  0.00    -0.317 N 
ATOM      7  H   UNL     1      -3.554  -1.090  -1.196  0.00  0.00    +0.148 HD
BRANCH   6   8
ATOM      8  C   UNL     1      -1.591  -0.702  -1.728  0.00  0.00    +0.115 C 
BRANCH   8  11
ATOM      9  O   UNL     1       1.708  -1.611   1.845  0.00  0.00    -0.435 OA
ATOM     10  O   UNL     1       1.493  -3.998   1.599  0.00  0.00    -0.435 OA
ATOM     11  C   UNL     1      -0.779  -1.616  -0.852  0.00  0.00    +0.001 C 
ATOM     12  C   UNL     1       0.815  -1.952   0.876  0.00  0.00    +0.176 C 
ATOM     13  C   UNL     1       0.092  -1.074   0.096  0.00  0.00    +0.038 C 
ATOM     14  C   UNL     1       0.692  -3.316   0.736  0.00  0.00    +0.176 C 
ATOM     15  C   UNL     1      -0.905  -3.009  -0.995  0.00  0.00    +0.001 C 
ATOM     16  C   UNL     1      -0.161  -3.876  -0.192  0.00  0.00    +0.040 C 
ATOM     17  C   UNL     1       2.133  -2.912   2.299  0.00  0.00    +0.429 C 
ENDBRANCH   8  11
ENDBRANCH   6   8
ENDBRANCH   1   6
BRANCH   1  18
ATOM     18  N   UNL     1      -2.299   1.777  -0.224  0.00  0.00    -0.319 N 
ATOM     19  H   UNL     1      -1.410   1.643  -0.627  0.00  0.00    +0.148 HD
BRANCH  18  20
ATOM     20  C   UNL     1      -2.510   3.019   0.482  0.00  0.00    +0.100 C 
BRANCH  20  21
ATOM     21  C   UNL     1      -1.189   3.668   0.873  0.00  0.00    +0.079 C 
BRANCH  21  22
ATOM     22  S   UNL     1      -0.211   2.624   1.997  0.00  0.00    -0.130 S 
BRANCH  22  23
ATOM     23  C   UNL     1       1.385   3.443   1.789  0.00  0.00    +0.122 C 
BRANCH  23  26
ATOM     24  O   UNL     1       2.878   1.917   0.627  0.00  0.00    -0.463 OA
ATOM     25  C   UNL     1       3.381   1.690  -0.615  0.00  0.00    +0.102 C 
ATOM     26  C   UNL     1       2.063   2.999   0.524  0.00  0.00    +0.133 C 
ATOM     27  C   UNL     1       2.896   2.616  -1.510  0.00  0.00    +0.034 C 
ATOM     28  C   UNL     1       2.040   3.466  -0.769  0.00  0.00    +0.037 C 
BRANCH  25  29
ATOM     29  C   UNL     1       4.301   0.551  -0.746  0.00  0.00    -0.011 C 
BRANCH  29  30
ATOM     30  N   UNL     1       3.595  -0.679  -1.069  0.00  0.00    +0.389 N 
ATOM     31  C   UNL     1       3.224  -0.708  -2.486  0.00  0.00    -0.100 C 
ATOM     32  C   UNL     1       4.412  -1.849  -0.736  0.00  0.00    -0.100 C 
ATOM     33  H   UNL     1       2.742  -0.708  -0.509  0.00  0.00    -0.079 HD
ENDBRANCH  29  30
ENDBRANCH  25  29
ENDBRANCH  23  26
ENDBRANCH  22  23
ENDBRANCH  21  22
ENDBRANCH  20  21
ENDBRANCH  18  20
ENDBRANCH   1  18
TORSDOF 12
