REMARK  Name = 102004571
REMARK  7 active torsions:
REMARK  status: ('A' for Active; 'I' for Inactive)
REMARK    1  A    between atoms: C_4  and  O_21
REMARK    2  A    between atoms: C_6  and  O_29
REMARK    3  A    between atoms: C_9  and  C_18
REMARK    4  A    between atoms: C_18  and  O_19
REMARK    5  A    between atoms: O_21  and  C_23
REMARK    6  A    between atoms: C_23  and  C_25
REMARK    7  A    between atoms: O_29  and  C_31
REMARK                            x       y       z     vdW  Elec       q    Type
REMARK                         _______ _______ _______ _____ _____    ______ ____
ROOT
ATOM      1  O   UNL     1       0.182  -3.481  -0.306  0.00  0.00    -0.444 OA
ATOM      2  O   UNL     1       0.446  -4.379  -2.412  0.00  0.00    -0.245 OA
ATOM      3  C   UNL     1       0.067  -1.181  -0.840  0.00  0.00    +0.117 C 
ATOM      4  C   UNL     1       0.586   0.277  -0.664  0.00  0.00    +0.221 C 
ATOM      5  C   UNL     1       0.476  -2.193   0.245  0.00  0.00    +0.198 C 
ATOM      6  C   UNL     1      -0.480   1.360  -0.294  0.00  0.00    +0.237 C 
ATOM      7  C   UNL     1       0.538  -1.988  -2.014  0.00  0.00    +0.061 C 
ATOM      8  C   UNL     1      -0.172  -1.939   1.572  0.00  0.00    +0.009 C 
ATOM      9  C   UNL     1      -1.634   0.906   0.583  0.00  0.00    +0.092 C 
ATOM     10  C   UNL     1       0.403  -3.425  -1.657  0.00  0.00    +0.338 C 
ATOM     11  C   UNL     1      -1.449  -2.111   1.968  0.00  0.00    -0.044 C 
ATOM     12  C   UNL     1      -1.907  -1.361   3.212  0.00  0.00    +0.026 C 
ATOM     13  C   UNL     1      -1.511   0.791   1.920  0.00  0.00    -0.020 C 
ATOM     14  C   UNL     1      -2.429   0.061   2.879  0.00  0.00    +0.030 C 
ATOM     15  C   UNL     1       1.010  -1.619  -3.207  0.00  0.00    +0.002 C 
ATOM     16  C   UNL     1      -2.523  -2.828   1.204  0.00  0.00    +0.026 C 
ENDROOT
BRANCH   9  18
ATOM     17  O   UNL     1      -2.944  -0.363  -0.930  0.00  0.00    -0.245 OA
ATOM     18  C   UNL     1      -2.888   0.505  -0.081  0.00  0.00    +0.341 C 
BRANCH  18  19
ATOM     19  O   UNL     1      -3.895   1.257   0.422  0.00  0.00    -0.441 OA
ATOM     20  C   UNL     1      -5.188   0.983  -0.128  0.00  0.00    +0.256 C 
ENDBRANCH  18  19
ENDBRANCH   9  18
BRANCH   4  21
ATOM     21  O   UNL     1       1.627   0.309   0.315  0.00  0.00    -0.446 OA
BRANCH  21  23
ATOM     22  O   UNL     1       2.665   2.037  -0.820  0.00  0.00    -0.247 OA
ATOM     23  C   UNL     1       2.599   1.241   0.106  0.00  0.00    +0.344 C 
BRANCH  23  25
ATOM     24  O   UNL     1       4.899   1.702   0.722  0.00  0.00    -0.345 OA
ATOM     25  C   UNL     1       3.633   1.198   1.171  0.00  0.00    +0.206 C 
ATOM     26  C   UNL     1       4.834   0.299   0.991  0.00  0.00    +0.151 C 
ATOM     27  C   UNL     1       3.260   1.647   2.543  0.00  0.00    +0.044 C 
ATOM     28  C   UNL     1       5.038  -0.567  -0.201  0.00  0.00    +0.035 C 
ENDBRANCH  23  25
ENDBRANCH  21  23
ENDBRANCH   4  21
BRANCH   6  29
ATOM     29  O   UNL     1      -0.973   1.915  -1.520  0.00  0.00    -0.444 OA
BRANCH  29  31
ATOM     30  O   UNL     1      -1.193   3.985  -0.513  0.00  0.00    -0.250 OA
ATOM     31  C   UNL     1      -1.288   3.238  -1.476  0.00  0.00    +0.318 C 
ATOM     32  C   UNL     1      -1.788   3.720  -2.789  0.00  0.00    +0.121 C 
ENDBRANCH  29  31
ENDBRANCH   6  29
TORSDOF 7
